# DDEC6 charges by PACMAN v1.1 (https://github.com/mtap-research/PACMAN-charge/)
data_UDURAQ_FSR_pacman
_symmetry_space_group_name_H-M   'P 1'
_cell_length_a   16.12100000
_cell_length_b   29.58900000
_cell_length_c   33.39800000
_cell_angle_alpha   90.00000000
_cell_angle_beta   90.00000000
_cell_angle_gamma   90.00000000
_symmetry_Int_Tables_number   1
_chemical_formula_structural   Sr5H96C115N7O28F9
_chemical_formula_sum   'Sr20 H384 C460 N28 O112 F36'
_cell_volume   15930.98857606
_cell_formula_units_Z   4
loop_
 _symmetry_equiv_pos_site_id
 _symmetry_equiv_pos_as_xyz
  1  'x, y, z'
loop_
 _atom_site_type_symbol
 _atom_site_label
 _atom_site_symmetry_multiplicity
 _atom_site_fract_x
 _atom_site_fract_y
 _atom_site_fract_z
 _atom_site_occupancy
 _atom_site_charge
Sr  Sr1  1  0.82326000  0.92746000  0.50982000  1.0 1.3742306659
Sr  Sr2  1  0.17674000  0.42746000  0.49018000  1.0 1.3742306659
Sr  Sr3  1  0.67674000  0.92746000  0.00982000  1.0 1.3742306659
Sr  Sr4  1  0.32326000  0.42746000  0.99018000  1.0 1.3742306659
Sr  Sr5  1  0.86748000  0.98256000  0.40576000  1.0 1.3015268275
Sr  Sr6  1  0.13252000  0.48256000  0.59424000  1.0 1.3015268275
Sr  Sr7  1  0.63252000  0.98256000  0.90576000  1.0 1.3015268275
Sr  Sr8  1  0.36748000  0.48256000  0.09424000  1.0 1.3015268275
Sr  Sr9  1  0.28333000  0.45558000  0.68593000  1.0 1.4338303634
Sr  Sr10  1  0.71667000  0.95558000  0.31407000  1.0 1.4338303634
Sr  Sr11  1  0.21667000  0.45558000  0.18593000  1.0 1.4338303634
Sr  Sr12  1  0.78333000  0.95558000  0.81407000  1.0 1.4338303634
Sr  Sr13  1  0.19582000  0.45875000  0.79973000  1.0 1.407311959
Sr  Sr14  1  0.80418000  0.95875000  0.20027000  1.0 1.407311959
Sr  Sr15  1  0.30418000  0.45875000  0.29973000  1.0 1.407311959
Sr  Sr16  1  0.69582000  0.95875000  0.70027000  1.0 1.407311959
Sr  Sr17  1  0.83774000  0.99004000  0.60991000  1.0 1.3933200964
Sr  Sr18  1  0.16226000  0.49004000  0.39009000  1.0 1.3933200964
Sr  Sr19  1  0.66226000  0.99004000  0.10991000  1.0 1.3933200964
Sr  Sr20  1  0.33774000  0.49004000  0.89009000  1.0 1.3933200964
H  H1  1  0.48272000  0.85835000  0.54469000  1.0 0.1203407332
H  H2  1  0.51728000  0.35835000  0.45531000  1.0 0.1203407332
H  H3  1  0.01728000  0.85835000  0.04469000  1.0 0.1203407332
H  H4  1  0.98272000  0.35835000  0.95531000  1.0 0.1203407332
H  H5  1  0.60575000  0.89839000  0.54482000  1.0 0.1203407332
H  H6  1  0.39425000  0.39839000  0.45518000  1.0 0.1203407332
H  H7  1  0.89425000  0.89839000  0.04482000  1.0 0.1203407332
H  H8  1  0.10575000  0.39839000  0.95518000  1.0 0.1203407332
H  H9  1  0.65472000  0.85406000  0.65671000  1.0 0.1203407332
H  H10  1  0.34528000  0.35406000  0.34329000  1.0 0.1203407332
H  H11  1  0.84528000  0.85406000  0.15671000  1.0 0.1203407332
H  H12  1  0.15472000  0.35406000  0.84329000  1.0 0.1203407332
H  H13  1  0.54006000  0.80738000  0.65379000  1.0 0.1203407332
H  H14  1  0.45994000  0.30738000  0.34621000  1.0 0.1203407332
H  H15  1  0.95994000  0.80738000  0.15379000  1.0 0.1203407332
H  H16  1  0.04006000  0.30738000  0.84621000  1.0 0.1203407332
H  H17  1  0.13380000  0.81191000  0.55077000  1.0 0.1203407332
H  H18  1  0.86620000  0.31191000  0.44923000  1.0 0.1102421364
H  H19  1  0.36620000  0.81191000  0.05077000  1.0 0.1203407332
H  H20  1  0.63380000  0.31191000  0.94923000  1.0 0.1203407332
H  H21  1  0.01817000  0.85865000  0.54819000  1.0 0.1102421364
H  H22  1  0.98183000  0.35865000  0.45181000  1.0 0.1102421364
H  H23  1  0.48183000  0.85865000  0.04819000  1.0 0.1102421364
H  H24  1  0.51817000  0.35865000  0.95181000  1.0 0.1102421364
H  H25  1  0.11011000  0.93016000  0.64120000  1.0 0.1102421364
H  H26  1  0.88989000  0.43016000  0.35880000  1.0 0.1102421364
H  H27  1  0.38989000  0.93016000  0.14120000  1.0 0.1102421364
H  H28  1  0.61011000  0.43016000  0.85880000  1.0 0.1102421364
H  H29  1  0.22031000  0.87780000  0.64674000  1.0 0.101107669
H  H30  1  0.77969000  0.37780000  0.35326000  1.0 0.101107669
H  H31  1  0.27969000  0.87780000  0.14674000  1.0 0.101107669
H  H32  1  0.72031000  0.37780000  0.85326000  1.0 0.101107669
H  H33  1  0.24929000  0.67437000  0.56567000  1.0 0.1102421364
H  H34  1  0.75071000  0.17437000  0.43433000  1.0 0.1102421364
H  H35  1  0.25071000  0.67437000  0.06567000  1.0 0.1102421364
H  H36  1  0.74929000  0.17437000  0.93433000  1.0 0.1102421364
H  H37  1  0.23290000  0.59641000  0.57897000  1.0 0.1102421364
H  H38  1  0.76710000  0.09641000  0.42103000  1.0 0.1102421364
H  H39  1  0.26710000  0.59641000  0.07897000  1.0 0.1102421364
H  H40  1  0.73290000  0.09641000  0.92103000  1.0 0.1102421364
H  H41  1  0.37887000  0.61380000  0.67657000  1.0 0.1102421364
H  H42  1  0.62113000  0.11380000  0.32343000  1.0 0.1102421364
H  H43  1  0.12113000  0.61380000  0.17657000  1.0 0.1102421364
H  H44  1  0.87887000  0.11380000  0.82343000  1.0 0.1102421364
H  H45  1  0.40127000  0.68553000  0.65972000  1.0 0.1203407332
H  H46  1  0.59873000  0.18553000  0.34028000  1.0 0.1203407332
H  H47  1  0.09873000  0.68553000  0.15972000  1.0 0.1203407332
H  H48  1  0.90127000  0.18553000  0.84028000  1.0 0.1203407332
H  H49  1  0.41074000  0.69595000  0.32726000  1.0 0.1203407332
H  H50  1  0.58926000  0.19595000  0.67274000  1.0 0.1203407332
H  H51  1  0.08926000  0.69595000  0.82726000  1.0 0.1203407332
H  H52  1  0.91074000  0.19595000  0.17274000  1.0 0.1203407332
H  H53  1  0.55538000  0.81170000  0.35124000  1.0 0.1203407332
H  H54  1  0.44462000  0.31170000  0.64876000  1.0 0.1203407332
H  H55  1  0.94462000  0.81170000  0.85124000  1.0 0.1203407332
H  H56  1  0.05538000  0.31170000  0.14876000  1.0 0.1203407332
H  H57  1  0.67731000  0.85278000  0.35225000  1.0 0.1203407332
H  H58  1  0.32269000  0.35278000  0.64775000  1.0 0.1203407332
H  H59  1  0.82269000  0.85278000  0.85225000  1.0 0.1203407332
H  H60  1  0.17731000  0.35278000  0.14775000  1.0 0.1203407332
H  H61  1  0.62711000  0.89168000  0.46620000  1.0 0.1203407332
H  H62  1  0.37289000  0.39168000  0.53380000  1.0 0.1203407332
H  H63  1  0.87289000  0.89168000  0.96620000  1.0 0.1203407332
H  H64  1  0.12711000  0.39168000  0.03380000  1.0 0.1203407332
H  H65  1  0.50165000  0.85170000  0.46360000  1.0 0.1102421364
H  H66  1  0.49835000  0.35170000  0.53640000  1.0 0.1102421364
H  H67  1  0.99835000  0.85170000  0.96360000  1.0 0.1102421364
H  H68  1  0.00165000  0.35170000  0.03640000  1.0 0.1102421364
H  H69  1  0.27785000  0.66687000  0.42648000  1.0 0.1203407332
H  H70  1  0.72215000  0.16687000  0.57352000  1.0 0.1203407332
H  H71  1  0.22215000  0.66687000  0.92648000  1.0 0.1203407332
H  H72  1  0.77785000  0.16687000  0.07352000  1.0 0.1203407332
H  H73  1  0.26975000  0.59217000  0.40692000  1.0 0.1102421364
H  H74  1  0.73025000  0.09217000  0.59308000  1.0 0.1102421364
H  H75  1  0.23025000  0.59217000  0.90692000  1.0 0.1102421364
H  H76  1  0.76975000  0.09217000  0.09308000  1.0 0.1102421364
H  H77  1  0.39322000  0.62237000  0.30510000  1.0 0.1203407332
H  H78  1  0.60678000  0.12237000  0.69490000  1.0 0.1203407332
H  H79  1  0.10678000  0.62237000  0.80510000  1.0 0.1203407332
H  H80  1  0.89322000  0.12237000  0.19490000  1.0 0.1203407332
H  H81  1  0.16449000  0.77628000  0.46061000  1.0 0.0821319909
H  H82  1  0.83551000  0.27628000  0.53939000  1.0 0.0821319909
H  H83  1  0.33551000  0.77628000  0.96061000  1.0 0.0821319909
H  H84  1  0.66449000  0.27628000  0.03939000  1.0 0.0821319909
H  H85  1  0.03950000  0.81272000  0.48155000  1.0 0.0888513572
H  H86  1  0.96050000  0.31272000  0.51845000  1.0 0.0888513572
H  H87  1  0.46050000  0.81272000  0.98155000  1.0 0.0888513572
H  H88  1  0.53950000  0.31272000  0.01845000  1.0 0.0888513572
H  H89  1  0.08783000  0.91785000  0.41086000  1.0 0.101107669
H  H90  1  0.91217000  0.41785000  0.58914000  1.0 0.101107669
H  H91  1  0.41217000  0.91785000  0.91086000  1.0 0.101107669
H  H92  1  0.58783000  0.41785000  0.08914000  1.0 0.101107669
H  H93  1  0.21371000  0.88545000  0.39045000  1.0 0.0691677324
H  H94  1  0.78629000  0.38545000  0.60955000  1.0 0.0691677324
H  H95  1  0.28629000  0.88545000  0.89045000  1.0 0.0691677324
H  H96  1  0.71371000  0.38545000  0.10955000  1.0 0.0691677324
H  H97  1  0.02676000  0.09009000  0.78989000  1.0 0.1203407332
H  H98  1  0.97324000  0.59009000  0.21011000  1.0 0.1203407332
H  H99  1  0.47324000  0.09009000  0.28989000  1.0 0.1203407332
H  H100  1  0.52676000  0.59009000  0.71011000  1.0 0.1203407332
H  H101  1  0.91051000  0.04597000  0.77874000  1.0 0.129938539
H  H102  1  0.08949000  0.54597000  0.22126000  1.0 0.129938539
H  H103  1  0.58949000  0.04597000  0.27874000  1.0 0.129938539
H  H104  1  0.41051000  0.54597000  0.72126000  1.0 0.129938539
H  H105  1  0.00500000  0.00135000  0.67453000  1.0 0.1203407332
H  H106  1  0.99500000  0.50135000  0.32547000  1.0 0.1203407332
H  H107  1  0.49500000  0.00135000  0.17453000  1.0 0.1203407332
H  H108  1  0.50500000  0.50135000  0.82547000  1.0 0.1203407332
H  H109  1  0.12960000  0.03920000  0.68719000  1.0 0.129938539
H  H110  1  0.87040000  0.53920000  0.31281000  1.0 0.129938539
H  H111  1  0.37040000  0.03920000  0.18719000  1.0 0.129938539
H  H112  1  0.62960000  0.53920000  0.81281000  1.0 0.129938539
H  H113  1  0.14163000  0.22686000  0.78695000  1.0 0.1102421364
H  H114  1  0.85837000  0.72686000  0.21305000  1.0 0.1102421364
H  H115  1  0.35837000  0.22686000  0.28695000  1.0 0.1102421364
H  H116  1  0.64163000  0.72686000  0.71305000  1.0 0.1102421364
H  H117  1  0.14731000  0.30646000  0.78450000  1.0 0.101107669
H  H118  1  0.85269000  0.80646000  0.21550000  1.0 0.101107669
H  H119  1  0.35269000  0.30646000  0.28450000  1.0 0.101107669
H  H120  1  0.64731000  0.80646000  0.71550000  1.0 0.101107669
H  H121  1  0.34671000  0.30203000  0.71144000  1.0 0.1102421364
H  H122  1  0.65329000  0.80203000  0.28856000  1.0 0.1102421364
H  H123  1  0.15329000  0.30203000  0.21144000  1.0 0.1102421364
H  H124  1  0.84671000  0.80203000  0.78856000  1.0 0.1102421364
H  H125  1  0.35033000  0.22326000  0.71668000  1.0 0.1102421364
H  H126  1  0.64967000  0.72326000  0.28332000  1.0 0.1102421364
H  H127  1  0.14967000  0.22326000  0.21668000  1.0 0.1102421364
H  H128  1  0.85033000  0.72326000  0.78332000  1.0 0.1102421364
H  H129  1  0.56650000  0.04292000  0.73718000  1.0 0.1203407332
H  H130  1  0.43350000  0.54292000  0.26282000  1.0 0.1203407332
H  H131  1  0.93350000  0.04292000  0.23718000  1.0 0.1203407332
H  H132  1  0.06650000  0.54292000  0.76282000  1.0 0.1203407332
H  H133  1  0.34362000  0.03581000  0.82621000  1.0 0.101107669
H  H134  1  0.65638000  0.53581000  0.17379000  1.0 0.101107669
H  H135  1  0.15638000  0.03581000  0.32621000  1.0 0.101107669
H  H136  1  0.84362000  0.53581000  0.67379000  1.0 0.101107669
H  H137  1  0.45008000  0.08746000  0.72847000  1.0 0.101107669
H  H138  1  0.54992000  0.58746000  0.27153000  1.0 0.101107669
H  H139  1  0.04992000  0.08746000  0.22847000  1.0 0.101107669
H  H140  1  0.95008000  0.58746000  0.77153000  1.0 0.101107669
H  H141  1  0.46913000  0.99469000  0.84065000  1.0 0.101107669
H  H142  1  0.53087000  0.49469000  0.15935000  1.0 0.1102421364
H  H143  1  0.03087000  0.99469000  0.34065000  1.0 0.101107669
H  H144  1  0.96913000  0.49469000  0.65935000  1.0 0.101107669
H  H145  1  0.85075000  0.09326000  0.53254000  1.0 0.1520877062
H  H146  1  0.14925000  0.59326000  0.46746000  1.0 0.1520877062
H  H147  1  0.64925000  0.09326000  0.03254000  1.0 0.1520877062
H  H148  1  0.35075000  0.59326000  0.96746000  1.0 0.1520877062
H  H149  1  0.80809000  0.09426000  0.48928000  1.0 0.1520877062
H  H150  1  0.19191000  0.59426000  0.51072000  1.0 0.1520877062
H  H151  1  0.69191000  0.09426000  0.98928000  1.0 0.1520877062
H  H152  1  0.30809000  0.59426000  0.01072000  1.0 0.1520877062
H  H153  1  0.90645000  0.08838000  0.49311000  1.0 0.1805245558
H  H154  1  0.09355000  0.58838000  0.50689000  1.0 0.1805245558
H  H155  1  0.59355000  0.08838000  0.99311000  1.0 0.1805245558
H  H156  1  0.40645000  0.58838000  0.00689000  1.0 0.1805245558
H  H157  1  0.00238000  0.06670000  0.60515000  1.0 0.129938539
H  H158  1  0.99762000  0.56670000  0.39485000  1.0 0.129938539
H  H159  1  0.49762000  0.06670000  0.10515000  1.0 0.129938539
H  H160  1  0.50238000  0.56670000  0.89485000  1.0 0.129938539
H  H161  1  0.09983000  0.12876000  0.65625000  1.0 0.1203407332
H  H162  1  0.90017000  0.62876000  0.34375000  1.0 0.1203407332
H  H163  1  0.40017000  0.12876000  0.15625000  1.0 0.1203407332
H  H164  1  0.59983000  0.62876000  0.84375000  1.0 0.1203407332
H  H165  1  0.07302000  0.17098000  0.62924000  1.0 0.0821319909
H  H166  1  0.92698000  0.67098000  0.37076000  1.0 0.0821319909
H  H167  1  0.42698000  0.17098000  0.12924000  1.0 0.0821319909
H  H168  1  0.57302000  0.67098000  0.87076000  1.0 0.0821319909
H  H169  1  0.09925000  0.12437000  0.60849000  1.0 0.1203407332
H  H170  1  0.90075000  0.62437000  0.39151000  1.0 0.1203407332
H  H171  1  0.40075000  0.12437000  0.10849000  1.0 0.1203407332
H  H172  1  0.59925000  0.62437000  0.89151000  1.0 0.1203407332
H  H173  1  0.87804000  0.14592000  0.64476000  1.0 0.1102421364
H  H174  1  0.12196000  0.64592000  0.35524000  1.0 0.1102421364
H  H175  1  0.62196000  0.14592000  0.14476000  1.0 0.1102421364
H  H176  1  0.37804000  0.64592000  0.85524000  1.0 0.1102421364
H  H177  1  0.95060000  0.18179000  0.65246000  1.0 0.0691677324
H  H178  1  0.04940000  0.68179000  0.34754000  1.0 0.0691677324
H  H179  1  0.54940000  0.18179000  0.15246000  1.0 0.0691677324
H  H180  1  0.45060000  0.68179000  0.84754000  1.0 0.0691677324
H  H181  1  0.93677000  0.14094000  0.68314000  1.0 0.1203407332
H  H182  1  0.06323000  0.64094000  0.31686000  1.0 0.1203407332
H  H183  1  0.56323000  0.14094000  0.18314000  1.0 0.1203407332
H  H184  1  0.43677000  0.64094000  0.81686000  1.0 0.1203407332
H  H185  1  0.95480000  0.41241000  0.82058000  1.0 0.101107669
H  H186  1  0.04520000  0.91241000  0.17942000  1.0 0.101107669
H  H187  1  0.54520000  0.41241000  0.32058000  1.0 0.101107669
H  H188  1  0.45480000  0.91241000  0.67942000  1.0 0.101107669
H  H189  1  0.81415000  0.48835000  0.83630000  1.0 0.129938539
H  H190  1  0.18585000  0.98835000  0.16370000  1.0 0.129938539
H  H191  1  0.68585000  0.48835000  0.33630000  1.0 0.129938539
H  H192  1  0.31415000  0.98835000  0.66370000  1.0 0.129938539
H  H193  1  0.82897000  0.47115000  0.88116000  1.0 0.1395786533
H  H194  1  0.17103000  0.97115000  0.11884000  1.0 0.1395786533
H  H195  1  0.67103000  0.47115000  0.38116000  1.0 0.1395786533
H  H196  1  0.32897000  0.97115000  0.61884000  1.0 0.1395786533
H  H197  1  0.82463000  0.43551000  0.84518000  1.0 0.129938539
H  H198  1  0.17537000  0.93551000  0.15482000  1.0 0.129938539
H  H199  1  0.67537000  0.43551000  0.34518000  1.0 0.129938539
H  H200  1  0.32463000  0.93551000  0.65482000  1.0 0.129938539
H  H201  1  0.02188000  0.48830000  0.87967000  1.0 0.1395786533
H  H202  1  0.97812000  0.98830000  0.12033000  1.0 0.1395786533
H  H203  1  0.47812000  0.48830000  0.37967000  1.0 0.1395786533
H  H204  1  0.52188000  0.98830000  0.62033000  1.0 0.1395786533
H  H205  1  0.93569000  0.51037000  0.89320000  1.0 0.129938539
H  H206  1  0.06431000  0.01037000  0.10680000  1.0 0.129938539
H  H207  1  0.56431000  0.51037000  0.39320000  1.0 0.129938539
H  H208  1  0.43569000  0.01037000  0.60680000  1.0 0.129938539
H  H209  1  0.98145000  0.52803000  0.85366000  1.0 0.1395786533
H  H210  1  0.01855000  0.02803000  0.14634000  1.0 0.1395786533
H  H211  1  0.51855000  0.52803000  0.35366000  1.0 0.1395786533
H  H212  1  0.48145000  0.02803000  0.64634000  1.0 0.1395786533
H  H213  1  0.79695000  0.81814000  0.47339000  1.0 0.101107669
H  H214  1  0.20305000  0.31814000  0.52661000  1.0 0.101107669
H  H215  1  0.70305000  0.81814000  0.97339000  1.0 0.101107669
H  H216  1  0.29695000  0.31814000  0.02661000  1.0 0.101107669
H  H217  1  0.66183000  0.73749000  0.46851000  1.0 0.129938539
H  H218  1  0.33817000  0.23749000  0.53149000  1.0 0.129938539
H  H219  1  0.83817000  0.73749000  0.96851000  1.0 0.129938539
H  H220  1  0.16183000  0.23749000  0.03149000  1.0 0.129938539
H  H221  1  0.74761000  0.71434000  0.48119000  1.0 0.1102421364
H  H222  1  0.25239000  0.21434000  0.51881000  1.0 0.1102421364
H  H223  1  0.75239000  0.71434000  0.98119000  1.0 0.1102421364
H  H224  1  0.24761000  0.21434000  0.01881000  1.0 0.1102421364
H  H225  1  0.74664000  0.75319000  0.44786000  1.0 0.1203407332
H  H226  1  0.25336000  0.25319000  0.55214000  1.0 0.1203407332
H  H227  1  0.75336000  0.75319000  0.94786000  1.0 0.1203407332
H  H228  1  0.24664000  0.25319000  0.05214000  1.0 0.1203407332
H  H229  1  0.71197000  0.79637000  0.55658000  1.0 0.1395786533
H  H230  1  0.28803000  0.29637000  0.44342000  1.0 0.1395786533
H  H231  1  0.78803000  0.79637000  0.05658000  1.0 0.1395786533
H  H232  1  0.21197000  0.29637000  0.94342000  1.0 0.1395786533
H  H233  1  0.72228000  0.74273000  0.55296000  1.0 0.129938539
H  H234  1  0.27772000  0.24273000  0.44704000  1.0 0.129938539
H  H235  1  0.77772000  0.74273000  0.05296000  1.0 0.129938539
H  H236  1  0.22228000  0.24273000  0.94704000  1.0 0.129938539
H  H237  1  0.63830000  0.76645000  0.53844000  1.0 0.1203407332
H  H238  1  0.36170000  0.26645000  0.46156000  1.0 0.1203407332
H  H239  1  0.86170000  0.76645000  0.03844000  1.0 0.1203407332
H  H240  1  0.13830000  0.26645000  0.96156000  1.0 0.1203407332
H  H241  1  0.66116000  0.00252000  0.45918000  1.0 0.1102421364
H  H242  1  0.33884000  0.50252000  0.54082000  1.0 0.1102421364
H  H243  1  0.83884000  0.00252000  0.95918000  1.0 0.1102421364
H  H244  1  0.16116000  0.50252000  0.04082000  1.0 0.1102421364
H  H245  1  0.64937000  0.08744000  0.50156000  1.0 0.129938539
H  H246  1  0.35063000  0.58744000  0.49844000  1.0 0.129938539
H  H247  1  0.85063000  0.08744000  0.00156000  1.0 0.129938539
H  H248  1  0.14937000  0.58744000  0.99844000  1.0 0.129938539
H  H249  1  0.55049000  0.08666000  0.50570000  1.0 0.129938539
H  H250  1  0.44951000  0.58666000  0.49430000  1.0 0.129938539
H  H251  1  0.94951000  0.08666000  0.00570000  1.0 0.129938539
H  H252  1  0.05049000  0.58666000  0.99430000  1.0 0.129938539
H  H253  1  0.59323000  0.07268000  0.46427000  1.0 0.129938539
H  H254  1  0.40677000  0.57268000  0.53573000  1.0 0.129938539
H  H255  1  0.90677000  0.07268000  0.96427000  1.0 0.129938539
H  H256  1  0.09323000  0.57268000  0.03573000  1.0 0.129938539
H  H257  1  0.58761000  0.98146000  0.54770000  1.0 0.1520877062
H  H258  1  0.41239000  0.48146000  0.45230000  1.0 0.1520877062
H  H259  1  0.91239000  0.98146000  0.04770000  1.0 0.1520877062
H  H260  1  0.08761000  0.48146000  0.95230000  1.0 0.1520877062
H  H261  1  0.52226000  0.02208000  0.55007000  1.0 0.1203407332
H  H262  1  0.47774000  0.52208000  0.44993000  1.0 0.1203407332
H  H263  1  0.97774000  0.02208000  0.05007000  1.0 0.1203407332
H  H264  1  0.02226000  0.52208000  0.94993000  1.0 0.1203407332
H  H265  1  0.61601000  0.02979000  0.56428000  1.0 0.1395786533
H  H266  1  0.38399000  0.52979000  0.43572000  1.0 0.1395786533
H  H267  1  0.88399000  0.02979000  0.06428000  1.0 0.1395786533
H  H268  1  0.11601000  0.52979000  0.93572000  1.0 0.1395786533
H  H269  1  0.62349000  0.07600000  0.84019000  1.0 0.0691677324
H  H270  1  0.37651000  0.57600000  0.15981000  1.0 0.0691677324
H  H271  1  0.87651000  0.07600000  0.34019000  1.0 0.0691677324
H  H272  1  0.12349000  0.57600000  0.65981000  1.0 0.0691677324
H  H273  1  0.63177000  0.14213000  0.80598000  1.0 0.129938539
H  H274  1  0.36823000  0.64213000  0.19402000  1.0 0.129938539
H  H275  1  0.86823000  0.14213000  0.30598000  1.0 0.129938539
H  H276  1  0.13177000  0.64213000  0.69402000  1.0 0.129938539
H  H277  1  0.59911000  0.18660000  0.82824000  1.0 0.1395786533
H  H278  1  0.40089000  0.68660000  0.17176000  1.0 0.1395786533
H  H279  1  0.90089000  0.18660000  0.32824000  1.0 0.1395786533
H  H280  1  0.09911000  0.68660000  0.67176000  1.0 0.1395786533
H  H281  1  0.53681000  0.15711000  0.80161000  1.0 0.1203407332
H  H282  1  0.46319000  0.65711000  0.19839000  1.0 0.1203407332
H  H283  1  0.96319000  0.15711000  0.30161000  1.0 0.1203407332
H  H284  1  0.03681000  0.65711000  0.69839000  1.0 0.1203407332
H  H285  1  0.47672000  0.12395000  0.89263000  1.0 0.129938539
H  H286  1  0.52328000  0.62395000  0.10737000  1.0 0.129938539
H  H287  1  0.02328000  0.12395000  0.39263000  1.0 0.129938539
H  H288  1  0.97672000  0.62395000  0.60737000  1.0 0.129938539
H  H289  1  0.47873000  0.17209000  0.87080000  1.0 0.1203407332
H  H290  1  0.52127000  0.67209000  0.12920000  1.0 0.1203407332
H  H291  1  0.02127000  0.17209000  0.37080000  1.0 0.1203407332
H  H292  1  0.97873000  0.67209000  0.62920000  1.0 0.1203407332
H  H293  1  0.54650000  0.16015000  0.90418000  1.0 0.129938539
H  H294  1  0.45350000  0.66015000  0.09582000  1.0 0.129938539
H  H295  1  0.95350000  0.16015000  0.40418000  1.0 0.129938539
H  H296  1  0.04650000  0.66015000  0.59582000  1.0 0.129938539
H  H297  1  0.15641000  0.80450000  0.45616000  1.0 0.0888513572
H  H298  1  0.84359000  0.30450000  0.54384000  1.0 0.0888513572
H  H299  1  0.34359000  0.80450000  0.95616000  1.0 0.0888513572
H  H300  1  0.65641000  0.30450000  0.04384000  1.0 0.0888513572
H  H301  1  0.03267000  0.84839000  0.46879000  1.0 0.101107669
H  H302  1  0.96733000  0.34839000  0.53121000  1.0 0.101107669
H  H303  1  0.46733000  0.84839000  0.96879000  1.0 0.101107669
H  H304  1  0.53267000  0.34839000  0.03121000  1.0 0.101107669
H  H305  1  0.11784000  0.93408000  0.38177000  1.0 0.0821319909
H  H306  1  0.88216000  0.43408000  0.61823000  1.0 0.0821319909
H  H307  1  0.38216000  0.93408000  0.88177000  1.0 0.0821319909
H  H308  1  0.61784000  0.43408000  0.11823000  1.0 0.0821319909
H  H309  1  0.23721000  0.89203000  0.37075000  1.0 0.0821319909
H  H310  1  0.76279000  0.39203000  0.62925000  1.0 0.0821319909
H  H311  1  0.26279000  0.89203000  0.87075000  1.0 0.0821319909
H  H312  1  0.73721000  0.39203000  0.12925000  1.0 0.0821319909
H  H313  1  0.51253000  0.99079000  0.73666000  1.0 0.101107669
H  H314  1  0.48747000  0.49079000  0.26334000  1.0 0.101107669
H  H315  1  0.98747000  0.99079000  0.23666000  1.0 0.101107669
H  H316  1  0.01253000  0.49079000  0.76334000  1.0 0.101107669
H  H317  1  0.39667000  0.03385000  0.72161000  1.0 0.101107669
H  H318  1  0.60333000  0.53385000  0.27839000  1.0 0.101107669
H  H319  1  0.10333000  0.03385000  0.22161000  1.0 0.101107669
H  H320  1  0.89667000  0.53385000  0.77839000  1.0 0.101107669
H  H321  1  0.44094000  0.11002000  0.81888000  1.0 0.0888513572
H  H322  1  0.55906000  0.61002000  0.18112000  1.0 0.0888513572
H  H323  1  0.05906000  0.11002000  0.31888000  1.0 0.0888513572
H  H324  1  0.94094000  0.61002000  0.68112000  1.0 0.0888513572
H  H325  1  0.55715000  0.06792000  0.83189000  1.0 0.0516645366
H  H326  1  0.44285000  0.56792000  0.16811000  1.0 0.0516645366
H  H327  1  0.94285000  0.06792000  0.33189000  1.0 0.0516645366
H  H328  1  0.05715000  0.56792000  0.66811000  1.0 0.0516645366
H  H329  1  0.86313000  0.07683000  0.67312000  1.0 0.1203407332
H  H330  1  0.13687000  0.57683000  0.32688000  1.0 0.1203407332
H  H331  1  0.63687000  0.07683000  0.17312000  1.0 0.1203407332
H  H332  1  0.36313000  0.57683000  0.82688000  1.0 0.1203407332
H  H333  1  0.84927000  0.18356000  0.68765000  1.0 0.101107669
H  H334  1  0.15073000  0.68356000  0.31235000  1.0 0.101107669
H  H335  1  0.65073000  0.18356000  0.18765000  1.0 0.101107669
H  H336  1  0.34927000  0.68356000  0.81235000  1.0 0.101107669
H  H337  1  0.93687000  0.17220000  0.70782000  1.0 0.0821319909
H  H338  1  0.06313000  0.67220000  0.29218000  1.0 0.0821319909
H  H339  1  0.56313000  0.17220000  0.20782000  1.0 0.0821319909
H  H340  1  0.43687000  0.67220000  0.79218000  1.0 0.0821319909
H  H341  1  0.85915000  0.13958000  0.71513000  1.0 0.101107669
H  H342  1  0.14085000  0.63958000  0.28487000  1.0 0.101107669
H  H343  1  0.64085000  0.13958000  0.21513000  1.0 0.101107669
H  H344  1  0.35915000  0.63958000  0.78487000  1.0 0.101107669
H  H345  1  0.00884000  0.15114000  0.63191000  1.0 0.1102421364
H  H346  1  0.99116000  0.65114000  0.36809000  1.0 0.1102421364
H  H347  1  0.49116000  0.15114000  0.13191000  1.0 0.1102421364
H  H348  1  0.50884000  0.65114000  0.86809000  1.0 0.1102421364
H  H349  1  0.93917000  0.18962000  0.63343000  1.0 0.0691677324
H  H350  1  0.06083000  0.68962000  0.36657000  1.0 0.0691677324
H  H351  1  0.56083000  0.18962000  0.13343000  1.0 0.0691677324
H  H352  1  0.43917000  0.68962000  0.86657000  1.0 0.0691677324
H  H353  1  0.92712000  0.14658000  0.60501000  1.0 0.0691677324
H  H354  1  0.07288000  0.64658000  0.39499000  1.0 0.0691677324
H  H355  1  0.57288000  0.14658000  0.10501000  1.0 0.0691677324
H  H356  1  0.42712000  0.64658000  0.89499000  1.0 0.0691677324
H  H357  1  0.48033000  0.42960000  0.61724000  1.0 0.101107669
H  H358  1  0.51967000  0.92960000  0.38276000  1.0 0.101107669
H  H359  1  0.01967000  0.42960000  0.11724000  1.0 0.101107669
H  H360  1  0.98033000  0.92960000  0.88276000  1.0 0.101107669
H  H361  1  0.65497000  0.46402000  0.61376000  1.0 0.129938539
H  H362  1  0.34503000  0.96402000  0.38624000  1.0 0.129938539
H  H363  1  0.84503000  0.46402000  0.11376000  1.0 0.129938539
H  H364  1  0.15497000  0.96402000  0.88624000  1.0 0.129938539
H  H365  1  0.62762000  0.50955000  0.59152000  1.0 0.129938539
H  H366  1  0.37238000  0.00955000  0.40848000  1.0 0.129938539
H  H367  1  0.87238000  0.50955000  0.09152000  1.0 0.129938539
H  H368  1  0.12762000  0.00955000  0.90848000  1.0 0.129938539
H  H369  1  0.59370000  0.46179000  0.57611000  1.0 0.129938539
H  H370  1  0.40630000  0.96179000  0.42389000  1.0 0.129938539
H  H371  1  0.90630000  0.46179000  0.07611000  1.0 0.129938539
H  H372  1  0.09370000  0.96179000  0.92389000  1.0 0.129938539
H  H373  1  0.51182000  0.54635000  0.63229000  1.0 0.129938539
H  H374  1  0.48818000  0.04635000  0.36771000  1.0 0.129938539
H  H375  1  0.98818000  0.54635000  0.13229000  1.0 0.129938539
H  H376  1  0.01182000  0.04635000  0.86771000  1.0 0.129938539
H  H377  1  0.60117000  0.53332000  0.64970000  1.0 0.129938539
H  H378  1  0.39883000  0.03332000  0.35030000  1.0 0.129938539
H  H379  1  0.89883000  0.53332000  0.14970000  1.0 0.129938539
H  H380  1  0.10117000  0.03332000  0.85030000  1.0 0.129938539
H  H381  1  0.51907000  0.51846000  0.67319000  1.0 0.129938539
H  H382  1  0.48093000  0.01846000  0.32681000  1.0 0.129938539
H  H383  1  0.98093000  0.51846000  0.17319000  1.0 0.129938539
H  H384  1  0.01907000  0.01846000  0.82681000  1.0 0.129938539
C  C1  1  0.40740000  0.75900000  0.60510000  1.0 0.2378871028
C  C2  1  0.59260000  0.25900000  0.39490000  1.0 0.2378871028
C  C3  1  0.09260000  0.75900000  0.10510000  1.0 0.2378871028
C  C4  1  0.90740000  0.25900000  0.89490000  1.0 0.2378871028
C  C5  1  0.41680000  0.80590000  0.60050000  1.0 -0.1877320318
C  C6  1  0.58320000  0.30590000  0.39950000  1.0 -0.1877320318
C  C7  1  0.08320000  0.80590000  0.10050000  1.0 -0.1877320318
C  C8  1  0.91680000  0.30590000  0.89950000  1.0 -0.1877320318
C  C9  1  0.34310000  0.82990000  0.59890000  1.0 0.228534304
C  C10  1  0.65690000  0.32990000  0.40110000  1.0 0.228534304
C  C11  1  0.15690000  0.82990000  0.09890000  1.0 0.228534304
C  C12  1  0.84310000  0.32990000  0.90110000  1.0 0.228534304
C  C13  1  0.26400000  0.81080000  0.60000000  1.0 -0.168274122
C  C14  1  0.73600000  0.31080000  0.40000000  1.0 -0.168274122
C  C15  1  0.23600000  0.81080000  0.10000000  1.0 -0.168274122
C  C16  1  0.76400000  0.31080000  0.90000000  1.0 -0.168274122
C  C17  1  0.26180000  0.76490000  0.60380000  1.0 0.2378871028
C  C18  1  0.73820000  0.26490000  0.39620000  1.0 0.2378871028
C  C19  1  0.23820000  0.76490000  0.10380000  1.0 0.2378871028
C  C20  1  0.76180000  0.26490000  0.89620000  1.0 0.2378871028
C  C21  1  0.51840000  0.85690000  0.56730000  1.0 -0.1497224159
C  C22  1  0.48160000  0.35690000  0.43270000  1.0 -0.1497224159
C  C23  1  0.98160000  0.85690000  0.06730000  1.0 -0.1497224159
C  C24  1  0.01840000  0.35690000  0.93270000  1.0 -0.1497224159
C  C25  1  0.59030000  0.88140000  0.56770000  1.0 -0.0933934173
C  C26  1  0.40970000  0.38140000  0.43230000  1.0 -0.0933934173
C  C27  1  0.90970000  0.88140000  0.06770000  1.0 -0.0933934173
C  C28  1  0.09030000  0.38140000  0.93230000  1.0 -0.0933934173
C  C29  1  0.64120000  0.88160000  0.60150000  1.0 -0.0383354155
C  C30  1  0.35880000  0.38160000  0.39850000  1.0 -0.0383354155
C  C31  1  0.85880000  0.88160000  0.10150000  1.0 -0.0383354155
C  C32  1  0.14120000  0.38160000  0.89850000  1.0 -0.0383354155
C  C33  1  0.62050000  0.85430000  0.63360000  1.0 -0.100770965
C  C34  1  0.37950000  0.35430000  0.36640000  1.0 -0.100770965
C  C35  1  0.87950000  0.85430000  0.13360000  1.0 -0.100770965
C  C36  1  0.12050000  0.35430000  0.86640000  1.0 -0.100770965
C  C37  1  0.55140000  0.82760000  0.63240000  1.0 -0.1497224159
C  C38  1  0.44860000  0.32760000  0.36760000  1.0 -0.1497224159
C  C39  1  0.94860000  0.82760000  0.13240000  1.0 -0.1497224159
C  C40  1  0.05140000  0.32760000  0.86760000  1.0 -0.1497224159
C  C41  1  0.71380000  0.91240000  0.60400000  1.0 0.6097193414
C  C42  1  0.28620000  0.41240000  0.39600000  1.0 0.6097193414
C  C43  1  0.78620000  0.91240000  0.10400000  1.0 0.6097193414
C  C44  1  0.21380000  0.41240000  0.89600000  1.0 0.6097193414
C  C45  1  0.18830000  0.84060000  0.59850000  1.0 0.1102421364
C  C46  1  0.81170000  0.34060000  0.40150000  1.0 0.1102421364
C  C47  1  0.31170000  0.84060000  0.09850000  1.0 0.1102421364
C  C48  1  0.68830000  0.34060000  0.90150000  1.0 0.101107669
C  C49  1  0.12850000  0.83570000  0.56970000  1.0 -0.1497224159
C  C50  1  0.87150000  0.33570000  0.43030000  1.0 -0.1497224159
C  C51  1  0.37150000  0.83570000  0.06970000  1.0 -0.1497224159
C  C52  1  0.62850000  0.33570000  0.93030000  1.0 -0.1497224159
C  C53  1  0.06050000  0.86410000  0.56740000  1.0 -0.1074666581
C  C54  1  0.93950000  0.36410000  0.43260000  1.0 -0.1074666581
C  C55  1  0.43950000  0.86410000  0.06740000  1.0 -0.1074666581
C  C56  1  0.56050000  0.36410000  0.93260000  1.0 -0.1074666581
C  C57  1  0.05500000  0.90040000  0.59320000  1.0 -0.010388945
C  C58  1  0.94500000  0.40040000  0.40680000  1.0 -0.010388945
C  C59  1  0.44500000  0.90040000  0.09320000  1.0 -0.010388945
C  C60  1  0.55500000  0.40040000  0.90680000  1.0 -0.010388945
C  C61  1  0.11420000  0.90570000  0.62280000  1.0 -0.100770965
C  C62  1  0.88580000  0.40570000  0.37720000  1.0 -0.100770965
C  C63  1  0.38580000  0.90570000  0.12280000  1.0 -0.100770965
C  C64  1  0.61420000  0.40570000  0.87720000  1.0 -0.100770965
C  C65  1  0.18080000  0.87480000  0.62580000  1.0 -0.168274122
C  C66  1  0.81920000  0.37480000  0.37420000  1.0 -0.168274122
C  C67  1  0.31920000  0.87480000  0.12580000  1.0 -0.168274122
C  C68  1  0.68080000  0.37480000  0.87420000  1.0 -0.168274122
C  C69  1  0.98450000  0.93410000  0.59080000  1.0 0.5838417837
C  C70  1  0.01550000  0.43410000  0.40920000  1.0 0.5838417837
C  C71  1  0.51550000  0.93410000  0.09080000  1.0 0.5838417837
C  C72  1  0.48450000  0.43410000  0.90920000  1.0 0.5838417837
C  C73  1  0.32500000  0.68750000  0.61210000  1.0 0.101107669
C  C74  1  0.67500000  0.18750000  0.38790000  1.0 0.101107669
C  C75  1  0.17500000  0.68750000  0.11210000  1.0 0.101107669
C  C76  1  0.82500000  0.18750000  0.88790000  1.0 0.101107669
C  C77  1  0.27710000  0.66120000  0.58780000  1.0 -0.1577079456
C  C78  1  0.72290000  0.16120000  0.41220000  1.0 -0.1577079456
C  C79  1  0.22290000  0.66120000  0.08780000  1.0 -0.1577079456
C  C80  1  0.77710000  0.16120000  0.91220000  1.0 -0.1577079456
C  C81  1  0.26840000  0.61410000  0.59540000  1.0 -0.100770965
C  C82  1  0.73160000  0.11410000  0.40460000  1.0 -0.100770965
C  C83  1  0.23160000  0.61410000  0.09540000  1.0 -0.100770965
C  C84  1  0.76840000  0.11410000  0.90460000  1.0 -0.100770965
C  C85  1  0.31020000  0.59450000  0.62560000  1.0 -0.0604888105
C  C86  1  0.68980000  0.09450000  0.37440000  1.0 -0.0604888105
C  C87  1  0.18980000  0.59450000  0.12560000  1.0 -0.0604888105
C  C88  1  0.81020000  0.09450000  0.87440000  1.0 -0.0604888105
C  C89  1  0.35590000  0.62530000  0.65240000  1.0 -0.100770965
C  C90  1  0.64410000  0.12530000  0.34760000  1.0 -0.100770965
C  C91  1  0.14410000  0.62530000  0.15240000  1.0 -0.100770965
C  C92  1  0.85590000  0.12530000  0.84760000  1.0 -0.100770965
C  C93  1  0.36530000  0.66760000  0.64370000  1.0 -0.1323724842
C  C94  1  0.63470000  0.16760000  0.35630000  1.0 -0.1323724842
C  C95  1  0.13470000  0.66760000  0.14370000  1.0 -0.1323724842
C  C96  1  0.86530000  0.16760000  0.85630000  1.0 -0.1323724842
C  C97  1  0.29240000  0.55010000  0.64070000  1.0 0.5600230077
C  C98  1  0.70760000  0.05010000  0.35930000  1.0 0.5600230077
C  C99  1  0.20760000  0.55010000  0.14070000  1.0 0.5600230077
C  C100  1  0.79240000  0.05010000  0.85930000  1.0 0.5600230077
C  C101  1  0.33150000  0.73670000  0.60580000  1.0 -0.1877320318
C  C102  1  0.66850000  0.23670000  0.39420000  1.0 -0.1877320318
C  C103  1  0.16850000  0.73670000  0.10580000  1.0 -0.1877320318
C  C104  1  0.83150000  0.23670000  0.89420000  1.0 -0.1877320318
C  C105  1  0.49750000  0.82990000  0.59990000  1.0 0.101107669
C  C106  1  0.50250000  0.32990000  0.40010000  1.0 0.101107669
C  C107  1  0.00250000  0.82990000  0.09990000  1.0 0.101107669
C  C108  1  0.99750000  0.32990000  0.90010000  1.0 0.101107669
C  C109  1  0.37960000  0.67510000  0.34280000  1.0 -0.1497224159
C  C110  1  0.62040000  0.17510000  0.65720000  1.0 -0.1497224159
C  C111  1  0.12040000  0.67510000  0.84280000  1.0 -0.1497224159
C  C112  1  0.87960000  0.17510000  0.15720000  1.0 -0.1497224159
C  C113  1  0.31890000  0.55190000  0.33910000  1.0 0.5535576323
C  C114  1  0.68110000  0.05190000  0.66090000  1.0 0.5535576323
C  C115  1  0.18110000  0.55190000  0.83910000  1.0 0.5535576323
C  C116  1  0.81890000  0.05190000  0.16090000  1.0 0.5535576323
C  C117  1  0.51430000  0.82780000  0.40610000  1.0 0.101107669
C  C118  1  0.48570000  0.32780000  0.59390000  1.0 0.101107669
C  C119  1  0.98570000  0.82780000  0.90610000  1.0 0.101107669
C  C120  1  0.01430000  0.32780000  0.09390000  1.0 0.101107669
C  C121  1  0.56880000  0.82860000  0.37450000  1.0 -0.1497224159
C  C122  1  0.43120000  0.32860000  0.62550000  1.0 -0.1497224159
C  C123  1  0.93120000  0.82860000  0.87450000  1.0 -0.1497224159
C  C124  1  0.06880000  0.32860000  0.12550000  1.0 -0.1497224159
C  C125  1  0.64170000  0.85270000  0.37490000  1.0 -0.1074666581
C  C126  1  0.35830000  0.35270000  0.62510000  1.0 -0.1074666581
C  C127  1  0.85830000  0.85270000  0.87490000  1.0 -0.1074666581
C  C128  1  0.14170000  0.35270000  0.12510000  1.0 -0.1074666581
C  C129  1  0.66240000  0.87680000  0.40920000  1.0 -0.0383354155
C  C130  1  0.33760000  0.37680000  0.59080000  1.0 -0.0383354155
C  C131  1  0.83760000  0.87680000  0.90920000  1.0 -0.0383354155
C  C132  1  0.16240000  0.37680000  0.09080000  1.0 -0.0383354155
C  C133  1  0.61160000  0.87600000  0.44250000  1.0 -0.1323724842
C  C134  1  0.38840000  0.37600000  0.55750000  1.0 -0.1323724842
C  C135  1  0.88840000  0.87600000  0.94250000  1.0 -0.1323724842
C  C136  1  0.11160000  0.37600000  0.05750000  1.0 -0.1323724842
C  C137  1  0.53730000  0.85190000  0.44100000  1.0 -0.168274122
C  C138  1  0.46270000  0.35190000  0.55900000  1.0 -0.168274122
C  C139  1  0.96270000  0.85190000  0.94100000  1.0 -0.168274122
C  C140  1  0.03730000  0.35190000  0.05900000  1.0 -0.168274122
C  C141  1  0.74180000  0.90540000  0.40920000  1.0 0.5910019108
C  C142  1  0.25820000  0.40540000  0.59080000  1.0 0.5910019108
C  C143  1  0.75820000  0.90540000  0.90920000  1.0 0.5910019108
C  C144  1  0.24180000  0.40540000  0.09080000  1.0 0.5910019108
C  C145  1  0.34900000  0.73790000  0.39060000  1.0 -0.1323724842
C  C146  1  0.65100000  0.23790000  0.60940000  1.0 -0.1323724842
C  C147  1  0.15100000  0.73790000  0.89060000  1.0 -0.1323724842
C  C148  1  0.84900000  0.23790000  0.10940000  1.0 -0.1323724842
C  C149  1  0.42420000  0.76000000  0.39380000  1.0 0.2084979377
C  C150  1  0.57580000  0.26000000  0.60620000  1.0 0.2084979377
C  C151  1  0.07580000  0.76000000  0.89380000  1.0 0.2084979377
C  C152  1  0.92420000  0.26000000  0.10620000  1.0 0.2084979377
C  C153  1  0.43260000  0.80500000  0.40360000  1.0 -0.1406068227
C  C154  1  0.56740000  0.30500000  0.59640000  1.0 -0.1406068227
C  C155  1  0.06740000  0.80500000  0.90360000  1.0 -0.1406068227
C  C156  1  0.93260000  0.30500000  0.09640000  1.0 -0.1406068227
C  C157  1  0.35900000  0.82700000  0.41180000  1.0 0.101107669
C  C158  1  0.64100000  0.32700000  0.58820000  1.0 0.101107669
C  C159  1  0.14100000  0.82700000  0.91180000  1.0 0.1102421364
C  C160  1  0.85900000  0.32700000  0.08820000  1.0 0.1102421364
C  C161  1  0.28100000  0.76330000  0.39950000  1.0 0.0578450041
C  C162  1  0.71900000  0.26330000  0.60050000  1.0 0.0578450041
C  C163  1  0.21900000  0.76330000  0.89950000  1.0 0.0578450041
C  C164  1  0.78100000  0.26330000  0.10050000  1.0 0.0578450041
C  C165  1  0.28030000  0.80820000  0.41020000  1.0 -0.0818395996
C  C166  1  0.71970000  0.30820000  0.58980000  1.0 -0.0818395996
C  C167  1  0.21970000  0.80820000  0.91020000  1.0 -0.0818395996
C  C168  1  0.78030000  0.30820000  0.08980000  1.0 -0.0818395996
C  C169  1  0.34230000  0.68910000  0.37870000  1.0 0.1102421364
C  C170  1  0.65770000  0.18910000  0.62130000  1.0 0.1102421364
C  C171  1  0.15770000  0.68910000  0.87870000  1.0 0.1102421364
C  C172  1  0.84230000  0.18910000  0.12130000  1.0 0.1102421364
C  C173  1  0.30220000  0.65780000  0.40190000  1.0 -0.168274122
C  C174  1  0.69780000  0.15780000  0.59810000  1.0 -0.168274122
C  C175  1  0.19780000  0.65780000  0.90190000  1.0 -0.168274122
C  C176  1  0.80220000  0.15780000  0.09810000  1.0 -0.168274122
C  C177  1  0.29660000  0.61350000  0.39000000  1.0 -0.1577079456
C  C178  1  0.70340000  0.11350000  0.61000000  1.0 -0.1577079456
C  C179  1  0.20340000  0.61350000  0.89000000  1.0 -0.1577079456
C  C180  1  0.79660000  0.11350000  0.11000000  1.0 -0.1577079456
C  C181  1  0.32970000  0.59940000  0.35370000  1.0 -0.0383354155
C  C182  1  0.67030000  0.09940000  0.64630000  1.0 -0.0383354155
C  C183  1  0.17030000  0.59940000  0.85370000  1.0 -0.0383354155
C  C184  1  0.82970000  0.09940000  0.14630000  1.0 -0.0383354155
C  C185  1  0.37080000  0.63120000  0.33020000  1.0 -0.1074666581
C  C186  1  0.62920000  0.13120000  0.66980000  1.0 -0.1074666581
C  C187  1  0.12920000  0.63120000  0.83020000  1.0 -0.1161033517
C  C188  1  0.87080000  0.13120000  0.16980000  1.0 -0.1074666581
C  C189  1  0.20360000  0.83000000  0.42330000  1.0 0.0310124188
C  C190  1  0.79640000  0.33000000  0.57670000  1.0 0.0310124188
C  C191  1  0.29640000  0.83000000  0.92330000  1.0 0.0310124188
C  C192  1  0.70360000  0.33000000  0.07670000  1.0 0.0310124188
C  C193  1  0.15040000  0.80560000  0.45130000  1.0 -0.0522096067
C  C194  1  0.84960000  0.30560000  0.54870000  1.0 -0.0522096067
C  C195  1  0.34960000  0.80560000  0.95130000  1.0 -0.0522096067
C  C196  1  0.65040000  0.30560000  0.04870000  1.0 -0.0522096067
C  C197  1  0.07650000  0.82770000  0.46390000  1.0 -0.1074666581
C  C198  1  0.92350000  0.32770000  0.53610000  1.0 -0.100770965
C  C199  1  0.42350000  0.82770000  0.96390000  1.0 -0.1074666581
C  C200  1  0.57650000  0.32770000  0.03610000  1.0 -0.1074666581
C  C201  1  0.05790000  0.87120000  0.45050000  1.0 -0.0678513003
C  C202  1  0.94210000  0.37120000  0.54950000  1.0 -0.0678513003
C  C203  1  0.44210000  0.87120000  0.95050000  1.0 -0.0678513003
C  C204  1  0.55790000  0.37120000  0.04950000  1.0 -0.0678513003
C  C205  1  0.10500000  0.89010000  0.42250000  1.0 -0.0160259898
C  C206  1  0.89500000  0.39010000  0.57750000  1.0 -0.0160259898
C  C207  1  0.39500000  0.89010000  0.92250000  1.0 -0.0160259898
C  C208  1  0.60500000  0.39010000  0.07750000  1.0 -0.0160259898
C  C209  1  0.18000000  0.87010000  0.40940000  1.0 0.0045669672
C  C210  1  0.82000000  0.37010000  0.59060000  1.0 0.0045669672
C  C211  1  0.32000000  0.87010000  0.90940000  1.0 0.0045669672
C  C212  1  0.68000000  0.37010000  0.09060000  1.0 0.0045669672
C  C213  1  0.97580000  0.89330000  0.46630000  1.0 0.309604747
C  C214  1  0.02420000  0.39330000  0.53370000  1.0 0.309604747
C  C215  1  0.52420000  0.89330000  0.96630000  1.0 0.309604747
C  C216  1  0.47580000  0.39330000  0.03370000  1.0 0.309604747
C  C217  1  0.16760000  0.09530000  0.74790000  1.0 -0.168274122
C  C218  1  0.83240000  0.59530000  0.25210000  1.0 -0.168274122
C  C219  1  0.33240000  0.09530000  0.24790000  1.0 -0.168274122
C  C220  1  0.66760000  0.59530000  0.75210000  1.0 -0.168274122
C  C221  1  0.17160000  0.14170000  0.74680000  1.0 0.1607950408
C  C222  1  0.82840000  0.64170000  0.25320000  1.0 0.1607950408
C  C223  1  0.32840000  0.14170000  0.24680000  1.0 0.1607950408
C  C224  1  0.67160000  0.64170000  0.75320000  1.0 0.1657103577
C  C225  1  0.24330000  0.16720000  0.75420000  1.0 -0.1497224159
C  C226  1  0.75670000  0.66720000  0.24580000  1.0 -0.1497224159
C  C227  1  0.25670000  0.16720000  0.25420000  1.0 -0.1497224159
C  C228  1  0.74330000  0.66720000  0.74580000  1.0 -0.1497224159
C  C229  1  0.31380000  0.14130000  0.76240000  1.0 0.228534304
C  C230  1  0.68620000  0.64130000  0.23760000  1.0 0.228534304
C  C231  1  0.18620000  0.14130000  0.26240000  1.0 0.228534304
C  C232  1  0.81380000  0.64130000  0.73760000  1.0 0.228534304
C  C233  1  0.31490000  0.09370000  0.76510000  1.0 -0.2042629591
C  C234  1  0.68510000  0.59370000  0.23490000  1.0 -0.2042629591
C  C235  1  0.18510000  0.09370000  0.26510000  1.0 -0.2042629591
C  C236  1  0.81490000  0.59370000  0.73490000  1.0 -0.2042629591
C  C237  1  0.09050000  0.07010000  0.73930000  1.0 0.1102421364
C  C238  1  0.90950000  0.57010000  0.26070000  1.0 0.1102421364
C  C239  1  0.40950000  0.07010000  0.23930000  1.0 0.1102421364
C  C240  1  0.59050000  0.57010000  0.76070000  1.0 0.1102421364
C  C241  1  0.02370000  0.07140000  0.76680000  1.0 -0.168274122
C  C242  1  0.97630000  0.57140000  0.23320000  1.0 -0.168274122
C  C243  1  0.47630000  0.07140000  0.26680000  1.0 -0.168274122
C  C244  1  0.52370000  0.57140000  0.73320000  1.0 -0.168274122
C  C245  1  0.95460000  0.04560000  0.75990000  1.0 -0.100770965
C  C246  1  0.04540000  0.54560000  0.24010000  1.0 -0.100770965
C  C247  1  0.54540000  0.04560000  0.25990000  1.0 -0.100770965
C  C248  1  0.45460000  0.54560000  0.74010000  1.0 -0.100770965
C  C249  1  0.94780000  0.01900000  0.72600000  1.0 -0.0383354155
C  C250  1  0.05220000  0.51900000  0.27400000  1.0 -0.0383354155
C  C251  1  0.55220000  0.01900000  0.22600000  1.0 -0.0383354155
C  C252  1  0.44780000  0.51900000  0.77400000  1.0 -0.0383354155
C  C253  1  0.01130000  0.01830000  0.69850000  1.0 -0.1161033517
C  C254  1  0.98870000  0.51830000  0.30150000  1.0 -0.1161033517
C  C255  1  0.48870000  0.01830000  0.19850000  1.0 -0.1161033517
C  C256  1  0.51130000  0.51830000  0.80150000  1.0 -0.1161033517
C  C257  1  0.08430000  0.04190000  0.70520000  1.0 -0.1782370045
C  C258  1  0.91570000  0.54190000  0.29480000  1.0 -0.1782370045
C  C259  1  0.41570000  0.04190000  0.20520000  1.0 -0.1782370045
C  C260  1  0.58430000  0.54190000  0.79480000  1.0 -0.1782370045
C  C261  1  0.86870000  0.99300000  0.71840000  1.0 0.6097193414
C  C262  1  0.13130000  0.49300000  0.28160000  1.0 0.6097193414
C  C263  1  0.63130000  0.99300000  0.21840000  1.0 0.6097193414
C  C264  1  0.36870000  0.49300000  0.78160000  1.0 0.6097193414
C  C265  1  0.24470000  0.21620000  0.75180000  1.0 0.1102421364
C  C266  1  0.75530000  0.71620000  0.24820000  1.0 0.1102421364
C  C267  1  0.25530000  0.21620000  0.25180000  1.0 0.1102421364
C  C268  1  0.74470000  0.71620000  0.74820000  1.0 0.1102421364
C  C269  1  0.18400000  0.24160000  0.77210000  1.0 -0.168274122
C  C270  1  0.81600000  0.74160000  0.22790000  1.0 -0.168274122
C  C271  1  0.31600000  0.24160000  0.27210000  1.0 -0.168274122
C  C272  1  0.68400000  0.74160000  0.72790000  1.0 -0.168274122
C  C273  1  0.18700000  0.28920000  0.77010000  1.0 -0.1074666581
C  C274  1  0.81300000  0.78920000  0.22990000  1.0 -0.1074666581
C  C275  1  0.31300000  0.28920000  0.27010000  1.0 -0.1074666581
C  C276  1  0.68700000  0.78920000  0.72990000  1.0 -0.1074666581
C  C277  1  0.24580000  0.31090000  0.74790000  1.0 -0.0285005777
C  C278  1  0.75420000  0.81090000  0.25210000  1.0 -0.0285005777
C  C279  1  0.25420000  0.31090000  0.24790000  1.0 -0.0285005777
C  C280  1  0.74580000  0.81090000  0.75210000  1.0 -0.0285005777
C  C281  1  0.30660000  0.28660000  0.72710000  1.0 -0.100770965
C  C282  1  0.69340000  0.78660000  0.27290000  1.0 -0.100770965
C  C283  1  0.19340000  0.28660000  0.22710000  1.0 -0.100770965
C  C284  1  0.80660000  0.78660000  0.77290000  1.0 -0.100770965
C  C285  1  0.30760000  0.23980000  0.72970000  1.0 -0.168274122
C  C286  1  0.69240000  0.73980000  0.27030000  1.0 -0.168274122
C  C287  1  0.19240000  0.23980000  0.22970000  1.0 -0.168274122
C  C288  1  0.80760000  0.73980000  0.77030000  1.0 -0.168274122
C  C289  1  0.24500000  0.36180000  0.74530000  1.0 0.6041005084
C  C290  1  0.75500000  0.86180000  0.25470000  1.0 0.6041005084
C  C291  1  0.25500000  0.36180000  0.24530000  1.0 0.6041005084
C  C292  1  0.74500000  0.86180000  0.75470000  1.0 0.6041005084
C  C293  1  0.39150000  0.06800000  0.77420000  1.0 0.0691677324
C  C294  1  0.60850000  0.56800000  0.22580000  1.0 0.0691677324
C  C295  1  0.10850000  0.06800000  0.27420000  1.0 0.0691677324
C  C296  1  0.89150000  0.56800000  0.72580000  1.0 0.0691677324
C  C297  1  0.52400000  0.04240000  0.75690000  1.0 -0.0383354155
C  C298  1  0.47600000  0.54240000  0.24310000  1.0 -0.0285005777
C  C299  1  0.97600000  0.04240000  0.25690000  1.0 -0.0383354155
C  C300  1  0.02400000  0.54240000  0.74310000  1.0 -0.0383354155
C  C301  1  0.39110000  0.03830000  0.80950000  1.0 -0.1577079456
C  C302  1  0.60890000  0.53830000  0.19050000  1.0 -0.1577079456
C  C303  1  0.10890000  0.03830000  0.30950000  1.0 -0.1497224159
C  C304  1  0.89110000  0.53830000  0.69050000  1.0 -0.1497224159
C  C305  1  0.45240000  0.06830000  0.75130000  1.0 -0.0522096067
C  C306  1  0.54760000  0.56830000  0.24870000  1.0 -0.0522096067
C  C307  1  0.04760000  0.06830000  0.25130000  1.0 -0.0522096067
C  C308  1  0.95240000  0.56830000  0.74870000  1.0 -0.0522096067
C  C309  1  0.46500000  0.01320000  0.81750000  1.0 -0.1323724842
C  C310  1  0.53500000  0.51320000  0.18250000  1.0 -0.1323724842
C  C311  1  0.03500000  0.01320000  0.31750000  1.0 -0.1323724842
C  C312  1  0.96500000  0.51320000  0.68250000  1.0 -0.1323724842
C  C313  1  0.53360000  0.01680000  0.78950000  1.0 -0.010388945
C  C314  1  0.46640000  0.51680000  0.21050000  1.0 -0.010388945
C  C315  1  0.96640000  0.01680000  0.28950000  1.0 -0.010388945
C  C316  1  0.03360000  0.51680000  0.71050000  1.0 -0.010388945
C  C317  1  0.61230000  0.99120000  0.79790000  1.0 0.5535576323
C  C318  1  0.38770000  0.49120000  0.20210000  1.0 0.5535576323
C  C319  1  0.88770000  0.99120000  0.29790000  1.0 0.5535576323
C  C320  1  0.11230000  0.49120000  0.70210000  1.0 0.5535576323
C  C321  1  0.24150000  0.07330000  0.75710000  1.0 0.2084979377
C  C322  1  0.75850000  0.57330000  0.24290000  1.0 0.2084979377
C  C323  1  0.25850000  0.07330000  0.25710000  1.0 0.2084979377
C  C324  1  0.74150000  0.57330000  0.74290000  1.0 0.2084979377
C  C325  1  0.84310000  0.03350000  0.50670000  1.0 0.6931497285
C  C326  1  0.15690000  0.53350000  0.49330000  1.0 0.6931497285
C  C327  1  0.65690000  0.03350000  0.00670000  1.0 0.6931497285
C  C328  1  0.34310000  0.53350000  0.99330000  1.0 0.6931497285
C  C329  1  0.85280000  0.08100000  0.50530000  1.0 -0.650989066
C  C330  1  0.14720000  0.58100000  0.49470000  1.0 -0.650989066
C  C331  1  0.64720000  0.08100000  0.00530000  1.0 -0.650989066
C  C332  1  0.35280000  0.58100000  0.99470000  1.0 -0.650989066
C  C333  1  0.96270000  0.08450000  0.61900000  1.0 -0.0383354155
C  C334  1  0.03730000  0.58450000  0.38100000  1.0 -0.0383354155
C  C335  1  0.53730000  0.08450000  0.11900000  1.0 -0.0383354155
C  C336  1  0.46270000  0.58450000  0.88100000  1.0 -0.0383354155
C  C337  1  0.07140000  0.13800000  0.63160000  1.0 -0.3605574167
C  C338  1  0.92860000  0.63800000  0.36840000  1.0 -0.3605574167
C  C339  1  0.42860000  0.13800000  0.13160000  1.0 -0.3605574167
C  C340  1  0.57140000  0.63800000  0.86840000  1.0 -0.3605574167
C  C341  1  0.93500000  0.15000000  0.65490000  1.0 0.0310124188
C  C342  1  0.06500000  0.65000000  0.34510000  1.0 0.0310124188
C  C343  1  0.56500000  0.15000000  0.15490000  1.0 0.0310124188
C  C344  1  0.43500000  0.65000000  0.84510000  1.0 0.0310124188
C  C345  1  0.97690000  0.44050000  0.82940000  1.0 0.1908055337
C  C346  1  0.02310000  0.94050000  0.17060000  1.0 0.1908055337
C  C347  1  0.52310000  0.44050000  0.32940000  1.0 0.1908055337
C  C348  1  0.47690000  0.94050000  0.67060000  1.0 0.1908055337
C  C349  1  0.84260000  0.46590000  0.85290000  1.0 -0.3106216788
C  C350  1  0.15740000  0.96590000  0.14710000  1.0 -0.3106216788
C  C351  1  0.65740000  0.46590000  0.35290000  1.0 -0.3106216788
C  C352  1  0.34260000  0.96590000  0.64710000  1.0 -0.3106216788
C  C353  1  0.96960000  0.50140000  0.87020000  1.0 -0.3505716867
C  C354  1  0.03040000  0.00140000  0.12980000  1.0 -0.3505716867
C  C355  1  0.53040000  0.50140000  0.37020000  1.0 -0.3505716867
C  C356  1  0.46960000  0.00140000  0.62980000  1.0 -0.3505716867
C  C357  1  0.76840000  0.81420000  0.49800000  1.0 0.228534304
C  C358  1  0.23160000  0.31420000  0.50200000  1.0 0.228534304
C  C359  1  0.73160000  0.81420000  0.99800000  1.0 0.228534304
C  C360  1  0.26840000  0.31420000  0.00200000  1.0 0.228534304
C  C361  1  0.72100000  0.74260000  0.47280000  1.0 -0.3014967723
C  C362  1  0.27900000  0.24260000  0.52720000  1.0 -0.3014967723
C  C363  1  0.77900000  0.74260000  0.97280000  1.0 -0.3014967723
C  C364  1  0.22100000  0.24260000  0.02720000  1.0 -0.3014967723
C  C365  1  0.69900000  0.76970000  0.54040000  1.0 -0.3276287376
C  C366  1  0.30100000  0.26970000  0.45960000  1.0 -0.3276287376
C  C367  1  0.80100000  0.76970000  0.04040000  1.0 -0.3276287376
C  C368  1  0.19900000  0.26970000  0.95960000  1.0 -0.3276287376
C  C369  1  0.64520000  0.99570000  0.48590000  1.0 0.2722101228
C  C370  1  0.35480000  0.49570000  0.51410000  1.0 0.2722101228
C  C371  1  0.85480000  0.99570000  0.98590000  1.0 0.2722101228
C  C372  1  0.14520000  0.49570000  0.01410000  1.0 0.2722101228
C  C373  1  0.59900000  0.07180000  0.49350000  1.0 -0.3200003509
C  C374  1  0.40100000  0.57180000  0.50650000  1.0 -0.3200003509
C  C375  1  0.90100000  0.07180000  0.99350000  1.0 -0.3200003509
C  C376  1  0.09900000  0.57180000  0.00650000  1.0 -0.3200003509
C  C377  1  0.58030000  0.01420000  0.54490000  1.0 -0.3436608336
C  C378  1  0.41970000  0.51420000  0.45510000  1.0 -0.3436608336
C  C379  1  0.91970000  0.01420000  0.04490000  1.0 -0.3436608336
C  C380  1  0.08030000  0.51420000  0.95510000  1.0 -0.3436608336
C  C381  1  0.59160000  0.08930000  0.86100000  1.0 0.1805245558
C  C382  1  0.40840000  0.58930000  0.13900000  1.0 0.1805245558
C  C383  1  0.90840000  0.08930000  0.36100000  1.0 0.1805245558
C  C384  1  0.09160000  0.58930000  0.63900000  1.0 0.1805245558
C  C385  1  0.58400000  0.15590000  0.81980000  1.0 -0.3106216788
C  C386  1  0.41600000  0.65590000  0.18020000  1.0 -0.3106216788
C  C387  1  0.91600000  0.15590000  0.31980000  1.0 -0.3106216788
C  C388  1  0.08400000  0.65590000  0.68020000  1.0 -0.3200003509
C  C389  1  0.51300000  0.14790000  0.88230000  1.0 -0.3014967723
C  C390  1  0.48700000  0.64790000  0.11770000  1.0 -0.3014967723
C  C391  1  0.98700000  0.14790000  0.38230000  1.0 -0.3014967723
C  C392  1  0.01300000  0.64790000  0.61770000  1.0 -0.3014967723
C  C393  1  0.20700000  0.84330000  0.41370000  1.0 0.0388969125
C  C394  1  0.79300000  0.34330000  0.58630000  1.0 0.0388969125
C  C395  1  0.29300000  0.84330000  0.91370000  1.0 0.0388969125
C  C396  1  0.70700000  0.34330000  0.08630000  1.0 0.0388969125
C  C397  1  0.14790000  0.83150000  0.44140000  1.0 0.0102141066
C  C398  1  0.85210000  0.33150000  0.55860000  1.0 0.0102141066
C  C399  1  0.35210000  0.83150000  0.94140000  1.0 0.0102141066
C  C400  1  0.64790000  0.33150000  0.05860000  1.0 0.0102141066
C  C401  1  0.07300000  0.85770000  0.44980000  1.0 -0.010388945
C  C402  1  0.92700000  0.35770000  0.55020000  1.0 -0.010388945
C  C403  1  0.42700000  0.85770000  0.94980000  1.0 -0.010388945
C  C404  1  0.57300000  0.35770000  0.05020000  1.0 -0.010388945
C  C405  1  0.06550000  0.89920000  0.42650000  1.0 -0.0604888105
C  C406  1  0.93450000  0.39920000  0.57350000  1.0 -0.0604888105
C  C407  1  0.43450000  0.89920000  0.92650000  1.0 -0.0604888105
C  C408  1  0.56550000  0.39920000  0.07350000  1.0 -0.0522096067
C  C409  1  0.12620000  0.90800000  0.39790000  1.0 -0.100770965
C  C410  1  0.87380000  0.40800000  0.60210000  1.0 -0.100770965
C  C411  1  0.37380000  0.90800000  0.89790000  1.0 -0.100770965
C  C412  1  0.62620000  0.40800000  0.10210000  1.0 -0.100770965
C  C413  1  0.19700000  0.88310000  0.39020000  1.0 -0.0678513003
C  C414  1  0.80300000  0.38310000  0.60980000  1.0 -0.0678513003
C  C415  1  0.30300000  0.88310000  0.89020000  1.0 -0.0678513003
C  C416  1  0.69700000  0.38310000  0.10980000  1.0 -0.0678513003
C  C417  1  0.99220000  0.93580000  0.42350000  1.0 0.2019445627
C  C418  1  0.00780000  0.43580000  0.57650000  1.0 0.2084979377
C  C419  1  0.50780000  0.93580000  0.92350000  1.0 0.2019445627
C  C420  1  0.49220000  0.43580000  0.07650000  1.0 0.2019445627
C  C421  1  0.49320000  0.01220000  0.75570000  1.0 -0.0678513003
C  C422  1  0.50680000  0.51220000  0.24430000  1.0 -0.0678513003
C  C423  1  0.00680000  0.01220000  0.25570000  1.0 -0.0678513003
C  C424  1  0.99320000  0.51220000  0.74430000  1.0 -0.0678513003
C  C425  1  0.42320000  0.03750000  0.74680000  1.0 -0.0604888105
C  C426  1  0.57680000  0.53750000  0.25320000  1.0 -0.0604888105
C  C427  1  0.07680000  0.03750000  0.24680000  1.0 -0.0604888105
C  C428  1  0.92320000  0.53750000  0.75320000  1.0 -0.0604888105
C  C429  1  0.45070000  0.08290000  0.80450000  1.0 -0.0818395996
C  C430  1  0.54930000  0.58290000  0.19550000  1.0 -0.0818395996
C  C431  1  0.04930000  0.08290000  0.30450000  1.0 -0.0818395996
C  C432  1  0.95070000  0.58290000  0.69550000  1.0 -0.0818395996
C  C433  1  0.51880000  0.05830000  0.81200000  1.0 -0.0818395996
C  C434  1  0.48120000  0.55830000  0.18800000  1.0 -0.0818395996
C  C435  1  0.98120000  0.05830000  0.31200000  1.0 -0.0818395996
C  C436  1  0.01880000  0.55830000  0.68800000  1.0 -0.0818395996
C  C437  1  0.88880000  0.09250000  0.65160000  1.0 0.0578450041
C  C438  1  0.11120000  0.59250000  0.34840000  1.0 0.0578450041
C  C439  1  0.61120000  0.09250000  0.15160000  1.0 0.0578450041
C  C440  1  0.38880000  0.59250000  0.84840000  1.0 0.0578450041
C  C441  1  0.88700000  0.15920000  0.69570000  1.0 -0.2759365759
C  C442  1  0.11300000  0.65920000  0.30430000  1.0 -0.2759365759
C  C443  1  0.61300000  0.15920000  0.19570000  1.0 -0.2759365759
C  C444  1  0.38700000  0.65920000  0.80430000  1.0 -0.2759365759
C  C445  1  0.94900000  0.15710000  0.63070000  1.0 -0.1074666581
C  C446  1  0.05100000  0.65710000  0.36930000  1.0 -0.1074666581
C  C447  1  0.55100000  0.15710000  0.13070000  1.0 -0.1074666581
C  C448  1  0.44900000  0.65710000  0.86930000  1.0 -0.1074666581
C  C449  1  0.48200000  0.45550000  0.63410000  1.0 0.2722101228
C  C450  1  0.51800000  0.95550000  0.36590000  1.0 0.2722101228
C  C451  1  0.01800000  0.45550000  0.13410000  1.0 0.2722101228
C  C452  1  0.98200000  0.95550000  0.86590000  1.0 0.2722101228
C  C453  1  0.60950000  0.47940000  0.59980000  1.0 -0.3200003509
C  C454  1  0.39050000  0.97940000  0.40020000  1.0 -0.3200003509
C  C455  1  0.89050000  0.47940000  0.09980000  1.0 -0.3200003509
C  C456  1  0.10950000  0.97940000  0.90020000  1.0 -0.3200003509
C  C457  1  0.54400000  0.52330000  0.64670000  1.0 -0.3276287376
C  C458  1  0.45600000  0.02330000  0.35330000  1.0 -0.3276287376
C  C459  1  0.95600000  0.52330000  0.14670000  1.0 -0.3276287376
C  C460  1  0.04400000  0.02330000  0.85330000  1.0 -0.3276287376
N  N1  1  0.98880000  0.12340000  0.63290000  1.0 0.0691677324
N  N2  1  0.01120000  0.62340000  0.36710000  1.0 0.0691677324
N  N3  1  0.51120000  0.12340000  0.13290000  1.0 0.0691677324
N  N4  1  0.48880000  0.62340000  0.86710000  1.0 0.0691677324
N  N5  1  0.92710000  0.46970000  0.84760000  1.0 0.0310124188
N  N6  1  0.07290000  0.96970000  0.15240000  1.0 0.0310124188
N  N7  1  0.57290000  0.46970000  0.34760000  1.0 0.0310124188
N  N8  1  0.42710000  0.96970000  0.65240000  1.0 0.0310124188
N  N9  1  0.73200000  0.77490000  0.50230000  1.0 0.0310124188
N  N10  1  0.26800000  0.27490000  0.49770000  1.0 0.0310124188
N  N11  1  0.76800000  0.77490000  0.00230000  1.0 0.0310124188
N  N12  1  0.23200000  0.27490000  0.99770000  1.0 0.0310124188
N  N13  1  0.60200000  0.02740000  0.50610000  1.0 0.0310124188
N  N14  1  0.39800000  0.52740000  0.49390000  1.0 0.0388969125
N  N15  1  0.89800000  0.02740000  0.00610000  1.0 0.0388969125
N  N16  1  0.10200000  0.52740000  0.99390000  1.0 0.0388969125
N  N17  1  0.56430000  0.13030000  0.85300000  1.0 -0.0522096067
N  N18  1  0.43570000  0.63030000  0.14700000  1.0 -0.0522096067
N  N19  1  0.93570000  0.13030000  0.35300000  1.0 -0.0522096067
N  N20  1  0.06430000  0.63030000  0.64700000  1.0 -0.0522096067
N  N21  1  0.90910000  0.13400000  0.66210000  1.0 0.0102141066
N  N22  1  0.09090000  0.63400000  0.33790000  1.0 0.0102141066
N  N23  1  0.59090000  0.13400000  0.16210000  1.0 0.0102141066
N  N24  1  0.40910000  0.63400000  0.83790000  1.0 0.0102141066
N  N25  1  0.54180000  0.48310000  0.62530000  1.0 0.0223236854
N  N26  1  0.45820000  0.98310000  0.37470000  1.0 0.0223236854
N  N27  1  0.95820000  0.48310000  0.12530000  1.0 0.0223236854
N  N28  1  0.04180000  0.98310000  0.87470000  1.0 0.0223236854
O  O1  1  0.73860000  0.93080000  0.57177000  1.0 -0.6400632432
O  O2  1  0.26140000  0.43080000  0.42823000  1.0 -0.6400632432
O  O3  1  0.76140000  0.93080000  0.07177000  1.0 -0.6400632432
O  O4  1  0.23860000  0.43080000  0.92823000  1.0 -0.6400632432
O  O5  1  0.74660000  0.92110000  0.63738000  1.0 -0.6400632432
O  O6  1  0.25340000  0.42110000  0.36262000  1.0 -0.6400632432
O  O7  1  0.75340000  0.92110000  0.13738000  1.0 -0.6400632432
O  O8  1  0.24660000  0.42110000  0.86262000  1.0 -0.6400632432
O  O9  1  0.99100000  0.97030000  0.61010000  1.0 -0.6400632432
O  O10  1  0.00900000  0.47030000  0.38990000  1.0 -0.6318457148
O  O11  1  0.50900000  0.97030000  0.11010000  1.0 -0.6318457148
O  O12  1  0.49100000  0.47030000  0.88990000  1.0 -0.6318457148
O  O13  1  0.92230000  0.92470000  0.56993000  1.0 -0.650989066
O  O14  1  0.07770000  0.42470000  0.43007000  1.0 -0.650989066
O  O15  1  0.57770000  0.92470000  0.06993000  1.0 -0.650989066
O  O16  1  0.42230000  0.42470000  0.93007000  1.0 -0.650989066
O  O17  1  0.29900000  0.54150000  0.67940000  1.0 -0.6600106588
O  O18  1  0.70100000  0.04150000  0.32060000  1.0 -0.650989066
O  O19  1  0.20100000  0.54150000  0.17940000  1.0 -0.6600106588
O  O20  1  0.79900000  0.04150000  0.82060000  1.0 -0.650989066
O  O21  1  0.26980000  0.52140000  0.61350000  1.0 -0.6600106588
O  O22  1  0.73020000  0.02140000  0.38650000  1.0 -0.6600106588
O  O23  1  0.23020000  0.52140000  0.11350000  1.0 -0.6600106588
O  O24  1  0.76980000  0.02140000  0.88650000  1.0 -0.6600106588
O  O25  1  0.76970000  0.91647000  0.37586000  1.0 -0.6318457148
O  O26  1  0.23030000  0.41647000  0.62414000  1.0 -0.6318457148
O  O27  1  0.73030000  0.91647000  0.87586000  1.0 -0.6318457148
O  O28  1  0.26970000  0.41647000  0.12414000  1.0 -0.6318457148
O  O29  1  0.76970000  0.91830000  0.44161000  1.0 -0.6400632432
O  O30  1  0.23030000  0.41830000  0.55839000  1.0 -0.6400632432
O  O31  1  0.73030000  0.91830000  0.94161000  1.0 -0.6400632432
O  O32  1  0.26970000  0.41830000  0.05839000  1.0 -0.6318457148
O  O33  1  0.29470000  0.52229000  0.36425000  1.0 -0.6684757641
O  O34  1  0.70530000  0.02229000  0.63575000  1.0 -0.6684757641
O  O35  1  0.20530000  0.52229000  0.86425000  1.0 -0.6684757641
O  O36  1  0.79470000  0.02229000  0.13575000  1.0 -0.6684757641
O  O37  1  0.33220000  0.54330000  0.30397000  1.0 -0.5629183224
O  O38  1  0.66780000  0.04330000  0.69603000  1.0 -0.5629183224
O  O39  1  0.16780000  0.54330000  0.80397000  1.0 -0.5629183224
O  O40  1  0.83220000  0.04330000  0.19603000  1.0 -0.5629183224
O  O41  1  0.96320000  0.92800000  0.45750000  1.0 0.0102141066
O  O42  1  0.03680000  0.42800000  0.54250000  1.0 0.0102141066
O  O43  1  0.53680000  0.92800000  0.95750000  1.0 0.0102141066
O  O44  1  0.46320000  0.42800000  0.04250000  1.0 0.0102141066
O  O45  1  0.92760000  0.86670000  0.48770000  1.0 -0.6055661014
O  O46  1  0.07240000  0.36670000  0.51230000  1.0 -0.6048263482
O  O47  1  0.57240000  0.86670000  0.98770000  1.0 -0.6055661014
O  O48  1  0.42760000  0.36670000  0.01230000  1.0 -0.6055661014
O  O49  1  0.28670000  0.38000000  0.71800000  1.0 -0.650989066
O  O50  1  0.71330000  0.88000000  0.28200000  1.0 -0.650989066
O  O51  1  0.21330000  0.38000000  0.21800000  1.0 -0.650989066
O  O52  1  0.78670000  0.88000000  0.78200000  1.0 -0.650989066
O  O53  1  0.20600000  0.38259000  0.77130000  1.0 -0.6318457148
O  O54  1  0.79400000  0.88259000  0.22870000  1.0 -0.6318457148
O  O55  1  0.29400000  0.38259000  0.27130000  1.0 -0.6318457148
O  O56  1  0.70600000  0.88259000  0.72870000  1.0 -0.6318457148
O  O57  1  0.64840000  0.97340000  0.77053000  1.0 -0.5371664933
O  O58  1  0.35160000  0.47340000  0.22947000  1.0 -0.5371664933
O  O59  1  0.85160000  0.97340000  0.27053000  1.0 -0.5371664933
O  O60  1  0.14840000  0.47340000  0.72947000  1.0 -0.5371664933
O  O61  1  0.63640000  0.98730000  0.83262000  1.0 -0.5629183224
O  O62  1  0.36360000  0.48730000  0.16738000  1.0 -0.5629183224
O  O63  1  0.86360000  0.98730000  0.33262000  1.0 -0.5629183224
O  O64  1  0.13640000  0.48730000  0.66738000  1.0 -0.5629183224
O  O65  1  0.82300000  0.98320000  0.74733000  1.0 -0.6318457148
O  O66  1  0.17700000  0.48320000  0.25267000  1.0 -0.6318457148
O  O67  1  0.67700000  0.98320000  0.24733000  1.0 -0.6318457148
O  O68  1  0.32300000  0.48320000  0.75267000  1.0 -0.6318457148
O  O69  1  0.85190000  0.98160000  0.68334000  1.0 -0.650989066
O  O70  1  0.14810000  0.48160000  0.31666000  1.0 -0.650989066
O  O71  1  0.64810000  0.98160000  0.18334000  1.0 -0.650989066
O  O72  1  0.35190000  0.48160000  0.81666000  1.0 -0.650989066
O  O73  1  0.84440000  0.01000000  0.47428000  1.0 -0.6837818495
O  O74  1  0.15560000  0.51000000  0.52572000  1.0 -0.6837818495
O  O75  1  0.65560000  0.01000000  0.97428000  1.0 -0.6837818495
O  O76  1  0.34440000  0.51000000  0.02572000  1.0 -0.6837818495
O  O77  1  0.82780000  0.01390000  0.53945000  1.0 -0.6600106588
O  O78  1  0.17220000  0.51390000  0.46055000  1.0 -0.6600106588
O  O79  1  0.67220000  0.01390000  0.03945000  1.0 -0.6600106588
O  O80  1  0.32780000  0.51390000  0.96055000  1.0 -0.6600106588
O  O81  1  0.89390000  0.06890000  0.62200000  1.0 -0.2585103831
O  O82  1  0.10610000  0.56890000  0.37800000  1.0 -0.2585103831
O  O83  1  0.60610000  0.06890000  0.12200000  1.0 -0.2585103831
O  O84  1  0.39390000  0.56890000  0.87800000  1.0 -0.2585103831
O  O85  1  0.05120000  0.44870000  0.82360000  1.0 -0.4994198552
O  O86  1  0.94880000  0.94870000  0.17640000  1.0 -0.4994198552
O  O87  1  0.44880000  0.44870000  0.32360000  1.0 -0.4994198552
O  O88  1  0.55120000  0.94870000  0.67640000  1.0 -0.4994198552
O  O89  1  0.77150000  0.84630000  0.52060000  1.0 -0.4453760854
O  O90  1  0.22850000  0.34630000  0.47940000  1.0 -0.4453760854
O  O91  1  0.72850000  0.84630000  0.02060000  1.0 -0.4453760854
O  O92  1  0.27150000  0.34630000  0.97940000  1.0 -0.4453760854
O  O93  1  0.66540000  0.95880000  0.49940000  1.0 -0.4413076809
O  O94  1  0.33460000  0.45880000  0.50060000  1.0 -0.4413076809
O  O95  1  0.83460000  0.95880000  0.99940000  1.0 -0.4413076809
O  O96  1  0.16540000  0.45880000  0.00060000  1.0 -0.4413076809
O  O97  1  0.58270000  0.06490000  0.89130000  1.0 -0.4635058812
O  O98  1  0.41730000  0.56490000  0.10870000  1.0 -0.4635058812
O  O99  1  0.91730000  0.06490000  0.39130000  1.0 -0.4635058812
O  O100  1  0.08270000  0.56490000  0.60870000  1.0 -0.4635058812
O  O101  1  0.93490000  0.92030000  0.44520000  1.0 -0.0604888105
O  O102  1  0.06510000  0.42030000  0.55480000  1.0 -0.0604888105
O  O103  1  0.56510000  0.92030000  0.94520000  1.0 -0.0604888105
O  O104  1  0.43490000  0.42030000  0.05480000  1.0 -0.0522096067
O  O105  1  0.00780000  0.97340000  0.41030000  1.0 -0.4994198552
O  O106  1  0.99220000  0.47340000  0.58970000  1.0 -0.4994198552
O  O107  1  0.49220000  0.97340000  0.91030000  1.0 -0.4994198552
O  O108  1  0.50780000  0.47340000  0.08970000  1.0 -0.4994198552
O  O109  1  0.42630000  0.45580000  0.65990000  1.0 -0.5061181358
O  O110  1  0.57370000  0.95580000  0.34010000  1.0 -0.5061181358
O  O111  1  0.07370000  0.45580000  0.15990000  1.0 -0.5061181358
O  O112  1  0.92630000  0.95580000  0.84010000  1.0 -0.5061181358
F  F1  1  0.47760000  0.73471000  0.60580000  1.0 -0.1406068227
F  F2  1  0.52240000  0.23471000  0.39420000  1.0 -0.1406068227
F  F3  1  0.02240000  0.73471000  0.10580000  1.0 -0.1406068227
F  F4  1  0.97760000  0.23471000  0.89420000  1.0 -0.1406068227
F  F5  1  0.34830000  0.87557000  0.59524000  1.0 -0.1497224159
F  F6  1  0.65170000  0.37557000  0.40476000  1.0 -0.1497224159
F  F7  1  0.15170000  0.87557000  0.09524000  1.0 -0.1497224159
F  F8  1  0.84830000  0.37557000  0.90476000  1.0 -0.1497224159
F  F9  1  0.18590000  0.74487000  0.60584000  1.0 -0.1406068227
F  F10  1  0.81410000  0.24487000  0.39416000  1.0 -0.1406068227
F  F11  1  0.31410000  0.74487000  0.10584000  1.0 -0.1406068227
F  F12  1  0.68590000  0.24487000  0.89416000  1.0 -0.1406068227
F  F13  1  0.36370000  0.87207000  0.42138000  1.0 -0.1406068227
F  F14  1  0.63630000  0.37207000  0.57862000  1.0 -0.1406068227
F  F15  1  0.13630000  0.87207000  0.92138000  1.0 -0.1406068227
F  F16  1  0.86370000  0.37207000  0.07862000  1.0 -0.1406068227
F  F17  1  0.49420000  0.73647000  0.38681000  1.0 -0.1577079456
F  F18  1  0.50580000  0.23647000  0.61319000  1.0 -0.1577079456
F  F19  1  0.00580000  0.73647000  0.88681000  1.0 -0.1577079456
F  F20  1  0.99420000  0.23647000  0.11319000  1.0 -0.1577079456
F  F21  1  0.20450000  0.74310000  0.39586000  1.0 -0.168274122
F  F22  1  0.79550000  0.24310000  0.60414000  1.0 -0.168274122
F  F23  1  0.29550000  0.74310000  0.89586000  1.0 -0.168274122
F  F24  1  0.70450000  0.24310000  0.10414000  1.0 -0.168274122
F  F25  1  0.38510000  0.16395000  0.77084000  1.0 -0.1497224159
F  F26  1  0.61490000  0.66395000  0.22916000  1.0 -0.1497224159
F  F27  1  0.11490000  0.16395000  0.27084000  1.0 -0.1497224159
F  F28  1  0.88510000  0.66395000  0.72916000  1.0 -0.1497224159
F  F29  1  0.10220000  0.16460000  0.73719000  1.0 -0.1323724842
F  F30  1  0.89780000  0.66460000  0.26281000  1.0 -0.1323724842
F  F31  1  0.39780000  0.16460000  0.23719000  1.0 -0.1323724842
F  F32  1  0.60220000  0.66460000  0.76281000  1.0 -0.1323724842
F  F33  1  0.24000000  0.02742000  0.75812000  1.0 -0.1497224159
F  F34  1  0.76000000  0.52742000  0.24188000  1.0 -0.1497224159
F  F35  1  0.26000000  0.02742000  0.25812000  1.0 -0.1497224159
F  F36  1  0.74000000  0.52742000  0.74188000  1.0 -0.1497224159
