# DDEC6 charges by PACMAN v1.1 (https://github.com/mtap-research/PACMAN-charge/)
data_UDURAQ_ASR_pacman
_symmetry_space_group_name_H-M   'P 1'
_cell_length_a   16.12100000
_cell_length_b   29.58900000
_cell_length_c   33.39800000
_cell_angle_alpha   90.00000000
_cell_angle_beta   90.00000000
_cell_angle_gamma   90.00000000
_symmetry_Int_Tables_number   1
_chemical_formula_structural   Sr5H54C97NO23F9
_chemical_formula_sum   'Sr20 H216 C388 N4 O92 F36'
_cell_volume   15930.98857606
_cell_formula_units_Z   4
loop_
 _symmetry_equiv_pos_site_id
 _symmetry_equiv_pos_as_xyz
  1  'x, y, z'
loop_
 _atom_site_type_symbol
 _atom_site_label
 _atom_site_symmetry_multiplicity
 _atom_site_fract_x
 _atom_site_fract_y
 _atom_site_fract_z
 _atom_site_occupancy
 _atom_site_charge
Sr  Sr1  1  0.82326000  0.92746000  0.50982000  1.0 1.3929984298
Sr  Sr2  1  0.17674000  0.42746000  0.49018000  1.0 1.3929984298
Sr  Sr3  1  0.67674000  0.92746000  0.00982000  1.0 1.3929984298
Sr  Sr4  1  0.32326000  0.42746000  0.99018000  1.0 1.3929984298
Sr  Sr5  1  0.86748000  0.98256000  0.40576000  1.0 1.3187373903
Sr  Sr6  1  0.13252000  0.48256000  0.59424000  1.0 1.3187373903
Sr  Sr7  1  0.63252000  0.98256000  0.90576000  1.0 1.3187373903
Sr  Sr8  1  0.36748000  0.48256000  0.09424000  1.0 1.3187373903
Sr  Sr9  1  0.28333000  0.45558000  0.68593000  1.0 1.4514901366
Sr  Sr10  1  0.71667000  0.95558000  0.31407000  1.0 1.4514901366
Sr  Sr11  1  0.21667000  0.45558000  0.18593000  1.0 1.4514901366
Sr  Sr12  1  0.78333000  0.95558000  0.81407000  1.0 1.4514901366
Sr  Sr13  1  0.19582000  0.45875000  0.79973000  1.0 1.4220641579
Sr  Sr14  1  0.80418000  0.95875000  0.20027000  1.0 1.4220641579
Sr  Sr15  1  0.30418000  0.45875000  0.29973000  1.0 1.4220641579
Sr  Sr16  1  0.69582000  0.95875000  0.70027000  1.0 1.4220641579
Sr  Sr17  1  0.83774000  0.99004000  0.60991000  1.0 1.4423734572
Sr  Sr18  1  0.16226000  0.49004000  0.39009000  1.0 1.4423734572
Sr  Sr19  1  0.66226000  0.99004000  0.10991000  1.0 1.4423734572
Sr  Sr20  1  0.33774000  0.49004000  0.89009000  1.0 1.4423734572
H  H1  1  0.48272000  0.85835000  0.54469000  1.0 0.1190483296
H  H2  1  0.51728000  0.35835000  0.45531000  1.0 0.1190483296
H  H3  1  0.01728000  0.85835000  0.04469000  1.0 0.1190483296
H  H4  1  0.98272000  0.35835000  0.95531000  1.0 0.1190483296
H  H5  1  0.60575000  0.89839000  0.54482000  1.0 0.1099728678
H  H6  1  0.39425000  0.39839000  0.45518000  1.0 0.1099728678
H  H7  1  0.89425000  0.89839000  0.04482000  1.0 0.1099728678
H  H8  1  0.10575000  0.39839000  0.95518000  1.0 0.1099728678
H  H9  1  0.65472000  0.85406000  0.65671000  1.0 0.1190483296
H  H10  1  0.34528000  0.35406000  0.34329000  1.0 0.1190483296
H  H11  1  0.84528000  0.85406000  0.15671000  1.0 0.1190483296
H  H12  1  0.15472000  0.35406000  0.84329000  1.0 0.1190483296
H  H13  1  0.54006000  0.80738000  0.65379000  1.0 0.1190483296
H  H14  1  0.45994000  0.30738000  0.34621000  1.0 0.1190483296
H  H15  1  0.95994000  0.80738000  0.15379000  1.0 0.1190483296
H  H16  1  0.04006000  0.30738000  0.84621000  1.0 0.1190483296
H  H17  1  0.13380000  0.81191000  0.55077000  1.0 0.1190483296
H  H18  1  0.86620000  0.31191000  0.44923000  1.0 0.1099728678
H  H19  1  0.36620000  0.81191000  0.05077000  1.0 0.1099728678
H  H20  1  0.63380000  0.31191000  0.94923000  1.0 0.1190483296
H  H21  1  0.01817000  0.85865000  0.54819000  1.0 0.1099728678
H  H22  1  0.98183000  0.35865000  0.45181000  1.0 0.1099728678
H  H23  1  0.48183000  0.85865000  0.04819000  1.0 0.1099728678
H  H24  1  0.51817000  0.35865000  0.95181000  1.0 0.1099728678
H  H25  1  0.11011000  0.93016000  0.64120000  1.0 0.1099728678
H  H26  1  0.88989000  0.43016000  0.35880000  1.0 0.1099728678
H  H27  1  0.38989000  0.93016000  0.14120000  1.0 0.1099728678
H  H28  1  0.61011000  0.43016000  0.85880000  1.0 0.1099728678
H  H29  1  0.22031000  0.87780000  0.64674000  1.0 0.1099728678
H  H30  1  0.77969000  0.37780000  0.35326000  1.0 0.1099728678
H  H31  1  0.27969000  0.87780000  0.14674000  1.0 0.1099728678
H  H32  1  0.72031000  0.37780000  0.85326000  1.0 0.1099728678
H  H33  1  0.24929000  0.67437000  0.56567000  1.0 0.1190483296
H  H34  1  0.75071000  0.17437000  0.43433000  1.0 0.1190483296
H  H35  1  0.25071000  0.67437000  0.06567000  1.0 0.1190483296
H  H36  1  0.74929000  0.17437000  0.93433000  1.0 0.1190483296
H  H37  1  0.23290000  0.59641000  0.57897000  1.0 0.1099728678
H  H38  1  0.76710000  0.09641000  0.42103000  1.0 0.1099728678
H  H39  1  0.26710000  0.59641000  0.07897000  1.0 0.1099728678
H  H40  1  0.73290000  0.09641000  0.92103000  1.0 0.1099728678
H  H41  1  0.37887000  0.61380000  0.67657000  1.0 0.1099728678
H  H42  1  0.62113000  0.11380000  0.32343000  1.0 0.1099728678
H  H43  1  0.12113000  0.61380000  0.17657000  1.0 0.1099728678
H  H44  1  0.87887000  0.11380000  0.82343000  1.0 0.1099728678
H  H45  1  0.40127000  0.68553000  0.65972000  1.0 0.1190483296
H  H46  1  0.59873000  0.18553000  0.34028000  1.0 0.1190483296
H  H47  1  0.09873000  0.68553000  0.15972000  1.0 0.1190483296
H  H48  1  0.90127000  0.18553000  0.84028000  1.0 0.1190483296
H  H49  1  0.41074000  0.69595000  0.32726000  1.0 0.1099728678
H  H50  1  0.58926000  0.19595000  0.67274000  1.0 0.1099728678
H  H51  1  0.08926000  0.69595000  0.82726000  1.0 0.1099728678
H  H52  1  0.91074000  0.19595000  0.17274000  1.0 0.1099728678
H  H53  1  0.55538000  0.81170000  0.35124000  1.0 0.1190483296
H  H54  1  0.44462000  0.31170000  0.64876000  1.0 0.1190483296
H  H55  1  0.94462000  0.81170000  0.85124000  1.0 0.1190483296
H  H56  1  0.05538000  0.31170000  0.14876000  1.0 0.1190483296
H  H57  1  0.67731000  0.85278000  0.35225000  1.0 0.1190483296
H  H58  1  0.32269000  0.35278000  0.64775000  1.0 0.1190483296
H  H59  1  0.82269000  0.85278000  0.85225000  1.0 0.1190483296
H  H60  1  0.17731000  0.35278000  0.14775000  1.0 0.1190483296
H  H61  1  0.62711000  0.89168000  0.46620000  1.0 0.1007028786
H  H62  1  0.37289000  0.39168000  0.53380000  1.0 0.1007028786
H  H63  1  0.87289000  0.89168000  0.96620000  1.0 0.1007028786
H  H64  1  0.12711000  0.39168000  0.03380000  1.0 0.1007028786
H  H65  1  0.50165000  0.85170000  0.46360000  1.0 0.1099728678
H  H66  1  0.49835000  0.35170000  0.53640000  1.0 0.1099728678
H  H67  1  0.99835000  0.85170000  0.96360000  1.0 0.1099728678
H  H68  1  0.00165000  0.35170000  0.03640000  1.0 0.1099728678
H  H69  1  0.27785000  0.66687000  0.42648000  1.0 0.1190483296
H  H70  1  0.72215000  0.16687000  0.57352000  1.0 0.1190483296
H  H71  1  0.22215000  0.66687000  0.92648000  1.0 0.1190483296
H  H72  1  0.77785000  0.16687000  0.07352000  1.0 0.1190483296
H  H73  1  0.26975000  0.59217000  0.40692000  1.0 0.1099728678
H  H74  1  0.73025000  0.09217000  0.59308000  1.0 0.1099728678
H  H75  1  0.23025000  0.59217000  0.90692000  1.0 0.1099728678
H  H76  1  0.76975000  0.09217000  0.09308000  1.0 0.1099728678
H  H77  1  0.39322000  0.62237000  0.30510000  1.0 0.1190483296
H  H78  1  0.60678000  0.12237000  0.69490000  1.0 0.1190483296
H  H79  1  0.10678000  0.62237000  0.80510000  1.0 0.1190483296
H  H80  1  0.89322000  0.12237000  0.19490000  1.0 0.1190483296
H  H81  1  0.16449000  0.77628000  0.46061000  1.0 0.0784080874
H  H82  1  0.83551000  0.27628000  0.53939000  1.0 0.0784080874
H  H83  1  0.33551000  0.77628000  0.96061000  1.0 0.0784080874
H  H84  1  0.66449000  0.27628000  0.03939000  1.0 0.0784080874
H  H85  1  0.03950000  0.81272000  0.48155000  1.0 0.0878986169
H  H86  1  0.96050000  0.31272000  0.51845000  1.0 0.0878986169
H  H87  1  0.46050000  0.81272000  0.98155000  1.0 0.0878986169
H  H88  1  0.53950000  0.31272000  0.01845000  1.0 0.0878986169
H  H89  1  0.08783000  0.91785000  0.41086000  1.0 0.1007028786
H  H90  1  0.91217000  0.41785000  0.58914000  1.0 0.1007028786
H  H91  1  0.41217000  0.91785000  0.91086000  1.0 0.1007028786
H  H92  1  0.58783000  0.41785000  0.08914000  1.0 0.1007028786
H  H93  1  0.21371000  0.88545000  0.39045000  1.0 0.0784080874
H  H94  1  0.78629000  0.38545000  0.60955000  1.0 0.0784080874
H  H95  1  0.28629000  0.88545000  0.89045000  1.0 0.0784080874
H  H96  1  0.71371000  0.38545000  0.10955000  1.0 0.0784080874
H  H97  1  0.02676000  0.09009000  0.78989000  1.0 0.1190483296
H  H98  1  0.97324000  0.59009000  0.21011000  1.0 0.1190483296
H  H99  1  0.47324000  0.09009000  0.28989000  1.0 0.1190483296
H  H100  1  0.52676000  0.59009000  0.71011000  1.0 0.1190483296
H  H101  1  0.91051000  0.04597000  0.77874000  1.0 0.1190483296
H  H102  1  0.08949000  0.54597000  0.22126000  1.0 0.1190483296
H  H103  1  0.58949000  0.04597000  0.27874000  1.0 0.1190483296
H  H104  1  0.41051000  0.54597000  0.72126000  1.0 0.1190483296
H  H105  1  0.00500000  0.00135000  0.67453000  1.0 0.1190483296
H  H106  1  0.99500000  0.50135000  0.32547000  1.0 0.1190483296
H  H107  1  0.49500000  0.00135000  0.17453000  1.0 0.1190483296
H  H108  1  0.50500000  0.50135000  0.82547000  1.0 0.1190483296
H  H109  1  0.12960000  0.03920000  0.68719000  1.0 0.1190483296
H  H110  1  0.87040000  0.53920000  0.31281000  1.0 0.1190483296
H  H111  1  0.37040000  0.03920000  0.18719000  1.0 0.1190483296
H  H112  1  0.62960000  0.53920000  0.81281000  1.0 0.1190483296
H  H113  1  0.14163000  0.22686000  0.78695000  1.0 0.1099728678
H  H114  1  0.85837000  0.72686000  0.21305000  1.0 0.1099728678
H  H115  1  0.35837000  0.22686000  0.28695000  1.0 0.1099728678
H  H116  1  0.64163000  0.72686000  0.71305000  1.0 0.1099728678
H  H117  1  0.14731000  0.30646000  0.78450000  1.0 0.1099728678
H  H118  1  0.85269000  0.80646000  0.21550000  1.0 0.1099728678
H  H119  1  0.35269000  0.30646000  0.28450000  1.0 0.1099728678
H  H120  1  0.64731000  0.80646000  0.71550000  1.0 0.1099728678
H  H121  1  0.34671000  0.30203000  0.71144000  1.0 0.1099728678
H  H122  1  0.65329000  0.80203000  0.28856000  1.0 0.1099728678
H  H123  1  0.15329000  0.30203000  0.21144000  1.0 0.1099728678
H  H124  1  0.84671000  0.80203000  0.78856000  1.0 0.1099728678
H  H125  1  0.35033000  0.22326000  0.71668000  1.0 0.1099728678
H  H126  1  0.64967000  0.72326000  0.28332000  1.0 0.1099728678
H  H127  1  0.14967000  0.22326000  0.21668000  1.0 0.1099728678
H  H128  1  0.85033000  0.72326000  0.78332000  1.0 0.1099728678
H  H129  1  0.56650000  0.04292000  0.73718000  1.0 0.1296717923
H  H130  1  0.43350000  0.54292000  0.26282000  1.0 0.1296717923
H  H131  1  0.93350000  0.04292000  0.23718000  1.0 0.1296717923
H  H132  1  0.06650000  0.54292000  0.76282000  1.0 0.1296717923
H  H133  1  0.34362000  0.03581000  0.82621000  1.0 0.1007028786
H  H134  1  0.65638000  0.53581000  0.17379000  1.0 0.1007028786
H  H135  1  0.15638000  0.03581000  0.32621000  1.0 0.1007028786
H  H136  1  0.84362000  0.53581000  0.67379000  1.0 0.1007028786
H  H137  1  0.45008000  0.08746000  0.72847000  1.0 0.1099728678
H  H138  1  0.54992000  0.58746000  0.27153000  1.0 0.1099728678
H  H139  1  0.04992000  0.08746000  0.22847000  1.0 0.1099728678
H  H140  1  0.95008000  0.58746000  0.77153000  1.0 0.1099728678
H  H141  1  0.46913000  0.99469000  0.84065000  1.0 0.1007028786
H  H142  1  0.53087000  0.49469000  0.15935000  1.0 0.1099728678
H  H143  1  0.03087000  0.99469000  0.34065000  1.0 0.1007028786
H  H144  1  0.96913000  0.49469000  0.65935000  1.0 0.1007028786
H  H145  1  0.85075000  0.09326000  0.53254000  1.0 0.1534538146
H  H146  1  0.14925000  0.59326000  0.46746000  1.0 0.1534538146
H  H147  1  0.64925000  0.09326000  0.03254000  1.0 0.1534538146
H  H148  1  0.35075000  0.59326000  0.96746000  1.0 0.1534538146
H  H149  1  0.80809000  0.09426000  0.48928000  1.0 0.1534538146
H  H150  1  0.19191000  0.59426000  0.51072000  1.0 0.1534538146
H  H151  1  0.69191000  0.09426000  0.98928000  1.0 0.1534538146
H  H152  1  0.30809000  0.59426000  0.01072000  1.0 0.1534538146
H  H153  1  0.90645000  0.08838000  0.49311000  1.0 0.1682142082
H  H154  1  0.09355000  0.58838000  0.50689000  1.0 0.1682142082
H  H155  1  0.59355000  0.08838000  0.99311000  1.0 0.1682142082
H  H156  1  0.40645000  0.58838000  0.00689000  1.0 0.1682142082
H  H157  1  0.62349000  0.07600000  0.84019000  1.0 0.0644409859
H  H158  1  0.37651000  0.57600000  0.15981000  1.0 0.0644409859
H  H159  1  0.87651000  0.07600000  0.34019000  1.0 0.0644409859
H  H160  1  0.12349000  0.57600000  0.65981000  1.0 0.0644409859
H  H161  1  0.63177000  0.14213000  0.80598000  1.0 0.1296717923
H  H162  1  0.36823000  0.64213000  0.19402000  1.0 0.1296717923
H  H163  1  0.86823000  0.14213000  0.30598000  1.0 0.1296717923
H  H164  1  0.13177000  0.64213000  0.69402000  1.0 0.1296717923
H  H165  1  0.59911000  0.18660000  0.82824000  1.0 0.1385616686
H  H166  1  0.40089000  0.68660000  0.17176000  1.0 0.1385616686
H  H167  1  0.90089000  0.18660000  0.32824000  1.0 0.1385616686
H  H168  1  0.09911000  0.68660000  0.67176000  1.0 0.1385616686
H  H169  1  0.53681000  0.15711000  0.80161000  1.0 0.1190483296
H  H170  1  0.46319000  0.65711000  0.19839000  1.0 0.1190483296
H  H171  1  0.96319000  0.15711000  0.30161000  1.0 0.1190483296
H  H172  1  0.03681000  0.65711000  0.69839000  1.0 0.1190483296
H  H173  1  0.47672000  0.12395000  0.89263000  1.0 0.1296717923
H  H174  1  0.52328000  0.62395000  0.10737000  1.0 0.1296717923
H  H175  1  0.02328000  0.12395000  0.39263000  1.0 0.1296717923
H  H176  1  0.97672000  0.62395000  0.60737000  1.0 0.1296717923
H  H177  1  0.47873000  0.17209000  0.87080000  1.0 0.1190483296
H  H178  1  0.52127000  0.67209000  0.12920000  1.0 0.1190483296
H  H179  1  0.02127000  0.17209000  0.37080000  1.0 0.1190483296
H  H180  1  0.97873000  0.67209000  0.62920000  1.0 0.1190483296
H  H181  1  0.54650000  0.16015000  0.90418000  1.0 0.1296717923
H  H182  1  0.45350000  0.66015000  0.09582000  1.0 0.1296717923
H  H183  1  0.95350000  0.16015000  0.40418000  1.0 0.1296717923
H  H184  1  0.04650000  0.66015000  0.59582000  1.0 0.1296717923
H  H185  1  0.15641000  0.80450000  0.45616000  1.0 0.0878986169
H  H186  1  0.84359000  0.30450000  0.54384000  1.0 0.0878986169
H  H187  1  0.34359000  0.80450000  0.95616000  1.0 0.0878986169
H  H188  1  0.65641000  0.30450000  0.04384000  1.0 0.0878986169
H  H189  1  0.03267000  0.84839000  0.46879000  1.0 0.1007028786
H  H190  1  0.96733000  0.34839000  0.53121000  1.0 0.1007028786
H  H191  1  0.46733000  0.84839000  0.96879000  1.0 0.1007028786
H  H192  1  0.53267000  0.34839000  0.03121000  1.0 0.1007028786
H  H193  1  0.11784000  0.93408000  0.38177000  1.0 0.0878986169
H  H194  1  0.88216000  0.43408000  0.61823000  1.0 0.0878986169
H  H195  1  0.38216000  0.93408000  0.88177000  1.0 0.0878986169
H  H196  1  0.61784000  0.43408000  0.11823000  1.0 0.0878986169
H  H197  1  0.23721000  0.89203000  0.37075000  1.0 0.0878986169
H  H198  1  0.76279000  0.39203000  0.62925000  1.0 0.0878986169
H  H199  1  0.26279000  0.89203000  0.87075000  1.0 0.0878986169
H  H200  1  0.73721000  0.39203000  0.12925000  1.0 0.0878986169
H  H201  1  0.51253000  0.99079000  0.73666000  1.0 0.1099728678
H  H202  1  0.48747000  0.49079000  0.26334000  1.0 0.1099728678
H  H203  1  0.98747000  0.99079000  0.23666000  1.0 0.1099728678
H  H204  1  0.01253000  0.49079000  0.76334000  1.0 0.1099728678
H  H205  1  0.39667000  0.03385000  0.72161000  1.0 0.1099728678
H  H206  1  0.60333000  0.53385000  0.27839000  1.0 0.1099728678
H  H207  1  0.10333000  0.03385000  0.22161000  1.0 0.1099728678
H  H208  1  0.89667000  0.53385000  0.77839000  1.0 0.1099728678
H  H209  1  0.44094000  0.11002000  0.81888000  1.0 0.0878986169
H  H210  1  0.55906000  0.61002000  0.18112000  1.0 0.0878986169
H  H211  1  0.05906000  0.11002000  0.31888000  1.0 0.0878986169
H  H212  1  0.94094000  0.61002000  0.68112000  1.0 0.0878986169
H  H213  1  0.55715000  0.06792000  0.83189000  1.0 0.0507858999
H  H214  1  0.44285000  0.56792000  0.16811000  1.0 0.0507858999
H  H215  1  0.94285000  0.06792000  0.33189000  1.0 0.0507858999
H  H216  1  0.05715000  0.56792000  0.66811000  1.0 0.0507858999
C  C1  1  0.40740000  0.75900000  0.60510000  1.0 0.2409012064
C  C2  1  0.59260000  0.25900000  0.39490000  1.0 0.2409012064
C  C3  1  0.09260000  0.75900000  0.10510000  1.0 0.2409012064
C  C4  1  0.90740000  0.25900000  0.89490000  1.0 0.2409012064
C  C5  1  0.41680000  0.80590000  0.60050000  1.0 -0.196671271
C  C6  1  0.58320000  0.30590000  0.39950000  1.0 -0.196671271
C  C7  1  0.08320000  0.80590000  0.10050000  1.0 -0.196671271
C  C8  1  0.91680000  0.30590000  0.89950000  1.0 -0.196671271
C  C9  1  0.34310000  0.82990000  0.59890000  1.0 0.2409012064
C  C10  1  0.65690000  0.32990000  0.40110000  1.0 0.2409012064
C  C11  1  0.15690000  0.82990000  0.09890000  1.0 0.2409012064
C  C12  1  0.84310000  0.32990000  0.90110000  1.0 0.2409012064
C  C13  1  0.26400000  0.81080000  0.60000000  1.0 -0.174147417
C  C14  1  0.73600000  0.31080000  0.40000000  1.0 -0.174147417
C  C15  1  0.23600000  0.81080000  0.10000000  1.0 -0.174147417
C  C16  1  0.76400000  0.31080000  0.90000000  1.0 -0.174147417
C  C17  1  0.26180000  0.76490000  0.60380000  1.0 0.2308806766
C  C18  1  0.73820000  0.26490000  0.39620000  1.0 0.2308806766
C  C19  1  0.23820000  0.76490000  0.10380000  1.0 0.2308806766
C  C20  1  0.76180000  0.26490000  0.89620000  1.0 0.2308806766
C  C21  1  0.51840000  0.85690000  0.56730000  1.0 -0.1398254245
C  C22  1  0.48160000  0.35690000  0.43270000  1.0 -0.1398254245
C  C23  1  0.98160000  0.85690000  0.06730000  1.0 -0.1398254245
C  C24  1  0.01840000  0.35690000  0.93270000  1.0 -0.1398254245
C  C25  1  0.59030000  0.88140000  0.56770000  1.0 -0.0904845089
C  C26  1  0.40970000  0.38140000  0.43230000  1.0 -0.0904845089
C  C27  1  0.90970000  0.88140000  0.06770000  1.0 -0.0904845089
C  C28  1  0.09030000  0.38140000  0.93230000  1.0 -0.0904845089
C  C29  1  0.64120000  0.88160000  0.60150000  1.0 -0.0496392392
C  C30  1  0.35880000  0.38160000  0.39850000  1.0 -0.0496392392
C  C31  1  0.85880000  0.88160000  0.10150000  1.0 -0.0496392392
C  C32  1  0.14120000  0.38160000  0.89850000  1.0 -0.0496392392
C  C33  1  0.62050000  0.85430000  0.63360000  1.0 -0.1010216507
C  C34  1  0.37950000  0.35430000  0.36640000  1.0 -0.1010216507
C  C35  1  0.87950000  0.85430000  0.13360000  1.0 -0.1010216507
C  C36  1  0.12050000  0.35430000  0.86640000  1.0 -0.1010216507
C  C37  1  0.55140000  0.82760000  0.63240000  1.0 -0.1398254245
C  C38  1  0.44860000  0.32760000  0.36760000  1.0 -0.1398254245
C  C39  1  0.94860000  0.82760000  0.13240000  1.0 -0.1398254245
C  C40  1  0.05140000  0.32760000  0.86760000  1.0 -0.1398254245
C  C41  1  0.71380000  0.91240000  0.60400000  1.0 0.6156957772
C  C42  1  0.28620000  0.41240000  0.39600000  1.0 0.6156957772
C  C43  1  0.78620000  0.91240000  0.10400000  1.0 0.6156957772
C  C44  1  0.21380000  0.41240000  0.89600000  1.0 0.6156957772
C  C45  1  0.18830000  0.84060000  0.59850000  1.0 0.1007028786
C  C46  1  0.81170000  0.34060000  0.40150000  1.0 0.1007028786
C  C47  1  0.31170000  0.84060000  0.09850000  1.0 0.1007028786
C  C48  1  0.68830000  0.34060000  0.90150000  1.0 0.1007028786
C  C49  1  0.12850000  0.83570000  0.56970000  1.0 -0.159522957
C  C50  1  0.87150000  0.33570000  0.43030000  1.0 -0.159522957
C  C51  1  0.37150000  0.83570000  0.06970000  1.0 -0.159522957
C  C52  1  0.62850000  0.33570000  0.93030000  1.0 -0.159522957
C  C53  1  0.06050000  0.86410000  0.56740000  1.0 -0.1010216507
C  C54  1  0.93950000  0.36410000  0.43260000  1.0 -0.1010216507
C  C55  1  0.43950000  0.86410000  0.06740000  1.0 -0.1010216507
C  C56  1  0.56050000  0.36410000  0.93260000  1.0 -0.1010216507
C  C57  1  0.05500000  0.90040000  0.59320000  1.0 -0.0198299509
C  C58  1  0.94500000  0.40040000  0.40680000  1.0 -0.0198299509
C  C59  1  0.44500000  0.90040000  0.09320000  1.0 -0.0198299509
C  C60  1  0.55500000  0.40040000  0.90680000  1.0 -0.0198299509
C  C61  1  0.11420000  0.90570000  0.62280000  1.0 -0.0904845089
C  C62  1  0.88580000  0.40570000  0.37720000  1.0 -0.0904845089
C  C63  1  0.38580000  0.90570000  0.12280000  1.0 -0.0904845089
C  C64  1  0.61420000  0.40570000  0.87720000  1.0 -0.0904845089
C  C65  1  0.18080000  0.87480000  0.62580000  1.0 -0.1496094683
C  C66  1  0.81920000  0.37480000  0.37420000  1.0 -0.1496094683
C  C67  1  0.31920000  0.87480000  0.12580000  1.0 -0.1496094683
C  C68  1  0.68080000  0.37480000  0.87420000  1.0 -0.1496094683
C  C69  1  0.98450000  0.93410000  0.59080000  1.0 0.5878911044
C  C70  1  0.01550000  0.43410000  0.40920000  1.0 0.5878911044
C  C71  1  0.51550000  0.93410000  0.09080000  1.0 0.5878911044
C  C72  1  0.48450000  0.43410000  0.90920000  1.0 0.5878911044
C  C73  1  0.32500000  0.68750000  0.61210000  1.0 0.0878986169
C  C74  1  0.67500000  0.18750000  0.38790000  1.0 0.0878986169
C  C75  1  0.17500000  0.68750000  0.11210000  1.0 0.0878986169
C  C76  1  0.82500000  0.18750000  0.88790000  1.0 0.0878986169
C  C77  1  0.27710000  0.66120000  0.58780000  1.0 -0.1496094683
C  C78  1  0.72290000  0.16120000  0.41220000  1.0 -0.1496094683
C  C79  1  0.22290000  0.66120000  0.08780000  1.0 -0.1496094683
C  C80  1  0.77710000  0.16120000  0.91220000  1.0 -0.1496094683
C  C81  1  0.26840000  0.61410000  0.59540000  1.0 -0.0904845089
C  C82  1  0.73160000  0.11410000  0.40460000  1.0 -0.0904845089
C  C83  1  0.23160000  0.61410000  0.09540000  1.0 -0.0904845089
C  C84  1  0.76840000  0.11410000  0.90460000  1.0 -0.0904845089
C  C85  1  0.31020000  0.59450000  0.62560000  1.0 -0.0678276142
C  C86  1  0.68980000  0.09450000  0.37440000  1.0 -0.0678276142
C  C87  1  0.18980000  0.59450000  0.12560000  1.0 -0.0678276142
C  C88  1  0.81020000  0.09450000  0.87440000  1.0 -0.0678276142
C  C89  1  0.35590000  0.62530000  0.65240000  1.0 -0.0904845089
C  C90  1  0.64410000  0.12530000  0.34760000  1.0 -0.0904845089
C  C91  1  0.14410000  0.62530000  0.15240000  1.0 -0.0904845089
C  C92  1  0.85590000  0.12530000  0.84760000  1.0 -0.0904845089
C  C93  1  0.36530000  0.66760000  0.64370000  1.0 -0.1301107616
C  C94  1  0.63470000  0.16760000  0.35630000  1.0 -0.1301107616
C  C95  1  0.13470000  0.66760000  0.14370000  1.0 -0.1301107616
C  C96  1  0.86530000  0.16760000  0.85630000  1.0 -0.1301107616
C  C97  1  0.29240000  0.55010000  0.64070000  1.0 0.5628999796
C  C98  1  0.70760000  0.05010000  0.35930000  1.0 0.5628999796
C  C99  1  0.20760000  0.55010000  0.14070000  1.0 0.5628999796
C  C100  1  0.79240000  0.05010000  0.85930000  1.0 0.5628999796
C  C101  1  0.33150000  0.73670000  0.60580000  1.0 -0.1820838891
C  C102  1  0.66850000  0.23670000  0.39420000  1.0 -0.1820838891
C  C103  1  0.16850000  0.73670000  0.10580000  1.0 -0.1820838891
C  C104  1  0.83150000  0.23670000  0.89420000  1.0 -0.1820838891
C  C105  1  0.49750000  0.82990000  0.59990000  1.0 0.1190483296
C  C106  1  0.50250000  0.32990000  0.40010000  1.0 0.1190483296
C  C107  1  0.00250000  0.82990000  0.09990000  1.0 0.1190483296
C  C108  1  0.99750000  0.32990000  0.90010000  1.0 0.1190483296
C  C109  1  0.37960000  0.67510000  0.34280000  1.0 -0.1398254245
C  C110  1  0.62040000  0.17510000  0.65720000  1.0 -0.1398254245
C  C111  1  0.12040000  0.67510000  0.84280000  1.0 -0.1398254245
C  C112  1  0.87960000  0.17510000  0.15720000  1.0 -0.1398254245
C  C113  1  0.31890000  0.55190000  0.33910000  1.0 0.5767779376
C  C114  1  0.68110000  0.05190000  0.66090000  1.0 0.5767779376
C  C115  1  0.18110000  0.55190000  0.83910000  1.0 0.5767779376
C  C116  1  0.81890000  0.05190000  0.16090000  1.0 0.5767779376
C  C117  1  0.51430000  0.82780000  0.40610000  1.0 0.1099728678
C  C118  1  0.48570000  0.32780000  0.59390000  1.0 0.1007028786
C  C119  1  0.98570000  0.82780000  0.90610000  1.0 0.1007028786
C  C120  1  0.01430000  0.32780000  0.09390000  1.0 0.1099728678
C  C121  1  0.56880000  0.82860000  0.37450000  1.0 -0.1398254245
C  C122  1  0.43120000  0.32860000  0.62550000  1.0 -0.1398254245
C  C123  1  0.93120000  0.82860000  0.87450000  1.0 -0.1398254245
C  C124  1  0.06880000  0.32860000  0.12550000  1.0 -0.1398254245
C  C125  1  0.64170000  0.85270000  0.37490000  1.0 -0.1095583959
C  C126  1  0.35830000  0.35270000  0.62510000  1.0 -0.1095583959
C  C127  1  0.85830000  0.85270000  0.87490000  1.0 -0.1095583959
C  C128  1  0.14170000  0.35270000  0.12510000  1.0 -0.1095583959
C  C129  1  0.66240000  0.87680000  0.40920000  1.0 -0.0198299509
C  C130  1  0.33760000  0.37680000  0.59080000  1.0 -0.0198299509
C  C131  1  0.83760000  0.87680000  0.90920000  1.0 -0.0198299509
C  C132  1  0.16240000  0.37680000  0.09080000  1.0 -0.0198299509
C  C133  1  0.61160000  0.87600000  0.44250000  1.0 -0.1095583959
C  C134  1  0.38840000  0.37600000  0.55750000  1.0 -0.1095583959
C  C135  1  0.88840000  0.87600000  0.94250000  1.0 -0.1095583959
C  C136  1  0.11160000  0.37600000  0.05750000  1.0 -0.1095583959
C  C137  1  0.53730000  0.85190000  0.44100000  1.0 -0.1398254245
C  C138  1  0.46270000  0.35190000  0.55900000  1.0 -0.1398254245
C  C139  1  0.96270000  0.85190000  0.94100000  1.0 -0.1398254245
C  C140  1  0.03730000  0.35190000  0.05900000  1.0 -0.1398254245
C  C141  1  0.74180000  0.90540000  0.40920000  1.0 0.6068705346
C  C142  1  0.25820000  0.40540000  0.59080000  1.0 0.6068705346
C  C143  1  0.75820000  0.90540000  0.90920000  1.0 0.6068705346
C  C144  1  0.24180000  0.40540000  0.09080000  1.0 0.6068705346
C  C145  1  0.34900000  0.73790000  0.39060000  1.0 -0.1398254245
C  C146  1  0.65100000  0.23790000  0.60940000  1.0 -0.1398254245
C  C147  1  0.15100000  0.73790000  0.89060000  1.0 -0.1398254245
C  C148  1  0.84900000  0.23790000  0.10940000  1.0 -0.1496094683
C  C149  1  0.42420000  0.76000000  0.39380000  1.0 0.2116386395
C  C150  1  0.57580000  0.26000000  0.60620000  1.0 0.2116386395
C  C151  1  0.07580000  0.76000000  0.89380000  1.0 0.2116386395
C  C152  1  0.92420000  0.26000000  0.10620000  1.0 0.2116386395
C  C153  1  0.43260000  0.80500000  0.40360000  1.0 -0.1496094683
C  C154  1  0.56740000  0.30500000  0.59640000  1.0 -0.1496094683
C  C155  1  0.06740000  0.80500000  0.90360000  1.0 -0.1496094683
C  C156  1  0.93260000  0.30500000  0.09640000  1.0 -0.1496094683
C  C157  1  0.35900000  0.82700000  0.41180000  1.0 0.0878986169
C  C158  1  0.64100000  0.32700000  0.58820000  1.0 0.0878986169
C  C159  1  0.14100000  0.82700000  0.91180000  1.0 0.0878986169
C  C160  1  0.85900000  0.32700000  0.08820000  1.0 0.0878986169
C  C161  1  0.28100000  0.76330000  0.39950000  1.0 0.1007028786
C  C162  1  0.71900000  0.26330000  0.60050000  1.0 0.1007028786
C  C163  1  0.21900000  0.76330000  0.89950000  1.0 0.0878986169
C  C164  1  0.78100000  0.26330000  0.10050000  1.0 0.1007028786
C  C165  1  0.28030000  0.80820000  0.41020000  1.0 -0.0904845089
C  C166  1  0.71970000  0.30820000  0.58980000  1.0 -0.0904845089
C  C167  1  0.21970000  0.80820000  0.91020000  1.0 -0.0904845089
C  C168  1  0.78030000  0.30820000  0.08980000  1.0 -0.0904845089
C  C169  1  0.34230000  0.68910000  0.37870000  1.0 0.1099728678
C  C170  1  0.65770000  0.18910000  0.62130000  1.0 0.1099728678
C  C171  1  0.15770000  0.68910000  0.87870000  1.0 0.1099728678
C  C172  1  0.84230000  0.18910000  0.12130000  1.0 0.1099728678
C  C173  1  0.30220000  0.65780000  0.40190000  1.0 -0.1301107616
C  C174  1  0.69780000  0.15780000  0.59810000  1.0 -0.1301107616
C  C175  1  0.19780000  0.65780000  0.90190000  1.0 -0.1398254245
C  C176  1  0.80220000  0.15780000  0.09810000  1.0 -0.1398254245
C  C177  1  0.29660000  0.61350000  0.39000000  1.0 -0.1010216507
C  C178  1  0.70340000  0.11350000  0.61000000  1.0 -0.1010216507
C  C179  1  0.20340000  0.61350000  0.89000000  1.0 -0.1010216507
C  C180  1  0.79660000  0.11350000  0.11000000  1.0 -0.1010216507
C  C181  1  0.32970000  0.59940000  0.35370000  1.0 -0.0298846685
C  C182  1  0.67030000  0.09940000  0.64630000  1.0 -0.0298846685
C  C183  1  0.17030000  0.59940000  0.85370000  1.0 -0.0298846685
C  C184  1  0.82970000  0.09940000  0.14630000  1.0 -0.0298846685
C  C185  1  0.37080000  0.63120000  0.33020000  1.0 -0.1095583959
C  C186  1  0.62920000  0.13120000  0.66980000  1.0 -0.1095583959
C  C187  1  0.12920000  0.63120000  0.83020000  1.0 -0.1095583959
C  C188  1  0.87080000  0.13120000  0.16980000  1.0 -0.1095583959
C  C189  1  0.20360000  0.83000000  0.42330000  1.0 0.0166661714
C  C190  1  0.79640000  0.33000000  0.57670000  1.0 0.0166661714
C  C191  1  0.29640000  0.83000000  0.92330000  1.0 0.0166661714
C  C192  1  0.70360000  0.33000000  0.07670000  1.0 0.0166661714
C  C193  1  0.15040000  0.80560000  0.45130000  1.0 -0.0496392392
C  C194  1  0.84960000  0.30560000  0.54870000  1.0 -0.0496392392
C  C195  1  0.34960000  0.80560000  0.95130000  1.0 -0.0496392392
C  C196  1  0.65040000  0.30560000  0.04870000  1.0 -0.0496392392
C  C197  1  0.07650000  0.82770000  0.46390000  1.0 -0.1010216507
C  C198  1  0.92350000  0.32770000  0.53610000  1.0 -0.0904845089
C  C199  1  0.42350000  0.82770000  0.96390000  1.0 -0.1010216507
C  C200  1  0.57650000  0.32770000  0.03610000  1.0 -0.1010216507
C  C201  1  0.05790000  0.87120000  0.45050000  1.0 -0.0678276142
C  C202  1  0.94210000  0.37120000  0.54950000  1.0 -0.0598455377
C  C203  1  0.44210000  0.87120000  0.95050000  1.0 -0.0678276142
C  C204  1  0.55790000  0.37120000  0.04950000  1.0 -0.0678276142
C  C205  1  0.10500000  0.89010000  0.42250000  1.0 -0.0198299509
C  C206  1  0.89500000  0.39010000  0.57750000  1.0 -0.0198299509
C  C207  1  0.39500000  0.89010000  0.92250000  1.0 -0.0198299509
C  C208  1  0.60500000  0.39010000  0.07750000  1.0 -0.0198299509
C  C209  1  0.18000000  0.87010000  0.40940000  1.0 0.0131130445
C  C210  1  0.82000000  0.37010000  0.59060000  1.0 0.0131130445
C  C211  1  0.32000000  0.87010000  0.90940000  1.0 0.0131130445
C  C212  1  0.68000000  0.37010000  0.09060000  1.0 0.0131130445
C  C213  1  0.97580000  0.89330000  0.46630000  1.0 0.3210311185
C  C214  1  0.02420000  0.39330000  0.53370000  1.0 0.3210311185
C  C215  1  0.52420000  0.89330000  0.96630000  1.0 0.3210311185
C  C216  1  0.47580000  0.39330000  0.03370000  1.0 0.3210311185
C  C217  1  0.16760000  0.09530000  0.74790000  1.0 -0.1820838891
C  C218  1  0.83240000  0.59530000  0.25210000  1.0 -0.1820838891
C  C219  1  0.33240000  0.09530000  0.24790000  1.0 -0.1820838891
C  C220  1  0.66760000  0.59530000  0.75210000  1.0 -0.1820838891
C  C221  1  0.17160000  0.14170000  0.74680000  1.0 0.2308806766
C  C222  1  0.82840000  0.64170000  0.25320000  1.0 0.2308806766
C  C223  1  0.32840000  0.14170000  0.24680000  1.0 0.2308806766
C  C224  1  0.67160000  0.64170000  0.75320000  1.0 0.2308806766
C  C225  1  0.24330000  0.16720000  0.75420000  1.0 -0.159522957
C  C226  1  0.75670000  0.66720000  0.24580000  1.0 -0.159522957
C  C227  1  0.25670000  0.16720000  0.25420000  1.0 -0.159522957
C  C228  1  0.74330000  0.66720000  0.74580000  1.0 -0.159522957
C  C229  1  0.31380000  0.14130000  0.76240000  1.0 0.2308806766
C  C230  1  0.68620000  0.64130000  0.23760000  1.0 0.2308806766
C  C231  1  0.18620000  0.14130000  0.26240000  1.0 0.2308806766
C  C232  1  0.81380000  0.64130000  0.73760000  1.0 0.2308806766
C  C233  1  0.31490000  0.09370000  0.76510000  1.0 -0.196671271
C  C234  1  0.68510000  0.59370000  0.23490000  1.0 -0.196671271
C  C235  1  0.18510000  0.09370000  0.26510000  1.0 -0.196671271
C  C236  1  0.81490000  0.59370000  0.73490000  1.0 -0.196671271
C  C237  1  0.09050000  0.07010000  0.73930000  1.0 0.1099728678
C  C238  1  0.90950000  0.57010000  0.26070000  1.0 0.1099728678
C  C239  1  0.40950000  0.07010000  0.23930000  1.0 0.1099728678
C  C240  1  0.59050000  0.57010000  0.76070000  1.0 0.1099728678
C  C241  1  0.02370000  0.07140000  0.76680000  1.0 -0.1496094683
C  C242  1  0.97630000  0.57140000  0.23320000  1.0 -0.1496094683
C  C243  1  0.47630000  0.07140000  0.26680000  1.0 -0.1496094683
C  C244  1  0.52370000  0.57140000  0.73320000  1.0 -0.1496094683
C  C245  1  0.95460000  0.04560000  0.75990000  1.0 -0.0904845089
C  C246  1  0.04540000  0.54560000  0.24010000  1.0 -0.0904845089
C  C247  1  0.54540000  0.04560000  0.25990000  1.0 -0.0904845089
C  C248  1  0.45460000  0.54560000  0.74010000  1.0 -0.0904845089
C  C249  1  0.94780000  0.01900000  0.72600000  1.0 -0.0298846685
C  C250  1  0.05220000  0.51900000  0.27400000  1.0 -0.0298846685
C  C251  1  0.55220000  0.01900000  0.22600000  1.0 -0.0298846685
C  C252  1  0.44780000  0.51900000  0.77400000  1.0 -0.0298846685
C  C253  1  0.01130000  0.01830000  0.69850000  1.0 -0.0904845089
C  C254  1  0.98870000  0.51830000  0.30150000  1.0 -0.0904845089
C  C255  1  0.48870000  0.01830000  0.19850000  1.0 -0.0904845089
C  C256  1  0.51130000  0.51830000  0.80150000  1.0 -0.0904845089
C  C257  1  0.08430000  0.04190000  0.70520000  1.0 -0.1496094683
C  C258  1  0.91570000  0.54190000  0.29480000  1.0 -0.1496094683
C  C259  1  0.41570000  0.04190000  0.20520000  1.0 -0.1496094683
C  C260  1  0.58430000  0.54190000  0.79480000  1.0 -0.1496094683
C  C261  1  0.86870000  0.99300000  0.71840000  1.0 0.6250689652
C  C262  1  0.13130000  0.49300000  0.28160000  1.0 0.6250689652
C  C263  1  0.63130000  0.99300000  0.21840000  1.0 0.6250689652
C  C264  1  0.36870000  0.49300000  0.78160000  1.0 0.6250689652
C  C265  1  0.24470000  0.21620000  0.75180000  1.0 0.1099728678
C  C266  1  0.75530000  0.71620000  0.24820000  1.0 0.1099728678
C  C267  1  0.25530000  0.21620000  0.25180000  1.0 0.1099728678
C  C268  1  0.74470000  0.71620000  0.74820000  1.0 0.1099728678
C  C269  1  0.18400000  0.24160000  0.77210000  1.0 -0.159522957
C  C270  1  0.81600000  0.74160000  0.22790000  1.0 -0.159522957
C  C271  1  0.31600000  0.24160000  0.27210000  1.0 -0.159522957
C  C272  1  0.68400000  0.74160000  0.72790000  1.0 -0.159522957
C  C273  1  0.18700000  0.28920000  0.77010000  1.0 -0.1010216507
C  C274  1  0.81300000  0.78920000  0.22990000  1.0 -0.1010216507
C  C275  1  0.31300000  0.28920000  0.27010000  1.0 -0.1010216507
C  C276  1  0.68700000  0.78920000  0.72990000  1.0 -0.1010216507
C  C277  1  0.24580000  0.31090000  0.74790000  1.0 -0.0298846685
C  C278  1  0.75420000  0.81090000  0.25210000  1.0 -0.0298846685
C  C279  1  0.25420000  0.31090000  0.24790000  1.0 -0.0298846685
C  C280  1  0.74580000  0.81090000  0.75210000  1.0 -0.0298846685
C  C281  1  0.30660000  0.28660000  0.72710000  1.0 -0.1010216507
C  C282  1  0.69340000  0.78660000  0.27290000  1.0 -0.1010216507
C  C283  1  0.19340000  0.28660000  0.22710000  1.0 -0.1010216507
C  C284  1  0.80660000  0.78660000  0.77290000  1.0 -0.1010216507
C  C285  1  0.30760000  0.23980000  0.72970000  1.0 -0.159522957
C  C286  1  0.69240000  0.73980000  0.27030000  1.0 -0.159522957
C  C287  1  0.19240000  0.23980000  0.22970000  1.0 -0.1496094683
C  C288  1  0.80760000  0.73980000  0.77030000  1.0 -0.159522957
C  C289  1  0.24500000  0.36180000  0.74530000  1.0 0.6020636286
C  C290  1  0.75500000  0.86180000  0.25470000  1.0 0.6020636286
C  C291  1  0.25500000  0.36180000  0.24530000  1.0 0.6020636286
C  C292  1  0.74500000  0.86180000  0.75470000  1.0 0.6020636286
C  C293  1  0.39150000  0.06800000  0.77420000  1.0 0.0644409859
C  C294  1  0.60850000  0.56800000  0.22580000  1.0 0.0644409859
C  C295  1  0.10850000  0.06800000  0.27420000  1.0 0.0644409859
C  C296  1  0.89150000  0.56800000  0.72580000  1.0 0.0644409859
C  C297  1  0.52400000  0.04240000  0.75690000  1.0 -0.0496392392
C  C298  1  0.47600000  0.54240000  0.24310000  1.0 -0.0496392392
C  C299  1  0.97600000  0.04240000  0.25690000  1.0 -0.0496392392
C  C300  1  0.02400000  0.54240000  0.74310000  1.0 -0.0496392392
C  C301  1  0.39110000  0.03830000  0.80950000  1.0 -0.1398254245
C  C302  1  0.60890000  0.53830000  0.19050000  1.0 -0.1398254245
C  C303  1  0.10890000  0.03830000  0.30950000  1.0 -0.1398254245
C  C304  1  0.89110000  0.53830000  0.69050000  1.0 -0.1398254245
C  C305  1  0.45240000  0.06830000  0.75130000  1.0 -0.0598455377
C  C306  1  0.54760000  0.56830000  0.24870000  1.0 -0.0598455377
C  C307  1  0.04760000  0.06830000  0.25130000  1.0 -0.0598455377
C  C308  1  0.95240000  0.56830000  0.74870000  1.0 -0.0598455377
C  C309  1  0.46500000  0.01320000  0.81750000  1.0 -0.1238327931
C  C310  1  0.53500000  0.51320000  0.18250000  1.0 -0.1238327931
C  C311  1  0.03500000  0.01320000  0.31750000  1.0 -0.1238327931
C  C312  1  0.96500000  0.51320000  0.68250000  1.0 -0.1238327931
C  C313  1  0.53360000  0.01680000  0.78950000  1.0 -0.0097911991
C  C314  1  0.46640000  0.51680000  0.21050000  1.0 -0.0097911991
C  C315  1  0.96640000  0.01680000  0.28950000  1.0 -0.0097911991
C  C316  1  0.03360000  0.51680000  0.71050000  1.0 -0.0097911991
C  C317  1  0.61230000  0.99120000  0.79790000  1.0 0.5512831833
C  C318  1  0.38770000  0.49120000  0.20210000  1.0 0.5512831833
C  C319  1  0.88770000  0.99120000  0.29790000  1.0 0.5512831833
C  C320  1  0.11230000  0.49120000  0.70210000  1.0 0.5512831833
C  C321  1  0.24150000  0.07330000  0.75710000  1.0 0.2225230772
C  C322  1  0.75850000  0.57330000  0.24290000  1.0 0.2225230772
C  C323  1  0.25850000  0.07330000  0.25710000  1.0 0.2225230772
C  C324  1  0.74150000  0.57330000  0.74290000  1.0 0.2225230772
C  C325  1  0.84310000  0.03350000  0.50670000  1.0 0.7161109027
C  C326  1  0.15690000  0.53350000  0.49330000  1.0 0.7161109027
C  C327  1  0.65690000  0.03350000  0.00670000  1.0 0.7161109027
C  C328  1  0.34310000  0.53350000  0.99330000  1.0 0.7161109027
C  C329  1  0.85280000  0.08100000  0.50530000  1.0 -0.6325643632
C  C330  1  0.14720000  0.58100000  0.49470000  1.0 -0.6325643632
C  C331  1  0.64720000  0.08100000  0.00530000  1.0 -0.6325643632
C  C332  1  0.35280000  0.58100000  0.99470000  1.0 -0.6325643632
C  C333  1  0.59160000  0.08930000  0.86100000  1.0 0.1794960589
C  C334  1  0.40840000  0.58930000  0.13900000  1.0 0.1794960589
C  C335  1  0.90840000  0.08930000  0.36100000  1.0 0.1794960589
C  C336  1  0.09160000  0.58930000  0.63900000  1.0 0.1794960589
C  C337  1  0.58400000  0.15590000  0.81980000  1.0 -0.3130485389
C  C338  1  0.41600000  0.65590000  0.18020000  1.0 -0.3130485389
C  C339  1  0.91600000  0.15590000  0.31980000  1.0 -0.3130485389
C  C340  1  0.08400000  0.65590000  0.68020000  1.0 -0.3130485389
C  C341  1  0.51300000  0.14790000  0.88230000  1.0 -0.2871938322
C  C342  1  0.48700000  0.64790000  0.11770000  1.0 -0.2871938322
C  C343  1  0.98700000  0.14790000  0.38230000  1.0 -0.2871938322
C  C344  1  0.01300000  0.64790000  0.61770000  1.0 -0.2871938322
C  C345  1  0.20700000  0.84330000  0.41370000  1.0 0.039541858
C  C346  1  0.79300000  0.34330000  0.58630000  1.0 0.039541858
C  C347  1  0.29300000  0.84330000  0.91370000  1.0 0.039541858
C  C348  1  0.70700000  0.34330000  0.08630000  1.0 0.039541858
C  C349  1  0.14790000  0.83150000  0.44140000  1.0 0.0166661714
C  C350  1  0.85210000  0.33150000  0.55860000  1.0 0.0166661714
C  C351  1  0.35210000  0.83150000  0.94140000  1.0 0.0166661714
C  C352  1  0.64790000  0.33150000  0.05860000  1.0 0.0166661714
C  C353  1  0.07300000  0.85770000  0.44980000  1.0 -0.0097911991
C  C354  1  0.92700000  0.35770000  0.55020000  1.0 -0.0097911991
C  C355  1  0.42700000  0.85770000  0.94980000  1.0 -0.0097911991
C  C356  1  0.57300000  0.35770000  0.05020000  1.0 -0.0097911991
C  C357  1  0.06550000  0.89920000  0.42650000  1.0 -0.0598455377
C  C358  1  0.93450000  0.39920000  0.57350000  1.0 -0.0598455377
C  C359  1  0.43450000  0.89920000  0.92650000  1.0 -0.0598455377
C  C360  1  0.56550000  0.39920000  0.07350000  1.0 -0.0598455377
C  C361  1  0.12620000  0.90800000  0.39790000  1.0 -0.0904845089
C  C362  1  0.87380000  0.40800000  0.60210000  1.0 -0.0904845089
C  C363  1  0.37380000  0.90800000  0.89790000  1.0 -0.0904845089
C  C364  1  0.62620000  0.40800000  0.10210000  1.0 -0.0904845089
C  C365  1  0.19700000  0.88310000  0.39020000  1.0 -0.0496392392
C  C366  1  0.80300000  0.38310000  0.60980000  1.0 -0.0496392392
C  C367  1  0.30300000  0.88310000  0.89020000  1.0 -0.0496392392
C  C368  1  0.69700000  0.38310000  0.10980000  1.0 -0.0496392392
C  C369  1  0.99220000  0.93580000  0.42350000  1.0 0.1794960589
C  C370  1  0.00780000  0.43580000  0.57650000  1.0 0.1870632794
C  C371  1  0.50780000  0.93580000  0.92350000  1.0 0.1794960589
C  C372  1  0.49220000  0.43580000  0.07650000  1.0 0.1794960589
C  C373  1  0.49320000  0.01220000  0.75570000  1.0 -0.0678276142
C  C374  1  0.50680000  0.51220000  0.24430000  1.0 -0.0678276142
C  C375  1  0.00680000  0.01220000  0.25570000  1.0 -0.0678276142
C  C376  1  0.99320000  0.51220000  0.74430000  1.0 -0.0678276142
C  C377  1  0.42320000  0.03750000  0.74680000  1.0 -0.0678276142
C  C378  1  0.57680000  0.53750000  0.25320000  1.0 -0.0678276142
C  C379  1  0.07680000  0.03750000  0.24680000  1.0 -0.0678276142
C  C380  1  0.92320000  0.53750000  0.75320000  1.0 -0.0678276142
C  C381  1  0.45070000  0.08290000  0.80450000  1.0 -0.0904845089
C  C382  1  0.54930000  0.58290000  0.19550000  1.0 -0.0904845089
C  C383  1  0.04930000  0.08290000  0.30450000  1.0 -0.0904845089
C  C384  1  0.95070000  0.58290000  0.69550000  1.0 -0.0904845089
C  C385  1  0.51880000  0.05830000  0.81200000  1.0 -0.0904845089
C  C386  1  0.48120000  0.55830000  0.18800000  1.0 -0.0904845089
C  C387  1  0.98120000  0.05830000  0.31200000  1.0 -0.0904845089
C  C388  1  0.01880000  0.55830000  0.68800000  1.0 -0.0904845089
N  N1  1  0.56430000  0.13030000  0.85300000  1.0 -0.0678276142
N  N2  1  0.43570000  0.63030000  0.14700000  1.0 -0.0678276142
N  N3  1  0.93570000  0.13030000  0.35300000  1.0 -0.0678276142
N  N4  1  0.06430000  0.63030000  0.64700000  1.0 -0.0678276142
O  O1  1  0.73860000  0.93080000  0.57177000  1.0 -0.6601302746
O  O2  1  0.26140000  0.43080000  0.42823000  1.0 -0.6601302746
O  O3  1  0.76140000  0.93080000  0.07177000  1.0 -0.6601302746
O  O4  1  0.23860000  0.43080000  0.92823000  1.0 -0.6601302746
O  O5  1  0.74660000  0.92110000  0.63738000  1.0 -0.6407195985
O  O6  1  0.25340000  0.42110000  0.36262000  1.0 -0.6478796244
O  O7  1  0.75340000  0.92110000  0.13738000  1.0 -0.6407195985
O  O8  1  0.24660000  0.42110000  0.86262000  1.0 -0.6478796244
O  O9  1  0.99100000  0.97030000  0.61010000  1.0 -0.6152667973
O  O10  1  0.00900000  0.47030000  0.38990000  1.0 -0.6152667973
O  O11  1  0.50900000  0.97030000  0.11010000  1.0 -0.6152667973
O  O12  1  0.49100000  0.47030000  0.88990000  1.0 -0.6152667973
O  O13  1  0.92230000  0.92470000  0.56993000  1.0 -0.6601302746
O  O14  1  0.07770000  0.42470000  0.43007000  1.0 -0.6601302746
O  O15  1  0.57770000  0.92470000  0.06993000  1.0 -0.6601302746
O  O16  1  0.42230000  0.42470000  0.93007000  1.0 -0.6601302746
O  O17  1  0.29900000  0.54150000  0.67940000  1.0 -0.6656426165
O  O18  1  0.70100000  0.04150000  0.32060000  1.0 -0.6656426165
O  O19  1  0.20100000  0.54150000  0.17940000  1.0 -0.6656426165
O  O20  1  0.79900000  0.04150000  0.82060000  1.0 -0.6656426165
O  O21  1  0.26980000  0.52140000  0.61350000  1.0 -0.6478796244
O  O22  1  0.73020000  0.02140000  0.38650000  1.0 -0.6478796244
O  O23  1  0.23020000  0.52140000  0.11350000  1.0 -0.6478796244
O  O24  1  0.76980000  0.02140000  0.88650000  1.0 -0.6478796244
O  O25  1  0.76970000  0.91647000  0.37586000  1.0 -0.6325643632
O  O26  1  0.23030000  0.41647000  0.62414000  1.0 -0.6325643632
O  O27  1  0.73030000  0.91647000  0.87586000  1.0 -0.6407195985
O  O28  1  0.26970000  0.41647000  0.12414000  1.0 -0.6325643632
O  O29  1  0.76970000  0.91830000  0.44161000  1.0 -0.6478796244
O  O30  1  0.23030000  0.41830000  0.55839000  1.0 -0.6478796244
O  O31  1  0.73030000  0.91830000  0.94161000  1.0 -0.6478796244
O  O32  1  0.26970000  0.41830000  0.05839000  1.0 -0.6478796244
O  O33  1  0.29470000  0.52229000  0.36425000  1.0 -0.682176863
O  O34  1  0.70530000  0.02229000  0.63575000  1.0 -0.682176863
O  O35  1  0.20530000  0.52229000  0.86425000  1.0 -0.682176863
O  O36  1  0.79470000  0.02229000  0.13575000  1.0 -0.682176863
O  O37  1  0.33220000  0.54330000  0.30397000  1.0 -0.5827541325
O  O38  1  0.66780000  0.04330000  0.69603000  1.0 -0.5827541325
O  O39  1  0.16780000  0.54330000  0.80397000  1.0 -0.5827541325
O  O40  1  0.83220000  0.04330000  0.19603000  1.0 -0.5827541325
O  O41  1  0.96320000  0.92800000  0.45750000  1.0 0.0166661714
O  O42  1  0.03680000  0.42800000  0.54250000  1.0 0.0166661714
O  O43  1  0.53680000  0.92800000  0.95750000  1.0 0.0166661714
O  O44  1  0.46320000  0.42800000  0.04250000  1.0 0.0166661714
O  O45  1  0.92760000  0.86670000  0.48770000  1.0 -0.5913842294
O  O46  1  0.07240000  0.36670000  0.51230000  1.0 -0.5913842294
O  O47  1  0.57240000  0.86670000  0.98770000  1.0 -0.5913842294
O  O48  1  0.42760000  0.36670000  0.01230000  1.0 -0.5913842294
O  O49  1  0.28670000  0.38000000  0.71800000  1.0 -0.6478796244
O  O50  1  0.71330000  0.88000000  0.28200000  1.0 -0.6478796244
O  O51  1  0.21330000  0.38000000  0.21800000  1.0 -0.6478796244
O  O52  1  0.78670000  0.88000000  0.78200000  1.0 -0.6478796244
O  O53  1  0.20600000  0.38259000  0.77130000  1.0 -0.6325643632
O  O54  1  0.79400000  0.88259000  0.22870000  1.0 -0.6325643632
O  O55  1  0.29400000  0.38259000  0.27130000  1.0 -0.6325643632
O  O56  1  0.70600000  0.88259000  0.72870000  1.0 -0.6325643632
O  O57  1  0.64840000  0.97340000  0.77053000  1.0 -0.526011226
O  O58  1  0.35160000  0.47340000  0.22947000  1.0 -0.526011226
O  O59  1  0.85160000  0.97340000  0.27053000  1.0 -0.526011226
O  O60  1  0.14840000  0.47340000  0.72947000  1.0 -0.526011226
O  O61  1  0.63640000  0.98730000  0.83262000  1.0 -0.5501736973
O  O62  1  0.36360000  0.48730000  0.16738000  1.0 -0.5501736973
O  O63  1  0.86360000  0.98730000  0.33262000  1.0 -0.5501736973
O  O64  1  0.13640000  0.48730000  0.66738000  1.0 -0.5501736973
O  O65  1  0.82300000  0.98320000  0.74733000  1.0 -0.6407195985
O  O66  1  0.17700000  0.48320000  0.25267000  1.0 -0.6407195985
O  O67  1  0.67700000  0.98320000  0.24733000  1.0 -0.6407195985
O  O68  1  0.32300000  0.48320000  0.75267000  1.0 -0.6407195985
O  O69  1  0.85190000  0.98160000  0.68334000  1.0 -0.6478796244
O  O70  1  0.14810000  0.48160000  0.31666000  1.0 -0.6478796244
O  O71  1  0.64810000  0.98160000  0.18334000  1.0 -0.6478796244
O  O72  1  0.35190000  0.48160000  0.81666000  1.0 -0.6478796244
O  O73  1  0.84440000  0.01000000  0.47428000  1.0 -0.6859305475
O  O74  1  0.15560000  0.51000000  0.52572000  1.0 -0.6859305475
O  O75  1  0.65560000  0.01000000  0.97428000  1.0 -0.6859305475
O  O76  1  0.34440000  0.51000000  0.02572000  1.0 -0.6859305475
O  O77  1  0.82780000  0.01390000  0.53945000  1.0 -0.682176863
O  O78  1  0.17220000  0.51390000  0.46055000  1.0 -0.682176863
O  O79  1  0.67220000  0.01390000  0.03945000  1.0 -0.682176863
O  O80  1  0.32780000  0.51390000  0.96055000  1.0 -0.682176863
O  O81  1  0.58270000  0.06490000  0.89130000  1.0 -0.4502785031
O  O82  1  0.41730000  0.56490000  0.10870000  1.0 -0.4502785031
O  O83  1  0.91730000  0.06490000  0.39130000  1.0 -0.4502785031
O  O84  1  0.08270000  0.56490000  0.60870000  1.0 -0.4502785031
O  O85  1  0.93490000  0.92030000  0.44520000  1.0 -0.0298846685
O  O86  1  0.06510000  0.42030000  0.55480000  1.0 -0.0298846685
O  O87  1  0.56510000  0.92030000  0.94520000  1.0 -0.0298846685
O  O88  1  0.43490000  0.42030000  0.05480000  1.0 -0.0298846685
O  O89  1  0.00780000  0.97340000  0.41030000  1.0 -0.5159744892
O  O90  1  0.99220000  0.47340000  0.58970000  1.0 -0.5159744892
O  O91  1  0.49220000  0.97340000  0.91030000  1.0 -0.5159744892
O  O92  1  0.50780000  0.47340000  0.08970000  1.0 -0.5159744892
F  F1  1  0.47760000  0.73471000  0.60580000  1.0 -0.1398254245
F  F2  1  0.52240000  0.23471000  0.39420000  1.0 -0.1398254245
F  F3  1  0.02240000  0.73471000  0.10580000  1.0 -0.1398254245
F  F4  1  0.97760000  0.23471000  0.89420000  1.0 -0.1398254245
F  F5  1  0.34830000  0.87557000  0.59524000  1.0 -0.1398254245
F  F6  1  0.65170000  0.37557000  0.40476000  1.0 -0.1398254245
F  F7  1  0.15170000  0.87557000  0.09524000  1.0 -0.1398254245
F  F8  1  0.84830000  0.37557000  0.90476000  1.0 -0.1398254245
F  F9  1  0.18590000  0.74487000  0.60584000  1.0 -0.1496094683
F  F10  1  0.81410000  0.24487000  0.39416000  1.0 -0.1496094683
F  F11  1  0.31410000  0.74487000  0.10584000  1.0 -0.1398254245
F  F12  1  0.68590000  0.24487000  0.89416000  1.0 -0.1496094683
F  F13  1  0.36370000  0.87207000  0.42138000  1.0 -0.1238327931
F  F14  1  0.63630000  0.37207000  0.57862000  1.0 -0.1238327931
F  F15  1  0.13630000  0.87207000  0.92138000  1.0 -0.1238327931
F  F16  1  0.86370000  0.37207000  0.07862000  1.0 -0.1238327931
F  F17  1  0.49420000  0.73647000  0.38681000  1.0 -0.1496094683
F  F18  1  0.50580000  0.23647000  0.61319000  1.0 -0.1496094683
F  F19  1  0.00580000  0.73647000  0.88681000  1.0 -0.1496094683
F  F20  1  0.99420000  0.23647000  0.11319000  1.0 -0.1496094683
F  F21  1  0.20450000  0.74310000  0.39586000  1.0 -0.1301107616
F  F22  1  0.79550000  0.24310000  0.60414000  1.0 -0.1238327931
F  F23  1  0.29550000  0.74310000  0.89586000  1.0 -0.1238327931
F  F24  1  0.70450000  0.24310000  0.10414000  1.0 -0.1301107616
F  F25  1  0.38510000  0.16395000  0.77084000  1.0 -0.1496094683
F  F26  1  0.61490000  0.66395000  0.22916000  1.0 -0.1496094683
F  F27  1  0.11490000  0.16395000  0.27084000  1.0 -0.1496094683
F  F28  1  0.88510000  0.66395000  0.72916000  1.0 -0.1496094683
F  F29  1  0.10220000  0.16460000  0.73719000  1.0 -0.1301107616
F  F30  1  0.89780000  0.66460000  0.26281000  1.0 -0.1301107616
F  F31  1  0.39780000  0.16460000  0.23719000  1.0 -0.1301107616
F  F32  1  0.60220000  0.66460000  0.76281000  1.0 -0.1301107616
F  F33  1  0.24000000  0.02742000  0.75812000  1.0 -0.1398254245
F  F34  1  0.76000000  0.52742000  0.24188000  1.0 -0.1398254245
F  F35  1  0.26000000  0.02742000  0.25812000  1.0 -0.1398254245
F  F36  1  0.74000000  0.52742000  0.74188000  1.0 -0.1398254245
