# DDEC6 charges by PACMAN v1.1 (https://github.com/mtap-research/PACMAN-charge/)
data_UFAKUL_ASR_pacman
_symmetry_space_group_name_H-M   'P 1'
_cell_length_a   32.89160000
_cell_length_b   32.89160000
_cell_length_c   32.89160000
_cell_angle_alpha   60.00000000
_cell_angle_beta   60.00000000
_cell_angle_gamma   60.00000000
_symmetry_Int_Tables_number   1
_chemical_formula_structural   CuC16N3O4
_chemical_formula_sum   'Cu24 C384 N72 O96'
_cell_volume   25161.70130059
_cell_formula_units_Z   24
loop_
 _symmetry_equiv_pos_site_id
 _symmetry_equiv_pos_as_xyz
  1  'x, y, z'
loop_
 _atom_site_type_symbol
 _atom_site_label
 _atom_site_symmetry_multiplicity
 _atom_site_fract_x
 _atom_site_fract_y
 _atom_site_fract_z
 _atom_site_occupancy
 _atom_site_charge
Cu  Cu1  1  0.25798000  0.74202000  0.50000000  1.0 0.8809836157
Cu  Cu2  1  0.74202000  0.25798000  0.50000000  1.0 0.8809836157
Cu  Cu3  1  0.50000000  0.50000000  0.25798000  1.0 0.8809836157
Cu  Cu4  1  0.50000000  0.50000000  0.74202000  1.0 0.8809836157
Cu  Cu5  1  0.50000000  0.25798000  0.74202000  1.0 0.8809836157
Cu  Cu6  1  0.50000000  0.74202000  0.25798000  1.0 0.8809836157
Cu  Cu7  1  0.25798000  0.50000000  0.50000000  1.0 0.8809836157
Cu  Cu8  1  0.74202000  0.50000000  0.50000000  1.0 0.8809836157
Cu  Cu9  1  0.74202000  0.50000000  0.25798000  1.0 0.8809836157
Cu  Cu10  1  0.25798000  0.50000000  0.74202000  1.0 0.8809836157
Cu  Cu11  1  0.50000000  0.25798000  0.50000000  1.0 0.8809836157
Cu  Cu12  1  0.50000000  0.74202000  0.50000000  1.0 0.8809836157
Cu  Cu13  1  0.17742000  0.82258000  0.50000000  1.0 0.9100841481
Cu  Cu14  1  0.82258000  0.17742000  0.50000000  1.0 0.9100841481
Cu  Cu15  1  0.50000000  0.50000000  0.17742000  1.0 0.9100841481
Cu  Cu16  1  0.50000000  0.50000000  0.82258000  1.0 0.9100841481
Cu  Cu17  1  0.50000000  0.17742000  0.82258000  1.0 0.9100841481
Cu  Cu18  1  0.50000000  0.82258000  0.17742000  1.0 0.9100841481
Cu  Cu19  1  0.17742000  0.50000000  0.50000000  1.0 0.9100841481
Cu  Cu20  1  0.82258000  0.50000000  0.50000000  1.0 0.9100841481
Cu  Cu21  1  0.82258000  0.50000000  0.17742000  1.0 0.9100841481
Cu  Cu22  1  0.17742000  0.50000000  0.82258000  1.0 0.9100841481
Cu  Cu23  1  0.50000000  0.17742000  0.50000000  1.0 0.9100841481
Cu  Cu24  1  0.50000000  0.82258000  0.50000000  1.0 0.9100841481
C  C1  1  0.25683000  0.82119000  0.51363000  1.0 0.5832641784
C  C2  1  0.82119000  0.25683000  0.40835000  1.0 0.5864063189
C  C3  1  0.51363000  0.40835000  0.25683000  1.0 0.5832641784
C  C4  1  0.40835000  0.51363000  0.82119000  1.0 0.5864063189
C  C5  1  0.51363000  0.25683000  0.82119000  1.0 0.5864063189
C  C6  1  0.40835000  0.82119000  0.25683000  1.0 0.5832641784
C  C7  1  0.25683000  0.51363000  0.40835000  1.0 0.5864063189
C  C8  1  0.82119000  0.40835000  0.51363000  1.0 0.5864063189
C  C9  1  0.82119000  0.51363000  0.25683000  1.0 0.5864063189
C  C10  1  0.25683000  0.40835000  0.82119000  1.0 0.5832641784
C  C11  1  0.40835000  0.25683000  0.51363000  1.0 0.5832641784
C  C12  1  0.51363000  0.82119000  0.40835000  1.0 0.5864063189
C  C13  1  0.74317000  0.17881000  0.59165000  1.0 0.5864063189
C  C14  1  0.17881000  0.74317000  0.48637000  1.0 0.5864063189
C  C15  1  0.48637000  0.59165000  0.17881000  1.0 0.5832641784
C  C16  1  0.59165000  0.48637000  0.74317000  1.0 0.5832641784
C  C17  1  0.48637000  0.74317000  0.59165000  1.0 0.5832641784
C  C18  1  0.59165000  0.17881000  0.48637000  1.0 0.5864063189
C  C19  1  0.74317000  0.48637000  0.17881000  1.0 0.5864063189
C  C20  1  0.17881000  0.59165000  0.74317000  1.0 0.5864063189
C  C21  1  0.17881000  0.48637000  0.59165000  1.0 0.5864063189
C  C22  1  0.74317000  0.59165000  0.48637000  1.0 0.5864063189
C  C23  1  0.59165000  0.74317000  0.17881000  1.0 0.5832641784
C  C24  1  0.48637000  0.17881000  0.74317000  1.0 0.5864063189
C  C25  1  0.74317000  0.17881000  0.48637000  1.0 0.5864063189
C  C26  1  0.17881000  0.74317000  0.59165000  1.0 0.5832641784
C  C27  1  0.48637000  0.59165000  0.74317000  1.0 0.5864063189
C  C28  1  0.59165000  0.48637000  0.17881000  1.0 0.5864063189
C  C29  1  0.48637000  0.74317000  0.17881000  1.0 0.5832641784
C  C30  1  0.59165000  0.17881000  0.74317000  1.0 0.5864063189
C  C31  1  0.74317000  0.48637000  0.59165000  1.0 0.5864063189
C  C32  1  0.17881000  0.59165000  0.48637000  1.0 0.5864063189
C  C33  1  0.17881000  0.48637000  0.74317000  1.0 0.5832641784
C  C34  1  0.74317000  0.59165000  0.17881000  1.0 0.5832641784
C  C35  1  0.59165000  0.74317000  0.48637000  1.0 0.5864063189
C  C36  1  0.48637000  0.17881000  0.59165000  1.0 0.5864063189
C  C37  1  0.25683000  0.82119000  0.40835000  1.0 0.5832641784
C  C38  1  0.82119000  0.25683000  0.51363000  1.0 0.5864063189
C  C39  1  0.51363000  0.40835000  0.82119000  1.0 0.5832641784
C  C40  1  0.40835000  0.51363000  0.25683000  1.0 0.5864063189
C  C41  1  0.51363000  0.25683000  0.40835000  1.0 0.5832641784
C  C42  1  0.40835000  0.82119000  0.51363000  1.0 0.5832641784
C  C43  1  0.25683000  0.51363000  0.82119000  1.0 0.5864063189
C  C44  1  0.82119000  0.40835000  0.25683000  1.0 0.5832641784
C  C45  1  0.82119000  0.51363000  0.40835000  1.0 0.5864063189
C  C46  1  0.25683000  0.40835000  0.51363000  1.0 0.5832641784
C  C47  1  0.40835000  0.25683000  0.82119000  1.0 0.5864063189
C  C48  1  0.51363000  0.82119000  0.25683000  1.0 0.5864063189
C  C49  1  0.28184000  0.84458000  0.52000000  1.0 -0.1584080226
C  C50  1  0.84458000  0.28184000  0.35358000  1.0 -0.1534202844
C  C51  1  0.52000000  0.35358000  0.28184000  1.0 -0.1534202844
C  C52  1  0.35358000  0.52000000  0.84458000  1.0 -0.1584080226
C  C53  1  0.52000000  0.28184000  0.84458000  1.0 -0.1584080226
C  C54  1  0.35358000  0.84458000  0.28184000  1.0 -0.1584080226
C  C55  1  0.28184000  0.52000000  0.35358000  1.0 -0.1584080226
C  C56  1  0.84458000  0.35358000  0.52000000  1.0 -0.1584080226
C  C57  1  0.84458000  0.52000000  0.28184000  1.0 -0.1584080226
C  C58  1  0.28184000  0.35358000  0.84458000  1.0 -0.1584080226
C  C59  1  0.35358000  0.28184000  0.52000000  1.0 -0.1534202844
C  C60  1  0.52000000  0.84458000  0.35358000  1.0 -0.1584080226
C  C61  1  0.71816000  0.15542000  0.64642000  1.0 -0.1584080226
C  C62  1  0.15542000  0.71816000  0.48000000  1.0 -0.1584080226
C  C63  1  0.48000000  0.64642000  0.15542000  1.0 -0.1534202844
C  C64  1  0.64642000  0.48000000  0.71816000  1.0 -0.1584080226
C  C65  1  0.48000000  0.71816000  0.64642000  1.0 -0.1534202844
C  C66  1  0.64642000  0.15542000  0.48000000  1.0 -0.1584080226
C  C67  1  0.71816000  0.48000000  0.15542000  1.0 -0.1584080226
C  C68  1  0.15542000  0.64642000  0.71816000  1.0 -0.1584080226
C  C69  1  0.15542000  0.48000000  0.64642000  1.0 -0.1584080226
C  C70  1  0.71816000  0.64642000  0.48000000  1.0 -0.1584080226
C  C71  1  0.64642000  0.71816000  0.15542000  1.0 -0.1584080226
C  C72  1  0.48000000  0.15542000  0.71816000  1.0 -0.1534202844
C  C73  1  0.71816000  0.15542000  0.48000000  1.0 -0.1584080226
C  C74  1  0.15542000  0.71816000  0.64642000  1.0 -0.1584080226
C  C75  1  0.48000000  0.64642000  0.71816000  1.0 -0.1534202844
C  C76  1  0.64642000  0.48000000  0.15542000  1.0 -0.1584080226
C  C77  1  0.48000000  0.71816000  0.15542000  1.0 -0.1534202844
C  C78  1  0.64642000  0.15542000  0.71816000  1.0 -0.1584080226
C  C79  1  0.71816000  0.48000000  0.64642000  1.0 -0.1584080226
C  C80  1  0.15542000  0.64642000  0.48000000  1.0 -0.1584080226
C  C81  1  0.15542000  0.48000000  0.71816000  1.0 -0.1584080226
C  C82  1  0.71816000  0.64642000  0.15542000  1.0 -0.1584080226
C  C83  1  0.64642000  0.71816000  0.48000000  1.0 -0.1584080226
C  C84  1  0.48000000  0.15542000  0.64642000  1.0 -0.1534202844
C  C85  1  0.28184000  0.84458000  0.35358000  1.0 -0.1584080226
C  C86  1  0.84458000  0.28184000  0.52000000  1.0 -0.1584080226
C  C87  1  0.52000000  0.35358000  0.84458000  1.0 -0.1584080226
C  C88  1  0.35358000  0.52000000  0.28184000  1.0 -0.1584080226
C  C89  1  0.52000000  0.28184000  0.35358000  1.0 -0.1584080226
C  C90  1  0.35358000  0.84458000  0.52000000  1.0 -0.1584080226
C  C91  1  0.28184000  0.52000000  0.84458000  1.0 -0.1660515916
C  C92  1  0.84458000  0.35358000  0.28184000  1.0 -0.1534202844
C  C93  1  0.84458000  0.52000000  0.35358000  1.0 -0.1584080226
C  C94  1  0.28184000  0.35358000  0.52000000  1.0 -0.1534202844
C  C95  1  0.35358000  0.28184000  0.84458000  1.0 -0.1584080226
C  C96  1  0.52000000  0.84458000  0.28184000  1.0 -0.1584080226
C  C97  1  0.33038000  0.82062000  0.51862000  1.0 0.0977483638
C  C98  1  0.82062000  0.33038000  0.33038000  1.0 0.0977483638
C  C99  1  0.51862000  0.33038000  0.33038000  1.0 0.0977483638
C  C100  1  0.33038000  0.51862000  0.82062000  1.0 0.0903531764
C  C101  1  0.51862000  0.33038000  0.82062000  1.0 0.0903531764
C  C102  1  0.33038000  0.82062000  0.33038000  1.0 0.0977483638
C  C103  1  0.33038000  0.51862000  0.33038000  1.0 0.0903531764
C  C104  1  0.82062000  0.33038000  0.51862000  1.0 0.0977483638
C  C105  1  0.82062000  0.51862000  0.33038000  1.0 0.0977483638
C  C106  1  0.33038000  0.33038000  0.82062000  1.0 0.0903531764
C  C107  1  0.33038000  0.33038000  0.51862000  1.0 0.0977483638
C  C108  1  0.51862000  0.82062000  0.33038000  1.0 0.0903531764
C  C109  1  0.66962000  0.17938000  0.66962000  1.0 0.0903531764
C  C110  1  0.17938000  0.66962000  0.48138000  1.0 0.0903531764
C  C111  1  0.48138000  0.66962000  0.17938000  1.0 0.0977483638
C  C112  1  0.66962000  0.48138000  0.66962000  1.0 0.0977483638
C  C113  1  0.48138000  0.66962000  0.66962000  1.0 0.0977483638
C  C114  1  0.66962000  0.17938000  0.48138000  1.0 0.0903531764
C  C115  1  0.66962000  0.48138000  0.17938000  1.0 0.0903531764
C  C116  1  0.17938000  0.66962000  0.66962000  1.0 0.0903531764
C  C117  1  0.17938000  0.48138000  0.66962000  1.0 0.0977483638
C  C118  1  0.66962000  0.66962000  0.48138000  1.0 0.0903531764
C  C119  1  0.66962000  0.66962000  0.17938000  1.0 0.0977483638
C  C120  1  0.48138000  0.17938000  0.66962000  1.0 0.0903531764
C  C121  1  0.25558000  0.89018000  0.52548000  1.0 0.0301169604
C  C122  1  0.89018000  0.25558000  0.32876000  1.0 0.0301169604
C  C123  1  0.52548000  0.32876000  0.25558000  1.0 0.0301169604
C  C124  1  0.32876000  0.52548000  0.89018000  1.0 0.0098743417
C  C125  1  0.52548000  0.25558000  0.89018000  1.0 0.0098743417
C  C126  1  0.32876000  0.89018000  0.25558000  1.0 0.0301169604
C  C127  1  0.25558000  0.52548000  0.32876000  1.0 0.020139845
C  C128  1  0.89018000  0.32876000  0.52548000  1.0 0.020139845
C  C129  1  0.89018000  0.52548000  0.25558000  1.0 0.020139845
C  C130  1  0.25558000  0.32876000  0.89018000  1.0 0.0098743417
C  C131  1  0.32876000  0.25558000  0.52548000  1.0 0.0301169604
C  C132  1  0.52548000  0.89018000  0.32876000  1.0 0.020139845
C  C133  1  0.74442000  0.10982000  0.67124000  1.0 0.020139845
C  C134  1  0.10982000  0.74442000  0.47452000  1.0 0.0098743417
C  C135  1  0.47452000  0.67124000  0.10982000  1.0 0.0301169604
C  C136  1  0.67124000  0.47452000  0.74442000  1.0 0.0301169604
C  C137  1  0.47452000  0.74442000  0.67124000  1.0 0.020139845
C  C138  1  0.67124000  0.10982000  0.47452000  1.0 0.0098743417
C  C139  1  0.74442000  0.47452000  0.10982000  1.0 0.020139845
C  C140  1  0.10982000  0.67124000  0.74442000  1.0 0.0043032291
C  C141  1  0.10982000  0.47452000  0.67124000  1.0 0.0301169604
C  C142  1  0.74442000  0.67124000  0.47452000  1.0 0.0098743417
C  C143  1  0.67124000  0.74442000  0.10982000  1.0 0.0301169604
C  C144  1  0.47452000  0.10982000  0.74442000  1.0 0.0098743417
C  C145  1  0.74442000  0.10982000  0.47452000  1.0 0.020139845
C  C146  1  0.10982000  0.74442000  0.67124000  1.0 0.0098743417
C  C147  1  0.47452000  0.67124000  0.74442000  1.0 0.0098743417
C  C148  1  0.67124000  0.47452000  0.10982000  1.0 0.0098743417
C  C149  1  0.47452000  0.74442000  0.10982000  1.0 0.0301169604
C  C150  1  0.67124000  0.10982000  0.74442000  1.0 0.020139845
C  C151  1  0.74442000  0.47452000  0.67124000  1.0 0.0301169604
C  C152  1  0.10982000  0.67124000  0.47452000  1.0 0.0098743417
C  C153  1  0.10982000  0.47452000  0.74442000  1.0 0.0301169604
C  C154  1  0.74442000  0.67124000  0.10982000  1.0 0.0301169604
C  C155  1  0.67124000  0.74442000  0.47452000  1.0 0.020139845
C  C156  1  0.47452000  0.10982000  0.67124000  1.0 0.0098743417
C  C157  1  0.25558000  0.89018000  0.32876000  1.0 0.0301169604
C  C158  1  0.89018000  0.25558000  0.52548000  1.0 0.020139845
C  C159  1  0.52548000  0.32876000  0.89018000  1.0 0.0098743417
C  C160  1  0.32876000  0.52548000  0.25558000  1.0 0.020139845
C  C161  1  0.52548000  0.25558000  0.32876000  1.0 0.0301169604
C  C162  1  0.32876000  0.89018000  0.52548000  1.0 0.0301169604
C  C163  1  0.25558000  0.52548000  0.89018000  1.0 0.0098743417
C  C164  1  0.89018000  0.32876000  0.25558000  1.0 0.0410922068
C  C165  1  0.89018000  0.52548000  0.32876000  1.0 0.020139845
C  C166  1  0.25558000  0.32876000  0.52548000  1.0 0.020139845
C  C167  1  0.32876000  0.25558000  0.89018000  1.0 0.0043032291
C  C168  1  0.52548000  0.89018000  0.25558000  1.0 0.020139845
C  C169  1  0.27800000  0.91314000  0.53086000  1.0 0.0410922068
C  C170  1  0.91314000  0.27800000  0.27800000  1.0 0.0410922068
C  C171  1  0.53086000  0.27800000  0.27800000  1.0 0.0410922068
C  C172  1  0.27800000  0.53086000  0.91314000  1.0 0.0676843887
C  C173  1  0.53086000  0.27800000  0.91314000  1.0 0.0604814711
C  C174  1  0.27800000  0.91314000  0.27800000  1.0 0.020139845
C  C175  1  0.27800000  0.53086000  0.27800000  1.0 0.0410922068
C  C176  1  0.91314000  0.27800000  0.53086000  1.0 0.0604814711
C  C177  1  0.91314000  0.53086000  0.27800000  1.0 0.0499930174
C  C178  1  0.27800000  0.27800000  0.91314000  1.0 0.0604814711
C  C179  1  0.27800000  0.27800000  0.53086000  1.0 0.0301169604
C  C180  1  0.53086000  0.91314000  0.27800000  1.0 0.0410922068
C  C181  1  0.72200000  0.08686000  0.72200000  1.0 0.0676843887
C  C182  1  0.08686000  0.72200000  0.46914000  1.0 0.0604814711
C  C183  1  0.46914000  0.72200000  0.08686000  1.0 0.0301169604
C  C184  1  0.72200000  0.46914000  0.72200000  1.0 0.0410922068
C  C185  1  0.46914000  0.72200000  0.72200000  1.0 0.0604814711
C  C186  1  0.72200000  0.08686000  0.46914000  1.0 0.0676843887
C  C187  1  0.72200000  0.46914000  0.08686000  1.0 0.0676843887
C  C188  1  0.08686000  0.72200000  0.72200000  1.0 0.0604814711
C  C189  1  0.08686000  0.46914000  0.72200000  1.0 0.0410922068
C  C190  1  0.72200000  0.72200000  0.46914000  1.0 0.0676843887
C  C191  1  0.72200000  0.72200000  0.08686000  1.0 0.0410922068
C  C192  1  0.46914000  0.08686000  0.72200000  1.0 0.0604814711
C  C193  1  0.20240000  0.98340000  0.54380000  1.0 -0.0295736353
C  C194  1  0.98340000  0.20240000  0.27040000  1.0 -0.0295736353
C  C195  1  0.54380000  0.27040000  0.20240000  1.0 -0.0193848747
C  C196  1  0.27040000  0.54380000  0.98340000  1.0 -0.0079377842
C  C197  1  0.54380000  0.20240000  0.98340000  1.0 -0.0079377842
C  C198  1  0.27040000  0.98340000  0.20240000  1.0 -0.0193848747
C  C199  1  0.20240000  0.54380000  0.27040000  1.0 -0.0193848747
C  C200  1  0.98340000  0.27040000  0.54380000  1.0 -0.0079377842
C  C201  1  0.98340000  0.54380000  0.20240000  1.0 -0.0193848747
C  C202  1  0.20240000  0.27040000  0.98340000  1.0 -0.0193848747
C  C203  1  0.27040000  0.20240000  0.54380000  1.0 -0.0295736353
C  C204  1  0.54380000  0.98340000  0.27040000  1.0 -0.0193848747
C  C205  1  0.79760000  0.01660000  0.72960000  1.0 -0.0079377842
C  C206  1  0.01660000  0.79760000  0.45620000  1.0 -0.0079377842
C  C207  1  0.45620000  0.72960000  0.01660000  1.0 -0.0295736353
C  C208  1  0.72960000  0.45620000  0.79760000  1.0 -0.0295736353
C  C209  1  0.45620000  0.79760000  0.72960000  1.0 -0.0079377842
C  C210  1  0.72960000  0.01660000  0.45620000  1.0 -0.0193848747
C  C211  1  0.79760000  0.45620000  0.01660000  1.0 -0.0193848747
C  C212  1  0.01660000  0.72960000  0.79760000  1.0 -0.0193848747
C  C213  1  0.01660000  0.45620000  0.72960000  1.0 -0.0193848747
C  C214  1  0.79760000  0.72960000  0.45620000  1.0 -0.0193848747
C  C215  1  0.72960000  0.79760000  0.01660000  1.0 -0.0193848747
C  C216  1  0.45620000  0.01660000  0.79760000  1.0 -0.0193848747
C  C217  1  0.79760000  0.01660000  0.45620000  1.0 -0.0193848747
C  C218  1  0.01660000  0.79760000  0.72960000  1.0 -0.0079377842
C  C219  1  0.45620000  0.72960000  0.79760000  1.0 -0.0193848747
C  C220  1  0.72960000  0.45620000  0.01660000  1.0 -0.0193848747
C  C221  1  0.45620000  0.79760000  0.01660000  1.0 -0.0295736353
C  C222  1  0.72960000  0.01660000  0.79760000  1.0 -0.0193848747
C  C223  1  0.79760000  0.45620000  0.72960000  1.0 -0.0193848747
C  C224  1  0.01660000  0.72960000  0.45620000  1.0 -0.0079377842
C  C225  1  0.01660000  0.45620000  0.79760000  1.0 -0.0295736353
C  C226  1  0.79760000  0.72960000  0.01660000  1.0 -0.0295736353
C  C227  1  0.72960000  0.79760000  0.45620000  1.0 -0.0079377842
C  C228  1  0.45620000  0.01660000  0.72960000  1.0 -0.0079377842
C  C229  1  0.20240000  0.98340000  0.27040000  1.0 -0.0193848747
C  C230  1  0.98340000  0.20240000  0.54380000  1.0 -0.0193848747
C  C231  1  0.54380000  0.27040000  0.98340000  1.0 -0.0079377842
C  C232  1  0.27040000  0.54380000  0.20240000  1.0 -0.0193848747
C  C233  1  0.54380000  0.20240000  0.27040000  1.0 -0.0193848747
C  C234  1  0.27040000  0.98340000  0.54380000  1.0 -0.0193848747
C  C235  1  0.20240000  0.54380000  0.98340000  1.0 -0.0193848747
C  C236  1  0.98340000  0.27040000  0.20240000  1.0 -0.0295736353
C  C237  1  0.98340000  0.54380000  0.27040000  1.0 -0.0193848747
C  C238  1  0.20240000  0.27040000  0.54380000  1.0 -0.0193848747
C  C239  1  0.27040000  0.20240000  0.98340000  1.0 -0.0079377842
C  C240  1  0.54380000  0.98340000  0.20240000  1.0 -0.0193848747
C  C241  1  0.17880000  0.03580000  0.53340000  1.0 0.0604814711
C  C242  1  0.03580000  0.17880000  0.25200000  1.0 0.0604814711
C  C243  1  0.53340000  0.25200000  0.17880000  1.0 0.0604814711
C  C244  1  0.25200000  0.53340000  0.03580000  1.0 0.0499930174
C  C245  1  0.53340000  0.17880000  0.03580000  1.0 0.0499930174
C  C246  1  0.25200000  0.03580000  0.17880000  1.0 0.0604814711
C  C247  1  0.17880000  0.53340000  0.25200000  1.0 0.0499930174
C  C248  1  0.03580000  0.25200000  0.53340000  1.0 0.0604814711
C  C249  1  0.03580000  0.53340000  0.17880000  1.0 0.0499930174
C  C250  1  0.17880000  0.25200000  0.03580000  1.0 0.0499930174
C  C251  1  0.25200000  0.17880000  0.53340000  1.0 0.0604814711
C  C252  1  0.53340000  0.03580000  0.25200000  1.0 0.0499930174
C  C253  1  0.82120000  0.96420000  0.74800000  1.0 0.0604814711
C  C254  1  0.96420000  0.82120000  0.46660000  1.0 0.0499930174
C  C255  1  0.46660000  0.74800000  0.96420000  1.0 0.0604814711
C  C256  1  0.74800000  0.46660000  0.82120000  1.0 0.0604814711
C  C257  1  0.46660000  0.82120000  0.74800000  1.0 0.0604814711
C  C258  1  0.74800000  0.96420000  0.46660000  1.0 0.0499930174
C  C259  1  0.82120000  0.46660000  0.96420000  1.0 0.0499930174
C  C260  1  0.96420000  0.74800000  0.82120000  1.0 0.0499930174
C  C261  1  0.96420000  0.46660000  0.74800000  1.0 0.0676843887
C  C262  1  0.82120000  0.74800000  0.46660000  1.0 0.0410922068
C  C263  1  0.74800000  0.82120000  0.96420000  1.0 0.0676843887
C  C264  1  0.46660000  0.96420000  0.82120000  1.0 0.0604814711
C  C265  1  0.82120000  0.96420000  0.46660000  1.0 0.0499930174
C  C266  1  0.96420000  0.82120000  0.74800000  1.0 0.0499930174
C  C267  1  0.46660000  0.74800000  0.82120000  1.0 0.0499930174
C  C268  1  0.74800000  0.46660000  0.96420000  1.0 0.0499930174
C  C269  1  0.46660000  0.82120000  0.96420000  1.0 0.0676843887
C  C270  1  0.74800000  0.96420000  0.82120000  1.0 0.0604814711
C  C271  1  0.82120000  0.46660000  0.74800000  1.0 0.0676843887
C  C272  1  0.96420000  0.74800000  0.46660000  1.0 0.0499930174
C  C273  1  0.96420000  0.46660000  0.82120000  1.0 0.0604814711
C  C274  1  0.82120000  0.74800000  0.96420000  1.0 0.0604814711
C  C275  1  0.74800000  0.82120000  0.46660000  1.0 0.0499930174
C  C276  1  0.46660000  0.96420000  0.74800000  1.0 0.0604814711
C  C277  1  0.17880000  0.03580000  0.25200000  1.0 0.0604814711
C  C278  1  0.03580000  0.17880000  0.53340000  1.0 0.0604814711
C  C279  1  0.53340000  0.25200000  0.03580000  1.0 0.0499930174
C  C280  1  0.25200000  0.53340000  0.17880000  1.0 0.0499930174
C  C281  1  0.53340000  0.17880000  0.25200000  1.0 0.0676843887
C  C282  1  0.25200000  0.03580000  0.53340000  1.0 0.0604814711
C  C283  1  0.17880000  0.53340000  0.03580000  1.0 0.0410922068
C  C284  1  0.03580000  0.25200000  0.17880000  1.0 0.0676843887
C  C285  1  0.03580000  0.53340000  0.25200000  1.0 0.0604814711
C  C286  1  0.17880000  0.25200000  0.53340000  1.0 0.0676843887
C  C287  1  0.25200000  0.17880000  0.03580000  1.0 0.0499930174
C  C288  1  0.53340000  0.03580000  0.17880000  1.0 0.0499930174
C  C289  1  0.17650000  0.10450000  0.54250000  1.0 0.0676843887
C  C290  1  0.10450000  0.17650000  0.17650000  1.0 0.0676843887
C  C291  1  0.54250000  0.17650000  0.17650000  1.0 0.0604814711
C  C292  1  0.17650000  0.54250000  0.10450000  1.0 0.0604814711
C  C293  1  0.54250000  0.17650000  0.10450000  1.0 0.0604814711
C  C294  1  0.17650000  0.10450000  0.17650000  1.0 0.0676843887
C  C295  1  0.17650000  0.54250000  0.17650000  1.0 0.0604814711
C  C296  1  0.10450000  0.17650000  0.54250000  1.0 0.0676843887
C  C297  1  0.10450000  0.54250000  0.17650000  1.0 0.0604814711
C  C298  1  0.17650000  0.17650000  0.10450000  1.0 0.0604814711
C  C299  1  0.17650000  0.17650000  0.54250000  1.0 0.0604814711
C  C300  1  0.54250000  0.10450000  0.17650000  1.0 0.0604814711
C  C301  1  0.82350000  0.89550000  0.82350000  1.0 0.0604814711
C  C302  1  0.89550000  0.82350000  0.45750000  1.0 0.0604814711
C  C303  1  0.45750000  0.82350000  0.89550000  1.0 0.0676843887
C  C304  1  0.82350000  0.45750000  0.82350000  1.0 0.0676843887
C  C305  1  0.45750000  0.82350000  0.82350000  1.0 0.0676843887
C  C306  1  0.82350000  0.89550000  0.45750000  1.0 0.0604814711
C  C307  1  0.82350000  0.45750000  0.89550000  1.0 0.0676843887
C  C308  1  0.89550000  0.82350000  0.82350000  1.0 0.0604814711
C  C309  1  0.89550000  0.45750000  0.82350000  1.0 0.0604814711
C  C310  1  0.82350000  0.82350000  0.45750000  1.0 0.0604814711
C  C311  1  0.82350000  0.82350000  0.89550000  1.0 0.0604814711
C  C312  1  0.45750000  0.89550000  0.82350000  1.0 0.0676843887
C  C313  1  0.12810000  0.12810000  0.54330000  1.0 0.0301169604
C  C314  1  0.12810000  0.12810000  0.20050000  1.0 0.0301169604
C  C315  1  0.54330000  0.20050000  0.12810000  1.0 0.020139845
C  C316  1  0.20050000  0.54330000  0.12810000  1.0 0.020139845
C  C317  1  0.54330000  0.12810000  0.12810000  1.0 0.020139845
C  C318  1  0.20050000  0.12810000  0.12810000  1.0 0.020139845
C  C319  1  0.12810000  0.54330000  0.20050000  1.0 0.020139845
C  C320  1  0.12810000  0.20050000  0.54330000  1.0 0.0301169604
C  C321  1  0.12810000  0.54330000  0.12810000  1.0 0.020139845
C  C322  1  0.12810000  0.20050000  0.12810000  1.0 0.020139845
C  C323  1  0.20050000  0.12810000  0.54330000  1.0 0.0301169604
C  C324  1  0.54330000  0.12810000  0.20050000  1.0 0.020139845
C  C325  1  0.87190000  0.87190000  0.79950000  1.0 0.020139845
C  C326  1  0.87190000  0.87190000  0.45670000  1.0 0.020139845
C  C327  1  0.45670000  0.79950000  0.87190000  1.0 0.0301169604
C  C328  1  0.79950000  0.45670000  0.87190000  1.0 0.020139845
C  C329  1  0.45670000  0.87190000  0.79950000  1.0 0.0301169604
C  C330  1  0.79950000  0.87190000  0.45670000  1.0 0.020139845
C  C331  1  0.87190000  0.45670000  0.87190000  1.0 0.0301169604
C  C332  1  0.87190000  0.79950000  0.87190000  1.0 0.020139845
C  C333  1  0.87190000  0.45670000  0.79950000  1.0 0.0301169604
C  C334  1  0.87190000  0.79950000  0.45670000  1.0 0.020139845
C  C335  1  0.79950000  0.87190000  0.87190000  1.0 0.0301169604
C  C336  1  0.45670000  0.87190000  0.87190000  1.0 0.0301169604
C  C337  1  0.22190000  0.00050000  0.49110000  1.0 -0.0520443294
C  C338  1  0.00050000  0.22190000  0.28650000  1.0 -0.0558625211
C  C339  1  0.49110000  0.28650000  0.22190000  1.0 -0.0520443294
C  C340  1  0.28650000  0.49110000  0.00050000  1.0 -0.0520443294
C  C341  1  0.49110000  0.22190000  0.00050000  1.0 -0.0520443294
C  C342  1  0.28650000  0.00050000  0.22190000  1.0 -0.0520443294
C  C343  1  0.22190000  0.49110000  0.28650000  1.0 -0.0520443294
C  C344  1  0.00050000  0.28650000  0.49110000  1.0 -0.0520443294
C  C345  1  0.00050000  0.49110000  0.22190000  1.0 -0.0558625211
C  C346  1  0.22190000  0.28650000  0.00050000  1.0 -0.0520443294
C  C347  1  0.28650000  0.22190000  0.49110000  1.0 -0.0520443294
C  C348  1  0.49110000  0.00050000  0.28650000  1.0 -0.0520443294
C  C349  1  0.77810000  0.99950000  0.71350000  1.0 -0.0558625211
C  C350  1  0.99950000  0.77810000  0.50890000  1.0 -0.0520443294
C  C351  1  0.50890000  0.71350000  0.99950000  1.0 -0.0520443294
C  C352  1  0.71350000  0.50890000  0.77810000  1.0 -0.0558625211
C  C353  1  0.50890000  0.77810000  0.71350000  1.0 -0.0520443294
C  C354  1  0.71350000  0.99950000  0.50890000  1.0 -0.0520443294
C  C355  1  0.77810000  0.50890000  0.99950000  1.0 -0.0520443294
C  C356  1  0.99950000  0.71350000  0.77810000  1.0 -0.0520443294
C  C357  1  0.99950000  0.50890000  0.71350000  1.0 -0.0520443294
C  C358  1  0.77810000  0.71350000  0.50890000  1.0 -0.0520443294
C  C359  1  0.71350000  0.77810000  0.99950000  1.0 -0.0520443294
C  C360  1  0.50890000  0.99950000  0.77810000  1.0 -0.0520443294
C  C361  1  0.77810000  0.99950000  0.50890000  1.0 -0.0520443294
C  C362  1  0.99950000  0.77810000  0.71350000  1.0 -0.0520443294
C  C363  1  0.50890000  0.71350000  0.77810000  1.0 -0.0558625211
C  C364  1  0.71350000  0.50890000  0.99950000  1.0 -0.0520443294
C  C365  1  0.50890000  0.77810000  0.99950000  1.0 -0.0558625211
C  C366  1  0.71350000  0.99950000  0.77810000  1.0 -0.0520443294
C  C367  1  0.77810000  0.50890000  0.71350000  1.0 -0.0520443294
C  C368  1  0.99950000  0.71350000  0.50890000  1.0 -0.0520443294
C  C369  1  0.99950000  0.50890000  0.77810000  1.0 -0.0558625211
C  C370  1  0.77810000  0.71350000  0.99950000  1.0 -0.0520443294
C  C371  1  0.71350000  0.77810000  0.50890000  1.0 -0.0520443294
C  C372  1  0.50890000  0.99950000  0.71350000  1.0 -0.0520443294
C  C373  1  0.22190000  0.00050000  0.28650000  1.0 -0.0520443294
C  C374  1  0.00050000  0.22190000  0.49110000  1.0 -0.0520443294
C  C375  1  0.49110000  0.28650000  0.00050000  1.0 -0.0558625211
C  C376  1  0.28650000  0.49110000  0.22190000  1.0 -0.0520443294
C  C377  1  0.49110000  0.22190000  0.28650000  1.0 -0.0558625211
C  C378  1  0.28650000  0.00050000  0.49110000  1.0 -0.0520443294
C  C379  1  0.22190000  0.49110000  0.00050000  1.0 -0.0520443294
C  C380  1  0.00050000  0.28650000  0.22190000  1.0 -0.0520443294
C  C381  1  0.00050000  0.49110000  0.28650000  1.0 -0.0520443294
C  C382  1  0.22190000  0.28650000  0.49110000  1.0 -0.0520443294
C  C383  1  0.28650000  0.22190000  0.00050000  1.0 -0.0520443294
C  C384  1  0.49110000  0.00050000  0.22190000  1.0 -0.0558625211
N  N1  1  0.24630000  0.96170000  0.54570000  1.0 0.0903531764
N  N2  1  0.96170000  0.24630000  0.24630000  1.0 0.0977483638
N  N3  1  0.54570000  0.24630000  0.24630000  1.0 0.0903531764
N  N4  1  0.24630000  0.54570000  0.96170000  1.0 0.0499930174
N  N5  1  0.54570000  0.24630000  0.96170000  1.0 0.0499930174
N  N6  1  0.24630000  0.96170000  0.24630000  1.0 0.0903531764
N  N7  1  0.24630000  0.54570000  0.24630000  1.0 0.0977483638
N  N8  1  0.96170000  0.24630000  0.54570000  1.0 0.0410922068
N  N9  1  0.96170000  0.54570000  0.24630000  1.0 0.0499930174
N  N10  1  0.24630000  0.24630000  0.96170000  1.0 0.0604814711
N  N11  1  0.24630000  0.24630000  0.54570000  1.0 0.0903531764
N  N12  1  0.54570000  0.96170000  0.24630000  1.0 0.0977483638
N  N13  1  0.75370000  0.03830000  0.75370000  1.0 0.0499930174
N  N14  1  0.03830000  0.75370000  0.45430000  1.0 0.0604814711
N  N15  1  0.45430000  0.75370000  0.03830000  1.0 0.0977483638
N  N16  1  0.75370000  0.45430000  0.75370000  1.0 0.0977483638
N  N17  1  0.45430000  0.75370000  0.75370000  1.0 0.0410922068
N  N18  1  0.75370000  0.03830000  0.45430000  1.0 0.0604814711
N  N19  1  0.75370000  0.45430000  0.03830000  1.0 0.0604814711
N  N20  1  0.03830000  0.75370000  0.75370000  1.0 0.0604814711
N  N21  1  0.03830000  0.45430000  0.75370000  1.0 0.0903531764
N  N22  1  0.75370000  0.75370000  0.45430000  1.0 0.0604814711
N  N23  1  0.75370000  0.75370000  0.03830000  1.0 0.0977483638
N  N24  1  0.45430000  0.03830000  0.75370000  1.0 0.0499930174
N  N25  1  0.20250000  0.05510000  0.53990000  1.0 -0.0729228039
N  N26  1  0.05510000  0.20250000  0.20250000  1.0 -0.081999053
N  N27  1  0.53990000  0.20250000  0.20250000  1.0 -0.081999053
N  N28  1  0.20250000  0.53990000  0.05510000  1.0 -0.0893882689
N  N29  1  0.53990000  0.20250000  0.05510000  1.0 -0.0893882689
N  N30  1  0.20250000  0.05510000  0.20250000  1.0 -0.0729228039
N  N31  1  0.20250000  0.53990000  0.20250000  1.0 -0.081999053
N  N32  1  0.05510000  0.20250000  0.53990000  1.0 -0.081999053
N  N33  1  0.05510000  0.53990000  0.20250000  1.0 -0.081999053
N  N34  1  0.20250000  0.20250000  0.05510000  1.0 -0.081999053
N  N35  1  0.20250000  0.20250000  0.53990000  1.0 -0.0729228039
N  N36  1  0.53990000  0.05510000  0.20250000  1.0 -0.081999053
N  N37  1  0.79750000  0.94490000  0.79750000  1.0 -0.0893882689
N  N38  1  0.94490000  0.79750000  0.46010000  1.0 -0.0976207494
N  N39  1  0.46010000  0.79750000  0.94490000  1.0 -0.081999053
N  N40  1  0.79750000  0.46010000  0.79750000  1.0 -0.081999053
N  N41  1  0.46010000  0.79750000  0.79750000  1.0 -0.081999053
N  N42  1  0.79750000  0.94490000  0.46010000  1.0 -0.081999053
N  N43  1  0.79750000  0.46010000  0.94490000  1.0 -0.0976207494
N  N44  1  0.94490000  0.79750000  0.79750000  1.0 -0.0976207494
N  N45  1  0.94490000  0.46010000  0.79750000  1.0 -0.0729228039
N  N46  1  0.79750000  0.79750000  0.46010000  1.0 -0.0893882689
N  N47  1  0.79750000  0.79750000  0.94490000  1.0 -0.081999053
N  N48  1  0.46010000  0.94490000  0.79750000  1.0 -0.081999053
N  N49  1  0.25720000  0.96280000  0.52280000  1.0 0.218856184
N  N50  1  0.96280000  0.25720000  0.25720000  1.0 0.218856184
N  N51  1  0.52280000  0.25720000  0.25720000  1.0 0.218856184
N  N52  1  0.25720000  0.52280000  0.96280000  1.0 0.2040456794
N  N53  1  0.52280000  0.25720000  0.96280000  1.0 0.2040456794
N  N54  1  0.25720000  0.96280000  0.25720000  1.0 0.218856184
N  N55  1  0.25720000  0.52280000  0.25720000  1.0 0.2057075548
N  N56  1  0.96280000  0.25720000  0.52280000  1.0 0.218856184
N  N57  1  0.96280000  0.52280000  0.25720000  1.0 0.218856184
N  N58  1  0.25720000  0.25720000  0.96280000  1.0 0.2040456794
N  N59  1  0.25720000  0.25720000  0.52280000  1.0 0.218856184
N  N60  1  0.52280000  0.96280000  0.25720000  1.0 0.2057075548
N  N61  1  0.74280000  0.03720000  0.74280000  1.0 0.218856184
N  N62  1  0.03720000  0.74280000  0.47720000  1.0 0.2040456794
N  N63  1  0.47720000  0.74280000  0.03720000  1.0 0.218856184
N  N64  1  0.74280000  0.47720000  0.74280000  1.0 0.218856184
N  N65  1  0.47720000  0.74280000  0.74280000  1.0 0.218856184
N  N66  1  0.74280000  0.03720000  0.47720000  1.0 0.2057075548
N  N67  1  0.74280000  0.47720000  0.03720000  1.0 0.2040456794
N  N68  1  0.03720000  0.74280000  0.74280000  1.0 0.2040456794
N  N69  1  0.03720000  0.47720000  0.74280000  1.0 0.218856184
N  N70  1  0.74280000  0.74280000  0.47720000  1.0 0.2040456794
N  N71  1  0.74280000  0.74280000  0.03720000  1.0 0.218856184
N  N72  1  0.47720000  0.03720000  0.74280000  1.0 0.218856184
O  O1  1  0.28131000  0.77771000  0.51137000  1.0 -0.5411200011
O  O2  1  0.77771000  0.28131000  0.42961000  1.0 -0.5411200011
O  O3  1  0.51137000  0.42961000  0.28131000  1.0 -0.5411200011
O  O4  1  0.42961000  0.51137000  0.77771000  1.0 -0.5411200011
O  O5  1  0.51137000  0.28131000  0.77771000  1.0 -0.5411200011
O  O6  1  0.42961000  0.77771000  0.28131000  1.0 -0.5411200011
O  O7  1  0.28131000  0.51137000  0.42961000  1.0 -0.5411200011
O  O8  1  0.77771000  0.42961000  0.51137000  1.0 -0.5411200011
O  O9  1  0.77771000  0.51137000  0.28131000  1.0 -0.5504212821
O  O10  1  0.28131000  0.42961000  0.77771000  1.0 -0.5411200011
O  O11  1  0.42961000  0.28131000  0.51137000  1.0 -0.5411200011
O  O12  1  0.51137000  0.77771000  0.42961000  1.0 -0.5411200011
O  O13  1  0.71869000  0.22229000  0.57039000  1.0 -0.5411200011
O  O14  1  0.22229000  0.71869000  0.48863000  1.0 -0.5411200011
O  O15  1  0.48863000  0.57039000  0.22229000  1.0 -0.5411200011
O  O16  1  0.57039000  0.48863000  0.71869000  1.0 -0.5411200011
O  O17  1  0.48863000  0.71869000  0.57039000  1.0 -0.5411200011
O  O18  1  0.57039000  0.22229000  0.48863000  1.0 -0.5411200011
O  O19  1  0.71869000  0.48863000  0.22229000  1.0 -0.5504212821
O  O20  1  0.22229000  0.57039000  0.71869000  1.0 -0.5411200011
O  O21  1  0.22229000  0.48863000  0.57039000  1.0 -0.5411200011
O  O22  1  0.71869000  0.57039000  0.48863000  1.0 -0.5504212821
O  O23  1  0.57039000  0.71869000  0.22229000  1.0 -0.5411200011
O  O24  1  0.48863000  0.22229000  0.71869000  1.0 -0.5411200011
O  O25  1  0.71869000  0.22229000  0.48863000  1.0 -0.5411200011
O  O26  1  0.22229000  0.71869000  0.57039000  1.0 -0.5411200011
O  O27  1  0.48863000  0.57039000  0.71869000  1.0 -0.5411200011
O  O28  1  0.57039000  0.48863000  0.22229000  1.0 -0.5504212821
O  O29  1  0.48863000  0.71869000  0.22229000  1.0 -0.5411200011
O  O30  1  0.57039000  0.22229000  0.71869000  1.0 -0.5411200011
O  O31  1  0.71869000  0.48863000  0.57039000  1.0 -0.5411200011
O  O32  1  0.22229000  0.57039000  0.48863000  1.0 -0.5411200011
O  O33  1  0.22229000  0.48863000  0.71869000  1.0 -0.5411200011
O  O34  1  0.71869000  0.57039000  0.22229000  1.0 -0.5411200011
O  O35  1  0.57039000  0.71869000  0.48863000  1.0 -0.5504212821
O  O36  1  0.48863000  0.22229000  0.57039000  1.0 -0.5411200011
O  O37  1  0.28131000  0.77771000  0.42961000  1.0 -0.5411200011
O  O38  1  0.77771000  0.28131000  0.51137000  1.0 -0.5411200011
O  O39  1  0.51137000  0.42961000  0.77771000  1.0 -0.5411200011
O  O40  1  0.42961000  0.51137000  0.28131000  1.0 -0.5411200011
O  O41  1  0.51137000  0.28131000  0.42961000  1.0 -0.5411200011
O  O42  1  0.42961000  0.77771000  0.51137000  1.0 -0.5411200011
O  O43  1  0.28131000  0.51137000  0.77771000  1.0 -0.5504212821
O  O44  1  0.77771000  0.42961000  0.28131000  1.0 -0.5411200011
O  O45  1  0.77771000  0.51137000  0.42961000  1.0 -0.5411200011
O  O46  1  0.28131000  0.42961000  0.51137000  1.0 -0.5411200011
O  O47  1  0.42961000  0.28131000  0.77771000  1.0 -0.5411200011
O  O48  1  0.51137000  0.77771000  0.28131000  1.0 -0.5504212821
O  O49  1  0.21286000  0.84592000  0.51160000  1.0 -0.5504212821
O  O50  1  0.84592000  0.21286000  0.42962000  1.0 -0.5504212821
O  O51  1  0.51160000  0.42962000  0.21286000  1.0 -0.5504212821
O  O52  1  0.42962000  0.51160000  0.84592000  1.0 -0.5587504252
O  O53  1  0.51160000  0.21286000  0.84592000  1.0 -0.5587504252
O  O54  1  0.42962000  0.84592000  0.21286000  1.0 -0.5504212821
O  O55  1  0.21286000  0.51160000  0.42962000  1.0 -0.5587504252
O  O56  1  0.84592000  0.42962000  0.51160000  1.0 -0.5504212821
O  O57  1  0.84592000  0.51160000  0.21286000  1.0 -0.5587504252
O  O58  1  0.21286000  0.42962000  0.84592000  1.0 -0.5587504252
O  O59  1  0.42962000  0.21286000  0.51160000  1.0 -0.5504212821
O  O60  1  0.51160000  0.84592000  0.42962000  1.0 -0.5587504252
O  O61  1  0.78714000  0.15408000  0.57038000  1.0 -0.5587504252
O  O62  1  0.15408000  0.78714000  0.48840000  1.0 -0.5587504252
O  O63  1  0.48840000  0.57038000  0.15408000  1.0 -0.5504212821
O  O64  1  0.57038000  0.48840000  0.78714000  1.0 -0.5504212821
O  O65  1  0.48840000  0.78714000  0.57038000  1.0 -0.5587504252
O  O66  1  0.57038000  0.15408000  0.48840000  1.0 -0.5587504252
O  O67  1  0.78714000  0.48840000  0.15408000  1.0 -0.567053045
O  O68  1  0.15408000  0.57038000  0.78714000  1.0 -0.5587504252
O  O69  1  0.15408000  0.48840000  0.57038000  1.0 -0.5587504252
O  O70  1  0.78714000  0.57038000  0.48840000  1.0 -0.5587504252
O  O71  1  0.57038000  0.78714000  0.15408000  1.0 -0.5504212821
O  O72  1  0.48840000  0.15408000  0.78714000  1.0 -0.5504212821
O  O73  1  0.78714000  0.15408000  0.48840000  1.0 -0.5587504252
O  O74  1  0.15408000  0.78714000  0.57038000  1.0 -0.5587504252
O  O75  1  0.48840000  0.57038000  0.78714000  1.0 -0.5504212821
O  O76  1  0.57038000  0.48840000  0.15408000  1.0 -0.5587504252
O  O77  1  0.48840000  0.78714000  0.15408000  1.0 -0.5504212821
O  O78  1  0.57038000  0.15408000  0.78714000  1.0 -0.5504212821
O  O79  1  0.78714000  0.48840000  0.57038000  1.0 -0.5587504252
O  O80  1  0.15408000  0.57038000  0.48840000  1.0 -0.5587504252
O  O81  1  0.15408000  0.48840000  0.78714000  1.0 -0.5504212821
O  O82  1  0.78714000  0.57038000  0.15408000  1.0 -0.5504212821
O  O83  1  0.57038000  0.78714000  0.48840000  1.0 -0.5587504252
O  O84  1  0.48840000  0.15408000  0.57038000  1.0 -0.5587504252
O  O85  1  0.21286000  0.84592000  0.42962000  1.0 -0.5504212821
O  O86  1  0.84592000  0.21286000  0.51160000  1.0 -0.5504212821
O  O87  1  0.51160000  0.42962000  0.84592000  1.0 -0.5587504252
O  O88  1  0.42962000  0.51160000  0.21286000  1.0 -0.5587504252
O  O89  1  0.51160000  0.21286000  0.42962000  1.0 -0.5504212821
O  O90  1  0.42962000  0.84592000  0.51160000  1.0 -0.5504212821
O  O91  1  0.21286000  0.51160000  0.84592000  1.0 -0.5587504252
O  O92  1  0.84592000  0.42962000  0.21286000  1.0 -0.5504212821
O  O93  1  0.84592000  0.51160000  0.42962000  1.0 -0.5587504252
O  O94  1  0.21286000  0.42962000  0.51160000  1.0 -0.5504212821
O  O95  1  0.42962000  0.21286000  0.84592000  1.0 -0.5587504252
O  O96  1  0.51160000  0.84592000  0.21286000  1.0 -0.5587504252
