# DDEC6 charges by PACMAN v1.1 (https://github.com/mtap-research/PACMAN-charge/)
data_UFALEV_FSR_pacman
_symmetry_space_group_name_H-M   'P 1'
_cell_length_a   15.55520000
_cell_length_b   16.06460000
_cell_length_c   31.42600000
_cell_angle_alpha   90.00000000
_cell_angle_beta   90.00000000
_cell_angle_gamma   90.00000000
_symmetry_Int_Tables_number   1
_chemical_formula_structural   Co2Ag3H44C68(N5O2)4
_chemical_formula_sum   'Co8 Ag12 H176 C272 N80 O32'
_cell_volume   7852.98235960
_cell_formula_units_Z   4
loop_
 _symmetry_equiv_pos_site_id
 _symmetry_equiv_pos_as_xyz
  1  'x, y, z'
loop_
 _atom_site_type_symbol
 _atom_site_label
 _atom_site_symmetry_multiplicity
 _atom_site_fract_x
 _atom_site_fract_y
 _atom_site_fract_z
 _atom_site_occupancy
 _atom_site_charge
Co  Co1  1  0.56662000  0.15986000  0.61526000  1.0 0.5356135905
Co  Co2  1  0.93338000  0.84014000  0.11526000  1.0 0.5343178213
Co  Co3  1  0.43338000  0.65986000  0.88474000  1.0 0.5356135905
Co  Co4  1  0.06662000  0.34014000  0.38474000  1.0 0.5343178213
Co  Co5  1  0.43338000  0.84014000  0.38474000  1.0 0.5356135905
Co  Co6  1  0.06662000  0.15986000  0.88474000  1.0 0.5356135905
Co  Co7  1  0.56662000  0.34014000  0.11526000  1.0 0.5343178213
Co  Co8  1  0.93338000  0.65986000  0.61526000  1.0 0.5356135905
Ag  Ag1  1  0.44912000  0.28126000  0.79479000  1.0 0.2579306289
Ag  Ag2  1  0.05088000  0.71874000  0.29479000  1.0 0.2579306289
Ag  Ag3  1  0.55088000  0.78126000  0.70521000  1.0 0.2579306289
Ag  Ag4  1  0.94912000  0.21874000  0.20521000  1.0 0.2579306289
Ag  Ag5  1  0.55088000  0.71874000  0.20521000  1.0 0.2579306289
Ag  Ag6  1  0.94912000  0.28126000  0.70521000  1.0 0.2579306289
Ag  Ag7  1  0.44912000  0.21874000  0.29479000  1.0 0.2579306289
Ag  Ag8  1  0.05088000  0.78126000  0.79479000  1.0 0.2579306289
Ag  Ag9  1  0.50000000  0.50000000  0.50000000  1.0 0.2530454918
Ag  Ag10  1  0.00000000  0.50000000  0.00000000  1.0 0.2530454918
Ag  Ag11  1  0.50000000  0.00000000  0.00000000  1.0 0.2530454918
Ag  Ag12  1  0.00000000  0.00000000  0.50000000  1.0 0.2530454918
H  H1  1  0.75060000  0.21200000  0.69840000  1.0 0.1214633395
H  H2  1  0.74540000  0.02680000  0.61340000  1.0 0.1316001095
H  H3  1  0.60300000  0.93960000  0.64130000  1.0 0.1214633395
H  H4  1  0.56410000  0.24540000  0.71260000  1.0 0.1108850117
H  H5  1  0.89410000  0.04190000  0.60530000  1.0 0.1214633395
H  H6  1  0.46570000  0.13250000  0.50820000  1.0 0.1404633857
H  H7  1  0.52790000  0.42080000  0.62590000  1.0 0.1214633395
H  H8  1  0.31790000  0.10330000  0.73710000  1.0 0.1316001095
H  H9  1  0.46170000  0.06470000  0.74980000  1.0 0.1316001095
H  H10  1  0.47510000  0.20450000  0.44260000  1.0 0.1214633395
H  H11  1  0.72900000  0.10100000  0.48950000  1.0 0.1404633857
H  H12  1  0.79110000  0.23100000  0.48590000  1.0 0.1214633395
H  H13  1  0.47500000  0.35540000  0.56470000  1.0 0.1108850117
H  H14  1  0.44960000  0.49450000  0.67600000  1.0 0.1316001095
H  H15  1  0.40900000  0.99750000  0.56250000  1.0 0.1499894932
H  H16  1  0.96350000  0.14560000  0.64120000  1.0 0.0912870721
H  H17  1  0.77350000  0.32480000  0.54200000  1.0 0.1556291747
H  H18  1  0.28270000  0.16170000  0.67390000  1.0 0.1499894932
H  H19  1  0.39340000  0.80900000  0.64360000  1.0 0.1009213179
H  H20  1  0.43130000  0.43860000  0.74320000  1.0 0.1108850117
H  H21  1  0.48200000  0.34430000  0.44170000  1.0 0.0912870721
H  H22  1  0.34200000  0.87960000  0.58630000  1.0 0.1404633857
H  H23  1  0.74940000  0.78800000  0.19840000  1.0 0.1214633395
H  H24  1  0.75460000  0.97320000  0.11340000  1.0 0.1316001095
H  H25  1  0.89700000  0.06040000  0.14130000  1.0 0.1214633395
H  H26  1  0.93590000  0.75460000  0.21260000  1.0 0.1108850117
H  H27  1  0.60590000  0.95810000  0.10530000  1.0 0.1214633395
H  H28  1  0.03430000  0.86750000  0.00820000  1.0 0.1404633857
H  H29  1  0.97210000  0.57920000  0.12590000  1.0 0.1214633395
H  H30  1  0.18210000  0.89670000  0.23710000  1.0 0.1316001095
H  H31  1  0.03830000  0.93530000  0.24980000  1.0 0.1316001095
H  H32  1  0.02490000  0.79550000  0.94260000  1.0 0.1214633395
H  H33  1  0.77100000  0.89900000  0.98950000  1.0 0.1404633857
H  H34  1  0.70890000  0.76900000  0.98590000  1.0 0.1214633395
H  H35  1  0.02500000  0.64460000  0.06470000  1.0 0.1108850117
H  H36  1  0.05040000  0.50550000  0.17600000  1.0 0.1316001095
H  H37  1  0.09100000  0.00250000  0.06250000  1.0 0.1499894932
H  H38  1  0.53650000  0.85440000  0.14120000  1.0 0.0912870721
H  H39  1  0.72650000  0.67520000  0.04200000  1.0 0.1556291747
H  H40  1  0.21730000  0.83830000  0.17390000  1.0 0.1499894932
H  H41  1  0.10660000  0.19100000  0.14360000  1.0 0.1009213179
H  H42  1  0.06870000  0.56140000  0.24320000  1.0 0.1108850117
H  H43  1  0.01800000  0.65570000  0.94170000  1.0 0.0912870721
H  H44  1  0.15800000  0.12040000  0.08630000  1.0 0.1404633857
H  H45  1  0.24940000  0.71200000  0.80160000  1.0 0.1214633395
H  H46  1  0.25460000  0.52680000  0.88660000  1.0 0.1316001095
H  H47  1  0.39700000  0.43960000  0.85870000  1.0 0.1214633395
H  H48  1  0.43590000  0.74540000  0.78740000  1.0 0.1108850117
H  H49  1  0.10590000  0.54190000  0.89470000  1.0 0.1214633395
H  H50  1  0.53430000  0.63250000  0.99180000  1.0 0.1404633857
H  H51  1  0.47210000  0.92080000  0.87410000  1.0 0.1214633395
H  H52  1  0.68210000  0.60330000  0.76290000  1.0 0.1316001095
H  H53  1  0.53830000  0.56470000  0.75020000  1.0 0.1316001095
H  H54  1  0.52490000  0.70450000  0.05740000  1.0 0.1214633395
H  H55  1  0.27100000  0.60100000  0.01050000  1.0 0.1404633857
H  H56  1  0.20890000  0.73100000  0.01410000  1.0 0.1214633395
H  H57  1  0.52500000  0.85540000  0.93530000  1.0 0.1108850117
H  H58  1  0.55040000  0.99450000  0.82400000  1.0 0.1316001095
H  H59  1  0.59100000  0.49750000  0.93750000  1.0 0.1499894932
H  H60  1  0.03650000  0.64560000  0.85880000  1.0 0.0912870721
H  H61  1  0.22650000  0.82480000  0.95800000  1.0 0.1556291747
H  H62  1  0.71730000  0.66170000  0.82610000  1.0 0.1499894932
H  H63  1  0.60660000  0.30900000  0.85640000  1.0 0.1009213179
H  H64  1  0.56870000  0.93860000  0.75680000  1.0 0.1108850117
H  H65  1  0.51800000  0.84430000  0.05830000  1.0 0.0912870721
H  H66  1  0.65800000  0.37960000  0.91370000  1.0 0.1404633857
H  H67  1  0.25060000  0.28800000  0.30160000  1.0 0.1214633395
H  H68  1  0.24540000  0.47320000  0.38660000  1.0 0.1316001095
H  H69  1  0.10300000  0.56040000  0.35870000  1.0 0.1214633395
H  H70  1  0.06410000  0.25460000  0.28740000  1.0 0.1108850117
H  H71  1  0.39410000  0.45810000  0.39470000  1.0 0.1214633395
H  H72  1  0.96570000  0.36750000  0.49180000  1.0 0.1404633857
H  H73  1  0.02790000  0.07920000  0.37410000  1.0 0.1214633395
H  H74  1  0.81790000  0.39670000  0.26290000  1.0 0.1316001095
H  H75  1  0.96170000  0.43530000  0.25020000  1.0 0.1316001095
H  H76  1  0.97510000  0.29550000  0.55740000  1.0 0.1214633395
H  H77  1  0.22900000  0.39900000  0.51050000  1.0 0.1404633857
H  H78  1  0.29110000  0.26900000  0.51410000  1.0 0.1214633395
H  H79  1  0.97500000  0.14460000  0.43530000  1.0 0.1108850117
H  H80  1  0.94960000  0.00550000  0.32400000  1.0 0.1316001095
H  H81  1  0.90900000  0.50250000  0.43750000  1.0 0.1499894932
H  H82  1  0.46350000  0.35440000  0.35880000  1.0 0.0912870721
H  H83  1  0.27350000  0.17520000  0.45800000  1.0 0.1556291747
H  H84  1  0.78270000  0.33830000  0.32610000  1.0 0.1499894932
H  H85  1  0.89340000  0.69100000  0.35640000  1.0 0.1009213179
H  H86  1  0.93130000  0.06140000  0.25680000  1.0 0.1108850117
H  H87  1  0.98200000  0.15570000  0.55830000  1.0 0.0912870721
H  H88  1  0.84200000  0.62040000  0.41370000  1.0 0.1404633857
H  H89  1  0.24940000  0.78800000  0.30160000  1.0 0.1214633395
H  H90  1  0.25460000  0.97320000  0.38660000  1.0 0.1316001095
H  H91  1  0.39700000  0.06040000  0.35870000  1.0 0.1214633395
H  H92  1  0.43590000  0.75460000  0.28740000  1.0 0.1108850117
H  H93  1  0.10590000  0.95810000  0.39470000  1.0 0.1214633395
H  H94  1  0.53430000  0.86750000  0.49180000  1.0 0.1404633857
H  H95  1  0.47210000  0.57920000  0.37410000  1.0 0.1214633395
H  H96  1  0.68210000  0.89670000  0.26290000  1.0 0.1316001095
H  H97  1  0.53830000  0.93530000  0.25020000  1.0 0.1316001095
H  H98  1  0.52490000  0.79550000  0.55740000  1.0 0.1214633395
H  H99  1  0.27100000  0.89900000  0.51050000  1.0 0.1404633857
H  H100  1  0.20890000  0.76900000  0.51410000  1.0 0.1214633395
H  H101  1  0.52500000  0.64460000  0.43530000  1.0 0.1108850117
H  H102  1  0.55040000  0.50550000  0.32400000  1.0 0.1316001095
H  H103  1  0.59100000  0.00250000  0.43750000  1.0 0.1499894932
H  H104  1  0.03650000  0.85440000  0.35880000  1.0 0.0912870721
H  H105  1  0.22650000  0.67520000  0.45800000  1.0 0.1556291747
H  H106  1  0.71730000  0.83830000  0.32610000  1.0 0.1499894932
H  H107  1  0.60660000  0.19100000  0.35640000  1.0 0.1009213179
H  H108  1  0.56870000  0.56140000  0.25680000  1.0 0.1108850117
H  H109  1  0.51800000  0.65570000  0.55830000  1.0 0.0912870721
H  H110  1  0.65800000  0.12040000  0.41370000  1.0 0.1404633857
H  H111  1  0.25060000  0.21200000  0.80160000  1.0 0.1214633395
H  H112  1  0.24540000  0.02680000  0.88660000  1.0 0.1316001095
H  H113  1  0.10300000  0.93960000  0.85870000  1.0 0.1214633395
H  H114  1  0.06410000  0.24540000  0.78740000  1.0 0.1108850117
H  H115  1  0.39410000  0.04190000  0.89470000  1.0 0.1214633395
H  H116  1  0.96570000  0.13250000  0.99180000  1.0 0.1404633857
H  H117  1  0.02790000  0.42080000  0.87410000  1.0 0.1214633395
H  H118  1  0.81790000  0.10330000  0.76290000  1.0 0.1316001095
H  H119  1  0.96170000  0.06470000  0.75020000  1.0 0.1316001095
H  H120  1  0.97510000  0.20450000  0.05740000  1.0 0.1214633395
H  H121  1  0.22900000  0.10100000  0.01050000  1.0 0.1404633857
H  H122  1  0.29110000  0.23100000  0.01410000  1.0 0.1214633395
H  H123  1  0.97500000  0.35540000  0.93530000  1.0 0.1108850117
H  H124  1  0.94960000  0.49450000  0.82400000  1.0 0.1316001095
H  H125  1  0.90900000  0.99750000  0.93750000  1.0 0.1499894932
H  H126  1  0.46350000  0.14560000  0.85880000  1.0 0.0912870721
H  H127  1  0.27350000  0.32480000  0.95800000  1.0 0.1556291747
H  H128  1  0.78270000  0.16170000  0.82610000  1.0 0.1499894932
H  H129  1  0.89340000  0.80900000  0.85640000  1.0 0.1009213179
H  H130  1  0.93130000  0.43860000  0.75680000  1.0 0.1108850117
H  H131  1  0.98200000  0.34430000  0.05830000  1.0 0.0912870721
H  H132  1  0.84200000  0.87960000  0.91370000  1.0 0.1404633857
H  H133  1  0.75060000  0.28800000  0.19840000  1.0 0.1214633395
H  H134  1  0.74540000  0.47320000  0.11340000  1.0 0.1316001095
H  H135  1  0.60300000  0.56040000  0.14130000  1.0 0.1214633395
H  H136  1  0.56410000  0.25460000  0.21260000  1.0 0.1108850117
H  H137  1  0.89410000  0.45810000  0.10530000  1.0 0.1214633395
H  H138  1  0.46570000  0.36750000  0.00820000  1.0 0.1404633857
H  H139  1  0.52790000  0.07920000  0.12590000  1.0 0.1214633395
H  H140  1  0.31790000  0.39670000  0.23710000  1.0 0.1316001095
H  H141  1  0.46170000  0.43530000  0.24980000  1.0 0.1316001095
H  H142  1  0.47510000  0.29550000  0.94260000  1.0 0.1214633395
H  H143  1  0.72900000  0.39900000  0.98950000  1.0 0.1404633857
H  H144  1  0.79110000  0.26900000  0.98590000  1.0 0.1214633395
H  H145  1  0.47500000  0.14460000  0.06470000  1.0 0.1108850117
H  H146  1  0.44960000  0.00550000  0.17600000  1.0 0.1316001095
H  H147  1  0.40900000  0.50250000  0.06250000  1.0 0.1499894932
H  H148  1  0.96350000  0.35440000  0.14120000  1.0 0.0912870721
H  H149  1  0.77350000  0.17520000  0.04200000  1.0 0.1556291747
H  H150  1  0.28270000  0.33830000  0.17390000  1.0 0.1499894932
H  H151  1  0.39340000  0.69100000  0.14360000  1.0 0.1009213179
H  H152  1  0.43130000  0.06140000  0.24320000  1.0 0.1108850117
H  H153  1  0.48200000  0.15570000  0.94170000  1.0 0.0912870721
H  H154  1  0.34200000  0.62040000  0.08630000  1.0 0.1404633857
H  H155  1  0.74940000  0.71200000  0.69840000  1.0 0.1214633395
H  H156  1  0.75460000  0.52680000  0.61340000  1.0 0.1316001095
H  H157  1  0.89700000  0.43960000  0.64130000  1.0 0.1214633395
H  H158  1  0.93590000  0.74540000  0.71260000  1.0 0.1108850117
H  H159  1  0.60590000  0.54190000  0.60530000  1.0 0.1214633395
H  H160  1  0.03430000  0.63250000  0.50820000  1.0 0.1404633857
H  H161  1  0.97210000  0.92080000  0.62590000  1.0 0.1214633395
H  H162  1  0.18210000  0.60330000  0.73710000  1.0 0.1316001095
H  H163  1  0.03830000  0.56470000  0.74980000  1.0 0.1316001095
H  H164  1  0.02490000  0.70450000  0.44260000  1.0 0.1214633395
H  H165  1  0.77100000  0.60100000  0.48950000  1.0 0.1404633857
H  H166  1  0.70890000  0.73100000  0.48590000  1.0 0.1214633395
H  H167  1  0.02500000  0.85540000  0.56470000  1.0 0.1108850117
H  H168  1  0.05040000  0.99450000  0.67600000  1.0 0.1316001095
H  H169  1  0.09100000  0.49750000  0.56250000  1.0 0.1499894932
H  H170  1  0.53650000  0.64560000  0.64120000  1.0 0.0912870721
H  H171  1  0.72650000  0.82480000  0.54200000  1.0 0.1556291747
H  H172  1  0.21730000  0.66170000  0.67390000  1.0 0.1499894932
H  H173  1  0.10660000  0.30900000  0.64360000  1.0 0.1009213179
H  H174  1  0.06870000  0.93860000  0.74320000  1.0 0.1108850117
H  H175  1  0.01800000  0.84430000  0.44170000  1.0 0.0912870721
H  H176  1  0.15800000  0.37960000  0.58630000  1.0 0.1404633857
C  C1  1  0.46960000  0.23920000  0.54330000  1.0 0.1817776561
C  C2  1  0.60410000  0.09050000  0.69610000  1.0 0.4095277765
C  C3  1  0.73270000  0.11830000  0.65750000  1.0 0.1895397976
C  C4  1  0.55180000  0.32200000  0.66380000  1.0 0.1895397976
C  C5  1  0.50820000  0.10320000  0.69340000  1.0 0.0825266312
C  C6  1  0.77890000  0.17690000  0.67950000  1.0 -0.0197776366
C  C7  1  0.77530000  0.06680000  0.62880000  1.0 -0.1115635624
C  C8  1  0.68680000  0.25410000  0.57310000  1.0 0.1316001095
C  C9  1  0.61440000  0.04820000  0.55130000  1.0 0.4095277765
C  C10  1  0.51750000  0.98270000  0.59890000  1.0 0.2118426748
C  C11  1  0.66280000  0.12450000  0.54360000  1.0 0.0912870721
C  C12  1  0.54830000  0.92990000  0.63050000  1.0 -0.0197776366
C  C13  1  0.53870000  0.29530000  0.70450000  1.0 -0.0197776366
C  C14  1  0.86380000  0.07650000  0.62370000  1.0 -0.1310503769
C  C15  1  0.40150000  0.16070000  0.64770000  1.0 0.0825266312
C  C16  1  0.46930000  0.19020000  0.50700000  1.0 -0.1115635624
C  C17  1  0.39060000  0.20070000  0.60620000  1.0 0.4095277765
C  C18  1  0.51890000  0.39900000  0.65290000  1.0 -0.1223681842
C  C19  1  0.65690000  0.31110000  0.60900000  1.0 0.4151287973
C  C20  1  0.35980000  0.11210000  0.71650000  1.0 -0.0554458648
C  C21  1  0.44640000  0.08920000  0.72400000  1.0 -0.1619859205
C  C22  1  0.47490000  0.23360000  0.46810000  1.0 -0.1310503769
C  C23  1  0.71810000  0.14080000  0.51030000  1.0 -0.1384503031
C  C24  1  0.75640000  0.21710000  0.50890000  1.0 -0.0395701711
C  C25  1  0.47570000  0.32400000  0.53980000  1.0 -0.0395701711
C  C26  1  0.47290000  0.44280000  0.68260000  1.0 -0.1310503769
C  C27  1  0.43470000  0.96410000  0.58300000  1.0 -0.1115635624
C  C28  1  0.90520000  0.13720000  0.64590000  1.0 0.0051824171
C  C29  1  0.74400000  0.27450000  0.54160000  1.0 -0.150649894
C  C30  1  0.33950000  0.14670000  0.67910000  1.0 -0.1310503769
C  C31  1  0.42640000  0.85100000  0.63140000  1.0 0.0278879143
C  C32  1  0.46170000  0.40860000  0.72290000  1.0 0.0438790764
C  C33  1  0.48010000  0.31760000  0.46800000  1.0 0.0237852623
C  C34  1  0.39380000  0.89600000  0.59850000  1.0 -0.1384503031
C  C35  1  0.03040000  0.76080000  0.04330000  1.0 0.1817776561
C  C36  1  0.89590000  0.90950000  0.19610000  1.0 0.4095277765
C  C37  1  0.76730000  0.88170000  0.15750000  1.0 0.1895397976
C  C38  1  0.94820000  0.67800000  0.16380000  1.0 0.1895397976
C  C39  1  0.99180000  0.89680000  0.19340000  1.0 0.0825266312
C  C40  1  0.72110000  0.82310000  0.17950000  1.0 -0.0197776366
C  C41  1  0.72470000  0.93320000  0.12880000  1.0 -0.1115635624
C  C42  1  0.81320000  0.74590000  0.07310000  1.0 0.1316001095
C  C43  1  0.88560000  0.95180000  0.05130000  1.0 0.4095277765
C  C44  1  0.98250000  0.01730000  0.09890000  1.0 0.2118426748
C  C45  1  0.83720000  0.87550000  0.04360000  1.0 0.0912870721
C  C46  1  0.95170000  0.07010000  0.13050000  1.0 -0.0197776366
C  C47  1  0.96130000  0.70470000  0.20450000  1.0 -0.0197776366
C  C48  1  0.63620000  0.92350000  0.12370000  1.0 -0.1310503769
C  C49  1  0.09850000  0.83930000  0.14770000  1.0 0.0825266312
C  C50  1  0.03070000  0.80980000  0.00700000  1.0 -0.1115635624
C  C51  1  0.10940000  0.79930000  0.10620000  1.0 0.4095277765
C  C52  1  0.98110000  0.60100000  0.15290000  1.0 -0.1223681842
C  C53  1  0.84310000  0.68890000  0.10900000  1.0 0.4151287973
C  C54  1  0.14020000  0.88790000  0.21650000  1.0 -0.0554458648
C  C55  1  0.05360000  0.91080000  0.22400000  1.0 -0.1619859205
C  C56  1  0.02510000  0.76640000  0.96810000  1.0 -0.1310503769
C  C57  1  0.78190000  0.85920000  0.01030000  1.0 -0.1384503031
C  C58  1  0.74360000  0.78290000  0.00890000  1.0 -0.0395701711
C  C59  1  0.02430000  0.67600000  0.03980000  1.0 -0.0395701711
C  C60  1  0.02710000  0.55720000  0.18260000  1.0 -0.1310503769
C  C61  1  0.06530000  0.03590000  0.08300000  1.0 -0.1115635624
C  C62  1  0.59480000  0.86280000  0.14590000  1.0 0.0051824171
C  C63  1  0.75600000  0.72550000  0.04160000  1.0 -0.150649894
C  C64  1  0.16050000  0.85330000  0.17910000  1.0 -0.1310503769
C  C65  1  0.07360000  0.14900000  0.13140000  1.0 0.0278879143
C  C66  1  0.03830000  0.59140000  0.22290000  1.0 0.0438790764
C  C67  1  0.01990000  0.68240000  0.96800000  1.0 0.0237852623
C  C68  1  0.10620000  0.10400000  0.09850000  1.0 -0.1384503031
C  C69  1  0.53040000  0.73920000  0.95670000  1.0 0.1817776561
C  C70  1  0.39590000  0.59050000  0.80390000  1.0 0.4095277765
C  C71  1  0.26730000  0.61830000  0.84250000  1.0 0.1895397976
C  C72  1  0.44820000  0.82200000  0.83620000  1.0 0.1895397976
C  C73  1  0.49180000  0.60320000  0.80660000  1.0 0.0825266312
C  C74  1  0.22110000  0.67690000  0.82050000  1.0 -0.0197776366
C  C75  1  0.22470000  0.56680000  0.87120000  1.0 -0.1115635624
C  C76  1  0.31320000  0.75410000  0.92690000  1.0 0.1316001095
C  C77  1  0.38560000  0.54820000  0.94870000  1.0 0.4095277765
C  C78  1  0.48250000  0.48270000  0.90110000  1.0 0.2118426748
C  C79  1  0.33720000  0.62450000  0.95640000  1.0 0.0912870721
C  C80  1  0.45170000  0.42990000  0.86950000  1.0 -0.0197776366
C  C81  1  0.46130000  0.79530000  0.79550000  1.0 -0.0197776366
C  C82  1  0.13620000  0.57650000  0.87630000  1.0 -0.1310503769
C  C83  1  0.59850000  0.66070000  0.85230000  1.0 0.0825266312
C  C84  1  0.53070000  0.69020000  0.99300000  1.0 -0.1115635624
C  C85  1  0.60940000  0.70070000  0.89380000  1.0 0.4095277765
C  C86  1  0.48110000  0.89900000  0.84710000  1.0 -0.1223681842
C  C87  1  0.34310000  0.81110000  0.89100000  1.0 0.4151287973
C  C88  1  0.64020000  0.61210000  0.78350000  1.0 -0.0554458648
C  C89  1  0.55360000  0.58920000  0.77600000  1.0 -0.1619859205
C  C90  1  0.52510000  0.73360000  0.03190000  1.0 -0.1310503769
C  C91  1  0.28190000  0.64080000  0.98970000  1.0 -0.1384503031
C  C92  1  0.24360000  0.71710000  0.99110000  1.0 -0.0395701711
C  C93  1  0.52430000  0.82400000  0.96020000  1.0 -0.0395701711
C  C94  1  0.52710000  0.94280000  0.81740000  1.0 -0.1310503769
C  C95  1  0.56530000  0.46410000  0.91700000  1.0 -0.1115635624
C  C96  1  0.09480000  0.63720000  0.85410000  1.0 0.0051824171
C  C97  1  0.25600000  0.77450000  0.95840000  1.0 -0.150649894
C  C98  1  0.66050000  0.64670000  0.82090000  1.0 -0.1310503769
C  C99  1  0.57360000  0.35100000  0.86860000  1.0 0.0278879143
C  C100  1  0.53830000  0.90860000  0.77710000  1.0 0.0438790764
C  C101  1  0.51990000  0.81760000  0.03200000  1.0 0.0237852623
C  C102  1  0.60620000  0.39600000  0.90150000  1.0 -0.1384503031
C  C103  1  0.96960000  0.26080000  0.45670000  1.0 0.1817776561
C  C104  1  0.10410000  0.40950000  0.30390000  1.0 0.4095277765
C  C105  1  0.23270000  0.38170000  0.34250000  1.0 0.1895397976
C  C106  1  0.05180000  0.17800000  0.33620000  1.0 0.1895397976
C  C107  1  0.00820000  0.39680000  0.30660000  1.0 0.0825266312
C  C108  1  0.27890000  0.32310000  0.32050000  1.0 -0.0197776366
C  C109  1  0.27530000  0.43320000  0.37120000  1.0 -0.1115635624
C  C110  1  0.18680000  0.24590000  0.42690000  1.0 0.1316001095
C  C111  1  0.11440000  0.45180000  0.44870000  1.0 0.4095277765
C  C112  1  0.01750000  0.51730000  0.40110000  1.0 0.2118426748
C  C113  1  0.16280000  0.37550000  0.45640000  1.0 0.0912870721
C  C114  1  0.04830000  0.57010000  0.36950000  1.0 -0.0197776366
C  C115  1  0.03870000  0.20470000  0.29550000  1.0 -0.0197776366
C  C116  1  0.36380000  0.42350000  0.37630000  1.0 -0.1310503769
C  C117  1  0.90150000  0.33930000  0.35230000  1.0 0.0825266312
C  C118  1  0.96930000  0.30980000  0.49300000  1.0 -0.1115635624
C  C119  1  0.89060000  0.29930000  0.39380000  1.0 0.4095277765
C  C120  1  0.01890000  0.10100000  0.34710000  1.0 -0.1223681842
C  C121  1  0.15690000  0.18890000  0.39100000  1.0 0.4095277765
C  C122  1  0.85980000  0.38790000  0.28350000  1.0 -0.0554458648
C  C123  1  0.94640000  0.41080000  0.27600000  1.0 -0.1619859205
C  C124  1  0.97490000  0.26640000  0.53190000  1.0 -0.1310503769
C  C125  1  0.21810000  0.35920000  0.48970000  1.0 -0.1384503031
C  C126  1  0.25640000  0.28290000  0.49110000  1.0 -0.0395701711
C  C127  1  0.97570000  0.17600000  0.46020000  1.0 -0.0395701711
C  C128  1  0.97290000  0.05720000  0.31740000  1.0 -0.1310503769
C  C129  1  0.93470000  0.53590000  0.41700000  1.0 -0.1115635624
C  C130  1  0.40520000  0.36280000  0.35410000  1.0 0.0051824171
C  C131  1  0.24400000  0.22550000  0.45840000  1.0 -0.150649894
C  C132  1  0.83950000  0.35330000  0.32090000  1.0 -0.1310503769
C  C133  1  0.92640000  0.64900000  0.36860000  1.0 0.0278879143
C  C134  1  0.96170000  0.09140000  0.27710000  1.0 0.0438790764
C  C135  1  0.98010000  0.18240000  0.53200000  1.0 0.0237852623
C  C136  1  0.89380000  0.60400000  0.40150000  1.0 -0.1384503031
C  C137  1  0.53040000  0.76080000  0.45670000  1.0 0.1817776561
C  C138  1  0.39590000  0.90950000  0.30390000  1.0 0.4095277765
C  C139  1  0.26730000  0.88170000  0.34250000  1.0 0.1895397976
C  C140  1  0.44820000  0.67800000  0.33620000  1.0 0.1895397976
C  C141  1  0.49180000  0.89680000  0.30660000  1.0 0.0825266312
C  C142  1  0.22110000  0.82310000  0.32050000  1.0 -0.0197776366
C  C143  1  0.22470000  0.93320000  0.37120000  1.0 -0.1115635624
C  C144  1  0.31320000  0.74590000  0.42690000  1.0 0.1316001095
C  C145  1  0.38560000  0.95180000  0.44870000  1.0 0.4095277765
C  C146  1  0.48250000  0.01730000  0.40110000  1.0 0.2118426748
C  C147  1  0.33720000  0.87550000  0.45640000  1.0 0.0912870721
C  C148  1  0.45170000  0.07010000  0.36950000  1.0 -0.0197776366
C  C149  1  0.46130000  0.70470000  0.29550000  1.0 -0.0197776366
C  C150  1  0.13620000  0.92350000  0.37630000  1.0 -0.1310503769
C  C151  1  0.59850000  0.83930000  0.35230000  1.0 0.0825266312
C  C152  1  0.53070000  0.80980000  0.49300000  1.0 -0.1115635624
C  C153  1  0.60940000  0.79930000  0.39380000  1.0 0.4095277765
C  C154  1  0.48110000  0.60100000  0.34710000  1.0 -0.1223681842
C  C155  1  0.34310000  0.68890000  0.39100000  1.0 0.4095277765
C  C156  1  0.64020000  0.88790000  0.28350000  1.0 -0.0554458648
C  C157  1  0.55360000  0.91080000  0.27600000  1.0 -0.1619859205
C  C158  1  0.52510000  0.76640000  0.53190000  1.0 -0.1310503769
C  C159  1  0.28190000  0.85920000  0.48970000  1.0 -0.1384503031
C  C160  1  0.24360000  0.78290000  0.49110000  1.0 -0.0395701711
C  C161  1  0.52430000  0.67600000  0.46020000  1.0 -0.0395701711
C  C162  1  0.52710000  0.55720000  0.31740000  1.0 -0.1310503769
C  C163  1  0.56530000  0.03590000  0.41700000  1.0 -0.1115635624
C  C164  1  0.09480000  0.86280000  0.35410000  1.0 0.0051824171
C  C165  1  0.25600000  0.72550000  0.45840000  1.0 -0.150649894
C  C166  1  0.66050000  0.85330000  0.32090000  1.0 -0.1310503769
C  C167  1  0.57360000  0.14900000  0.36860000  1.0 0.0278879143
C  C168  1  0.53830000  0.59140000  0.27710000  1.0 0.0438790764
C  C169  1  0.51990000  0.68240000  0.53200000  1.0 0.0237852623
C  C170  1  0.60620000  0.10400000  0.40150000  1.0 -0.1384503031
C  C171  1  0.96960000  0.23920000  0.95670000  1.0 0.1817776561
C  C172  1  0.10410000  0.09050000  0.80390000  1.0 0.4095277765
C  C173  1  0.23270000  0.11830000  0.84250000  1.0 0.1895397976
C  C174  1  0.05180000  0.32200000  0.83620000  1.0 0.1895397976
C  C175  1  0.00820000  0.10320000  0.80660000  1.0 0.0825266312
C  C176  1  0.27890000  0.17690000  0.82050000  1.0 -0.0197776366
C  C177  1  0.27530000  0.06680000  0.87120000  1.0 -0.1115635624
C  C178  1  0.18680000  0.25410000  0.92690000  1.0 0.1316001095
C  C179  1  0.11440000  0.04820000  0.94870000  1.0 0.4095277765
C  C180  1  0.01750000  0.98270000  0.90110000  1.0 0.2118426748
C  C181  1  0.16280000  0.12450000  0.95640000  1.0 0.0912870721
C  C182  1  0.04830000  0.92990000  0.86950000  1.0 -0.0197776366
C  C183  1  0.03870000  0.29530000  0.79550000  1.0 -0.0197776366
C  C184  1  0.36380000  0.07650000  0.87630000  1.0 -0.1310503769
C  C185  1  0.90150000  0.16070000  0.85230000  1.0 0.0825266312
C  C186  1  0.96930000  0.19020000  0.99300000  1.0 -0.1115635624
C  C187  1  0.89060000  0.20070000  0.89380000  1.0 0.4095277765
C  C188  1  0.01890000  0.39900000  0.84710000  1.0 -0.1223681842
C  C189  1  0.15690000  0.31110000  0.89100000  1.0 0.4095277765
C  C190  1  0.85980000  0.11210000  0.78350000  1.0 -0.0554458648
C  C191  1  0.94640000  0.08920000  0.77600000  1.0 -0.1619859205
C  C192  1  0.97490000  0.23360000  0.03190000  1.0 -0.1310503769
C  C193  1  0.21810000  0.14080000  0.98970000  1.0 -0.1384503031
C  C194  1  0.25640000  0.21710000  0.99110000  1.0 -0.0395701711
C  C195  1  0.97570000  0.32400000  0.96020000  1.0 -0.0395701711
C  C196  1  0.97290000  0.44280000  0.81740000  1.0 -0.1310503769
C  C197  1  0.93470000  0.96410000  0.91700000  1.0 -0.1115635624
C  C198  1  0.40520000  0.13720000  0.85410000  1.0 0.0051824171
C  C199  1  0.24400000  0.27450000  0.95840000  1.0 -0.150649894
C  C200  1  0.83950000  0.14670000  0.82090000  1.0 -0.1310503769
C  C201  1  0.92640000  0.85100000  0.86860000  1.0 0.0278879143
C  C202  1  0.96170000  0.40860000  0.77710000  1.0 0.0438790764
C  C203  1  0.98010000  0.31760000  0.03200000  1.0 0.0237852623
C  C204  1  0.89380000  0.89600000  0.90150000  1.0 -0.1384503031
C  C205  1  0.46960000  0.26080000  0.04330000  1.0 0.1817776561
C  C206  1  0.60410000  0.40950000  0.19610000  1.0 0.4095277765
C  C207  1  0.73270000  0.38170000  0.15750000  1.0 0.1895397976
C  C208  1  0.55180000  0.17800000  0.16380000  1.0 0.1895397976
C  C209  1  0.50820000  0.39680000  0.19340000  1.0 0.0825266312
C  C210  1  0.77890000  0.32310000  0.17950000  1.0 -0.0197776366
C  C211  1  0.77530000  0.43320000  0.12880000  1.0 -0.1115635624
C  C212  1  0.68680000  0.24590000  0.07310000  1.0 0.1316001095
C  C213  1  0.61440000  0.45180000  0.05130000  1.0 0.4095277765
C  C214  1  0.51750000  0.51730000  0.09890000  1.0 0.2118426748
C  C215  1  0.66280000  0.37550000  0.04360000  1.0 0.0912870721
C  C216  1  0.54830000  0.57010000  0.13050000  1.0 -0.0197776366
C  C217  1  0.53870000  0.20470000  0.20450000  1.0 -0.0197776366
C  C218  1  0.86380000  0.42350000  0.12370000  1.0 -0.1310503769
C  C219  1  0.40150000  0.33930000  0.14770000  1.0 0.0825266312
C  C220  1  0.46930000  0.30980000  0.00700000  1.0 -0.1115635624
C  C221  1  0.39060000  0.29930000  0.10620000  1.0 0.4095277765
C  C222  1  0.51890000  0.10100000  0.15290000  1.0 -0.1223681842
C  C223  1  0.65690000  0.18890000  0.10900000  1.0 0.4095277765
C  C224  1  0.35980000  0.38790000  0.21650000  1.0 -0.0554458648
C  C225  1  0.44640000  0.41080000  0.22400000  1.0 -0.1619859205
C  C226  1  0.47490000  0.26640000  0.96810000  1.0 -0.1310503769
C  C227  1  0.71810000  0.35920000  0.01030000  1.0 -0.1384503031
C  C228  1  0.75640000  0.28290000  0.00890000  1.0 -0.0395701711
C  C229  1  0.47570000  0.17600000  0.03980000  1.0 -0.0395701711
C  C230  1  0.47290000  0.05720000  0.18260000  1.0 -0.1310503769
C  C231  1  0.43470000  0.53590000  0.08300000  1.0 -0.1115635624
C  C232  1  0.90520000  0.36280000  0.14590000  1.0 0.0051824171
C  C233  1  0.74400000  0.22550000  0.04160000  1.0 -0.150649894
C  C234  1  0.33950000  0.35330000  0.17910000  1.0 -0.1310503769
C  C235  1  0.42640000  0.64900000  0.13140000  1.0 0.0278879143
C  C236  1  0.46170000  0.09140000  0.22290000  1.0 0.0438790764
C  C237  1  0.48010000  0.18240000  0.96800000  1.0 0.0237852623
C  C238  1  0.39380000  0.60400000  0.09850000  1.0 -0.1384503031
C  C239  1  0.03040000  0.73920000  0.54330000  1.0 0.1817776561
C  C240  1  0.89590000  0.59050000  0.69610000  1.0 0.4095277765
C  C241  1  0.76730000  0.61830000  0.65750000  1.0 0.1895397976
C  C242  1  0.94820000  0.82200000  0.66380000  1.0 0.1895397976
C  C243  1  0.99180000  0.60320000  0.69340000  1.0 0.0825266312
C  C244  1  0.72110000  0.67690000  0.67950000  1.0 -0.0197776366
C  C245  1  0.72470000  0.56680000  0.62880000  1.0 -0.1115635624
C  C246  1  0.81320000  0.75410000  0.57310000  1.0 0.1316001095
C  C247  1  0.88560000  0.54820000  0.55130000  1.0 0.4095277765
C  C248  1  0.98250000  0.48270000  0.59890000  1.0 0.2118426748
C  C249  1  0.83720000  0.62450000  0.54360000  1.0 0.0912870721
C  C250  1  0.95170000  0.42990000  0.63050000  1.0 -0.0197776366
C  C251  1  0.96130000  0.79530000  0.70450000  1.0 -0.0197776366
C  C252  1  0.63620000  0.57650000  0.62370000  1.0 -0.1310503769
C  C253  1  0.09850000  0.66070000  0.64770000  1.0 0.0825266312
C  C254  1  0.03070000  0.69020000  0.50700000  1.0 -0.1223681842
C  C255  1  0.10940000  0.70070000  0.60620000  1.0 0.4095277765
C  C256  1  0.98110000  0.89900000  0.65290000  1.0 -0.1223681842
C  C257  1  0.84310000  0.81110000  0.60900000  1.0 0.4151287973
C  C258  1  0.14020000  0.61210000  0.71650000  1.0 -0.0554458648
C  C259  1  0.05360000  0.58920000  0.72400000  1.0 -0.1619859205
C  C260  1  0.02510000  0.73360000  0.46810000  1.0 -0.1310503769
C  C261  1  0.78190000  0.64080000  0.51030000  1.0 -0.1384503031
C  C262  1  0.74360000  0.71710000  0.50890000  1.0 -0.0395701711
C  C263  1  0.02430000  0.82400000  0.53980000  1.0 -0.0395701711
C  C264  1  0.02710000  0.94280000  0.68260000  1.0 -0.1310503769
C  C265  1  0.06530000  0.46410000  0.58300000  1.0 -0.1115635624
C  C266  1  0.59480000  0.63720000  0.64590000  1.0 0.0051824171
C  C267  1  0.75600000  0.77450000  0.54160000  1.0 -0.150649894
C  C268  1  0.16050000  0.64670000  0.67910000  1.0 -0.1310503769
C  C269  1  0.07360000  0.35100000  0.63140000  1.0 0.0278879143
C  C270  1  0.03830000  0.90860000  0.72290000  1.0 0.0438790764
C  C271  1  0.01990000  0.81760000  0.46800000  1.0 0.0237852623
C  C272  1  0.10620000  0.39600000  0.59850000  1.0 -0.1384503031
N  N1  1  0.64190000  0.11410000  0.65930000  1.0 -0.44823187
N  N2  1  0.46650000  0.20120000  0.58430000  1.0 -0.4396193879
N  N3  1  0.64810000  0.18330000  0.57290000  1.0 -0.2093600311
N  N4  1  0.48320000  0.13850000  0.65580000  1.0 -0.197231032
N  N5  1  0.56330000  0.05190000  0.58570000  1.0 -0.4031774961
N  N6  1  0.59790000  0.27420000  0.63290000  1.0 -0.4396193879
N  N7  1  0.50330000  0.86600000  0.64600000  1.0 -0.197231032
N  N8  1  0.86470000  0.18460000  0.67420000  1.0 -0.167440029
N  N9  1  0.49270000  0.33510000  0.73310000  1.0 -0.167440029
N  N10  1  0.48280000  0.36460000  0.50240000  1.0 -0.167440029
N  N11  1  0.85810000  0.88590000  0.15930000  1.0 -0.44823187
N  N12  1  0.03350000  0.79880000  0.08430000  1.0 -0.4396193879
N  N13  1  0.85190000  0.81670000  0.07290000  1.0 -0.2093600311
N  N14  1  0.01680000  0.86150000  0.15580000  1.0 -0.2093600311
N  N15  1  0.93670000  0.94810000  0.08570000  1.0 -0.4031774961
N  N16  1  0.90210000  0.72580000  0.13290000  1.0 -0.4396193879
N  N17  1  0.99670000  0.13400000  0.14600000  1.0 -0.197231032
N  N18  1  0.63530000  0.81540000  0.17420000  1.0 -0.167440029
N  N19  1  0.00730000  0.66490000  0.23310000  1.0 -0.167440029
N  N20  1  0.01720000  0.63540000  0.00240000  1.0 -0.167440029
N  N21  1  0.35810000  0.61410000  0.84070000  1.0 -0.44823187
N  N22  1  0.53350000  0.70120000  0.91570000  1.0 -0.44823187
N  N23  1  0.35190000  0.68330000  0.92710000  1.0 -0.2093600311
N  N24  1  0.51680000  0.63850000  0.84420000  1.0 -0.2093600311
N  N25  1  0.43670000  0.55190000  0.91430000  1.0 -0.4031774961
N  N26  1  0.40210000  0.77420000  0.86710000  1.0 -0.4396193879
N  N27  1  0.49670000  0.36600000  0.85400000  1.0 -0.197231032
N  N28  1  0.13530000  0.68460000  0.82580000  1.0 -0.167440029
N  N29  1  0.50730000  0.83510000  0.76690000  1.0 -0.167440029
N  N30  1  0.51720000  0.86460000  0.99760000  1.0 -0.167440029
N  N31  1  0.14190000  0.38590000  0.34070000  1.0 -0.44823187
N  N32  1  0.96650000  0.29880000  0.41570000  1.0 -0.4396193879
N  N33  1  0.14810000  0.31670000  0.42710000  1.0 -0.2093600311
N  N34  1  0.98320000  0.36150000  0.34420000  1.0 -0.2093600311
N  N35  1  0.06330000  0.44810000  0.41430000  1.0 -0.4031774961
N  N36  1  0.09790000  0.22580000  0.36710000  1.0 -0.4396193879
N  N37  1  0.00330000  0.63400000  0.35400000  1.0 -0.197231032
N  N38  1  0.36470000  0.31540000  0.32580000  1.0 -0.167440029
N  N39  1  0.99270000  0.16490000  0.26690000  1.0 -0.167440029
N  N40  1  0.98280000  0.13540000  0.49760000  1.0 -0.167440029
N  N41  1  0.35810000  0.88590000  0.34070000  1.0 -0.44823187
N  N42  1  0.53350000  0.79880000  0.41570000  1.0 -0.4396193879
N  N43  1  0.35190000  0.81670000  0.42710000  1.0 -0.2093600311
N  N44  1  0.51680000  0.86150000  0.34420000  1.0 -0.2093600311
N  N45  1  0.43670000  0.94810000  0.41430000  1.0 -0.4031774961
N  N46  1  0.40210000  0.72580000  0.36710000  1.0 -0.4396193879
N  N47  1  0.49670000  0.13400000  0.35400000  1.0 -0.197231032
N  N48  1  0.13530000  0.81540000  0.32580000  1.0 -0.167440029
N  N49  1  0.50730000  0.66490000  0.26690000  1.0 -0.167440029
N  N50  1  0.51720000  0.63540000  0.49760000  1.0 -0.167440029
N  N51  1  0.14190000  0.11410000  0.84070000  1.0 -0.44823187
N  N52  1  0.96650000  0.20120000  0.91570000  1.0 -0.4396193879
N  N53  1  0.14810000  0.18330000  0.92710000  1.0 -0.2093600311
N  N54  1  0.98320000  0.13850000  0.84420000  1.0 -0.2093600311
N  N55  1  0.06330000  0.05190000  0.91430000  1.0 -0.4031774961
N  N56  1  0.09790000  0.27420000  0.86710000  1.0 -0.4396193879
N  N57  1  0.00330000  0.86600000  0.85400000  1.0 -0.197231032
N  N58  1  0.36470000  0.18460000  0.82580000  1.0 -0.167440029
N  N59  1  0.99270000  0.33510000  0.76690000  1.0 -0.167440029
N  N60  1  0.98280000  0.36460000  0.99760000  1.0 -0.167440029
N  N61  1  0.64190000  0.38590000  0.15930000  1.0 -0.44823187
N  N62  1  0.46650000  0.29880000  0.08430000  1.0 -0.4396193879
N  N63  1  0.64810000  0.31670000  0.07290000  1.0 -0.2093600311
N  N64  1  0.48320000  0.36150000  0.15580000  1.0 -0.197231032
N  N65  1  0.56330000  0.44810000  0.08570000  1.0 -0.4031774961
N  N66  1  0.59790000  0.22580000  0.13290000  1.0 -0.4396193879
N  N67  1  0.50330000  0.63400000  0.14600000  1.0 -0.197231032
N  N68  1  0.86470000  0.31540000  0.17420000  1.0 -0.167440029
N  N69  1  0.49270000  0.16490000  0.23310000  1.0 -0.1619859205
N  N70  1  0.48280000  0.13540000  0.00240000  1.0 -0.167440029
N  N71  1  0.85810000  0.61410000  0.65930000  1.0 -0.44823187
N  N72  1  0.03350000  0.70120000  0.58430000  1.0 -0.44823187
N  N73  1  0.85190000  0.68330000  0.57290000  1.0 -0.2093600311
N  N74  1  0.01680000  0.63850000  0.65580000  1.0 -0.2093600311
N  N75  1  0.93670000  0.55190000  0.58570000  1.0 -0.4031774961
N  N76  1  0.90210000  0.77420000  0.63290000  1.0 -0.4396193879
N  N77  1  0.99670000  0.36600000  0.64600000  1.0 -0.197231032
N  N78  1  0.63530000  0.68460000  0.67420000  1.0 -0.167440029
N  N79  1  0.00730000  0.83510000  0.73310000  1.0 -0.167440029
N  N80  1  0.01720000  0.86460000  0.50240000  1.0 -0.167440029
O  O1  1  0.63910000  0.06440000  0.72910000  1.0 -0.5061534346
O  O2  1  0.62330000  0.98550000  0.52750000  1.0 -0.489489533
O  O3  1  0.68940000  0.37980000  0.61460000  1.0 -0.4805645533
O  O4  1  0.32340000  0.23000000  0.59330000  1.0 -0.4805645533
O  O5  1  0.86090000  0.93560000  0.22910000  1.0 -0.5061534346
O  O6  1  0.87670000  0.01450000  0.02750000  1.0 -0.489489533
O  O7  1  0.81060000  0.62020000  0.11460000  1.0 -0.4805645533
O  O8  1  0.17660000  0.77000000  0.09330000  1.0 -0.4805645533
O  O9  1  0.36090000  0.56440000  0.77090000  1.0 -0.5061534346
O  O10  1  0.37670000  0.48550000  0.97250000  1.0 -0.489489533
O  O11  1  0.31060000  0.87980000  0.88540000  1.0 -0.4805645533
O  O12  1  0.67660000  0.73000000  0.90670000  1.0 -0.4805645533
O  O13  1  0.13910000  0.43560000  0.27090000  1.0 -0.5061534346
O  O14  1  0.12330000  0.51450000  0.47250000  1.0 -0.489489533
O  O15  1  0.18940000  0.12020000  0.38540000  1.0 -0.4805645533
O  O16  1  0.82340000  0.27000000  0.40670000  1.0 -0.4805645533
O  O17  1  0.36090000  0.93560000  0.27090000  1.0 -0.5061534346
O  O18  1  0.37670000  0.01450000  0.47250000  1.0 -0.489489533
O  O19  1  0.31060000  0.62020000  0.38540000  1.0 -0.4805645533
O  O20  1  0.67660000  0.77000000  0.40670000  1.0 -0.4805645533
O  O21  1  0.13910000  0.06440000  0.77090000  1.0 -0.5061534346
O  O22  1  0.12330000  0.98550000  0.97250000  1.0 -0.489489533
O  O23  1  0.18940000  0.37980000  0.88540000  1.0 -0.4805645533
O  O24  1  0.82340000  0.23000000  0.90670000  1.0 -0.4805645533
O  O25  1  0.63910000  0.43560000  0.22910000  1.0 -0.5061534346
O  O26  1  0.62330000  0.51450000  0.02750000  1.0 -0.489489533
O  O27  1  0.68940000  0.12020000  0.11460000  1.0 -0.4805645533
O  O28  1  0.32340000  0.27000000  0.09330000  1.0 -0.4805645533
O  O29  1  0.86090000  0.56440000  0.72910000  1.0 -0.5061534346
O  O30  1  0.87670000  0.48550000  0.52750000  1.0 -0.489489533
O  O31  1  0.81060000  0.87980000  0.61460000  1.0 -0.4805645533
O  O32  1  0.17660000  0.73000000  0.59330000  1.0 -0.4805645533
