# DDEC6 charges by PACMAN v1.1 (https://github.com/mtap-research/PACMAN-charge/)
data_UFASAW_ion_pacman
_symmetry_space_group_name_H-M   'P 1'
_cell_length_a   11.31970000
_cell_length_b   11.31970000
_cell_length_c   37.35400000
_cell_angle_alpha   90.00000000
_cell_angle_beta   90.00000000
_cell_angle_gamma   94.47070000
_symmetry_Int_Tables_number   1
_chemical_formula_structural   Cd5H19C35N11O17
_chemical_formula_sum   'Cd20 H76 C140 N44 O68'
_cell_volume   4771.81411776
_cell_formula_units_Z   4
loop_
 _symmetry_equiv_pos_site_id
 _symmetry_equiv_pos_as_xyz
  1  'x, y, z'
loop_
 _atom_site_type_symbol
 _atom_site_label
 _atom_site_symmetry_multiplicity
 _atom_site_fract_x
 _atom_site_fract_y
 _atom_site_fract_z
 _atom_site_occupancy
 _atom_site_charge
Cd  Cd1  1  0.30678000  0.90198000  0.64790000  1.0 0.9251990196
Cd  Cd2  1  0.19322000  0.59802000  0.14790000  1.0 0.9251990196
Cd  Cd3  1  0.40198000  0.80678000  0.85210000  1.0 0.9251990196
Cd  Cd4  1  0.09802000  0.69322000  0.35210000  1.0 0.9251990196
Cd  Cd5  1  0.69322000  0.09802000  0.35210000  1.0 0.9251990196
Cd  Cd6  1  0.80678000  0.40198000  0.85210000  1.0 0.9251990196
Cd  Cd7  1  0.59802000  0.19322000  0.14790000  1.0 0.9251990196
Cd  Cd8  1  0.90198000  0.30678000  0.64790000  1.0 0.9251990196
Cd  Cd9  1  0.02065000  0.61779000  0.66431000  1.0 0.8728163716
Cd  Cd10  1  0.47935000  0.88221000  0.16431000  1.0 0.8728163716
Cd  Cd11  1  0.11779000  0.52065000  0.83569000  1.0 0.8728163716
Cd  Cd12  1  0.38221000  0.97935000  0.33569000  1.0 0.8728163716
Cd  Cd13  1  0.97935000  0.38221000  0.33569000  1.0 0.8728163716
Cd  Cd14  1  0.52065000  0.11779000  0.83569000  1.0 0.8728163716
Cd  Cd15  1  0.88221000  0.47935000  0.16431000  1.0 0.8728163716
Cd  Cd16  1  0.61779000  0.02065000  0.66431000  1.0 0.8728163716
Cd  Cd17  1  0.46158000  0.46158000  0.65114000  1.0 1.2560140368
Cd  Cd18  1  0.03842000  0.03842000  0.15114000  1.0 1.2547842738
Cd  Cd19  1  0.96158000  0.96158000  0.84886000  1.0 1.2560140368
Cd  Cd20  1  0.53842000  0.53842000  0.34886000  1.0 1.2547842738
H  H1  1  0.98480000  0.48480000  0.75000000  1.0 0.1306370822
H  H2  1  0.51520000  0.01520000  0.25000000  1.0 0.1306370822
H  H3  1  0.01520000  0.51520000  0.25000000  1.0 0.1306370822
H  H4  1  0.48480000  0.98480000  0.75000000  1.0 0.1306370822
H  H5  1  0.01640000  0.01640000  0.64280000  1.0 0.1010748524
H  H6  1  0.48360000  0.48360000  0.14280000  1.0 0.1010748524
H  H7  1  0.51640000  0.51640000  0.85720000  1.0 0.1010748524
H  H8  1  0.98360000  0.98360000  0.35720000  1.0 0.1010748524
H  H9  1  0.89890000  0.89890000  0.67480000  1.0 0.1010748524
H  H10  1  0.60110000  0.60110000  0.17480000  1.0 0.1010748524
H  H11  1  0.39890000  0.39890000  0.82520000  1.0 0.1010748524
H  H12  1  0.10110000  0.10110000  0.32520000  1.0 0.1010748524
H  H13  1  0.41710000  0.75610000  0.57980000  1.0 0.1176110356
H  H14  1  0.08290000  0.74390000  0.07980000  1.0 0.1176110356
H  H15  1  0.25610000  0.91710000  0.92020000  1.0 0.1176110356
H  H16  1  0.24390000  0.58290000  0.42020000  1.0 0.1176110356
H  H17  1  0.58290000  0.24390000  0.42020000  1.0 0.1176110356
H  H18  1  0.91710000  0.25610000  0.92020000  1.0 0.1176110356
H  H19  1  0.74390000  0.08290000  0.07980000  1.0 0.1176110356
H  H20  1  0.75610000  0.41710000  0.57980000  1.0 0.1176110356
H  H21  1  0.21520000  0.02060000  0.57900000  1.0 0.1010748524
H  H22  1  0.28480000  0.47940000  0.07900000  1.0 0.1010748524
H  H23  1  0.52060000  0.71520000  0.92100000  1.0 0.1010748524
H  H24  1  0.97940000  0.78480000  0.42100000  1.0 0.1010748524
H  H25  1  0.78480000  0.97940000  0.42100000  1.0 0.1010748524
H  H26  1  0.71520000  0.52060000  0.92100000  1.0 0.1010748524
H  H27  1  0.47940000  0.28480000  0.07900000  1.0 0.1010748524
H  H28  1  0.02060000  0.21520000  0.57900000  1.0 0.1010748524
H  H29  1  0.44100000  0.77300000  0.51770000  1.0 0.1399023075
H  H30  1  0.05900000  0.72700000  0.01770000  1.0 0.1399023075
H  H31  1  0.27300000  0.94100000  0.98230000  1.0 0.1399023075
H  H32  1  0.22700000  0.55900000  0.48230000  1.0 0.1399023075
H  H33  1  0.55900000  0.22700000  0.48230000  1.0 0.1399023075
H  H34  1  0.94100000  0.27300000  0.98230000  1.0 0.1399023075
H  H35  1  0.72700000  0.05900000  0.01770000  1.0 0.1399023075
H  H36  1  0.77300000  0.44100000  0.51770000  1.0 0.1399023075
H  H37  1  0.23030000  0.03710000  0.51690000  1.0 0.1306370822
H  H38  1  0.26970000  0.46290000  0.01690000  1.0 0.1306370822
H  H39  1  0.53710000  0.73030000  0.98310000  1.0 0.1306370822
H  H40  1  0.96290000  0.76970000  0.48310000  1.0 0.1306370822
H  H41  1  0.76970000  0.96290000  0.48310000  1.0 0.1306370822
H  H42  1  0.73030000  0.53710000  0.98310000  1.0 0.1306370822
H  H43  1  0.46290000  0.26970000  0.01690000  1.0 0.1306370822
H  H44  1  0.03710000  0.23030000  0.51690000  1.0 0.1306370822
H  H45  1  0.43770000  0.78910000  0.39960000  1.0 0.1176110356
H  H46  1  0.06230000  0.71090000  0.89960000  1.0 0.1176110356
H  H47  1  0.28910000  0.93770000  0.10040000  1.0 0.1176110356
H  H48  1  0.21090000  0.56230000  0.60040000  1.0 0.1176110356
H  H49  1  0.56230000  0.21090000  0.60040000  1.0 0.1176110356
H  H50  1  0.93770000  0.28910000  0.10040000  1.0 0.1176110356
H  H51  1  0.71090000  0.06230000  0.89960000  1.0 0.1176110356
H  H52  1  0.78910000  0.43770000  0.39960000  1.0 0.1176110356
H  H53  1  0.43910000  0.77470000  0.46170000  1.0 0.1306370822
H  H54  1  0.06090000  0.72530000  0.96170000  1.0 0.1306370822
H  H55  1  0.27470000  0.93910000  0.03830000  1.0 0.1306370822
H  H56  1  0.22530000  0.56090000  0.53830000  1.0 0.1306370822
H  H57  1  0.56090000  0.22530000  0.53830000  1.0 0.1306370822
H  H58  1  0.93910000  0.27470000  0.03830000  1.0 0.1306370822
H  H59  1  0.72530000  0.06090000  0.96170000  1.0 0.1306370822
H  H60  1  0.77470000  0.43910000  0.46170000  1.0 0.1306370822
H  H61  1  0.27190000  0.07990000  0.40650000  1.0 0.1010748524
H  H62  1  0.22810000  0.42010000  0.90650000  1.0 0.1010748524
H  H63  1  0.57990000  0.77190000  0.09350000  1.0 0.1010748524
H  H64  1  0.92010000  0.72810000  0.59350000  1.0 0.1010748524
H  H65  1  0.72810000  0.92010000  0.59350000  1.0 0.1010748524
H  H66  1  0.77190000  0.57990000  0.09350000  1.0 0.1010748524
H  H67  1  0.42010000  0.22810000  0.90650000  1.0 0.1010748524
H  H68  1  0.07990000  0.27190000  0.40650000  1.0 0.1010748524
H  H69  1  0.26550000  0.06590000  0.46770000  1.0 0.1399023075
H  H70  1  0.23450000  0.43410000  0.96770000  1.0 0.1399023075
H  H71  1  0.56590000  0.76550000  0.03230000  1.0 0.1399023075
H  H72  1  0.93410000  0.73450000  0.53230000  1.0 0.1399023075
H  H73  1  0.73450000  0.93410000  0.53230000  1.0 0.1399023075
H  H74  1  0.76550000  0.56590000  0.03230000  1.0 0.1399023075
H  H75  1  0.43410000  0.23450000  0.96770000  1.0 0.1399023075
H  H76  1  0.06590000  0.26550000  0.46770000  1.0 0.1399023075
C  C1  1  0.22100000  0.77580000  0.70510000  1.0 0.5564776239
C  C2  1  0.27900000  0.72420000  0.20510000  1.0 0.5564776239
C  C3  1  0.27580000  0.72100000  0.79490000  1.0 0.5564776239
C  C4  1  0.22420000  0.77900000  0.29490000  1.0 0.5564776239
C  C5  1  0.77900000  0.22420000  0.29490000  1.0 0.5564776239
C  C6  1  0.72100000  0.27580000  0.79490000  1.0 0.5564776239
C  C7  1  0.72420000  0.27900000  0.20510000  1.0 0.5564776239
C  C8  1  0.77580000  0.22100000  0.70510000  1.0 0.5564776239
C  C9  1  0.16910000  0.69210000  0.73280000  1.0 0.0121951149
C  C10  1  0.33090000  0.80790000  0.23280000  1.0 0.0121951149
C  C11  1  0.19210000  0.66910000  0.76720000  1.0 0.0121951149
C  C12  1  0.30790000  0.83090000  0.26720000  1.0 0.0121951149
C  C13  1  0.83090000  0.30790000  0.26720000  1.0 0.0121951149
C  C14  1  0.66910000  0.19210000  0.76720000  1.0 0.0121951149
C  C15  1  0.80790000  0.33090000  0.23280000  1.0 0.0121951149
C  C16  1  0.69210000  0.16910000  0.73280000  1.0 0.0121951149
C  C17  1  0.04660000  0.54660000  0.75000000  1.0 0.1947514069
C  C18  1  0.45340000  0.95340000  0.25000000  1.0 0.1947514069
C  C19  1  0.95340000  0.45340000  0.25000000  1.0 0.1947514069
C  C20  1  0.54660000  0.04660000  0.75000000  1.0 0.1947514069
C  C21  1  0.38560000  0.17720000  0.65660000  1.0 0.5731727955
C  C22  1  0.11440000  0.32280000  0.15660000  1.0 0.5731727955
C  C23  1  0.67720000  0.88560000  0.84340000  1.0 0.5731727955
C  C24  1  0.82280000  0.61440000  0.34340000  1.0 0.5731727955
C  C25  1  0.61440000  0.82280000  0.34340000  1.0 0.5731727955
C  C26  1  0.88560000  0.67720000  0.84340000  1.0 0.5731727955
C  C27  1  0.32280000  0.11440000  0.15660000  1.0 0.5731727955
C  C28  1  0.17720000  0.38560000  0.65660000  1.0 0.5731727955
C  C29  1  0.25700000  0.16920000  0.65230000  1.0 -0.0086296942
C  C30  1  0.24300000  0.33080000  0.15230000  1.0 -0.0086296942
C  C31  1  0.66920000  0.75700000  0.84770000  1.0 -0.0086296942
C  C32  1  0.83080000  0.74300000  0.34770000  1.0 -0.0086296942
C  C33  1  0.74300000  0.83080000  0.34770000  1.0 -0.0086296942
C  C34  1  0.75700000  0.66920000  0.84770000  1.0 -0.0086296942
C  C35  1  0.33080000  0.24300000  0.15230000  1.0 -0.0086296942
C  C36  1  0.16920000  0.25700000  0.65230000  1.0 -0.0086296942
C  C37  1  0.07780000  0.07780000  0.64580000  1.0 0.1399023075
C  C38  1  0.42220000  0.42220000  0.14580000  1.0 0.1399023075
C  C39  1  0.57780000  0.57780000  0.85420000  1.0 0.1399023075
C  C40  1  0.92220000  0.92220000  0.35420000  1.0 0.1399023075
C  C41  1  0.74830000  0.53830000  0.64700000  1.0 0.5564776239
C  C42  1  0.75170000  0.96170000  0.14700000  1.0 0.5564776239
C  C43  1  0.03830000  0.24830000  0.85300000  1.0 0.5564776239
C  C44  1  0.46170000  0.25170000  0.35300000  1.0 0.5564776239
C  C45  1  0.25170000  0.46170000  0.35300000  1.0 0.5564776239
C  C46  1  0.24830000  0.03830000  0.85300000  1.0 0.5564776239
C  C47  1  0.96170000  0.75170000  0.14700000  1.0 0.5564776239
C  C48  1  0.53830000  0.74830000  0.64700000  1.0 0.5564776239
C  C49  1  0.75050000  0.66550000  0.65460000  1.0 -0.0086296942
C  C50  1  0.74950000  0.83450000  0.15460000  1.0 -0.0086296942
C  C51  1  0.16550000  0.25050000  0.84540000  1.0 -0.0086296942
C  C52  1  0.33450000  0.24950000  0.34540000  1.0 -0.0086296942
C  C53  1  0.24950000  0.33450000  0.34540000  1.0 -0.0086296942
C  C54  1  0.25050000  0.16550000  0.84540000  1.0 -0.0086296942
C  C55  1  0.83450000  0.74950000  0.15460000  1.0 -0.0086296942
C  C56  1  0.66550000  0.75050000  0.65460000  1.0 -0.0086296942
C  C57  1  0.83880000  0.83880000  0.66890000  1.0 0.1399023075
C  C58  1  0.66120000  0.66120000  0.16890000  1.0 0.1399023075
C  C59  1  0.33880000  0.33880000  0.83110000  1.0 0.1399023075
C  C60  1  0.16120000  0.16120000  0.33110000  1.0 0.1399023075
C  C61  1  0.37910000  0.81530000  0.56720000  1.0 0.0542312925
C  C62  1  0.12090000  0.68470000  0.06720000  1.0 0.0542312925
C  C63  1  0.31530000  0.87910000  0.93280000  1.0 0.0542312925
C  C64  1  0.18470000  0.62090000  0.43280000  1.0 0.0542312925
C  C65  1  0.62090000  0.18470000  0.43280000  1.0 0.0542312925
C  C66  1  0.87910000  0.31530000  0.93280000  1.0 0.0542312925
C  C67  1  0.68470000  0.12090000  0.06720000  1.0 0.0542312925
C  C68  1  0.81530000  0.37910000  0.56720000  1.0 0.0542312925
C  C69  1  0.26190000  0.96730000  0.56680000  1.0 0.1093707447
C  C70  1  0.23810000  0.53270000  0.06680000  1.0 0.1093707447
C  C71  1  0.46730000  0.76190000  0.93320000  1.0 0.1093707447
C  C72  1  0.03270000  0.73810000  0.43320000  1.0 0.1093707447
C  C73  1  0.73810000  0.03270000  0.43320000  1.0 0.1093707447
C  C74  1  0.76190000  0.46730000  0.93320000  1.0 0.1093707447
C  C75  1  0.53270000  0.23810000  0.06680000  1.0 0.1093707447
C  C76  1  0.96730000  0.26190000  0.56680000  1.0 0.1093707447
C  C77  1  0.33910000  0.90350000  0.51110000  1.0 0.1010748524
C  C78  1  0.16090000  0.59650000  0.01110000  1.0 0.1010748524
C  C79  1  0.40350000  0.83910000  0.98890000  1.0 0.1010748524
C  C80  1  0.09650000  0.66090000  0.48890000  1.0 0.1010748524
C  C81  1  0.66090000  0.09650000  0.48890000  1.0 0.1010748524
C  C82  1  0.83910000  0.40350000  0.98890000  1.0 0.1010748524
C  C83  1  0.59650000  0.16090000  0.01110000  1.0 0.1010748524
C  C84  1  0.90350000  0.33910000  0.51110000  1.0 0.1010748524
C  C85  1  0.34680000  0.91680000  0.47120000  1.0 0.1093707447
C  C86  1  0.15320000  0.58320000  0.97120000  1.0 0.1093707447
C  C87  1  0.41680000  0.84680000  0.02880000  1.0 0.1093707447
C  C88  1  0.08320000  0.65320000  0.52880000  1.0 0.1093707447
C  C89  1  0.65320000  0.08320000  0.52880000  1.0 0.1093707447
C  C90  1  0.84680000  0.41680000  0.02880000  1.0 0.1093707447
C  C91  1  0.58320000  0.15320000  0.97120000  1.0 0.1093707447
C  C92  1  0.91680000  0.34680000  0.47120000  1.0 0.1093707447
C  C93  1  0.39230000  0.82490000  0.52980000  1.0 -0.1619699422
C  C94  1  0.10770000  0.67510000  0.02980000  1.0 -0.1619699422
C  C95  1  0.32490000  0.89230000  0.97020000  1.0 -0.1619699422
C  C96  1  0.17510000  0.60770000  0.47020000  1.0 -0.1619699422
C  C97  1  0.60770000  0.17510000  0.47020000  1.0 -0.1619699422
C  C98  1  0.89230000  0.32490000  0.97020000  1.0 -0.1619699422
C  C99  1  0.67510000  0.10770000  0.02980000  1.0 -0.1619699422
C  C100  1  0.82490000  0.39230000  0.52980000  1.0 -0.1619699422
C  C101  1  0.27090000  0.97910000  0.52930000  1.0 -0.1981974813
C  C102  1  0.22910000  0.52090000  0.02930000  1.0 -0.1981974813
C  C103  1  0.47910000  0.77090000  0.97070000  1.0 -0.1981974813
C  C104  1  0.02090000  0.72910000  0.47070000  1.0 -0.1981974813
C  C105  1  0.72910000  0.02090000  0.47070000  1.0 -0.1981974813
C  C106  1  0.77090000  0.47910000  0.97070000  1.0 -0.1981974813
C  C107  1  0.52090000  0.22910000  0.02930000  1.0 -0.1981974813
C  C108  1  0.97910000  0.27090000  0.52930000  1.0 -0.1981974813
C  C109  1  0.40320000  0.84800000  0.41330000  1.0 0.0793442976
C  C110  1  0.09680000  0.65200000  0.91330000  1.0 0.0793442976
C  C111  1  0.34800000  0.90320000  0.08670000  1.0 0.0793442976
C  C112  1  0.15200000  0.59680000  0.58670000  1.0 0.0793442976
C  C113  1  0.59680000  0.15200000  0.58670000  1.0 0.0793442976
C  C114  1  0.90320000  0.34800000  0.08670000  1.0 0.0793442976
C  C115  1  0.65200000  0.09680000  0.91330000  1.0 0.0793442976
C  C116  1  0.84800000  0.40320000  0.41330000  1.0 0.0793442976
C  C117  1  0.40170000  0.83750000  0.45060000  1.0 -0.1721520695
C  C118  1  0.09830000  0.66250000  0.95060000  1.0 -0.1721520695
C  C119  1  0.33750000  0.90170000  0.04940000  1.0 -0.1721520695
C  C120  1  0.16250000  0.59830000  0.54940000  1.0 -0.1721520695
C  C121  1  0.59830000  0.16250000  0.54940000  1.0 -0.1721520695
C  C122  1  0.90170000  0.33750000  0.04940000  1.0 -0.1721520695
C  C123  1  0.66250000  0.09830000  0.95060000  1.0 -0.1721520695
C  C124  1  0.83750000  0.40170000  0.45060000  1.0 -0.1721520695
C  C125  1  0.30670000  0.01530000  0.41740000  1.0 0.0714048156
C  C126  1  0.19330000  0.48470000  0.91740000  1.0 0.0714048156
C  C127  1  0.51530000  0.80670000  0.08260000  1.0 0.0714048156
C  C128  1  0.98470000  0.69330000  0.58260000  1.0 0.0714048156
C  C129  1  0.69330000  0.98470000  0.58260000  1.0 0.0714048156
C  C130  1  0.80670000  0.51530000  0.08260000  1.0 0.0714048156
C  C131  1  0.48470000  0.19330000  0.91740000  1.0 0.0714048156
C  C132  1  0.01530000  0.30670000  0.41740000  1.0 0.0714048156
C  C133  1  0.30150000  0.00710000  0.45430000  1.0 -0.1812585733
C  C134  1  0.19850000  0.49290000  0.95430000  1.0 -0.1812585733
C  C135  1  0.50710000  0.80150000  0.04570000  1.0 -0.1812585733
C  C136  1  0.99290000  0.69850000  0.54570000  1.0 -0.1812585733
C  C137  1  0.69850000  0.99290000  0.54570000  1.0 -0.1812585733
C  C138  1  0.80150000  0.50710000  0.04570000  1.0 -0.1812585733
C  C139  1  0.49290000  0.19850000  0.95430000  1.0 -0.1812585733
C  C140  1  0.00710000  0.30150000  0.45430000  1.0 -0.1812585733
N  N1  1  0.07530000  0.61390000  0.72080000  1.0 -0.3417507756
N  N2  1  0.42470000  0.88610000  0.22080000  1.0 -0.3417507756
N  N3  1  0.11390000  0.57530000  0.77920000  1.0 -0.3417507756
N  N4  1  0.38610000  0.92470000  0.27920000  1.0 -0.3417507756
N  N5  1  0.92470000  0.38610000  0.27920000  1.0 -0.3417507756
N  N6  1  0.57530000  0.11390000  0.77920000  1.0 -0.3417507756
N  N7  1  0.88610000  0.42470000  0.22080000  1.0 -0.3417507756
N  N8  1  0.61390000  0.07530000  0.72080000  1.0 -0.3417507756
N  N9  1  0.19560000  0.06040000  0.64820000  1.0 -0.3486499759
N  N10  1  0.30440000  0.43960000  0.14820000  1.0 -0.3486499759
N  N11  1  0.56040000  0.69560000  0.85180000  1.0 -0.3486499759
N  N12  1  0.93960000  0.80440000  0.35180000  1.0 -0.3486499759
N  N13  1  0.80440000  0.93960000  0.35180000  1.0 -0.3486499759
N  N14  1  0.69560000  0.56040000  0.85180000  1.0 -0.3486499759
N  N15  1  0.43960000  0.30440000  0.14820000  1.0 -0.3486499759
N  N16  1  0.06040000  0.19560000  0.64820000  1.0 -0.3486499759
N  N17  1  0.85380000  0.72300000  0.66390000  1.0 -0.3184525493
N  N18  1  0.64620000  0.77700000  0.16390000  1.0 -0.3184525493
N  N19  1  0.22300000  0.35380000  0.83610000  1.0 -0.3184525493
N  N20  1  0.27700000  0.14620000  0.33610000  1.0 -0.3184525493
N  N21  1  0.14620000  0.27700000  0.33610000  1.0 -0.3184525493
N  N22  1  0.35380000  0.22300000  0.83610000  1.0 -0.3184525493
N  N23  1  0.77700000  0.64620000  0.16390000  1.0 -0.3184525493
N  N24  1  0.72300000  0.85380000  0.66390000  1.0 -0.3184525493
N  N25  1  0.31160000  0.89140000  0.58570000  1.0 -0.2403043359
N  N26  1  0.18840000  0.60860000  0.08570000  1.0 -0.2403043359
N  N27  1  0.39140000  0.81160000  0.91430000  1.0 -0.2403043359
N  N28  1  0.10860000  0.68840000  0.41430000  1.0 -0.2403043359
N  N29  1  0.68840000  0.10860000  0.41430000  1.0 -0.2403043359
N  N30  1  0.81160000  0.39140000  0.91430000  1.0 -0.2403043359
N  N31  1  0.60860000  0.18840000  0.08570000  1.0 -0.2403043359
N  N32  1  0.89140000  0.31160000  0.58570000  1.0 -0.2403043359
N  N33  1  0.35700000  0.93960000  0.39610000  1.0 -0.2403043359
N  N34  1  0.14300000  0.56040000  0.89610000  1.0 -0.2403043359
N  N35  1  0.43960000  0.85700000  0.10390000  1.0 -0.2403043359
N  N36  1  0.06040000  0.64300000  0.60390000  1.0 -0.2403043359
N  N37  1  0.64300000  0.06040000  0.60390000  1.0 -0.2403043359
N  N38  1  0.85700000  0.43960000  0.10390000  1.0 -0.2403043359
N  N39  1  0.56040000  0.14300000  0.89610000  1.0 -0.2403043359
N  N40  1  0.93960000  0.35700000  0.39610000  1.0 -0.2403043359
N  N41  1  0.70000000  0.70000000  0.48070000  1.0 0.6777041432
N  N42  1  0.80000000  0.80000000  0.98070000  1.0 0.6777041432
N  N43  1  0.20000000  0.20000000  0.01930000  1.0 0.6777041432
N  N44  1  0.30000000  0.30000000  0.51930000  1.0 0.6777041432
O  O1  1  0.17850000  0.76350000  0.67300000  1.0 -0.5876962665
O  O2  1  0.32150000  0.73650000  0.17300000  1.0 -0.5876962665
O  O3  1  0.26350000  0.67850000  0.82700000  1.0 -0.5876962665
O  O4  1  0.23650000  0.82150000  0.32700000  1.0 -0.5876962665
O  O5  1  0.82150000  0.23650000  0.32700000  1.0 -0.5876962665
O  O6  1  0.67850000  0.26350000  0.82700000  1.0 -0.5876962665
O  O7  1  0.73650000  0.32150000  0.17300000  1.0 -0.5876962665
O  O8  1  0.76350000  0.17850000  0.67300000  1.0 -0.5876962665
O  O9  1  0.30580000  0.84900000  0.71180000  1.0 -0.46022324
O  O10  1  0.19420000  0.65100000  0.21180000  1.0 -0.46022324
O  O11  1  0.34900000  0.80580000  0.78820000  1.0 -0.46022324
O  O12  1  0.15100000  0.69420000  0.28820000  1.0 -0.46022324
O  O13  1  0.69420000  0.15100000  0.28820000  1.0 -0.46022324
O  O14  1  0.80580000  0.34900000  0.78820000  1.0 -0.46022324
O  O15  1  0.65100000  0.19420000  0.21180000  1.0 -0.46022324
O  O16  1  0.84900000  0.30580000  0.71180000  1.0 -0.46022324
O  O17  1  0.42060000  0.07240000  0.65610000  1.0 -0.537512106
O  O18  1  0.07940000  0.42760000  0.15610000  1.0 -0.537512106
O  O19  1  0.57240000  0.92060000  0.84390000  1.0 -0.537512106
O  O20  1  0.92760000  0.57940000  0.34390000  1.0 -0.537512106
O  O21  1  0.57940000  0.92760000  0.34390000  1.0 -0.537512106
O  O22  1  0.92060000  0.57240000  0.84390000  1.0 -0.537512106
O  O23  1  0.42760000  0.07940000  0.15610000  1.0 -0.537512106
O  O24  1  0.07240000  0.42060000  0.65610000  1.0 -0.537512106
O  O25  1  0.45170000  0.26850000  0.66020000  1.0 -0.537512106
O  O26  1  0.04830000  0.23150000  0.16020000  1.0 -0.537512106
O  O27  1  0.76850000  0.95170000  0.83980000  1.0 -0.537512106
O  O28  1  0.73150000  0.54830000  0.33980000  1.0 -0.537512106
O  O29  1  0.54830000  0.73150000  0.33980000  1.0 -0.537512106
O  O30  1  0.95170000  0.76850000  0.83980000  1.0 -0.537512106
O  O31  1  0.23150000  0.04830000  0.16020000  1.0 -0.537512106
O  O32  1  0.26850000  0.45170000  0.66020000  1.0 -0.537512106
O  O33  1  0.65610000  0.47330000  0.63870000  1.0 -0.537512106
O  O34  1  0.84390000  0.02670000  0.13870000  1.0 -0.537512106
O  O35  1  0.97330000  0.15610000  0.86130000  1.0 -0.537512106
O  O36  1  0.52670000  0.34390000  0.36130000  1.0 -0.537512106
O  O37  1  0.34390000  0.52670000  0.36130000  1.0 -0.537512106
O  O38  1  0.15610000  0.97330000  0.86130000  1.0 -0.537512106
O  O39  1  0.02670000  0.84390000  0.13870000  1.0 -0.537512106
O  O40  1  0.47330000  0.65610000  0.63870000  1.0 -0.537512106
O  O41  1  0.85270000  0.48450000  0.64850000  1.0 -0.6020639661
O  O42  1  0.64730000  0.01550000  0.14850000  1.0 -0.6020639661
O  O43  1  0.98450000  0.35270000  0.85150000  1.0 -0.6020639661
O  O44  1  0.51550000  0.14730000  0.35150000  1.0 -0.6020639661
O  O45  1  0.14730000  0.51550000  0.35150000  1.0 -0.6020639661
O  O46  1  0.35270000  0.98450000  0.85150000  1.0 -0.6020639661
O  O47  1  0.01550000  0.64730000  0.14850000  1.0 -0.6020639661
O  O48  1  0.48450000  0.85270000  0.64850000  1.0 -0.6020639661
O  O49  1  0.43000000  0.43000000  0.59250000  1.0 -0.2182998779
O  O50  1  0.07000000  0.07000000  0.09250000  1.0 -0.2182998779
O  O51  1  0.93000000  0.93000000  0.90750000  1.0 -0.2182998779
O  O52  1  0.57000000  0.57000000  0.40750000  1.0 -0.2182998779
O  O53  1  0.50330000  0.50330000  0.70950000  1.0 -0.2319762332
O  O54  1  0.99670000  0.99670000  0.20950000  1.0 -0.2319762332
O  O55  1  0.00330000  0.00330000  0.79050000  1.0 -0.2403043359
O  O56  1  0.49670000  0.49670000  0.29050000  1.0 -0.2319762332
O  O57  1  0.61600000  0.61600000  0.48620000  1.0 -0.4527271139
O  O58  1  0.74610000  0.74610000  0.50550000  1.0 -0.4018655542
O  O59  1  0.72830000  0.72830000  0.44770000  1.0 -0.4670285705
O  O60  1  0.88400000  0.88400000  0.98620000  1.0 -0.4527271139
O  O61  1  0.75390000  0.75390000  0.00550000  1.0 -0.4018655542
O  O62  1  0.77170000  0.77170000  0.94770000  1.0 -0.4670285705
O  O63  1  0.11600000  0.11600000  0.01380000  1.0 -0.4527271139
O  O64  1  0.24610000  0.24610000  0.99450000  1.0 -0.4018655542
O  O65  1  0.22830000  0.22830000  0.05230000  1.0 -0.4670285705
O  O66  1  0.38400000  0.38400000  0.51380000  1.0 -0.4527271139
O  O67  1  0.25390000  0.25390000  0.49450000  1.0 -0.4018655542
O  O68  1  0.27170000  0.27170000  0.55230000  1.0 -0.4670285705
