# DDEC6 charges by PACMAN v1.1 (https://github.com/mtap-research/PACMAN-charge/)
data_UFENEZ_ASR_pacman
_symmetry_space_group_name_H-M   'P 1'
_cell_length_a   7.55770000
_cell_length_b   8.19530000
_cell_length_c   13.45930000
_cell_angle_alpha   90.00000000
_cell_angle_beta   90.00000000
_cell_angle_gamma   90.00000000
_symmetry_Int_Tables_number   1
_chemical_formula_structural   CuC2N
_chemical_formula_sum   'Cu8 C16 N8'
_cell_volume   833.63699285
_cell_formula_units_Z   8
loop_
 _symmetry_equiv_pos_site_id
 _symmetry_equiv_pos_as_xyz
  1  'x, y, z'
loop_
 _atom_site_type_symbol
 _atom_site_label
 _atom_site_symmetry_multiplicity
 _atom_site_fract_x
 _atom_site_fract_y
 _atom_site_fract_z
 _atom_site_occupancy
 _atom_site_charge
Cu  Cu1  1  0.09757000  0.05634000  0.56530000  1.0 0.3172056841
Cu  Cu2  1  0.40243000  0.44366000  0.06530000  1.0 0.3172056841
Cu  Cu3  1  0.09757000  0.94366000  0.93470000  1.0 0.3172056841
Cu  Cu4  1  0.40243000  0.55634000  0.43470000  1.0 0.3172056841
Cu  Cu5  1  0.90243000  0.94366000  0.43470000  1.0 0.3172056841
Cu  Cu6  1  0.59757000  0.55634000  0.93470000  1.0 0.3172056841
Cu  Cu7  1  0.90243000  0.05634000  0.06530000  1.0 0.3172056841
Cu  Cu8  1  0.59757000  0.44366000  0.56530000  1.0 0.3172056841
C  C1  1  0.16680000  0.85810000  0.48400000  1.0 0.0382973799
C  C2  1  0.33320000  0.64190000  0.98400000  1.0 0.0382973799
C  C3  1  0.16680000  0.14190000  0.01600000  1.0 0.0382973799
C  C4  1  0.33320000  0.35810000  0.51600000  1.0 0.0382973799
C  C5  1  0.83320000  0.14190000  0.51600000  1.0 0.0382973799
C  C6  1  0.66680000  0.35810000  0.01600000  1.0 0.0382973799
C  C7  1  0.83320000  0.85810000  0.98400000  1.0 0.0382973799
C  C8  1  0.66680000  0.64190000  0.48400000  1.0 0.0382973799
C  C9  1  0.08170000  0.01500000  0.70850000  1.0 -0.1163970886
C  C10  1  0.41830000  0.48500000  0.20850000  1.0 -0.1163970886
C  C11  1  0.08170000  0.98500000  0.79150000  1.0 -0.1163970886
C  C12  1  0.41830000  0.51500000  0.29150000  1.0 -0.1163970886
C  C13  1  0.91830000  0.98500000  0.29150000  1.0 -0.1163970886
C  C14  1  0.58170000  0.51500000  0.79150000  1.0 -0.1163970886
C  C15  1  0.91830000  0.01500000  0.20850000  1.0 -0.1163970886
C  C16  1  0.58170000  0.48500000  0.70850000  1.0 -0.1163970886
N  N1  1  0.24680000  0.25140000  0.53810000  1.0 -0.2391059754
N  N2  1  0.25320000  0.24860000  0.03810000  1.0 -0.2391059754
N  N3  1  0.24680000  0.74860000  0.96190000  1.0 -0.2391059754
N  N4  1  0.25320000  0.75140000  0.46190000  1.0 -0.2391059754
N  N5  1  0.75320000  0.74860000  0.46190000  1.0 -0.2391059754
N  N6  1  0.74680000  0.75140000  0.96190000  1.0 -0.2391059754
N  N7  1  0.75320000  0.25140000  0.03810000  1.0 -0.2391059754
N  N8  1  0.74680000  0.24860000  0.53810000  1.0 -0.2391059754
