# DDEC6 charges by PACMAN v1.1 (https://github.com/mtap-research/PACMAN-charge/)
data_UFESUW_FSR_pacman
_symmetry_space_group_name_H-M   'P 1'
_cell_length_a   11.32340000
_cell_length_b   11.32340000
_cell_length_c   16.18700000
_cell_angle_alpha   90.00000000
_cell_angle_beta   90.00000000
_cell_angle_gamma   119.69300000
_symmetry_Int_Tables_number   1
_chemical_formula_structural   FeAg2H12C28(N2O)4
_chemical_formula_sum   'Fe2 Ag4 H24 C56 N16 O8'
_cell_volume   1802.95923200
_cell_formula_units_Z   2
loop_
 _symmetry_equiv_pos_site_id
 _symmetry_equiv_pos_as_xyz
  1  'x, y, z'
loop_
 _atom_site_type_symbol
 _atom_site_label
 _atom_site_symmetry_multiplicity
 _atom_site_fract_x
 _atom_site_fract_y
 _atom_site_fract_z
 _atom_site_occupancy
 _atom_site_charge
Fe  Fe1  1  0.00000000  0.00000000  0.00000000  1.0 0.5840976716
Fe  Fe2  1  0.50000000  0.50000000  0.50000000  1.0 0.5840976716
Ag  Ag1  1  0.84517000  0.84517000  0.30221000  1.0 0.1683263585
Ag  Ag2  1  0.65483000  0.65483000  0.80221000  1.0 0.1683263585
Ag  Ag3  1  0.34517000  0.34517000  0.19779000  1.0 0.1683263585
Ag  Ag4  1  0.15483000  0.15483000  0.69779000  1.0 0.1683263585
H  H1  1  0.72720000  0.95680000  0.04990000  1.0 0.1206235394
H  H2  1  0.60530000  0.07170000  0.05350000  1.0 0.149523291
H  H3  1  0.38060000  0.26080000  0.84380000  1.0 0.1206235394
H  H4  1  0.77280000  0.54320000  0.54990000  1.0 0.1206235394
H  H5  1  0.89470000  0.42830000  0.55350000  1.0 0.149523291
H  H6  1  0.11940000  0.23920000  0.34380000  1.0 0.1206235394
H  H7  1  0.45680000  0.22720000  0.45010000  1.0 0.1206235394
H  H8  1  0.57170000  0.10530000  0.44650000  1.0 0.149523291
H  H9  1  0.76080000  0.88060000  0.65620000  1.0 0.1206235394
H  H10  1  0.04320000  0.27280000  0.95010000  1.0 0.1206235394
H  H11  1  0.92830000  0.39470000  0.94650000  1.0 0.149523291
H  H12  1  0.73920000  0.61940000  0.15620000  1.0 0.1206235394
H  H13  1  0.27280000  0.04320000  0.95010000  1.0 0.1206235394
H  H14  1  0.39470000  0.92830000  0.94650000  1.0 0.149523291
H  H15  1  0.61940000  0.73920000  0.15620000  1.0 0.1206235394
H  H16  1  0.22720000  0.45680000  0.45010000  1.0 0.1206235394
H  H17  1  0.10530000  0.57170000  0.44650000  1.0 0.149523291
H  H18  1  0.88060000  0.76080000  0.65620000  1.0 0.1251472712
H  H19  1  0.54320000  0.77280000  0.54990000  1.0 0.1206235394
H  H20  1  0.42830000  0.89470000  0.55350000  1.0 0.149523291
H  H21  1  0.23920000  0.11940000  0.34380000  1.0 0.1206235394
H  H22  1  0.95680000  0.72720000  0.04990000  1.0 0.1206235394
H  H23  1  0.07170000  0.60530000  0.05350000  1.0 0.149523291
H  H24  1  0.26080000  0.38060000  0.84380000  1.0 0.1206235394
C  C1  1  0.76842000  0.04718000  0.02945000  1.0 0.1056059406
C  C2  1  0.69475000  0.11425000  0.03134000  1.0 -0.2016026757
C  C3  1  0.57268000  0.27792000  0.94329000  1.0 0.4401591152
C  C4  1  0.50246000  0.35894000  0.94119000  1.0 -0.0651289269
C  C5  1  0.40167000  0.32993000  0.88374000  1.0 -0.0917339872
C  C6  1  0.73158000  0.45282000  0.52945000  1.0 0.1056059406
C  C7  1  0.80525000  0.38575000  0.53134000  1.0 -0.2016026757
C  C8  1  0.92732000  0.22208000  0.44329000  1.0 0.4401591152
C  C9  1  0.99754000  0.14106000  0.44119000  1.0 -0.0651289269
C  C10  1  0.09833000  0.17007000  0.38374000  1.0 -0.0917339872
C  C11  1  0.54718000  0.26842000  0.47055000  1.0 0.1056059406
C  C12  1  0.61425000  0.19475000  0.46866000  1.0 -0.2016026757
C  C13  1  0.77792000  0.07268000  0.55671000  1.0 0.4401591152
C  C14  1  0.85894000  0.00246000  0.55881000  1.0 -0.0651289269
C  C15  1  0.82993000  0.90167000  0.61626000  1.0 -0.0917339872
C  C16  1  0.95282000  0.23158000  0.97055000  1.0 0.1056059406
C  C17  1  0.88575000  0.30525000  0.96866000  1.0 -0.2016026757
C  C18  1  0.72208000  0.42732000  0.05671000  1.0 0.4401591152
C  C19  1  0.64106000  0.49754000  0.05881000  1.0 -0.0651289269
C  C20  1  0.67007000  0.59833000  0.11626000  1.0 -0.0917339872
C  C21  1  0.23158000  0.95282000  0.97055000  1.0 0.1056059406
C  C22  1  0.30525000  0.88575000  0.96866000  1.0 -0.2016026757
C  C23  1  0.42732000  0.72208000  0.05671000  1.0 0.4401591152
C  C24  1  0.49754000  0.64106000  0.05881000  1.0 -0.0651289269
C  C25  1  0.59833000  0.67007000  0.11626000  1.0 -0.0917339872
C  C26  1  0.26842000  0.54718000  0.47055000  1.0 0.1056059406
C  C27  1  0.19475000  0.61425000  0.46866000  1.0 -0.2016026757
C  C28  1  0.07268000  0.77792000  0.55671000  1.0 0.4401591152
C  C29  1  0.00246000  0.85894000  0.55881000  1.0 -0.0651289269
C  C30  1  0.90167000  0.82993000  0.61626000  1.0 -0.0917339872
C  C31  1  0.45282000  0.73158000  0.52945000  1.0 0.1056059406
C  C32  1  0.38575000  0.80525000  0.53134000  1.0 -0.2016026757
C  C33  1  0.22208000  0.92732000  0.44329000  1.0 0.4401591152
C  C34  1  0.14106000  0.99754000  0.44119000  1.0 -0.0651289269
C  C35  1  0.17007000  0.09833000  0.38374000  1.0 -0.0917339872
C  C36  1  0.04718000  0.76842000  0.02945000  1.0 0.1056059406
C  C37  1  0.11425000  0.69475000  0.03134000  1.0 -0.2016026757
C  C38  1  0.27792000  0.57268000  0.94329000  1.0 0.4401591152
C  C39  1  0.35894000  0.50246000  0.94119000  1.0 -0.0651289269
C  C40  1  0.32993000  0.40167000  0.88374000  1.0 -0.0917339872
C  C41  1  0.91650000  0.91650000  0.18480000  1.0 -0.0220303673
C  C42  1  0.73810000  0.73810000  0.40560000  1.0 -0.0033062119
C  C43  1  0.58350000  0.58350000  0.68480000  1.0 -0.0220303673
C  C44  1  0.76190000  0.76190000  0.90560000  1.0 -0.0033062119
C  C45  1  0.41650000  0.41650000  0.31520000  1.0 -0.0220303673
C  C46  1  0.23810000  0.23810000  0.09440000  1.0 -0.0033062119
C  C47  1  0.08350000  0.08350000  0.81520000  1.0 -0.0220303673
C  C48  1  0.26190000  0.26190000  0.59440000  1.0 -0.0033062119
C  C49  1  0.75440000  0.24560000  0.00000000  1.0 0.2342229665
C  C50  1  0.53560000  0.46440000  0.00000000  1.0 0.0170987503
C  C51  1  0.74560000  0.25440000  0.50000000  1.0 0.2342229665
C  C52  1  0.96440000  0.03560000  0.50000000  1.0 0.0170987503
C  C53  1  0.24560000  0.75440000  0.00000000  1.0 0.2342229665
C  C54  1  0.46440000  0.53560000  0.00000000  1.0 0.0170987503
C  C55  1  0.25440000  0.74560000  0.50000000  1.0 0.2354701788
C  C56  1  0.03560000  0.96440000  0.50000000  1.0 0.0170987503
N  N1  1  0.94200000  0.94200000  0.11590000  1.0 -0.2893961191
N  N2  1  0.66000000  0.66000000  0.45140000  1.0 -0.301016432
N  N3  1  0.55800000  0.55800000  0.61590000  1.0 -0.2893961191
N  N4  1  0.84000000  0.84000000  0.95140000  1.0 -0.301016432
N  N5  1  0.44200000  0.44200000  0.38410000  1.0 -0.2893961191
N  N6  1  0.16000000  0.16000000  0.04860000  1.0 -0.301016432
N  N7  1  0.05800000  0.05800000  0.88410000  1.0 -0.2893961191
N  N8  1  0.34000000  0.34000000  0.54860000  1.0 -0.301016432
N  N9  1  0.89590000  0.10410000  0.00000000  1.0 -0.1544924199
N  N10  1  0.68050000  0.31950000  0.00000000  1.0 -0.2399465449
N  N11  1  0.60410000  0.39590000  0.50000000  1.0 -0.1544924199
N  N12  1  0.81950000  0.18050000  0.50000000  1.0 -0.2399465449
N  N13  1  0.10410000  0.89590000  0.00000000  1.0 -0.1559172093
N  N14  1  0.31950000  0.68050000  0.00000000  1.0 -0.2399465449
N  N15  1  0.39590000  0.60410000  0.50000000  1.0 -0.1559172093
N  N16  1  0.18050000  0.81950000  0.50000000  1.0 -0.2399465449
O  O1  1  0.54118000  0.17998000  0.89893000  1.0 -0.4291894145
O  O2  1  0.95882000  0.32002000  0.39893000  1.0 -0.4291894145
O  O3  1  0.67998000  0.04118000  0.60107000  1.0 -0.4291894145
O  O4  1  0.82002000  0.45882000  0.10107000  1.0 -0.4291894145
O  O5  1  0.45882000  0.82002000  0.10107000  1.0 -0.4291894145
O  O6  1  0.04118000  0.67998000  0.60107000  1.0 -0.4291894145
O  O7  1  0.32002000  0.95882000  0.39893000  1.0 -0.4291894145
O  O8  1  0.17998000  0.54118000  0.89893000  1.0 -0.4291894145
