# DDEC6 charges by PACMAN v1.1 (https://github.com/mtap-research/PACMAN-charge/)
data_UFEXOT_ASR_pacman
_symmetry_space_group_name_H-M   'P 1'
_cell_length_a   27.29400000
_cell_length_b   27.29400000
_cell_length_c   6.95650000
_cell_angle_alpha   90.00000000
_cell_angle_beta   90.00000000
_cell_angle_gamma   120.00000000
_symmetry_Int_Tables_number   1
_chemical_formula_structural   Er6Cu3H20C30(N4O9)3
_chemical_formula_sum   'Er18 Cu9 H60 C90 N36 O81'
_cell_volume   4488.03045793
_cell_formula_units_Z   3
loop_
 _symmetry_equiv_pos_site_id
 _symmetry_equiv_pos_as_xyz
  1  'x, y, z'
loop_
 _atom_site_type_symbol
 _atom_site_label
 _atom_site_symmetry_multiplicity
 _atom_site_fract_x
 _atom_site_fract_y
 _atom_site_fract_z
 _atom_site_occupancy
 _atom_site_charge
Er  Er1  1  0.74652000  0.34184000  0.13565000  1.0 2.0699103422
Er  Er2  1  0.25348000  0.65816000  0.86435000  1.0 2.0699103422
Er  Er3  1  0.65816000  0.40468000  0.13565000  1.0 2.0699103422
Er  Er4  1  0.34184000  0.59532000  0.86435000  1.0 2.0699103422
Er  Er5  1  0.59532000  0.25348000  0.13565000  1.0 2.0699103422
Er  Er6  1  0.40468000  0.74652000  0.86435000  1.0 2.0699103422
Er  Er7  1  0.41319000  0.67517000  0.46898000  1.0 2.0699103422
Er  Er8  1  0.92015000  0.99150000  0.19769000  1.0 2.0699103422
Er  Er9  1  0.32483000  0.73802000  0.46898000  1.0 2.0699103422
Er  Er10  1  0.00850000  0.92865000  0.19769000  1.0 2.0699103422
Er  Er11  1  0.26198000  0.58681000  0.46898000  1.0 2.0699103422
Er  Er12  1  0.07135000  0.07985000  0.19769000  1.0 2.0699103422
Er  Er13  1  0.07985000  0.00850000  0.80231000  1.0 2.0699103422
Er  Er14  1  0.58681000  0.32483000  0.53102000  1.0 2.0699103422
Er  Er15  1  0.99150000  0.07135000  0.80231000  1.0 2.0699103422
Er  Er16  1  0.67517000  0.26198000  0.53102000  1.0 2.0699103422
Er  Er17  1  0.92865000  0.92015000  0.80231000  1.0 2.0699103422
Er  Er18  1  0.73802000  0.41319000  0.53102000  1.0 2.0699103422
Cu  Cu1  1  0.00000000  0.50000000  0.00000000  1.0 0.6479009073
Cu  Cu2  1  0.50000000  0.50000000  0.00000000  1.0 0.6479009073
Cu  Cu3  1  0.50000000  0.00000000  0.00000000  1.0 0.6479009073
Cu  Cu4  1  0.66666667  0.83333000  0.33333333  1.0 0.6479009073
Cu  Cu5  1  0.16667000  0.83333000  0.33333333  1.0 0.6479009073
Cu  Cu6  1  0.16667000  0.33333333  0.33333333  1.0 0.6479009073
Cu  Cu7  1  0.33333333  0.16667000  0.66666667  1.0 0.6479009073
Cu  Cu8  1  0.83333000  0.16667000  0.66666667  1.0 0.6479009073
Cu  Cu9  1  0.83333000  0.66666667  0.66666667  1.0 0.6479009073
H  H1  1  0.79728000  0.34760000  0.48879000  1.0 0.402404419
H  H2  1  0.20272000  0.65240000  0.51121000  1.0 0.402404419
H  H3  1  0.65240000  0.44968000  0.48879000  1.0 0.402404419
H  H4  1  0.34760000  0.55032000  0.51121000  1.0 0.402404419
H  H5  1  0.55032000  0.20272000  0.48879000  1.0 0.402404419
H  H6  1  0.44968000  0.79728000  0.51121000  1.0 0.402404419
H  H7  1  0.46395000  0.68093000  0.82212000  1.0 0.402404419
H  H8  1  0.86939000  0.98573000  0.84455000  1.0 0.402404419
H  H9  1  0.31907000  0.78301000  0.82212000  1.0 0.402404419
H  H10  1  0.01427000  0.88366000  0.84455000  1.0 0.402404419
H  H11  1  0.21699000  0.53605000  0.82212000  1.0 0.402404419
H  H12  1  0.11634000  0.13061000  0.84455000  1.0 0.402404419
H  H13  1  0.13061000  0.01427000  0.15545000  1.0 0.402404419
H  H14  1  0.53605000  0.31907000  0.17788000  1.0 0.402404419
H  H15  1  0.98573000  0.11634000  0.15545000  1.0 0.402404419
H  H16  1  0.68093000  0.21699000  0.17788000  1.0 0.402404419
H  H17  1  0.88366000  0.86939000  0.15545000  1.0 0.402404419
H  H18  1  0.78301000  0.46395000  0.17788000  1.0 0.402404419
H  H19  1  0.98440000  0.53912000  0.59705000  1.0 0.1056626578
H  H20  1  0.01560000  0.46088000  0.40295000  1.0 0.1056626578
H  H21  1  0.46088000  0.44529000  0.59705000  1.0 0.1056626578
H  H22  1  0.53912000  0.55471000  0.40295000  1.0 0.1056626578
H  H23  1  0.55471000  0.01560000  0.59705000  1.0 0.1056626578
H  H24  1  0.44529000  0.98440000  0.40295000  1.0 0.1056626578
H  H25  1  0.65107000  0.87245000  0.93038000  1.0 0.1056626578
H  H26  1  0.68226000  0.79422000  0.73628000  1.0 0.1056626578
H  H27  1  0.12755000  0.77862000  0.93038000  1.0 0.1056626578
H  H28  1  0.20578000  0.88805000  0.73628000  1.0 0.1056626578
H  H29  1  0.22138000  0.34893000  0.93038000  1.0 0.1056626578
H  H30  1  0.11195000  0.31774000  0.73628000  1.0 0.1056626578
H  H31  1  0.31774000  0.20578000  0.26372000  1.0 0.1056626578
H  H32  1  0.34893000  0.12755000  0.06962000  1.0 0.1056626578
H  H33  1  0.79422000  0.11195000  0.26372000  1.0 0.1056626578
H  H34  1  0.87245000  0.22138000  0.06962000  1.0 0.1056626578
H  H35  1  0.88805000  0.68226000  0.26372000  1.0 0.1056626578
H  H36  1  0.77862000  0.65107000  0.06962000  1.0 0.1056626578
H  H37  1  0.89444000  0.51285000  0.40316000  1.0 0.0973675828
H  H38  1  0.10556000  0.48715000  0.59684000  1.0 0.0973675828
H  H39  1  0.48715000  0.38159000  0.40316000  1.0 0.0973675828
H  H40  1  0.51285000  0.61841000  0.59684000  1.0 0.0973675828
H  H41  1  0.61841000  0.10556000  0.40316000  1.0 0.0973675828
H  H42  1  0.38159000  0.89444000  0.59684000  1.0 0.0973675828
H  H43  1  0.56111000  0.84619000  0.73649000  1.0 0.0973675828
H  H44  1  0.77222000  0.82048000  0.93017000  1.0 0.0973675828
H  H45  1  0.15381000  0.71492000  0.73649000  1.0 0.0973675828
H  H46  1  0.17952000  0.95174000  0.93017000  1.0 0.0973675828
H  H47  1  0.28508000  0.43889000  0.73649000  1.0 0.0973675828
H  H48  1  0.04826000  0.22778000  0.93017000  1.0 0.0973675828
H  H49  1  0.22778000  0.17952000  0.06983000  1.0 0.0973675828
H  H50  1  0.43889000  0.15381000  0.26351000  1.0 0.0973675828
H  H51  1  0.82048000  0.04826000  0.06983000  1.0 0.0973675828
H  H52  1  0.84619000  0.28508000  0.26351000  1.0 0.0973675828
H  H53  1  0.95174000  0.77222000  0.06983000  1.0 0.0973675828
H  H54  1  0.71492000  0.56111000  0.26351000  1.0 0.0973675828
H  H55  1  0.66666667  0.33333333  0.89766000  1.0 0.2989056025
H  H56  1  0.33333333  0.66666667  0.10234000  1.0 0.2989056025
H  H57  1  0.33333333  0.66666667  0.23100000  1.0 0.2989056025
H  H58  1  0.00000000  0.00000000  0.43567000  1.0 0.2989056025
H  H59  1  0.00000000  0.00000000  0.56433000  1.0 0.2989056025
H  H60  1  0.66666667  0.33333333  0.76900000  1.0 0.2989056025
C  C1  1  0.83625000  0.43257000  0.79229000  1.0 0.4506238614
C  C2  1  0.16375000  0.56743000  0.20771000  1.0 0.4506238614
C  C3  1  0.56743000  0.40368000  0.79229000  1.0 0.4506238614
C  C4  1  0.43257000  0.59632000  0.20771000  1.0 0.4506238614
C  C5  1  0.59632000  0.16375000  0.79229000  1.0 0.4506238614
C  C6  1  0.40368000  0.83625000  0.20771000  1.0 0.4506238614
C  C7  1  0.50292000  0.76590000  0.12562000  1.0 0.4506238614
C  C8  1  0.83041000  0.90076000  0.54105000  1.0 0.4506238614
C  C9  1  0.23410000  0.73702000  0.12562000  1.0 0.4506238614
C  C10  1  0.09924000  0.92965000  0.54105000  1.0 0.4506238614
C  C11  1  0.26298000  0.49708000  0.12562000  1.0 0.4506238614
C  C12  1  0.07035000  0.16959000  0.54105000  1.0 0.4506238614
C  C13  1  0.16959000  0.09924000  0.45895000  1.0 0.4506238614
C  C14  1  0.49708000  0.23410000  0.87438000  1.0 0.4506238614
C  C15  1  0.90076000  0.07035000  0.45895000  1.0 0.4506238614
C  C16  1  0.76590000  0.26298000  0.87438000  1.0 0.4506238614
C  C17  1  0.92965000  0.83041000  0.45895000  1.0 0.4506238614
C  C18  1  0.73702000  0.50292000  0.87438000  1.0 0.4506238614
C  C19  1  0.88660000  0.44938000  0.90159000  1.0 -0.0739966633
C  C20  1  0.11340000  0.55062000  0.09841000  1.0 -0.0739966633
C  C21  1  0.55062000  0.43722000  0.90159000  1.0 -0.0739966633
C  C22  1  0.44938000  0.56278000  0.09841000  1.0 -0.0739966633
C  C23  1  0.56278000  0.11340000  0.90159000  1.0 -0.0739966633
C  C24  1  0.43722000  0.88660000  0.09841000  1.0 -0.0739966633
C  C25  1  0.55327000  0.78271000  0.23493000  1.0 -0.0739966633
C  C26  1  0.78007000  0.88395000  0.43174000  1.0 -0.0739966633
C  C27  1  0.21729000  0.77055000  0.23493000  1.0 -0.0739966633
C  C28  1  0.11605000  0.89611000  0.43174000  1.0 -0.0739966633
C  C29  1  0.22945000  0.44673000  0.23493000  1.0 -0.0739966633
C  C30  1  0.10389000  0.21993000  0.43174000  1.0 -0.0739966633
C  C31  1  0.21993000  0.11605000  0.56826000  1.0 -0.0739966633
C  C32  1  0.44673000  0.21729000  0.76507000  1.0 -0.0739966633
C  C33  1  0.88395000  0.10389000  0.56826000  1.0 -0.0739966633
C  C34  1  0.78271000  0.22945000  0.76507000  1.0 -0.0739966633
C  C35  1  0.89611000  0.78007000  0.56826000  1.0 -0.0739966633
C  C36  1  0.77055000  0.55327000  0.76507000  1.0 -0.0739966633
C  C37  1  0.94179000  0.50969000  0.65047000  1.0 -0.0256172367
C  C38  1  0.05821000  0.49031000  0.34953000  1.0 -0.0256172367
C  C39  1  0.49031000  0.43210000  0.65047000  1.0 -0.0256172367
C  C40  1  0.50969000  0.56790000  0.34953000  1.0 -0.0256172367
C  C41  1  0.56790000  0.05821000  0.65047000  1.0 -0.0256172367
C  C42  1  0.43210000  0.94179000  0.34953000  1.0 -0.0256172367
C  C43  1  0.60846000  0.84302000  0.98380000  1.0 -0.0256172367
C  C44  1  0.72488000  0.82364000  0.68286000  1.0 -0.0256172367
C  C45  1  0.15698000  0.76543000  0.98380000  1.0 -0.0256172367
C  C46  1  0.17636000  0.90123000  0.68286000  1.0 -0.0256172367
C  C47  1  0.23457000  0.39154000  0.98380000  1.0 -0.0256172367
C  C48  1  0.09877000  0.27512000  0.68286000  1.0 -0.0256172367
C  C49  1  0.27512000  0.17636000  0.31714000  1.0 -0.0256172367
C  C50  1  0.39154000  0.15698000  0.01620000  1.0 -0.0256172367
C  C51  1  0.82364000  0.09877000  0.31714000  1.0 -0.0256172367
C  C52  1  0.84302000  0.23457000  0.01620000  1.0 -0.0256172367
C  C53  1  0.90123000  0.72488000  0.31714000  1.0 -0.0256172367
C  C54  1  0.76543000  0.60846000  0.01620000  1.0 -0.0256172367
C  C55  1  0.89258000  0.49447000  0.54549000  1.0 0.1203817574
C  C56  1  0.10742000  0.50553000  0.45451000  1.0 0.1203817574
C  C57  1  0.50553000  0.39812000  0.54549000  1.0 0.1203817574
C  C58  1  0.49447000  0.60188000  0.45451000  1.0 0.1203817574
C  C59  1  0.60188000  0.10742000  0.54549000  1.0 0.1203817574
C  C60  1  0.39812000  0.89258000  0.45451000  1.0 0.1203817574
C  C61  1  0.55925000  0.82780000  0.87882000  1.0 0.1203817574
C  C62  1  0.77408000  0.83886000  0.78784000  1.0 0.1203817574
C  C63  1  0.17220000  0.73145000  0.87882000  1.0 0.1203817574
C  C64  1  0.16114000  0.93522000  0.78784000  1.0 0.1203817574
C  C65  1  0.26855000  0.44075000  0.87882000  1.0 0.1203817574
C  C66  1  0.06478000  0.22592000  0.78784000  1.0 0.1203817574
C  C67  1  0.22592000  0.16114000  0.21216000  1.0 0.1203817574
C  C68  1  0.44075000  0.17220000  0.12118000  1.0 0.1203817574
C  C69  1  0.83886000  0.06478000  0.21216000  1.0 0.1203817574
C  C70  1  0.82780000  0.26855000  0.12118000  1.0 0.1203817574
C  C71  1  0.93522000  0.77408000  0.21216000  1.0 0.1203817574
C  C72  1  0.73145000  0.55925000  0.12118000  1.0 0.1203817574
C  C73  1  0.88801000  0.42863000  0.10172000  1.0 0.5749335502
C  C74  1  0.11199000  0.57137000  0.89828000  1.0 0.5749335502
C  C75  1  0.57137000  0.45937000  0.10172000  1.0 0.5749335502
C  C76  1  0.42863000  0.54063000  0.89828000  1.0 0.5749335502
C  C77  1  0.54063000  0.11199000  0.10172000  1.0 0.5749335502
C  C78  1  0.45937000  0.88801000  0.89828000  1.0 0.5749335502
C  C79  1  0.55468000  0.76197000  0.43505000  1.0 0.5749335502
C  C80  1  0.77866000  0.90470000  0.23162000  1.0 0.5749335502
C  C81  1  0.23803000  0.79271000  0.43505000  1.0 0.5749335502
C  C82  1  0.09530000  0.87396000  0.23162000  1.0 0.5749335502
C  C83  1  0.20729000  0.44532000  0.43505000  1.0 0.5749335502
C  C84  1  0.12604000  0.22134000  0.23162000  1.0 0.5749335502
C  C85  1  0.22134000  0.09530000  0.76838000  1.0 0.5749335502
C  C86  1  0.44532000  0.23803000  0.56495000  1.0 0.5749335502
C  C87  1  0.90470000  0.12604000  0.76838000  1.0 0.5749335502
C  C88  1  0.76197000  0.20729000  0.56495000  1.0 0.5749335502
C  C89  1  0.87396000  0.77866000  0.76838000  1.0 0.5749335502
C  C90  1  0.79271000  0.55468000  0.56495000  1.0 0.5749335502
N  N1  1  0.84108000  0.45690000  0.61274000  1.0 -0.4644585866
N  N2  1  0.15892000  0.54310000  0.38726000  1.0 -0.4644585866
N  N3  1  0.54310000  0.38418000  0.61274000  1.0 -0.4644585866
N  N4  1  0.45690000  0.61582000  0.38726000  1.0 -0.4644585866
N  N5  1  0.61582000  0.15892000  0.61274000  1.0 -0.4644585866
N  N6  1  0.38418000  0.84108000  0.38726000  1.0 -0.4644585866
N  N7  1  0.50774000  0.79023000  0.94608000  1.0 -0.4644585866
N  N8  1  0.82559000  0.87644000  0.72059000  1.0 -0.4644585866
N  N9  1  0.20977000  0.71751000  0.94608000  1.0 -0.4644585866
N  N10  1  0.12356000  0.94915000  0.72059000  1.0 -0.4644585866
N  N11  1  0.28249000  0.49226000  0.94608000  1.0 -0.4644585866
N  N12  1  0.05085000  0.17441000  0.72059000  1.0 -0.4644585866
N  N13  1  0.17441000  0.12356000  0.27941000  1.0 -0.4644585866
N  N14  1  0.49226000  0.20977000  0.05392000  1.0 -0.4644585866
N  N15  1  0.87644000  0.05085000  0.27941000  1.0 -0.4644585866
N  N16  1  0.79023000  0.28249000  0.05392000  1.0 -0.4644585866
N  N17  1  0.94915000  0.82559000  0.27941000  1.0 -0.4644585866
N  N18  1  0.71751000  0.50774000  0.05392000  1.0 -0.4644585866
N  N19  1  0.93772000  0.48743000  0.82807000  1.0 -0.2207222914
N  N20  1  0.06228000  0.51257000  0.17193000  1.0 -0.2207222914
N  N21  1  0.51257000  0.45029000  0.82807000  1.0 -0.2207222914
N  N22  1  0.48743000  0.54971000  0.17193000  1.0 -0.2207222914
N  N23  1  0.54971000  0.06228000  0.82807000  1.0 -0.2207222914
N  N24  1  0.45029000  0.93772000  0.17193000  1.0 -0.2207222914
N  N25  1  0.60439000  0.82076000  0.16140000  1.0 -0.2207222914
N  N26  1  0.72895000  0.84591000  0.50527000  1.0 -0.2207222914
N  N27  1  0.17924000  0.78363000  0.16140000  1.0 -0.2207222914
N  N28  1  0.15409000  0.88304000  0.50527000  1.0 -0.2207222914
N  N29  1  0.21637000  0.39561000  0.16140000  1.0 -0.2207222914
N  N30  1  0.11696000  0.27105000  0.50527000  1.0 -0.2207222914
N  N31  1  0.27105000  0.15409000  0.49473000  1.0 -0.2207222914
N  N32  1  0.39561000  0.17924000  0.83860000  1.0 -0.2207222914
N  N33  1  0.84591000  0.11696000  0.49473000  1.0 -0.2207222914
N  N34  1  0.82076000  0.21637000  0.83860000  1.0 -0.2207222914
N  N35  1  0.88304000  0.72895000  0.49473000  1.0 -0.2207222914
N  N36  1  0.78363000  0.60439000  0.83860000  1.0 -0.2207222914
O  O1  1  0.78546000  0.39609000  0.84485000  1.0 -0.6846546881
O  O2  1  0.21454000  0.60391000  0.15515000  1.0 -0.6846546881
O  O3  1  0.60391000  0.38937000  0.84485000  1.0 -0.6846546881
O  O4  1  0.39609000  0.61063000  0.15515000  1.0 -0.6846546881
O  O5  1  0.61063000  0.21454000  0.84485000  1.0 -0.6846546881
O  O6  1  0.38937000  0.78546000  0.15515000  1.0 -0.6846546881
O  O7  1  0.45212000  0.72942000  0.17818000  1.0 -0.6846546881
O  O8  1  0.88121000  0.93725000  0.48849000  1.0 -0.6846546881
O  O9  1  0.27058000  0.72270000  0.17818000  1.0 -0.6846546881
O  O10  1  0.06275000  0.94396000  0.48849000  1.0 -0.6846546881
O  O11  1  0.27730000  0.54788000  0.17818000  1.0 -0.6846546881
O  O12  1  0.05604000  0.11879000  0.48849000  1.0 -0.6846546881
O  O13  1  0.11879000  0.06275000  0.51151000  1.0 -0.6846546881
O  O14  1  0.54788000  0.27058000  0.82182000  1.0 -0.6846546881
O  O15  1  0.93725000  0.05604000  0.51151000  1.0 -0.6846546881
O  O16  1  0.72942000  0.27730000  0.82182000  1.0 -0.6846546881
O  O17  1  0.94396000  0.88121000  0.51151000  1.0 -0.6846546881
O  O18  1  0.72270000  0.45212000  0.82182000  1.0 -0.6846546881
O  O19  1  0.84191000  0.39531000  0.18673000  1.0 -0.6523151549
O  O20  1  0.15809000  0.60469000  0.81327000  1.0 -0.6523151549
O  O21  1  0.60469000  0.44661000  0.18673000  1.0 -0.6523151549
O  O22  1  0.39531000  0.55339000  0.81327000  1.0 -0.6523151549
O  O23  1  0.55339000  0.15809000  0.18673000  1.0 -0.6523151549
O  O24  1  0.44661000  0.84191000  0.81327000  1.0 -0.6523151549
O  O25  1  0.50858000  0.72864000  0.52006000  1.0 -0.6523151549
O  O26  1  0.82475000  0.93803000  0.14661000  1.0 -0.6523151549
O  O27  1  0.27136000  0.77994000  0.52006000  1.0 -0.6523151549
O  O28  1  0.06197000  0.88673000  0.14661000  1.0 -0.6523151549
O  O29  1  0.22006000  0.49142000  0.52006000  1.0 -0.6523151549
O  O30  1  0.11327000  0.17525000  0.14661000  1.0 -0.6523151549
O  O31  1  0.17525000  0.06197000  0.85339000  1.0 -0.6523151549
O  O32  1  0.49142000  0.27136000  0.47994000  1.0 -0.6523151549
O  O33  1  0.93803000  0.11327000  0.85339000  1.0 -0.6523151549
O  O34  1  0.72864000  0.22006000  0.47994000  1.0 -0.6523151549
O  O35  1  0.88673000  0.82475000  0.85339000  1.0 -0.6523151549
O  O36  1  0.77994000  0.50858000  0.47994000  1.0 -0.6523151549
O  O37  1  0.93651000  0.44642000  0.17838000  1.0 -0.5409479226
O  O38  1  0.06349000  0.55358000  0.82162000  1.0 -0.5409479226
O  O39  1  0.55358000  0.49009000  0.17838000  1.0 -0.5409479226
O  O40  1  0.44642000  0.50991000  0.82162000  1.0 -0.5409479226
O  O41  1  0.50991000  0.06349000  0.17838000  1.0 -0.5409479226
O  O42  1  0.49009000  0.93651000  0.82162000  1.0 -0.5409479226
O  O43  1  0.60318000  0.77976000  0.51171000  1.0 -0.5409479226
O  O44  1  0.73015000  0.88691000  0.15495000  1.0 -0.5409479226
O  O45  1  0.22024000  0.82342000  0.51171000  1.0 -0.5409479226
O  O46  1  0.11309000  0.84325000  0.15495000  1.0 -0.5409479226
O  O47  1  0.17658000  0.39682000  0.51171000  1.0 -0.5409479226
O  O48  1  0.15675000  0.26985000  0.15495000  1.0 -0.5409479226
O  O49  1  0.26985000  0.11309000  0.84505000  1.0 -0.5409479226
O  O50  1  0.39682000  0.22024000  0.48829000  1.0 -0.5409479226
O  O51  1  0.88691000  0.15675000  0.84505000  1.0 -0.5409479226
O  O52  1  0.77976000  0.17658000  0.48829000  1.0 -0.5409479226
O  O53  1  0.84325000  0.73015000  0.84505000  1.0 -0.5409479226
O  O54  1  0.82342000  0.60318000  0.48829000  1.0 -0.5409479226
O  O55  1  0.66666667  0.33333333  0.33333333  1.0 -0.8615697012
O  O56  1  0.33333333  0.66666667  0.66666667  1.0 -0.8615697012
O  O57  1  0.00000000  0.00000000  0.00000000  1.0 -0.8615697012
O  O58  1  0.76037000  0.34206000  0.45583000  1.0 -1.1182348117
O  O59  1  0.23963000  0.65794000  0.54417000  1.0 -1.1182348117
O  O60  1  0.65794000  0.41831000  0.45583000  1.0 -1.1182348117
O  O61  1  0.34206000  0.58169000  0.54417000  1.0 -1.1182348117
O  O62  1  0.58169000  0.23963000  0.45583000  1.0 -1.1182348117
O  O63  1  0.41831000  0.76037000  0.54417000  1.0 -1.1182348117
O  O64  1  0.42704000  0.67539000  0.78916000  1.0 -1.1182348117
O  O65  1  0.90629000  0.99127000  0.87751000  1.0 -1.1182348117
O  O66  1  0.32461000  0.75164000  0.78916000  1.0 -1.1182348117
O  O67  1  0.00873000  0.91502000  0.87751000  1.0 -1.1182348117
O  O68  1  0.24836000  0.57296000  0.78916000  1.0 -1.1182348117
O  O69  1  0.08498000  0.09371000  0.87751000  1.0 -1.1182348117
O  O70  1  0.09371000  0.00873000  0.12249000  1.0 -1.1182348117
O  O71  1  0.57296000  0.32461000  0.21084000  1.0 -1.1182348117
O  O72  1  0.99127000  0.08498000  0.12249000  1.0 -1.1182348117
O  O73  1  0.67539000  0.24836000  0.21084000  1.0 -1.1182348117
O  O74  1  0.91502000  0.90629000  0.12249000  1.0 -1.1182348117
O  O75  1  0.75164000  0.42704000  0.21084000  1.0 -1.1182348117
O  O76  1  0.66666667  0.33333333  0.02681000  1.0 -0.9609825597
O  O77  1  0.33333333  0.66666667  0.97319000  1.0 -0.9609825597
O  O78  1  0.33333333  0.66666667  0.36015000  1.0 -0.9609825597
O  O79  1  0.00000000  0.00000000  0.30652000  1.0 -0.9609825597
O  O80  1  0.00000000  0.00000000  0.69348000  1.0 -0.9609825597
O  O81  1  0.66666667  0.33333333  0.63985000  1.0 -0.9609825597
