# DDEC6 charges by PACMAN v1.1 (https://github.com/mtap-research/PACMAN-charge/)
data_UFEXIN_ASR_pacman
_symmetry_space_group_name_H-M   'P 1'
_cell_length_a   15.96690000
_cell_length_b   15.96690000
_cell_length_c   15.96690000
_cell_angle_alpha   117.91300000
_cell_angle_beta   117.91300000
_cell_angle_gamma   117.91300000
_symmetry_Int_Tables_number   1
_chemical_formula_structural   Ho6Cu3H20C30(N4O9)3
_chemical_formula_sum   'Ho6 Cu3 H20 C30 N12 O27'
_cell_volume   1508.79507667
_cell_formula_units_Z   1
loop_
 _symmetry_equiv_pos_site_id
 _symmetry_equiv_pos_as_xyz
  1  'x, y, z'
loop_
 _atom_site_type_symbol
 _atom_site_label
 _atom_site_symmetry_multiplicity
 _atom_site_fract_x
 _atom_site_fract_y
 _atom_site_fract_z
 _atom_site_occupancy
 _atom_site_charge
Ho  Ho1  1  0.71084000  0.86381000  0.77516000  1.0 1.7992609904
Ho  Ho2  1  0.86381000  0.77516000  0.71084000  1.0 1.7992609904
Ho  Ho3  1  0.77516000  0.71084000  0.86381000  1.0 1.7992609904
Ho  Ho4  1  0.28916000  0.13619000  0.22484000  1.0 1.7992609904
Ho  Ho5  1  0.13619000  0.22484000  0.28916000  1.0 1.7992609904
Ho  Ho6  1  0.22484000  0.28916000  0.13619000  1.0 1.7992609904
Cu  Cu1  1  0.50000000  0.00000000  0.50000000  1.0 0.6530256238
Cu  Cu2  1  0.00000000  0.50000000  0.50000000  1.0 0.6530256238
Cu  Cu3  1  0.50000000  0.50000000  0.00000000  1.0 0.6530256238
H  H1  1  0.15419000  0.57640000  0.06420000  1.0 0.1298200616
H  H2  1  0.57640000  0.06420000  0.15419000  1.0 0.1298200616
H  H3  1  0.06420000  0.15419000  0.57640000  1.0 0.1298200616
H  H4  1  0.84581000  0.42360000  0.93580000  1.0 0.1298200616
H  H5  1  0.42360000  0.93580000  0.84581000  1.0 0.1298200616
H  H6  1  0.93580000  0.84581000  0.42360000  1.0 0.1298200616
H  H7  1  0.04119000  0.32510000  0.91670000  1.0 0.1298200616
H  H8  1  0.32510000  0.91670000  0.04119000  1.0 0.1298200616
H  H9  1  0.91670000  0.04119000  0.32510000  1.0 0.1298200616
H  H10  1  0.95881000  0.67490000  0.08330000  1.0 0.1298200616
H  H11  1  0.67490000  0.08330000  0.95881000  1.0 0.1298200616
H  H12  1  0.08330000  0.95881000  0.67490000  1.0 0.1298200616
H  H13  1  0.55803000  0.55803000  0.55803000  1.0 0.2879663374
H  H14  1  0.44197000  0.44197000  0.44197000  1.0 0.2879663374
H  H15  1  0.88939000  0.93570000  0.03130000  1.0 0.2672208315
H  H16  1  0.93570000  0.03130000  0.88939000  1.0 0.2672208315
H  H17  1  0.03130000  0.88939000  0.93570000  1.0 0.2672208315
H  H18  1  0.11061000  0.06430000  0.96870000  1.0 0.2672208315
H  H19  1  0.06430000  0.96870000  0.11061000  1.0 0.2672208315
H  H20  1  0.96870000  0.11061000  0.06430000  1.0 0.2672208315
C  C1  1  0.38549000  0.62810000  0.35540000  1.0 0.4564353343
C  C2  1  0.62810000  0.35540000  0.38549000  1.0 0.4564353343
C  C3  1  0.35540000  0.38549000  0.62810000  1.0 0.4564353343
C  C4  1  0.61451000  0.37190000  0.64460000  1.0 0.4564353343
C  C5  1  0.37190000  0.64460000  0.61451000  1.0 0.4564353343
C  C6  1  0.64460000  0.61451000  0.37190000  1.0 0.4564353343
C  C7  1  0.45939000  0.78510000  0.44640000  1.0 -0.0776245181
C  C8  1  0.78510000  0.44640000  0.45939000  1.0 -0.0776245181
C  C9  1  0.44640000  0.45939000  0.78510000  1.0 -0.0776245181
C  C10  1  0.54061000  0.21490000  0.55360000  1.0 -0.0776245181
C  C11  1  0.21490000  0.55360000  0.54061000  1.0 -0.0776245181
C  C12  1  0.55360000  0.54061000  0.21490000  1.0 -0.0776245181
C  C13  1  0.21639000  0.59290000  0.14060000  1.0 -0.0392115119
C  C14  1  0.59290000  0.14060000  0.21639000  1.0 -0.0392115119
C  C15  1  0.14060000  0.21639000  0.59290000  1.0 -0.0392115119
C  C16  1  0.78361000  0.40710000  0.85940000  1.0 -0.0392115119
C  C17  1  0.40710000  0.85940000  0.78361000  1.0 -0.0392115119
C  C18  1  0.85940000  0.78361000  0.40710000  1.0 -0.0392115119
C  C19  1  0.14809000  0.44200000  0.05260000  1.0 0.1104894619
C  C20  1  0.44200000  0.05260000  0.14809000  1.0 0.1104894619
C  C21  1  0.05260000  0.14809000  0.44200000  1.0 0.1104894619
C  C22  1  0.85191000  0.55800000  0.94740000  1.0 0.1104894619
C  C23  1  0.55800000  0.94740000  0.85191000  1.0 0.1104894619
C  C24  1  0.94740000  0.85191000  0.55800000  1.0 0.1104894619
C  C25  1  0.63349000  0.98350000  0.66250000  1.0 0.5629775788
C  C26  1  0.98350000  0.66250000  0.63349000  1.0 0.5629775788
C  C27  1  0.66250000  0.63349000  0.98350000  1.0 0.5629775788
C  C28  1  0.36651000  0.01650000  0.33750000  1.0 0.5629775788
C  C29  1  0.01650000  0.33750000  0.36651000  1.0 0.5629775788
C  C30  1  0.33750000  0.36651000  0.01650000  1.0 0.5629775788
N  N1  1  0.23073000  0.45886000  0.15680000  1.0 -0.3876964831
N  N2  1  0.45886000  0.15680000  0.23073000  1.0 -0.3876964831
N  N3  1  0.15680000  0.23073000  0.45886000  1.0 -0.3876964831
N  N4  1  0.76927000  0.54114000  0.84320000  1.0 -0.3876964831
N  N5  1  0.54114000  0.84320000  0.76927000  1.0 -0.3876964831
N  N6  1  0.84320000  0.76927000  0.54114000  1.0 -0.3876964831
N  N7  1  0.37239000  0.76220000  0.33610000  1.0 -0.2007401545
N  N8  1  0.76220000  0.33610000  0.37239000  1.0 -0.2007401545
N  N9  1  0.33610000  0.37239000  0.76220000  1.0 -0.2007401545
N  N10  1  0.62761000  0.23780000  0.66390000  1.0 -0.2007401545
N  N11  1  0.23780000  0.66390000  0.62761000  1.0 -0.2007401545
N  N12  1  0.66390000  0.62761000  0.23780000  1.0 -0.2007401545
O  O1  1  0.45218000  0.62946000  0.44335000  1.0 -0.6636893187
O  O2  1  0.62946000  0.44335000  0.45218000  1.0 -0.6636893187
O  O3  1  0.44335000  0.45218000  0.62946000  1.0 -0.6636893187
O  O4  1  0.54782000  0.37054000  0.55665000  1.0 -0.6636893187
O  O5  1  0.37054000  0.55665000  0.54782000  1.0 -0.6636893187
O  O6  1  0.55665000  0.54782000  0.37054000  1.0 -0.6636893187
O  O7  1  0.72953000  0.02400000  0.78036000  1.0 -0.5583234761
O  O8  1  0.02400000  0.78036000  0.72953000  1.0 -0.5583234761
O  O9  1  0.78036000  0.72953000  0.02400000  1.0 -0.5583234761
O  O10  1  0.27047000  0.97600000  0.21964000  1.0 -0.5583234761
O  O11  1  0.97600000  0.21964000  0.27047000  1.0 -0.5583234761
O  O12  1  0.21964000  0.27047000  0.97600000  1.0 -0.5583234761
O  O13  1  0.67649000  0.10520000  0.71740000  1.0 -0.5296665961
O  O14  1  0.10520000  0.71740000  0.67649000  1.0 -0.5296665961
O  O15  1  0.71740000  0.67649000  0.10520000  1.0 -0.5296665961
O  O16  1  0.32351000  0.89480000  0.28260000  1.0 -0.5296665961
O  O17  1  0.89480000  0.28260000  0.32351000  1.0 -0.5296665961
O  O18  1  0.28260000  0.32351000  0.89480000  1.0 -0.5296665961
O  O19  1  0.67983000  0.67983000  0.67983000  1.0 -0.9490962658
O  O20  1  0.32017000  0.32017000  0.32017000  1.0 -0.9490962658
O  O21  1  0.79593000  0.89408000  0.96928000  1.0 -0.9713965291
O  O22  1  0.89408000  0.96928000  0.79593000  1.0 -0.9713965291
O  O23  1  0.96928000  0.79593000  0.89408000  1.0 -0.9713965291
O  O24  1  0.20407000  0.10592000  0.03072000  1.0 -0.9713965291
O  O25  1  0.10592000  0.03072000  0.20407000  1.0 -0.9713965291
O  O26  1  0.03072000  0.20407000  0.10592000  1.0 -0.9713965291
O  O27  1  0.00000000  0.00000000  0.00000000  1.0 -0.8028714095
