# DDEC6 charges by PACMAN v1.1 (https://github.com/mtap-research/PACMAN-charge/)
data_UFOPOX_ASR_pacman
_symmetry_space_group_name_H-M   'P 1'
_cell_length_a   8.23400000
_cell_length_b   11.91100000
_cell_length_c   15.18900000
_cell_angle_alpha   102.88300000
_cell_angle_beta   99.71800000
_cell_angle_gamma   106.22000000
_symmetry_Int_Tables_number   1
_chemical_formula_structural   MnH13C20N3O4
_chemical_formula_sum   'Mn2 H26 C40 N6 O8'
_cell_volume   1351.20550192
_cell_formula_units_Z   2
loop_
 _symmetry_equiv_pos_site_id
 _symmetry_equiv_pos_as_xyz
  1  'x, y, z'
loop_
 _atom_site_type_symbol
 _atom_site_label
 _atom_site_symmetry_multiplicity
 _atom_site_fract_x
 _atom_site_fract_y
 _atom_site_fract_z
 _atom_site_occupancy
 _atom_site_charge
Mn  Mn1  1  0.02954000  0.38595000  0.58303000  1.0 0.9111714032
Mn  Mn2  1  0.97046000  0.61405000  0.41697000  1.0 0.9111714032
H  H1  1  0.63860000  0.37480000  0.23400000  1.0 0.1287677941
H  H2  1  0.53060000  0.24580000  0.08380000  1.0 0.1287677941
H  H3  1  0.65320000  0.98020000  0.16920000  1.0 0.1287677941
H  H4  1  0.76140000  0.10790000  0.32100000  1.0 0.1220088767
H  H5  1  0.76370000  0.07520000  0.70950000  1.0 0.1133358558
H  H6  1  0.73590000  0.96540000  0.81770000  1.0 0.1220088767
H  H7  1  0.20700000  0.18640000  0.97740000  1.0 0.1133358558
H  H8  1  0.22930000  0.30250000  0.87190000  1.0 0.1220088767
H  H9  1  0.01570000  0.13140000  0.47480000  1.0 0.0996051472
H  H10  1  0.17910000  0.00400000  0.45330000  1.0 0.1287677941
H  H11  1  0.64430000  0.09810000  0.51070000  1.0 0.1287677941
H  H12  1  0.60870000  0.29830000  0.56800000  1.0 0.1436459985
H  H13  1  0.43240000  0.41550000  0.58800000  1.0 0.1133358558
H  H14  1  0.36140000  0.62520000  0.76600000  1.0 0.1287677941
H  H15  1  0.46940000  0.75420000  0.91620000  1.0 0.1287677941
H  H16  1  0.34680000  0.01980000  0.83080000  1.0 0.1287677941
H  H17  1  0.23860000  0.89210000  0.67900000  1.0 0.1220088767
H  H18  1  0.23630000  0.92480000  0.29050000  1.0 0.1133358558
H  H19  1  0.26410000  0.03460000  0.18230000  1.0 0.1220088767
H  H20  1  0.79300000  0.81360000  0.02260000  1.0 0.1133358558
H  H21  1  0.77070000  0.69750000  0.12810000  1.0 0.1220088767
H  H22  1  0.98430000  0.86860000  0.52520000  1.0 0.0996051472
H  H23  1  0.82090000  0.99600000  0.54670000  1.0 0.1287677941
H  H24  1  0.35570000  0.90190000  0.48930000  1.0 0.1287677941
H  H25  1  0.39130000  0.70170000  0.43200000  1.0 0.1436459985
H  H26  1  0.56760000  0.58450000  0.41200000  1.0 0.1133358558
C  C1  1  0.78910000  0.33960000  0.39022000  1.0 0.5732360748
C  C2  1  0.71100000  0.25380000  0.29299000  1.0 -0.0401147339
C  C3  1  0.64170000  0.29550000  0.22140000  1.0 -0.0793882939
C  C4  1  0.57730000  0.21790000  0.13140000  1.0 -0.1631940338
C  C5  1  0.58140000  0.10060000  0.11130000  1.0 0.1133358558
C  C6  1  0.65010000  0.05960000  0.18220000  1.0 -0.1706893552
C  C7  1  0.71530000  0.13630000  0.27350000  1.0 -0.0905678939
C  C8  1  0.85180000  0.09850000  0.76370000  1.0 -0.0980854812
C  C9  1  0.83580000  0.03190000  0.82790000  1.0 -0.1631940338
C  C10  1  0.96880000  0.06500000  0.90670000  1.0 0.1519798753
C  C11  1  0.11760000  0.16520000  0.92410000  1.0 -0.1706893552
C  C12  1  0.13150000  0.23410000  0.86030000  1.0 -0.0980854812
C  C13  1  0.13660000  0.16460000  0.49540000  1.0 0.0914773163
C  C14  1  0.23370000  0.08700000  0.48210000  1.0 -0.2014839756
C  C15  1  0.41480000  0.13600000  0.51260000  1.0 0.169218522
C  C16  1  0.52680000  0.05980000  0.50600000  1.0 -0.1260843161
C  C17  1  0.48810000  0.26160000  0.55030000  1.0 -0.1895313296
C  C18  1  0.38110000  0.33170000  0.56160000  1.0 0.0996051472
C  C19  1  0.01530000  0.27280000  0.71080000  1.0 0.5365083185
C  C20  1  0.00010000  0.20050000  0.78026000  1.0 -0.021024588
C  C21  1  0.21090000  0.66040000  0.60978000  1.0 0.5732360748
C  C22  1  0.28900000  0.74620000  0.70701000  1.0 -0.0401147339
C  C23  1  0.35830000  0.70450000  0.77860000  1.0 -0.0793882939
C  C24  1  0.42270000  0.78210000  0.86860000  1.0 -0.1631940338
C  C25  1  0.41860000  0.89940000  0.88870000  1.0 0.1133358558
C  C26  1  0.34990000  0.94040000  0.81780000  1.0 -0.1706893552
C  C27  1  0.28470000  0.86370000  0.72650000  1.0 -0.0905678939
C  C28  1  0.14820000  0.90150000  0.23630000  1.0 -0.0980854812
C  C29  1  0.16420000  0.96810000  0.17210000  1.0 -0.1631940338
C  C30  1  0.03120000  0.93500000  0.09330000  1.0 0.1519798753
C  C31  1  0.88240000  0.83480000  0.07590000  1.0 -0.1706893552
C  C32  1  0.86850000  0.76590000  0.13970000  1.0 -0.0980854812
C  C33  1  0.86340000  0.83540000  0.50460000  1.0 0.0914773163
C  C34  1  0.76630000  0.91300000  0.51790000  1.0 -0.2014839756
C  C35  1  0.58520000  0.86400000  0.48740000  1.0 0.169218522
C  C36  1  0.47320000  0.94020000  0.49400000  1.0 -0.1260843161
C  C37  1  0.51190000  0.73840000  0.44970000  1.0 -0.1895313296
C  C38  1  0.61890000  0.66830000  0.43840000  1.0 0.0996051472
C  C39  1  0.98470000  0.72720000  0.28920000  1.0 0.5365083185
C  C40  1  0.99990000  0.79950000  0.21974000  1.0 -0.021024588
N  N1  1  0.93650000  0.98720000  0.96749000  1.0 -0.1182234469
N  N2  1  0.20700000  0.28470000  0.53615000  1.0 -0.2370868954
N  N3  1  0.49660000  0.03960000  0.99040000  1.0 -0.0342483739
N  N4  1  0.06350000  0.01280000  0.03251000  1.0 -0.1182234469
N  N5  1  0.79300000  0.71530000  0.46385000  1.0 -0.2370868954
N  N6  1  0.50340000  0.96040000  0.00960000  1.0 -0.0342483739
O  O1  1  0.85740000  0.29830000  0.45010000  1.0 -0.5491713616
O  O2  1  0.90400000  0.22857000  0.63341000  1.0 -0.569811258
O  O3  1  0.13460000  0.37278000  0.73132000  1.0 -0.5491713616
O  O4  1  0.78310000  0.44613000  0.40474000  1.0 -0.569811258
O  O5  1  0.14260000  0.70170000  0.54990000  1.0 -0.5491713616
O  O6  1  0.09600000  0.77143000  0.36659000  1.0 -0.569811258
O  O7  1  0.86540000  0.62722000  0.26868000  1.0 -0.5491713616
O  O8  1  0.21690000  0.55387000  0.59526000  1.0 -0.569811258
