# DDEC6 charges by PACMAN v1.1 (https://github.com/mtap-research/PACMAN-charge/)
data_UFUQIV_FSR_pacman
_symmetry_space_group_name_H-M   'P 1'
_cell_length_a   22.10550000
_cell_length_b   22.10550000
_cell_length_c   22.10550000
_cell_angle_alpha   99.77740000
_cell_angle_beta   99.77740000
_cell_angle_gamma   131.32700000
_symmetry_Int_Tables_number   1
_chemical_formula_structural   CuH16C24S4N4(O2F3)4
_chemical_formula_sum   'Cu8 H128 C192 S32 N32 O64 F96'
_cell_volume   7390.94706276
_cell_formula_units_Z   8
loop_
 _symmetry_equiv_pos_site_id
 _symmetry_equiv_pos_as_xyz
  1  'x, y, z'
loop_
 _atom_site_type_symbol
 _atom_site_label
 _atom_site_symmetry_multiplicity
 _atom_site_fract_x
 _atom_site_fract_y
 _atom_site_fract_z
 _atom_site_occupancy
 _atom_site_charge
Cu  Cu1  1  0.37500000  0.63257000  0.75757000  1.0 0.6694798302
Cu  Cu2  1  0.87500000  0.61743000  0.24243000  1.0 0.6694798302
Cu  Cu3  1  0.38257000  0.62500000  0.25757000  1.0 0.6694798302
Cu  Cu4  1  0.36743000  0.12500000  0.74243000  1.0 0.6694798302
Cu  Cu5  1  0.86743000  0.12500000  0.24243000  1.0 0.6694798302
Cu  Cu6  1  0.88257000  0.62500000  0.75757000  1.0 0.6694798302
Cu  Cu7  1  0.87500000  0.11743000  0.74243000  1.0 0.6694798302
Cu  Cu8  1  0.37500000  0.13257000  0.25757000  1.0 0.6694798302
H  H1  1  0.41420000  0.74040000  0.18580000  1.0 0.0879853424
H  H2  1  0.55460000  0.22840000  0.81420000  1.0 0.0879853424
H  H3  1  0.33580000  0.02160000  0.82620000  1.0 0.0879853424
H  H4  1  0.19540000  0.50960000  0.17380000  1.0 0.0879853424
H  H5  1  0.49040000  0.66420000  0.68580000  1.0 0.0879853424
H  H6  1  0.97840000  0.80460000  0.31420000  1.0 0.0879853424
H  H7  1  0.77160000  0.58580000  0.32620000  1.0 0.0879853424
H  H8  1  0.25960000  0.44540000  0.67380000  1.0 0.0879853424
H  H9  1  0.26480000  0.51090000  0.81930000  1.0 0.0996373758
H  H10  1  0.69160000  0.44550000  0.18070000  1.0 0.0996373758
H  H11  1  0.48520000  0.80450000  0.74610000  1.0 0.0996373758
H  H12  1  0.05840000  0.73910000  0.25390000  1.0 0.0996373758
H  H13  1  0.26090000  0.51480000  0.31930000  1.0 0.0996373758
H  H14  1  0.19550000  0.94160000  0.68070000  1.0 0.0996373758
H  H15  1  0.55450000  0.73520000  0.24610000  1.0 0.0996373758
H  H16  1  0.48910000  0.30840000  0.75390000  1.0 0.0996373758
H  H17  1  0.34160000  0.51850000  0.12710000  1.0 0.0773101989
H  H18  1  0.39140000  0.21450000  0.87290000  1.0 0.0773101989
H  H19  1  0.40840000  0.03550000  0.67690000  1.0 0.0773101989
H  H20  1  0.35860000  0.73150000  0.32310000  1.0 0.0773101989
H  H21  1  0.26850000  0.59160000  0.62710000  1.0 0.0773101989
H  H22  1  0.96450000  0.64140000  0.37290000  1.0 0.0773101989
H  H23  1  0.78550000  0.65840000  0.17690000  1.0 0.0773101989
H  H24  1  0.48150000  0.60860000  0.82310000  1.0 0.0773101989
H  H25  1  0.47310000  0.76120000  0.89650000  1.0 0.0879853424
H  H26  1  0.86470000  0.57660000  0.10350000  1.0 0.0879853424
H  H27  1  0.27690000  0.67340000  0.78810000  1.0 0.0879853424
H  H28  1  0.88530000  0.48880000  0.21190000  1.0 0.0879853424
H  H29  1  0.51120000  0.72310000  0.39650000  1.0 0.0879853424
H  H30  1  0.32660000  0.11470000  0.60350000  1.0 0.0879853424
H  H31  1  0.42340000  0.52690000  0.28810000  1.0 0.0879853424
H  H32  1  0.23880000  0.13530000  0.71190000  1.0 0.0879853424
H  H33  1  0.33730000  0.51920000  0.02330000  1.0 0.0996373758
H  H34  1  0.49590000  0.31400000  0.97670000  1.0 0.0996373758
H  H35  1  0.41270000  0.93600000  0.68190000  1.0 0.0996373758
H  H36  1  0.25410000  0.73080000  0.31810000  1.0 0.0996373758
H  H37  1  0.26920000  0.58730000  0.52330000  1.0 0.0996373758
H  H38  1  0.06400000  0.74590000  0.47670000  1.0 0.0996373758
H  H39  1  0.68600000  0.66270000  0.18190000  1.0 0.0996373758
H  H40  1  0.48080000  0.50410000  0.81810000  1.0 0.0996373758
H  H41  1  0.26500000  0.50670000  0.92150000  1.0 0.0996373758
H  H42  1  0.58520000  0.34350000  0.07850000  1.0 0.0996373758
H  H43  1  0.48500000  0.90650000  0.74170000  1.0 0.0996373758
H  H44  1  0.16480000  0.74330000  0.25830000  1.0 0.0996373758
H  H45  1  0.25670000  0.51500000  0.42150000  1.0 0.0996373758
H  H46  1  0.09350000  0.83520000  0.57850000  1.0 0.0996373758
H  H47  1  0.65650000  0.73500000  0.24170000  1.0 0.0996373758
H  H48  1  0.49330000  0.41480000  0.75830000  1.0 0.0996373758
H  H49  1  0.47850000  0.76440000  0.00190000  1.0 0.0996373758
H  H50  1  0.76250000  0.47660000  0.99810000  1.0 0.0996373758
H  H51  1  0.27150000  0.77340000  0.78590000  1.0 0.0996373758
H  H52  1  0.98750000  0.48560000  0.21410000  1.0 0.0996373758
H  H53  1  0.51440000  0.72850000  0.50190000  1.0 0.0996373758
H  H54  1  0.22660000  0.01250000  0.49810000  1.0 0.0996373758
H  H55  1  0.52340000  0.52150000  0.28590000  1.0 0.0996373758
H  H56  1  0.23560000  0.23750000  0.71410000  1.0 0.0996373758
H  H57  1  0.41410000  0.74850000  0.08440000  1.0 0.1147182714
H  H58  1  0.66410000  0.32970000  0.91560000  1.0 0.1147182714
H  H59  1  0.33590000  0.92030000  0.83440000  1.0 0.1147182714
H  H60  1  0.08590000  0.50150000  0.16560000  1.0 0.1147182714
H  H61  1  0.49850000  0.66410000  0.58440000  1.0 0.1147182714
H  H62  1  0.07970000  0.91410000  0.41560000  1.0 0.1147182714
H  H63  1  0.67030000  0.58590000  0.33440000  1.0 0.1147182714
H  H64  1  0.25150000  0.33590000  0.66560000  1.0 0.1147182714
H  H65  1  0.75960000  0.08580000  0.81420000  1.0 0.0879853424
H  H66  1  0.27160000  0.94540000  0.18580000  1.0 0.0879853424
H  H67  1  0.47840000  0.16420000  0.17380000  1.0 0.0879853424
H  H68  1  0.99040000  0.30460000  0.82620000  1.0 0.0879853424
H  H69  1  0.83580000  0.00960000  0.31420000  1.0 0.0879853424
H  H70  1  0.69540000  0.52160000  0.68580000  1.0 0.0879853424
H  H71  1  0.91420000  0.72840000  0.67380000  1.0 0.0879853424
H  H72  1  0.05460000  0.24040000  0.32620000  1.0 0.0879853424
H  H73  1  0.98910000  0.23520000  0.18070000  1.0 0.0996373758
H  H74  1  0.05450000  0.80840000  0.81930000  1.0 0.0996373758
H  H75  1  0.69550000  0.01480000  0.25390000  1.0 0.0996373758
H  H76  1  0.76090000  0.44160000  0.74610000  1.0 0.0996373758
H  H77  1  0.98520000  0.23910000  0.68070000  1.0 0.0996373758
H  H78  1  0.55840000  0.30450000  0.31930000  1.0 0.0996373758
H  H79  1  0.76480000  0.94550000  0.75390000  1.0 0.0996373758
H  H80  1  0.19160000  0.01090000  0.24610000  1.0 0.0996373758
H  H81  1  0.98150000  0.15840000  0.87290000  1.0 0.0773101989
H  H82  1  0.28550000  0.10860000  0.12710000  1.0 0.0773101989
H  H83  1  0.46450000  0.09160000  0.32310000  1.0 0.0773101989
H  H84  1  0.76850000  0.14140000  0.67690000  1.0 0.0773101989
H  H85  1  0.90840000  0.23150000  0.37290000  1.0 0.0773101989
H  H86  1  0.85860000  0.53550000  0.62710000  1.0 0.0773101989
H  H87  1  0.84160000  0.71450000  0.82310000  1.0 0.0773101989
H  H88  1  0.89140000  0.01850000  0.17690000  1.0 0.0773101989
H  H89  1  0.73880000  0.02690000  0.10350000  1.0 0.0879853424
H  H90  1  0.92340000  0.63530000  0.89650000  1.0 0.0879853424
H  H91  1  0.82660000  0.22310000  0.21190000  1.0 0.0879853424
H  H92  1  0.01120000  0.61470000  0.78810000  1.0 0.0879853424
H  H93  1  0.77690000  0.98880000  0.60350000  1.0 0.0879853424
H  H94  1  0.38530000  0.17340000  0.39650000  1.0 0.0879853424
H  H95  1  0.97310000  0.07660000  0.71190000  1.0 0.0879853424
H  H96  1  0.36470000  0.26120000  0.28810000  1.0 0.0879853424
H  H97  1  0.98080000  0.16270000  0.97670000  1.0 0.0996373758
H  H98  1  0.18600000  0.00410000  0.02330000  1.0 0.0996373758
H  H99  1  0.56400000  0.08730000  0.31810000  1.0 0.0996373758
H  H100  1  0.76920000  0.24590000  0.68190000  1.0 0.0996373758
H  H101  1  0.91270000  0.23080000  0.47670000  1.0 0.0996373758
H  H102  1  0.75410000  0.43600000  0.52330000  1.0 0.0996373758
H  H103  1  0.83730000  0.81400000  0.81810000  1.0 0.0996373758
H  H104  1  0.99590000  0.01920000  0.18190000  1.0 0.0996373758
H  H105  1  0.99330000  0.23500000  0.07850000  1.0 0.0996373758
H  H106  1  0.15650000  0.91480000  0.92150000  1.0 0.0996373758
H  H107  1  0.59350000  0.01500000  0.25830000  1.0 0.0996373758
H  H108  1  0.75670000  0.33520000  0.74170000  1.0 0.0996373758
H  H109  1  0.98500000  0.24330000  0.57850000  1.0 0.0996373758
H  H110  1  0.66480000  0.40650000  0.42150000  1.0 0.0996373758
H  H111  1  0.76500000  0.84350000  0.75830000  1.0 0.0996373758
H  H112  1  0.08520000  0.00670000  0.24170000  1.0 0.0996373758
H  H113  1  0.73560000  0.02150000  0.99810000  1.0 0.0996373758
H  H114  1  0.02340000  0.73750000  0.00190000  1.0 0.0996373758
H  H115  1  0.72660000  0.22850000  0.21410000  1.0 0.0996373758
H  H116  1  0.01440000  0.51250000  0.78590000  1.0 0.0996373758
H  H117  1  0.77150000  0.98560000  0.49810000  1.0 0.0996373758
H  H118  1  0.48750000  0.27340000  0.50190000  1.0 0.0996373758
H  H119  1  0.97850000  0.97660000  0.71410000  1.0 0.0996373758
H  H120  1  0.26250000  0.26440000  0.28590000  1.0 0.0996373758
H  H121  1  0.75150000  0.08590000  0.91560000  1.0 0.1147182714
H  H122  1  0.17030000  0.83590000  0.08440000  1.0 0.1147182714
H  H123  1  0.57970000  0.16410000  0.16560000  1.0 0.1147182714
H  H124  1  0.99850000  0.41410000  0.83440000  1.0 0.1147182714
H  H125  1  0.83590000  0.00150000  0.41560000  1.0 0.1147182714
H  H126  1  0.58590000  0.42030000  0.58440000  1.0 0.1147182714
H  H127  1  0.91410000  0.82970000  0.66560000  1.0 0.1147182714
H  H128  1  0.16410000  0.24850000  0.33440000  1.0 0.1147182714
C  C1  1  0.67930000  0.82260000  0.90590000  1.0 0.2901945189
C  C2  1  0.91670000  0.77340000  0.09410000  1.0 0.2901945189
C  C3  1  0.07070000  0.47660000  0.64330000  1.0 0.2901945189
C  C4  1  0.83330000  0.42740000  0.35670000  1.0 0.2901945189
C  C5  1  0.57260000  0.92930000  0.40590000  1.0 0.2901945189
C  C6  1  0.52340000  0.16670000  0.59410000  1.0 0.2901945189
C  C7  1  0.22660000  0.32070000  0.14330000  1.0 0.2901945189
C  C8  1  0.17740000  0.08330000  0.85670000  1.0 0.2901945189
C  C9  1  0.39850000  0.69530000  0.15260000  1.0 0.0773101989
C  C10  1  0.54270000  0.24590000  0.84740000  1.0 0.0773101989
C  C11  1  0.35150000  0.00410000  0.79680000  1.0 0.0773101989
C  C12  1  0.20730000  0.55470000  0.20320000  1.0 0.0773101989
C  C13  1  0.44530000  0.64850000  0.65260000  1.0 0.0773101989
C  C14  1  0.99590000  0.79270000  0.34740000  1.0 0.0773101989
C  C15  1  0.75410000  0.60150000  0.29680000  1.0 0.0773101989
C  C16  1  0.30470000  0.45730000  0.70320000  1.0 0.0773101989
C  C17  1  0.37200000  0.63523000  0.97403000  1.0 0.0879853424
C  C18  1  0.66120000  0.39797000  0.02597000  1.0 0.0879853424
C  C19  1  0.37800000  0.85203000  0.76323000  1.0 0.0879853424
C  C20  1  0.08880000  0.61477000  0.23677000  1.0 0.0879853424
C  C21  1  0.38523000  0.62200000  0.47403000  1.0 0.0879853424
C  C22  1  0.14797000  0.91120000  0.52597000  1.0 0.0879853424
C  C23  1  0.60203000  0.62800000  0.26323000  1.0 0.0879853424
C  C24  1  0.36477000  0.33880000  0.73677000  1.0 0.0879853424
C  C25  1  0.37400000  0.63390000  0.04110000  1.0 0.0879853424
C  C26  1  0.59280000  0.33290000  0.95890000  1.0 0.0879853424
C  C27  1  0.37600000  0.91710000  0.75990000  1.0 0.0879853424
C  C28  1  0.15720000  0.61610000  0.24010000  1.0 0.0879853424
C  C29  1  0.38390000  0.62400000  0.54110000  1.0 0.0879853424
C  C30  1  0.08290000  0.84280000  0.45890000  1.0 0.0879853424
C  C31  1  0.66710000  0.62600000  0.25990000  1.0 0.0879853424
C  C32  1  0.36610000  0.40720000  0.74010000  1.0 0.0879853424
C  C33  1  0.30880000  0.56220000  0.85660000  1.0 0.0564471651
C  C34  1  0.70560000  0.45220000  0.14340000  1.0 0.0564471651
C  C35  1  0.44120000  0.79780000  0.75340000  1.0 0.0564471651
C  C36  1  0.04440000  0.68780000  0.24660000  1.0 0.0564471651
C  C37  1  0.31220000  0.55880000  0.35660000  1.0 0.0564471651
C  C38  1  0.20220000  0.95560000  0.64340000  1.0 0.0564471651
C  C39  1  0.54780000  0.69120000  0.25340000  1.0 0.0564471651
C  C40  1  0.43780000  0.29440000  0.74660000  1.0 0.0564471651
C  C41  1  0.35570000  0.56510000  0.11800000  1.0 0.0506770089
C  C42  1  0.44710000  0.23770000  0.88200000  1.0 0.0506770089
C  C43  1  0.39430000  0.01230000  0.70940000  1.0 0.0506770089
C  C44  1  0.30290000  0.68490000  0.29060000  1.0 0.0506770089
C  C45  1  0.31510000  0.60570000  0.61800000  1.0 0.0506770089
C  C46  1  0.98770000  0.69710000  0.38200000  1.0 0.0506770089
C  C47  1  0.76230000  0.64430000  0.20940000  1.0 0.0506770089
C  C48  1  0.43490000  0.55290000  0.79060000  1.0 0.0506770089
C  C49  1  0.43130000  0.70950000  0.90200000  1.0 0.0656196494
C  C50  1  0.80750000  0.52930000  0.09800000  1.0 0.0656196494
C  C51  1  0.31870000  0.72070000  0.77820000  1.0 0.0656196494
C  C52  1  0.94250000  0.54050000  0.22180000  1.0 0.0656196494
C  C53  1  0.45950000  0.68130000  0.40200000  1.0 0.0656196494
C  C54  1  0.27930000  0.05750000  0.59800000  1.0 0.0656196494
C  C55  1  0.47070000  0.56870000  0.27820000  1.0 0.0656196494
C  C56  1  0.29050000  0.19250000  0.72180000  1.0 0.0656196494
C  C57  1  0.35300000  0.56510000  0.05570000  1.0 -0.1864954214
C  C58  1  0.50940000  0.29730000  0.94430000  1.0 -0.1864954214
C  C59  1  0.39700000  0.95270000  0.71210000  1.0 -0.1864954214
C  C60  1  0.24060000  0.68490000  0.28790000  1.0 -0.1864954214
C  C61  1  0.31510000  0.60300000  0.55570000  1.0 -0.1864954214
C  C62  1  0.04730000  0.75940000  0.44430000  1.0 -0.1864954214
C  C63  1  0.70270000  0.64700000  0.21210000  1.0 -0.1864954214
C  C64  1  0.43490000  0.49060000  0.78790000  1.0 -0.1864954214
C  C65  1  0.30820000  0.55930000  0.91770000  1.0 -0.1809901492
C  C66  1  0.64160000  0.39050000  0.08230000  1.0 -0.1809901492
C  C67  1  0.44180000  0.85950000  0.75110000  1.0 -0.1809901492
C  C68  1  0.10840000  0.69070000  0.24890000  1.0 -0.1809901492
C  C69  1  0.30930000  0.55820000  0.41770000  1.0 -0.1809901492
C  C70  1  0.14050000  0.89160000  0.58230000  1.0 -0.1809901492
C  C71  1  0.60950000  0.69180000  0.25110000  1.0 -0.1809901492
C  C72  1  0.44070000  0.35840000  0.74890000  1.0 -0.1809901492
C  C73  1  0.43480000  0.71210000  0.96550000  1.0 -0.1864954214
C  C74  1  0.74660000  0.46930000  0.03450000  1.0 -0.1864954214
C  C75  1  0.31520000  0.78070000  0.77730000  1.0 -0.1864954214
C  C76  1  0.00340000  0.53790000  0.22270000  1.0 -0.1864954214
C  C77  1  0.46210000  0.68480000  0.46550000  1.0 -0.1864954214
C  C78  1  0.21930000  0.99660000  0.53450000  1.0 -0.1864954214
C  C79  1  0.53070000  0.56520000  0.27730000  1.0 -0.1864954214
C  C80  1  0.28790000  0.25340000  0.72270000  1.0 -0.1864954214
C  C81  1  0.39810000  0.70030000  0.09160000  1.0 -0.1731839291
C  C82  1  0.60870000  0.30650000  0.90840000  1.0 -0.1731839291
C  C83  1  0.35190000  0.94350000  0.80220000  1.0 -0.1731839291
C  C84  1  0.14130000  0.54970000  0.19780000  1.0 -0.1731839291
C  C85  1  0.45030000  0.64810000  0.59160000  1.0 -0.1731839291
C  C86  1  0.05650000  0.85870000  0.40840000  1.0 -0.1731839291
C  C87  1  0.69350000  0.60190000  0.30220000  1.0 -0.1731839291
C  C88  1  0.29970000  0.39130000  0.69780000  1.0 -0.1731839291
C  C89  1  0.68030000  0.80910000  0.89440000  1.0 0.2901945189
C  C90  1  0.91470000  0.78590000  0.10560000  1.0 0.2901945189
C  C91  1  0.06970000  0.46410000  0.62880000  1.0 0.2901945189
C  C92  1  0.83530000  0.44090000  0.37120000  1.0 0.2901945189
C  C93  1  0.55910000  0.93030000  0.39440000  1.0 0.2901945189
C  C94  1  0.53590000  0.16470000  0.60560000  1.0 0.2901945189
C  C95  1  0.21410000  0.31970000  0.12880000  1.0 0.2901945189
C  C96  1  0.19090000  0.08530000  0.87120000  1.0 0.2901945189
C  C97  1  0.67740000  0.82070000  0.09410000  1.0 0.2901945189
C  C98  1  0.72660000  0.58330000  0.90590000  1.0 0.2901945189
C  C99  1  0.02340000  0.42930000  0.35670000  1.0 0.2901945189
C  C100  1  0.07260000  0.66666667  0.64330000  1.0 0.2901945189
C  C101  1  0.57070000  0.92740000  0.59410000  1.0 0.2901945189
C  C102  1  0.33333333  0.97660000  0.40590000  1.0 0.2901945189
C  C103  1  0.17930000  0.27340000  0.85670000  1.0 0.2901945189
C  C104  1  0.41670000  0.32260000  0.14330000  1.0 0.2901945189
C  C105  1  0.80470000  0.10150000  0.84740000  1.0 0.0773101989
C  C106  1  0.25410000  0.95730000  0.15260000  1.0 0.0773101989
C  C107  1  0.49590000  0.14850000  0.20320000  1.0 0.0773101989
C  C108  1  0.94530000  0.29270000  0.79680000  1.0 0.0773101989
C  C109  1  0.85150000  0.05470000  0.34740000  1.0 0.0773101989
C  C110  1  0.70730000  0.50410000  0.65260000  1.0 0.0773101989
C  C111  1  0.89850000  0.74590000  0.70320000  1.0 0.0773101989
C  C112  1  0.04270000  0.19530000  0.29680000  1.0 0.0773101989
C  C113  1  0.86477000  0.12800000  0.02597000  1.0 0.0879853424
C  C114  1  0.10203000  0.83880000  0.97403000  1.0 0.0879853424
C  C115  1  0.64797000  0.12200000  0.23677000  1.0 0.0879853424
C  C116  1  0.88523000  0.41120000  0.76323000  1.0 0.0879853424
C  C117  1  0.87800000  0.11477000  0.52597000  1.0 0.0879853424
C  C118  1  0.58880000  0.35203000  0.47403000  1.0 0.0879853424
C  C119  1  0.87200000  0.89797000  0.73677000  1.0 0.0879853424
C  C120  1  0.16120000  0.13523000  0.26323000  1.0 0.0879853424
C  C121  1  0.86610000  0.12600000  0.95890000  1.0 0.0879853424
C  C122  1  0.16710000  0.90720000  0.04110000  1.0 0.0879853424
C  C123  1  0.58290000  0.12400000  0.24010000  1.0 0.0879853424
C  C124  1  0.88390000  0.34280000  0.75990000  1.0 0.0879853424
C  C125  1  0.87600000  0.11610000  0.45890000  1.0 0.0879853424
C  C126  1  0.65720000  0.41710000  0.54110000  1.0 0.0879853424
C  C127  1  0.87400000  0.83290000  0.74010000  1.0 0.0879853424
C  C128  1  0.09280000  0.13390000  0.25990000  1.0 0.0879853424
C  C129  1  0.93780000  0.19120000  0.14340000  1.0 0.0564471651
C  C130  1  0.04780000  0.79440000  0.85660000  1.0 0.0564471651
C  C131  1  0.70220000  0.05880000  0.24660000  1.0 0.0564471651
C  C132  1  0.81220000  0.45560000  0.75340000  1.0 0.0564471651
C  C133  1  0.94120000  0.18780000  0.64340000  1.0 0.0564471651
C  C134  1  0.54440000  0.29780000  0.35660000  1.0 0.0564471651
C  C135  1  0.80880000  0.95220000  0.74660000  1.0 0.0564471651
C  C136  1  0.20560000  0.06220000  0.25340000  1.0 0.0564471651
C  C137  1  0.93490000  0.14430000  0.88200000  1.0 0.0506770089
C  C138  1  0.26230000  0.05290000  0.11800000  1.0 0.0506770089
C  C139  1  0.48770000  0.10570000  0.29060000  1.0 0.0506770089
C  C140  1  0.81510000  0.19710000  0.70940000  1.0 0.0506770089
C  C141  1  0.89430000  0.18490000  0.38200000  1.0 0.0506770089
C  C142  1  0.80290000  0.51230000  0.61800000  1.0 0.0506770089
C  C143  1  0.85570000  0.73770000  0.79060000  1.0 0.0506770089
C  C144  1  0.94710000  0.06510000  0.20940000  1.0 0.0506770089
C  C145  1  0.79050000  0.06870000  0.09800000  1.0 0.0656196494
C  C146  1  0.97070000  0.69250000  0.90200000  1.0 0.0656196494
C  C147  1  0.77930000  0.18130000  0.22180000  1.0 0.0656196494
C  C148  1  0.95950000  0.55750000  0.77820000  1.0 0.0656196494
C  C149  1  0.81870000  0.04050000  0.59800000  1.0 0.0656196494
C  C150  1  0.44250000  0.22070000  0.40200000  1.0 0.0656196494
C  C151  1  0.93130000  0.02930000  0.72180000  1.0 0.0656196494
C  C152  1  0.30750000  0.20950000  0.27820000  1.0 0.0656196494
C  C153  1  0.93490000  0.14700000  0.94430000  1.0 -0.1864954214
C  C154  1  0.20270000  0.99060000  0.05570000  1.0 -0.1864954214
C  C155  1  0.54730000  0.10300000  0.28790000  1.0 -0.1864954214
C  C156  1  0.81510000  0.25940000  0.71210000  1.0 -0.1864954214
C  C157  1  0.89700000  0.18490000  0.44430000  1.0 -0.1864954214
C  C158  1  0.74060000  0.45270000  0.55570000  1.0 -0.1864954214
C  C159  1  0.85300000  0.79730000  0.78790000  1.0 -0.1864954214
C  C160  1  0.00940000  0.06510000  0.21210000  1.0 -0.1864954214
C  C161  1  0.94070000  0.19180000  0.08230000  1.0 -0.1809901492
C  C162  1  0.10950000  0.85840000  0.91770000  1.0 -0.1809901492
C  C163  1  0.64050000  0.05820000  0.24890000  1.0 -0.1809901492
C  C164  1  0.80930000  0.39160000  0.75110000  1.0 -0.1809901492
C  C165  1  0.94180000  0.19070000  0.58230000  1.0 -0.1809901492
C  C166  1  0.60840000  0.35950000  0.41770000  1.0 -0.1809901492
C  C167  1  0.80820000  0.89050000  0.74890000  1.0 -0.1809901492
C  C168  1  0.14160000  0.05930000  0.25110000  1.0 -0.1809901492
C  C169  1  0.78790000  0.06520000  0.03450000  1.0 -0.1864954214
C  C170  1  0.03070000  0.75340000  0.96550000  1.0 -0.1864954214
C  C171  1  0.71930000  0.18480000  0.22270000  1.0 -0.1864954214
C  C172  1  0.96210000  0.49660000  0.77730000  1.0 -0.1864954214
C  C173  1  0.81520000  0.03790000  0.53450000  1.0 -0.1864954214
C  C174  1  0.50340000  0.28070000  0.46550000  1.0 -0.1864954214
C  C175  1  0.93480000  0.96930000  0.72270000  1.0 -0.1864954214
C  C176  1  0.24660000  0.21210000  0.27730000  1.0 -0.1864954214
C  C177  1  0.79970000  0.10190000  0.90840000  1.0 -0.1731839291
C  C178  1  0.19350000  0.89130000  0.09160000  1.0 -0.1731839291
C  C179  1  0.55650000  0.14810000  0.19780000  1.0 -0.1731839291
C  C180  1  0.95030000  0.35870000  0.80220000  1.0 -0.1731839291
C  C181  1  0.85190000  0.04970000  0.40840000  1.0 -0.1731839291
C  C182  1  0.64130000  0.44350000  0.59160000  1.0 -0.1731839291
C  C183  1  0.89810000  0.80650000  0.69780000  1.0 -0.1731839291
C  C184  1  0.10870000  0.20030000  0.30220000  1.0 -0.1731839291
C  C185  1  0.69090000  0.81970000  0.10560000  1.0 0.2901945189
C  C186  1  0.71410000  0.58530000  0.89440000  1.0 0.2901945189
C  C187  1  0.03590000  0.43030000  0.37120000  1.0 0.2901945189
C  C188  1  0.05910000  0.66470000  0.62880000  1.0 0.2901945189
C  C189  1  0.56970000  0.94090000  0.60560000  1.0 0.2901945189
C  C190  1  0.33530000  0.96410000  0.39440000  1.0 0.2901945189
C  C191  1  0.18030000  0.28590000  0.87120000  1.0 0.2901945189
C  C192  1  0.41470000  0.30910000  0.12880000  1.0 0.2901945189
S  S1  1  0.62533000  0.79732000  0.82025000  1.0 0.369715251
S  S2  1  0.97707000  0.80508000  0.17975000  1.0 0.369715251
S  S3  1  0.12467000  0.44492000  0.67199000  1.0 0.369715251
S  S4  1  0.77293000  0.45268000  0.32801000  1.0 0.369715251
S  S5  1  0.54732000  0.87533000  0.32025000  1.0 0.369715251
S  S6  1  0.55508000  0.22707000  0.67975000  1.0 0.369715251
S  S7  1  0.19492000  0.37467000  0.17199000  1.0 0.369715251
S  S8  1  0.20268000  0.02293000  0.82801000  1.0 0.369715251
S  S9  1  0.62281000  0.82950000  0.84791000  1.0 0.369715251
S  S10  1  0.98159000  0.77490000  0.15209000  1.0 0.369715251
S  S11  1  0.12719000  0.47510000  0.70669000  1.0 0.369715251
S  S12  1  0.76841000  0.42050000  0.29331000  1.0 0.369715251
S  S13  1  0.57950000  0.87281000  0.34791000  1.0 0.369715251
S  S14  1  0.52490000  0.23159000  0.65209000  1.0 0.369715251
S  S15  1  0.22510000  0.37719000  0.20669000  1.0 0.369715251
S  S16  1  0.17050000  0.01841000  0.79331000  1.0 0.369715251
S  S17  1  0.70268000  0.87467000  0.17975000  1.0 0.369715251
S  S18  1  0.69492000  0.52293000  0.82025000  1.0 0.369715251
S  S19  1  0.05508000  0.37533000  0.32801000  1.0 0.369715251
S  S20  1  0.04732000  0.72707000  0.67199000  1.0 0.369715251
S  S21  1  0.62467000  0.95268000  0.67975000  1.0 0.369715251
S  S22  1  0.27293000  0.94492000  0.32025000  1.0 0.369715251
S  S23  1  0.12533000  0.30508000  0.82801000  1.0 0.369715251
S  S24  1  0.47707000  0.29732000  0.17199000  1.0 0.369715251
S  S25  1  0.67050000  0.87719000  0.15209000  1.0 0.369715251
S  S26  1  0.72510000  0.51841000  0.84791000  1.0 0.369715251
S  S27  1  0.02490000  0.37281000  0.29331000  1.0 0.369715251
S  S28  1  0.07950000  0.73159000  0.70669000  1.0 0.369715251
S  S29  1  0.62719000  0.92050000  0.65209000  1.0 0.369715251
S  S30  1  0.26841000  0.97510000  0.34791000  1.0 0.369715251
S  S31  1  0.12281000  0.27490000  0.79331000  1.0 0.369715251
S  S32  1  0.48159000  0.32950000  0.20669000  1.0 0.369715251
N  N1  1  0.37075000  0.63622000  0.84817000  1.0 -0.2855764348
N  N2  1  0.78805000  0.52258000  0.15183000  1.0 -0.2855764348
N  N3  1  0.37925000  0.72742000  0.76547000  1.0 -0.2855764348
N  N4  1  0.96195000  0.61378000  0.23453000  1.0 -0.2855764348
N  N5  1  0.38622000  0.62075000  0.34817000  1.0 -0.2855764348
N  N6  1  0.27258000  0.03805000  0.65183000  1.0 -0.2849668879
N  N7  1  0.47742000  0.62925000  0.26547000  1.0 -0.2855764348
N  N8  1  0.36378000  0.21195000  0.73453000  1.0 -0.2849668879
N  N9  1  0.37742000  0.62854000  0.16616000  1.0 -0.2678379975
N  N10  1  0.46238000  0.21126000  0.83384000  1.0 -0.2678379975
N  N11  1  0.37258000  0.03874000  0.75112000  1.0 -0.2678379975
N  N12  1  0.28762000  0.62146000  0.24888000  1.0 -0.2678379975
N  N13  1  0.37854000  0.62742000  0.66616000  1.0 -0.2678379975
N  N14  1  0.96126000  0.71238000  0.33384000  1.0 -0.2678379975
N  N15  1  0.78874000  0.62258000  0.25112000  1.0 -0.2678379975
N  N16  1  0.37146000  0.53762000  0.74888000  1.0 -0.2678379975
N  N17  1  0.86378000  0.12925000  0.15183000  1.0 -0.2855764348
N  N18  1  0.97742000  0.71195000  0.84817000  1.0 -0.2855764348
N  N19  1  0.77258000  0.12075000  0.23453000  1.0 -0.2849668879
N  N20  1  0.88622000  0.53805000  0.76547000  1.0 -0.2849668879
N  N21  1  0.87925000  0.11378000  0.65183000  1.0 -0.2849668879
N  N22  1  0.46195000  0.22742000  0.34817000  1.0 -0.2849668879
N  N23  1  0.87075000  0.02258000  0.73453000  1.0 -0.2849668879
N  N24  1  0.28805000  0.13622000  0.26547000  1.0 -0.2849668879
N  N25  1  0.87146000  0.12258000  0.83384000  1.0 -0.2678379975
N  N26  1  0.28874000  0.03762000  0.16616000  1.0 -0.2678379975
N  N27  1  0.46126000  0.12742000  0.24888000  1.0 -0.2678379975
N  N28  1  0.87854000  0.21238000  0.75112000  1.0 -0.2678379975
N  N29  1  0.87258000  0.12146000  0.33384000  1.0 -0.2678379975
N  N30  1  0.78762000  0.53874000  0.66616000  1.0 -0.2678379975
N  N31  1  0.87742000  0.71126000  0.74888000  1.0 -0.2678379975
N  N32  1  0.96238000  0.12854000  0.25112000  1.0 -0.2678379975
O  O1  1  0.67240000  0.87860000  0.81360000  1.0 -0.3501931261
O  O2  1  0.06500000  0.85880000  0.18640000  1.0 -0.3501931261
O  O3  1  0.07760000  0.39120000  0.70620000  1.0 -0.3501931261
O  O4  1  0.68500000  0.37140000  0.29380000  1.0 -0.3501931261
O  O5  1  0.62860000  0.92240000  0.31360000  1.0 -0.3501931261
O  O6  1  0.60880000  0.31500000  0.68640000  1.0 -0.3501931261
O  O7  1  0.14120000  0.32760000  0.20620000  1.0 -0.3501931261
O  O8  1  0.12140000  0.93500000  0.79380000  1.0 -0.3501931261
O  O9  1  0.53659000  0.74536000  0.81075000  1.0 -0.3929784409
O  O10  1  0.93461000  0.72584000  0.18925000  1.0 -0.3929784409
O  O11  1  0.21341000  0.52416000  0.70877000  1.0 -0.3929784409
O  O12  1  0.81539000  0.50464000  0.29123000  1.0 -0.3929784409
O  O13  1  0.49536000  0.78659000  0.31075000  1.0 -0.3929784409
O  O14  1  0.47584000  0.18461000  0.68925000  1.0 -0.3929784409
O  O15  1  0.27416000  0.46341000  0.20877000  1.0 -0.3929784409
O  O16  1  0.25464000  0.06539000  0.79123000  1.0 -0.3929784409
O  O17  1  0.63590000  0.74800000  0.78150000  1.0 -0.3405697327
O  O18  1  0.96650000  0.85440000  0.21850000  1.0 -0.3405697327
O  O19  1  0.11410000  0.39560000  0.61210000  1.0 -0.3405697327
O  O20  1  0.78350000  0.50200000  0.38790000  1.0 -0.3405697327
O  O21  1  0.49800000  0.88590000  0.28150000  1.0 -0.3405697327
O  O22  1  0.60440000  0.21650000  0.71850000  1.0 -0.3405697327
O  O23  1  0.14560000  0.36410000  0.11210000  1.0 -0.3405697327
O  O24  1  0.25200000  0.03350000  0.88790000  1.0 -0.3405697327
O  O25  1  0.62280000  0.88030000  0.89870000  1.0 -0.383011667
O  O26  1  0.98160000  0.72410000  0.10130000  1.0 -0.383011667
O  O27  1  0.12720000  0.52590000  0.75750000  1.0 -0.383011667
O  O28  1  0.76840000  0.36970000  0.24250000  1.0 -0.383011667
O  O29  1  0.63030000  0.87280000  0.39870000  1.0 -0.383011667
O  O30  1  0.47410000  0.23160000  0.60130000  1.0 -0.383011667
O  O31  1  0.27590000  0.37720000  0.25750000  1.0 -0.383011667
O  O32  1  0.11970000  0.01840000  0.74250000  1.0 -0.383011667
O  O33  1  0.62140000  0.82760000  0.18640000  1.0 -0.3501931261
O  O34  1  0.64120000  0.43500000  0.81360000  1.0 -0.3501931261
O  O35  1  0.10880000  0.42240000  0.29380000  1.0 -0.3501931261
O  O36  1  0.12860000  0.81500000  0.70620000  1.0 -0.3501931261
O  O37  1  0.57760000  0.87140000  0.68640000  1.0 -0.3501931261
O  O38  1  0.18500000  0.89120000  0.31360000  1.0 -0.3501931261
O  O39  1  0.17240000  0.35880000  0.79380000  1.0 -0.3501931261
O  O40  1  0.56500000  0.37860000  0.20620000  1.0 -0.3501931261
O  O41  1  0.75464000  0.96341000  0.18925000  1.0 -0.3929784409
O  O42  1  0.77416000  0.56539000  0.81075000  1.0 -0.3929784409
O  O43  1  0.97584000  0.28659000  0.29123000  1.0 -0.3929784409
O  O44  1  0.99536000  0.68461000  0.70877000  1.0 -0.3929784409
O  O45  1  0.71341000  0.00464000  0.68925000  1.0 -0.3929784409
O  O46  1  0.31539000  0.02416000  0.31075000  1.0 -0.3929784409
O  O47  1  0.03659000  0.22584000  0.79123000  1.0 -0.3929784409
O  O48  1  0.43461000  0.24536000  0.20877000  1.0 -0.3929784409
O  O49  1  0.75200000  0.86410000  0.21850000  1.0 -0.3405697327
O  O50  1  0.64560000  0.53350000  0.78150000  1.0 -0.3405697327
O  O51  1  0.10440000  0.38590000  0.38790000  1.0 -0.3405697327
O  O52  1  0.99800000  0.71650000  0.61210000  1.0 -0.3405697327
O  O53  1  0.61410000  0.00200000  0.71850000  1.0 -0.3405697327
O  O54  1  0.28350000  0.89560000  0.28150000  1.0 -0.3405697327
O  O55  1  0.13590000  0.35440000  0.88790000  1.0 -0.3405697327
O  O56  1  0.46650000  0.24800000  0.11210000  1.0 -0.3405697327
O  O57  1  0.61970000  0.87720000  0.10130000  1.0 -0.383011667
O  O58  1  0.77590000  0.51840000  0.89870000  1.0 -0.383011667
O  O59  1  0.97410000  0.37280000  0.24250000  1.0 -0.383011667
O  O60  1  0.13030000  0.73160000  0.75750000  1.0 -0.383011667
O  O61  1  0.62720000  0.86970000  0.60130000  1.0 -0.383011667
O  O62  1  0.26840000  0.02590000  0.39870000  1.0 -0.383011667
O  O63  1  0.12280000  0.22410000  0.74250000  1.0 -0.383011667
O  O64  1  0.48160000  0.38030000  0.25750000  1.0 -0.383011667
F  F1  1  0.76190000  0.87520000  0.90930000  1.0 -0.017511537
F  F2  1  0.96590000  0.85260000  0.09070000  1.0 -0.017511537
F  F3  1  0.98810000  0.39740000  0.61330000  1.0 -0.017511537
F  F4  1  0.78410000  0.37480000  0.38670000  1.0 -0.017511537
F  F5  1  0.62520000  0.01190000  0.40930000  1.0 -0.017511537
F  F6  1  0.60260000  0.21590000  0.59070000  1.0 -0.017511537
F  F7  1  0.14740000  0.23810000  0.11330000  1.0 -0.017511537
F  F8  1  0.12480000  0.03410000  0.88670000  1.0 -0.017511537
F  F9  1  0.64380000  0.74500000  0.90740000  1.0 -0.0044906934
F  F10  1  0.83760000  0.73640000  0.09260000  1.0 -0.0044906934
F  F11  1  0.10620000  0.51360000  0.60120000  1.0 -0.0044906934
F  F12  1  0.91240000  0.50500000  0.39880000  1.0 -0.0044906934
F  F13  1  0.49500000  0.89380000  0.40740000  1.0 -0.0044906934
F  F14  1  0.48640000  0.08760000  0.59260000  1.0 -0.0044906934
F  F15  1  0.26360000  0.35620000  0.10120000  1.0 -0.0044906934
F  F16  1  0.25500000  0.16240000  0.89880000  1.0 -0.0044906934
F  F17  1  0.66666667  0.86230000  0.94700000  1.0 -0.0275224094
F  F18  1  0.91530000  0.71970000  0.05300000  1.0 -0.0275224094
F  F19  1  0.08330000  0.53030000  0.69560000  1.0 -0.0275224094
F  F20  1  0.83470000  0.38770000  0.30440000  1.0 -0.0275224094
F  F21  1  0.61230000  0.91670000  0.44700000  1.0 -0.0275224094
F  F22  1  0.46970000  0.16530000  0.55300000  1.0 -0.0275224094
F  F23  1  0.28030000  0.33333333  0.19560000  1.0 -0.0275224094
F  F24  1  0.13770000  0.08470000  0.80440000  1.0 -0.0275224094
F  F25  1  0.62870000  0.75480000  0.92370000  1.0 -0.017511537
F  F26  1  0.83110000  0.70500000  0.07630000  1.0 -0.017511537
F  F27  1  0.12130000  0.54500000  0.62610000  1.0 -0.017511537
F  F28  1  0.91890000  0.49520000  0.37390000  1.0 -0.017511537
F  F29  1  0.50480000  0.87870000  0.42370000  1.0 -0.017511537
F  F30  1  0.45500000  0.08110000  0.57630000  1.0 -0.017511537
F  F31  1  0.29500000  0.37130000  0.12610000  1.0 -0.017511537
F  F32  1  0.24520000  0.16890000  0.87390000  1.0 -0.017511537
F  F33  1  0.75990000  0.88430000  0.94080000  1.0 -0.0066623199
F  F34  1  0.94350000  0.81910000  0.05920000  1.0 -0.0066623199
F  F35  1  0.99010000  0.43090000  0.62440000  1.0 -0.0066623199
F  F36  1  0.80650000  0.36570000  0.37560000  1.0 -0.0066623199
F  F37  1  0.63430000  0.00990000  0.44080000  1.0 -0.0066623199
F  F38  1  0.56910000  0.19350000  0.55920000  1.0 -0.0066623199
F  F39  1  0.18090000  0.24010000  0.12440000  1.0 -0.0066623199
F  F40  1  0.11570000  0.05650000  0.87560000  1.0 -0.0044906934
F  F41  1  0.68850000  0.76830000  0.84800000  1.0 -0.0275224094
F  F42  1  0.92030000  0.84050000  0.15200000  1.0 -0.0275224094
F  F43  1  0.06150000  0.40950000  0.57980000  1.0 -0.0275224094
F  F44  1  0.82970000  0.48170000  0.42020000  1.0 -0.0275224094
F  F45  1  0.51830000  0.93850000  0.34800000  1.0 -0.0275224094
F  F46  1  0.59050000  0.17030000  0.65200000  1.0 -0.0275224094
F  F47  1  0.15950000  0.31150000  0.07980000  1.0 -0.0275224094
F  F48  1  0.23170000  0.07970000  0.92020000  1.0 -0.0275224094
F  F49  1  0.62480000  0.73810000  0.09070000  1.0 -0.017511537
F  F50  1  0.64740000  0.53410000  0.90930000  1.0 -0.017511537
F  F51  1  0.10260000  0.51190000  0.38670000  1.0 -0.017511537
F  F52  1  0.12520000  0.71590000  0.61330000  1.0 -0.017511537
F  F53  1  0.48810000  0.87480000  0.59070000  1.0 -0.017511537
F  F54  1  0.28410000  0.89740000  0.40930000  1.0 -0.017511537
F  F55  1  0.26190000  0.35260000  0.88670000  1.0 -0.017511537
F  F56  1  0.46590000  0.37520000  0.11330000  1.0 -0.017511537
F  F57  1  0.75500000  0.85620000  0.09260000  1.0 -0.0044906934
F  F58  1  0.76360000  0.66240000  0.90740000  1.0 -0.0044906934
F  F59  1  0.98640000  0.39380000  0.39880000  1.0 -0.0066623199
F  F60  1  0.99500000  0.58760000  0.60120000  1.0 -0.0066623199
F  F61  1  0.60620000  0.00500000  0.59260000  1.0 -0.0044906934
F  F62  1  0.41240000  0.01360000  0.40740000  1.0 -0.0066623199
F  F63  1  0.14380000  0.23640000  0.89880000  1.0 -0.0044906934
F  F64  1  0.33760000  0.24500000  0.10120000  1.0 -0.0044906934
F  F65  1  0.63770000  0.83330000  0.05300000  1.0 -0.0275224094
F  F66  1  0.78030000  0.58470000  0.94700000  1.0 -0.0275224094
F  F67  1  0.96970000  0.41670000  0.30440000  1.0 -0.0275224094
F  F68  1  0.11230000  0.66530000  0.69560000  1.0 -0.0275224094
F  F69  1  0.58330000  0.88770000  0.55300000  1.0 -0.0275224094
F  F70  1  0.33470000  0.03030000  0.44700000  1.0 -0.0275224094
F  F71  1  0.16670000  0.21970000  0.80440000  1.0 -0.0275224094
F  F72  1  0.41530000  0.36230000  0.19560000  1.0 -0.0275224094
F  F73  1  0.74520000  0.87130000  0.07630000  1.0 -0.017511537
F  F74  1  0.79500000  0.66890000  0.92370000  1.0 -0.017511537
F  F75  1  0.95500000  0.37870000  0.37390000  1.0 -0.017511537
F  F76  1  0.00480000  0.58110000  0.62610000  1.0 -0.017511537
F  F77  1  0.62130000  0.99520000  0.57630000  1.0 -0.017511537
F  F78  1  0.41890000  0.04500000  0.42370000  1.0 -0.017511537
F  F79  1  0.12870000  0.20500000  0.87390000  1.0 -0.017511537
F  F80  1  0.33110000  0.25480000  0.12610000  1.0 -0.017511537
F  F81  1  0.61570000  0.74010000  0.05920000  1.0 -0.0066623199
F  F82  1  0.68090000  0.55650000  0.94080000  1.0 -0.0066623199
F  F83  1  0.06910000  0.50990000  0.37560000  1.0 -0.0044906934
F  F84  1  0.13430000  0.69350000  0.62440000  1.0 -0.0066623199
F  F85  1  0.49010000  0.86570000  0.55920000  1.0 -0.0066623199
F  F86  1  0.30650000  0.93090000  0.44080000  1.0 -0.0066623199
F  F87  1  0.25990000  0.31910000  0.87560000  1.0 -0.0066623199
F  F88  1  0.44350000  0.38430000  0.12440000  1.0 -0.0066623199
F  F89  1  0.73170000  0.81150000  0.15200000  1.0 -0.0275224094
F  F90  1  0.65950000  0.57970000  0.84800000  1.0 -0.0275224094
F  F91  1  0.09050000  0.43850000  0.42020000  1.0 -0.017511537
F  F92  1  0.01830000  0.67030000  0.57980000  1.0 -0.017511537
F  F93  1  0.56150000  0.98170000  0.65200000  1.0 -0.0275224094
F  F94  1  0.32970000  0.90950000  0.34800000  1.0 -0.0275224094
F  F95  1  0.18850000  0.34050000  0.92020000  1.0 -0.0275224094
F  F96  1  0.42030000  0.26830000  0.07980000  1.0 -0.0275224094
