# DDEC6 charges by PACMAN v1.1 (https://github.com/mtap-research/PACMAN-charge/)
data_UGEMOK_ASR_pacman
_symmetry_space_group_name_H-M   'P 1'
_cell_length_a   33.23740000
_cell_length_b   33.23740000
_cell_length_c   33.23740000
_cell_angle_alpha   130.44400000
_cell_angle_beta   130.44400000
_cell_angle_gamma   72.69860000
_symmetry_Int_Tables_number   1
_chemical_formula_structural   Cu3H46C80(N5O6)2
_chemical_formula_sum   'Cu12 H184 C320 N40 O48'
_cell_volume   20778.07575238
_cell_formula_units_Z   4
loop_
 _symmetry_equiv_pos_site_id
 _symmetry_equiv_pos_as_xyz
  1  'x, y, z'
loop_
 _atom_site_type_symbol
 _atom_site_label
 _atom_site_symmetry_multiplicity
 _atom_site_fract_x
 _atom_site_fract_y
 _atom_site_fract_z
 _atom_site_occupancy
 _atom_site_charge
Cu  Cu1  1  0.87424000  0.17152000  0.29728000  1.0 0.6784701611
Cu  Cu2  1  0.87424000  0.57696000  0.70272000  1.0 0.6784701611
Cu  Cu3  1  0.92152000  0.12424000  0.79728000  1.0 0.6784701611
Cu  Cu4  1  0.32696000  0.12424000  0.20272000  1.0 0.6784701611
Cu  Cu5  1  0.87576000  0.07848000  0.20272000  1.0 0.6784701611
Cu  Cu6  1  0.87576000  0.67304000  0.79728000  1.0 0.6784701611
Cu  Cu7  1  0.42304000  0.12576000  0.29728000  1.0 0.6784701611
Cu  Cu8  1  0.82848000  0.12576000  0.70272000  1.0 0.6784701611
Cu  Cu9  1  0.27468000  0.77468000  0.50000000  1.0 0.8647734042
Cu  Cu10  1  0.52468000  0.52468000  0.00000000  1.0 0.8647734042
Cu  Cu11  1  0.47532000  0.47532000  0.00000000  1.0 0.8651509996
Cu  Cu12  1  0.22532000  0.72532000  0.50000000  1.0 0.8647734042
H  H1  1  0.70600000  0.13700000  0.20360000  1.0 0.1295160401
H  H2  1  0.93340000  0.50240000  0.79640000  1.0 0.1295160401
H  H3  1  0.88700000  0.18340000  0.93100000  1.0 0.1295160401
H  H4  1  0.25240000  0.95600000  0.06900000  1.0 0.1295160401
H  H5  1  0.81660000  0.11300000  0.06900000  1.0 0.1295160401
H  H6  1  0.04400000  0.74760000  0.93100000  1.0 0.1295160401
H  H7  1  0.49760000  0.06660000  0.20360000  1.0 0.1295160401
H  H8  1  0.86300000  0.29400000  0.79640000  1.0 0.1295160401
H  H9  1  0.04400000  0.11300000  0.29640000  1.0 0.1295160401
H  H10  1  0.81660000  0.74760000  0.70360000  1.0 0.1295160401
H  H11  1  0.86300000  0.06660000  0.56900000  1.0 0.1295160401
H  H12  1  0.49760000  0.29400000  0.43100000  1.0 0.1295160401
H  H13  1  0.93340000  0.13700000  0.43100000  1.0 0.1295160401
H  H14  1  0.70600000  0.50240000  0.56900000  1.0 0.1295160401
H  H15  1  0.25240000  0.18340000  0.29640000  1.0 0.1295160401
H  H16  1  0.88700000  0.95600000  0.70360000  1.0 0.1295160401
H  H17  1  0.61810000  0.10830000  0.14360000  1.0 0.124001513
H  H18  1  0.96470000  0.47450000  0.85640000  1.0 0.124001513
H  H19  1  0.85830000  0.21470000  0.99020000  1.0 0.124001513
H  H20  1  0.22450000  0.86810000  0.00980000  1.0 0.124001513
H  H21  1  0.78530000  0.14170000  0.00980000  1.0 0.124001513
H  H22  1  0.13190000  0.77550000  0.99020000  1.0 0.124001513
H  H23  1  0.52550000  0.03530000  0.14360000  1.0 0.124001513
H  H24  1  0.89170000  0.38190000  0.85640000  1.0 0.124001513
H  H25  1  0.13190000  0.14170000  0.35640000  1.0 0.124001513
H  H26  1  0.78530000  0.77550000  0.64360000  1.0 0.124001513
H  H27  1  0.89170000  0.03530000  0.50980000  1.0 0.124001513
H  H28  1  0.52550000  0.38190000  0.49020000  1.0 0.124001513
H  H29  1  0.96470000  0.10830000  0.49020000  1.0 0.124001513
H  H30  1  0.61810000  0.47450000  0.50980000  1.0 0.124001513
H  H31  1  0.22450000  0.21470000  0.35640000  1.0 0.124001513
H  H32  1  0.85830000  0.86810000  0.64360000  1.0 0.124001513
H  H33  1  0.61880000  0.96800000  0.00260000  1.0 0.1295160401
H  H34  1  0.96540000  0.61620000  0.99740000  1.0 0.1295160401
H  H35  1  0.71800000  0.21540000  0.84920000  1.0 0.1295160401
H  H36  1  0.36620000  0.86880000  0.15080000  1.0 0.124001513
H  H37  1  0.78460000  0.28200000  0.15080000  1.0 0.124001513
H  H38  1  0.13120000  0.63380000  0.84920000  1.0 0.1295160401
H  H39  1  0.38380000  0.03460000  0.00260000  1.0 0.124001513
H  H40  1  0.03200000  0.38120000  0.99740000  1.0 0.1295160401
H  H41  1  0.13120000  0.28200000  0.49740000  1.0 0.1295160401
H  H42  1  0.78460000  0.63380000  0.50260000  1.0 0.124001513
H  H43  1  0.03200000  0.03460000  0.65080000  1.0 0.124001513
H  H44  1  0.38380000  0.38120000  0.34920000  1.0 0.1295160401
H  H45  1  0.96540000  0.96800000  0.34920000  1.0 0.124001513
H  H46  1  0.61880000  0.61620000  0.65080000  1.0 0.1295160401
H  H47  1  0.36620000  0.21540000  0.49740000  1.0 0.1295160401
H  H48  1  0.71800000  0.86880000  0.50260000  1.0 0.1295160401
H  H49  1  0.55530000  0.05530000  0.11060000  1.0 0.124001513
H  H50  1  0.94470000  0.44470000  0.88940000  1.0 0.124001513
H  H51  1  0.80530000  0.19470000  0.00000000  1.0 0.124001513
H  H52  1  0.19470000  0.80530000  0.00000000  1.0 0.124001513
H  H53  1  0.19470000  0.19470000  0.38940000  1.0 0.124001513
H  H54  1  0.80530000  0.80530000  0.61060000  1.0 0.124001513
H  H55  1  0.94470000  0.05530000  0.50000000  1.0 0.124001513
H  H56  1  0.55530000  0.44470000  0.50000000  1.0 0.124001513
H  H57  1  0.52770000  0.96630000  0.93420000  1.0 0.1295160401
H  H58  1  0.03210000  0.59350000  0.06580000  1.0 0.1295160401
H  H59  1  0.71630000  0.28210000  0.93860000  1.0 0.1295160401
H  H60  1  0.34350000  0.77770000  0.06140000  1.0 0.1295160401
H  H61  1  0.71790000  0.28370000  0.06140000  1.0 0.1295160401
H  H62  1  0.22230000  0.65650000  0.93860000  1.0 0.1295160401
H  H63  1  0.40650000  0.96790000  0.93420000  1.0 0.1295160401
H  H64  1  0.03370000  0.47230000  0.06580000  1.0 0.1295160401
H  H65  1  0.22230000  0.28370000  0.56580000  1.0 0.1295160401
H  H66  1  0.71790000  0.65650000  0.43420000  1.0 0.1295160401
H  H67  1  0.03370000  0.96790000  0.56140000  1.0 0.1295160401
H  H68  1  0.40650000  0.47230000  0.43860000  1.0 0.1295160401
H  H69  1  0.03210000  0.96630000  0.43860000  1.0 0.1295160401
H  H70  1  0.52770000  0.59350000  0.56140000  1.0 0.1295160401
H  H71  1  0.34350000  0.28210000  0.56580000  1.0 0.1295160401
H  H72  1  0.71630000  0.77770000  0.43420000  1.0 0.1295160401
H  H73  1  0.37940000  0.87880000  0.83300000  1.0 0.1295160401
H  H74  1  0.04580000  0.54640000  0.16700000  1.0 0.1295160401
H  H75  1  0.62880000  0.29580000  0.99940000  1.0 0.1295160401
H  H76  1  0.29640000  0.62940000  0.00060000  1.0 0.1295160401
H  H77  1  0.70420000  0.37120000  0.00060000  1.0 0.1295160401
H  H78  1  0.37060000  0.70360000  0.99940000  1.0 0.1295160401
H  H79  1  0.45360000  0.95420000  0.83300000  1.0 0.1295160401
H  H80  1  0.12120000  0.62060000  0.16700000  1.0 0.1295160401
H  H81  1  0.37060000  0.37120000  0.66700000  1.0 0.1295160401
H  H82  1  0.70420000  0.70360000  0.33300000  1.0 0.1295160401
H  H83  1  0.12120000  0.95420000  0.50060000  1.0 0.1295160401
H  H84  1  0.45360000  0.62060000  0.49940000  1.0 0.1295160401
H  H85  1  0.04580000  0.87880000  0.49940000  1.0 0.1295160401
H  H86  1  0.37940000  0.54640000  0.50060000  1.0 0.1295160401
H  H87  1  0.29640000  0.29580000  0.66700000  1.0 0.1295160401
H  H88  1  0.62880000  0.62940000  0.33300000  1.0 0.1295160401
H  H89  1  0.94430000  0.25630000  0.45120000  1.0 0.1295160401
H  H90  1  0.80510000  0.49310000  0.54880000  1.0 0.1295160401
H  H91  1  0.00630000  0.05510000  0.81200000  1.0 0.1295160401
H  H92  1  0.24310000  0.19430000  0.18800000  1.0 0.1295160401
H  H93  1  0.94490000  0.99370000  0.18800000  1.0 0.1295160401
H  H94  1  0.80570000  0.75690000  0.81200000  1.0 0.1295160401
H  H95  1  0.50690000  0.19490000  0.45120000  1.0 0.1295160401
H  H96  1  0.74370000  0.05570000  0.54880000  1.0 0.1295160401
H  H97  1  0.80570000  0.99370000  0.04880000  1.0 0.1295160401
H  H98  1  0.94490000  0.75690000  0.95120000  1.0 0.1295160401
H  H99  1  0.74370000  0.19490000  0.68800000  1.0 0.1295160401
H  H100  1  0.50690000  0.05570000  0.31200000  1.0 0.1295160401
H  H101  1  0.80510000  0.25630000  0.31200000  1.0 0.1295160401
H  H102  1  0.94430000  0.49310000  0.68800000  1.0 0.1295160401
H  H103  1  0.24310000  0.05510000  0.04880000  1.0 0.1295160401
H  H104  1  0.00630000  0.19430000  0.95120000  1.0 0.1295160401
H  H105  1  0.94550000  0.33880000  0.53410000  1.0 0.1007341385
H  H106  1  0.80470000  0.41140000  0.46590000  1.0 0.1007341385
H  H107  1  0.08880000  0.05470000  0.89330000  1.0 0.1007341385
H  H108  1  0.16140000  0.19550000  0.10670000  1.0 0.1007341385
H  H109  1  0.94530000  0.91120000  0.10670000  1.0 0.1007341385
H  H110  1  0.80450000  0.83860000  0.89330000  1.0 0.1007341385
H  H111  1  0.58860000  0.19530000  0.53410000  1.0 0.1007341385
H  H112  1  0.66120000  0.05450000  0.46590000  1.0 0.1007341385
H  H113  1  0.80450000  0.91120000  0.96590000  1.0 0.1007341385
H  H114  1  0.94530000  0.83860000  0.03410000  1.0 0.1007341385
H  H115  1  0.66120000  0.19530000  0.60670000  1.0 0.1007341385
H  H116  1  0.58860000  0.05450000  0.39330000  1.0 0.1007341385
H  H117  1  0.80470000  0.33880000  0.39330000  1.0 0.1007341385
H  H118  1  0.94550000  0.41140000  0.60670000  1.0 0.1007341385
H  H119  1  0.16140000  0.05470000  0.96590000  1.0 0.1007341385
H  H120  1  0.08880000  0.19550000  0.03410000  1.0 0.1007341385
H  H121  1  0.80850000  0.22040000  0.35030000  1.0 0.1295160401
H  H122  1  0.87010000  0.45820000  0.64970000  1.0 0.1295160401
H  H123  1  0.97040000  0.12010000  0.91190000  1.0 0.1295160401
H  H124  1  0.20820000  0.05850000  0.08810000  1.0 0.1295160401
H  H125  1  0.87990000  0.02960000  0.08810000  1.0 0.1295160401
H  H126  1  0.94150000  0.79180000  0.91190000  1.0 0.1295160401
H  H127  1  0.54180000  0.12990000  0.35030000  1.0 0.1295160401
H  H128  1  0.77960000  0.19150000  0.64970000  1.0 0.1295160401
H  H129  1  0.94150000  0.02960000  0.14970000  1.0 0.1295160401
H  H130  1  0.87990000  0.79180000  0.85030000  1.0 0.1295160401
H  H131  1  0.77960000  0.12990000  0.58810000  1.0 0.1295160401
H  H132  1  0.54180000  0.19150000  0.41190000  1.0 0.1295160401
H  H133  1  0.87010000  0.22040000  0.41190000  1.0 0.1295160401
H  H134  1  0.80850000  0.45820000  0.58810000  1.0 0.1295160401
H  H135  1  0.20820000  0.12010000  0.14970000  1.0 0.1295160401
H  H136  1  0.97040000  0.05850000  0.85030000  1.0 0.1295160401
H  H137  1  0.80720000  0.30370000  0.43230000  1.0 0.1007341385
H  H138  1  0.87140000  0.37490000  0.56770000  1.0 0.1007341385
H  H139  1  0.05370000  0.12140000  0.99650000  1.0 0.1007341385
H  H140  1  0.12490000  0.05720000  0.00350000  1.0 0.1007341385
H  H141  1  0.87860000  0.94630000  0.00350000  1.0 0.1007341385
H  H142  1  0.94280000  0.87510000  0.99650000  1.0 0.1007341385
H  H143  1  0.62510000  0.12860000  0.43230000  1.0 0.1007341385
H  H144  1  0.69630000  0.19280000  0.56770000  1.0 0.1007341385
H  H145  1  0.94280000  0.94630000  0.06770000  1.0 0.1007341385
H  H146  1  0.87860000  0.87510000  0.93230000  1.0 0.1007341385
H  H147  1  0.69630000  0.12860000  0.50350000  1.0 0.1007341385
H  H148  1  0.62510000  0.19280000  0.49650000  1.0 0.1007341385
H  H149  1  0.87140000  0.30370000  0.49650000  1.0 0.1007341385
H  H150  1  0.80720000  0.37490000  0.50350000  1.0 0.1007341385
H  H151  1  0.12490000  0.12140000  0.06770000  1.0 0.1007341385
H  H152  1  0.05370000  0.05720000  0.93230000  1.0 0.1007341385
H  H153  1  0.93570000  0.37280000  0.49370000  1.0 0.0925402812
H  H154  1  0.87910000  0.44200000  0.50630000  1.0 0.0925402812
H  H155  1  0.12280000  0.12910000  0.93710000  1.0 0.0925402812
H  H156  1  0.19200000  0.18570000  0.06290000  1.0 0.0925402812
H  H157  1  0.87090000  0.87720000  0.06290000  1.0 0.0925402812
H  H158  1  0.81430000  0.80800000  0.93710000  1.0 0.0925402812
H  H159  1  0.55800000  0.12090000  0.49370000  1.0 0.0925402812
H  H160  1  0.62720000  0.06430000  0.50630000  1.0 0.0925402812
H  H161  1  0.81430000  0.87720000  0.00630000  1.0 0.0925402812
H  H162  1  0.87090000  0.80800000  0.99370000  1.0 0.0925402812
H  H163  1  0.62720000  0.12090000  0.56290000  1.0 0.0925402812
H  H164  1  0.55800000  0.06430000  0.43710000  1.0 0.0925402812
H  H165  1  0.87910000  0.37280000  0.43710000  1.0 0.0925402812
H  H166  1  0.93570000  0.44200000  0.56290000  1.0 0.0925402812
H  H167  1  0.19200000  0.12910000  0.00630000  1.0 0.0925402812
H  H168  1  0.12280000  0.18570000  0.99370000  1.0 0.0925402812
H  H169  1  0.93700000  0.28960000  0.41180000  1.0 0.1295160401
H  H170  1  0.87780000  0.52520000  0.58820000  1.0 0.1295160401
H  H171  1  0.03960000  0.12780000  0.85260000  1.0 0.1295160401
H  H172  1  0.27520000  0.18700000  0.14740000  1.0 0.1295160401
H  H173  1  0.87220000  0.96040000  0.14740000  1.0 0.1295160401
H  H174  1  0.81300000  0.72480000  0.85260000  1.0 0.1295160401
H  H175  1  0.47480000  0.12220000  0.41180000  1.0 0.1295160401
H  H176  1  0.71040000  0.06300000  0.58820000  1.0 0.1295160401
H  H177  1  0.81300000  0.96040000  0.08820000  1.0 0.1295160401
H  H178  1  0.87220000  0.72480000  0.91180000  1.0 0.1295160401
H  H179  1  0.71040000  0.12220000  0.64740000  1.0 0.1295160401
H  H180  1  0.47480000  0.06300000  0.35260000  1.0 0.1295160401
H  H181  1  0.87780000  0.28960000  0.35260000  1.0 0.1295160401
H  H182  1  0.93700000  0.52520000  0.64740000  1.0 0.1295160401
H  H183  1  0.27520000  0.12780000  0.08820000  1.0 0.1295160401
H  H184  1  0.03960000  0.18700000  0.91180000  1.0 0.1295160401
C  C1  1  0.77608000  0.08975000  0.18247000  1.0 0.5671052042
C  C2  1  0.90728000  0.59361000  0.81753000  1.0 0.5671052042
C  C3  1  0.83975000  0.15728000  0.81367000  1.0 0.5671052042
C  C4  1  0.34361000  0.02608000  0.18633000  1.0 0.5671052042
C  C5  1  0.84272000  0.16025000  0.18633000  1.0 0.5671052042
C  C6  1  0.97392000  0.65639000  0.81367000  1.0 0.5671052042
C  C7  1  0.40639000  0.09272000  0.18247000  1.0 0.5671052042
C  C8  1  0.91025000  0.22392000  0.81753000  1.0 0.5671052042
C  C9  1  0.97392000  0.16025000  0.31753000  1.0 0.5671052042
C  C10  1  0.84272000  0.65639000  0.68247000  1.0 0.5671052042
C  C11  1  0.91025000  0.09272000  0.68633000  1.0 0.5671052042
C  C12  1  0.40639000  0.22392000  0.31367000  1.0 0.5671052042
C  C13  1  0.90728000  0.08975000  0.31367000  1.0 0.5671052042
C  C14  1  0.77608000  0.59361000  0.68633000  1.0 0.5671052042
C  C15  1  0.34361000  0.15728000  0.31753000  1.0 0.5671052042
C  C16  1  0.83975000  0.02608000  0.68247000  1.0 0.5671052042
C  C17  1  0.71911000  0.07023000  0.14212000  1.0 -0.1277705763
C  C18  1  0.92811000  0.57699000  0.85788000  1.0 -0.1277705763
C  C19  1  0.82023000  0.17811000  0.85112000  1.0 -0.1277705763
C  C20  1  0.32699000  0.96911000  0.14888000  1.0 -0.1277705763
C  C21  1  0.82189000  0.17977000  0.14888000  1.0 -0.1277705763
C  C22  1  0.03089000  0.67301000  0.85112000  1.0 -0.1277705763
C  C23  1  0.42301000  0.07189000  0.14212000  1.0 -0.1277705763
C  C24  1  0.92977000  0.28089000  0.85788000  1.0 -0.1277705763
C  C25  1  0.03089000  0.17977000  0.35788000  1.0 -0.1277705763
C  C26  1  0.82189000  0.67301000  0.64212000  1.0 -0.1277705763
C  C27  1  0.92977000  0.07189000  0.64888000  1.0 -0.1277705763
C  C28  1  0.42301000  0.28089000  0.35112000  1.0 -0.1277705763
C  C29  1  0.92811000  0.07023000  0.35112000  1.0 -0.1277705763
C  C30  1  0.71911000  0.57699000  0.64888000  1.0 -0.1277705763
C  C31  1  0.32699000  0.17811000  0.35788000  1.0 -0.1277705763
C  C32  1  0.82023000  0.96911000  0.64212000  1.0 -0.1277705763
C  C33  1  0.68891000  0.10191000  0.16280000  1.0 -0.1057179865
C  C34  1  0.93911000  0.52611000  0.83720000  1.0 -0.0970664878
C  C35  1  0.85191000  0.18911000  0.91300000  1.0 -0.1057179865
C  C36  1  0.27611000  0.93891000  0.08700000  1.0 -0.1057179865
C  C37  1  0.81089000  0.14809000  0.08700000  1.0 -0.1057179865
C  C38  1  0.06109000  0.72389000  0.91300000  1.0 -0.0970664878
C  C39  1  0.47389000  0.06089000  0.16280000  1.0 -0.1057179865
C  C40  1  0.89809000  0.31109000  0.83720000  1.0 -0.1057179865
C  C41  1  0.06109000  0.14809000  0.33720000  1.0 -0.1057179865
C  C42  1  0.81089000  0.72389000  0.66280000  1.0 -0.1057179865
C  C43  1  0.89809000  0.06089000  0.58700000  1.0 -0.1057179865
C  C44  1  0.47389000  0.31109000  0.41300000  1.0 -0.1057179865
C  C45  1  0.93911000  0.10191000  0.41300000  1.0 -0.1057179865
C  C46  1  0.68891000  0.52611000  0.58700000  1.0 -0.1057179865
C  C47  1  0.27611000  0.18911000  0.33720000  1.0 -0.1057179865
C  C48  1  0.85191000  0.93891000  0.66280000  1.0 -0.1057179865
C  C49  1  0.63610000  0.08460000  0.12710000  1.0 -0.1463649046
C  C50  1  0.95750000  0.50900000  0.87290000  1.0 -0.1463649046
C  C51  1  0.83460000  0.20750000  0.94850000  1.0 -0.1463649046
C  C52  1  0.25900000  0.88610000  0.05150000  1.0 -0.1463649046
C  C53  1  0.79250000  0.16540000  0.05150000  1.0 -0.1463649046
C  C54  1  0.11390000  0.74100000  0.94850000  1.0 -0.1463649046
C  C55  1  0.49100000  0.04250000  0.12710000  1.0 -0.1463649046
C  C56  1  0.91540000  0.36390000  0.87290000  1.0 -0.1463649046
C  C57  1  0.11390000  0.16540000  0.37290000  1.0 -0.1463649046
C  C58  1  0.79250000  0.74100000  0.62710000  1.0 -0.1463649046
C  C59  1  0.91540000  0.04250000  0.55150000  1.0 -0.1463649046
C  C60  1  0.49100000  0.36390000  0.44850000  1.0 -0.1463649046
C  C61  1  0.95750000  0.08460000  0.44850000  1.0 -0.1463649046
C  C62  1  0.63610000  0.50900000  0.55150000  1.0 -0.1463649046
C  C63  1  0.25900000  0.20750000  0.37290000  1.0 -0.1463649046
C  C64  1  0.83460000  0.88610000  0.62710000  1.0 -0.1463649046
C  C65  1  0.60897000  0.03357000  0.06800000  1.0 0.0792505078
C  C66  1  0.96557000  0.54097000  0.93200000  1.0 0.0792505078
C  C67  1  0.78357000  0.21557000  0.92460000  1.0 0.0792505078
C  C68  1  0.29097000  0.85897000  0.07540000  1.0 0.0792505078
C  C69  1  0.78443000  0.21643000  0.07540000  1.0 0.0792505078
C  C70  1  0.14103000  0.70903000  0.92460000  1.0 0.0792505078
C  C71  1  0.45903000  0.03443000  0.06800000  1.0 0.0792505078
C  C72  1  0.96643000  0.39103000  0.93200000  1.0 0.0792505078
C  C73  1  0.14103000  0.21643000  0.43200000  1.0 0.0792505078
C  C74  1  0.78443000  0.70903000  0.56800000  1.0 0.0792505078
C  C75  1  0.96643000  0.03443000  0.57540000  1.0 0.0792505078
C  C76  1  0.45903000  0.39103000  0.42460000  1.0 0.0792505078
C  C77  1  0.96557000  0.03357000  0.42460000  1.0 0.0792505078
C  C78  1  0.60897000  0.54097000  0.57540000  1.0 0.0792505078
C  C79  1  0.29097000  0.21557000  0.43200000  1.0 0.0792505078
C  C80  1  0.78357000  0.85897000  0.56800000  1.0 0.0792505078
C  C81  1  0.63663000  0.00223000  0.04480000  1.0 -0.1998738799
C  C82  1  0.95743000  0.59183000  0.95520000  1.0 -0.1998738799
C  C83  1  0.75223000  0.20743000  0.86560000  1.0 -0.1998738799
C  C84  1  0.34183000  0.88663000  0.13440000  1.0 -0.1998738799
C  C85  1  0.79257000  0.24777000  0.13440000  1.0 -0.1998738799
C  C86  1  0.11337000  0.65817000  0.86560000  1.0 -0.1998738799
C  C87  1  0.40817000  0.04257000  0.04480000  1.0 -0.1998738799
C  C88  1  0.99777000  0.36337000  0.95520000  1.0 -0.1998738799
C  C89  1  0.11337000  0.24777000  0.45520000  1.0 -0.1998738799
C  C90  1  0.79257000  0.65817000  0.54480000  1.0 -0.1998738799
C  C91  1  0.99777000  0.04257000  0.63440000  1.0 -0.1998738799
C  C92  1  0.40817000  0.36337000  0.36560000  1.0 -0.1998738799
C  C93  1  0.95743000  0.00223000  0.36560000  1.0 -0.1998738799
C  C94  1  0.63663000  0.59183000  0.63440000  1.0 -0.1998738799
C  C95  1  0.34183000  0.20743000  0.45520000  1.0 -0.1998738799
C  C96  1  0.75223000  0.88663000  0.54480000  1.0 -0.1998738799
C  C97  1  0.69040000  0.01990000  0.08210000  1.0 0.2363720325
C  C98  1  0.93780000  0.60830000  0.91790000  1.0 0.2363720325
C  C99  1  0.76990000  0.18780000  0.82950000  1.0 0.2363720325
C  C100  1  0.35830000  0.94040000  0.17050000  1.0 0.2363720325
C  C101  1  0.81220000  0.23010000  0.17050000  1.0 0.2363720325
C  C102  1  0.05960000  0.64170000  0.82950000  1.0 0.2363720325
C  C103  1  0.39170000  0.06220000  0.08210000  1.0 0.2363720325
C  C104  1  0.98010000  0.30960000  0.91790000  1.0 0.2363720325
C  C105  1  0.05960000  0.23010000  0.41790000  1.0 0.2363720325
C  C106  1  0.81220000  0.64170000  0.58210000  1.0 0.2363720325
C  C107  1  0.98010000  0.06220000  0.67050000  1.0 0.2363720325
C  C108  1  0.39170000  0.30960000  0.32950000  1.0 0.2363720325
C  C109  1  0.93780000  0.01990000  0.32950000  1.0 0.2363720325
C  C110  1  0.69040000  0.60830000  0.67050000  1.0 0.2363720325
C  C111  1  0.35830000  0.18780000  0.41790000  1.0 0.2363720325
C  C112  1  0.76990000  0.94040000  0.58210000  1.0 0.2363720325
C  C113  1  0.55166000  0.01366000  0.02940000  1.0 0.1007341385
C  C114  1  0.98426000  0.52226000  0.97060000  1.0 0.1007341385
C  C115  1  0.76366000  0.23426000  0.96200000  1.0 0.1007341385
C  C116  1  0.27226000  0.80166000  0.03800000  1.0 0.1007341385
C  C117  1  0.76574000  0.23634000  0.03800000  1.0 0.1007341385
C  C118  1  0.19834000  0.72774000  0.96200000  1.0 0.1007341385
C  C119  1  0.47774000  0.01574000  0.02940000  1.0 0.1007341385
C  C120  1  0.98634000  0.44834000  0.97060000  1.0 0.1007341385
C  C121  1  0.19834000  0.23634000  0.47060000  1.0 0.1007341385
C  C122  1  0.76574000  0.72774000  0.52940000  1.0 0.1007341385
C  C123  1  0.98634000  0.01574000  0.53800000  1.0 0.1007341385
C  C124  1  0.47774000  0.44834000  0.46200000  1.0 0.1007341385
C  C125  1  0.98426000  0.01366000  0.46200000  1.0 0.1007341385
C  C126  1  0.55166000  0.52226000  0.53800000  1.0 0.1007341385
C  C127  1  0.27226000  0.23426000  0.47060000  1.0 0.1007341385
C  C128  1  0.76366000  0.80166000  0.52940000  1.0 0.1007341385
C  C129  1  0.53170000  0.03170000  0.06340000  1.0 -0.1896540684
C  C130  1  0.96830000  0.46830000  0.93660000  1.0 -0.1896540684
C  C131  1  0.78170000  0.21830000  0.00000000  1.0 -0.1896540684
C  C132  1  0.21830000  0.78170000  0.00000000  1.0 -0.1998738799
C  C133  1  0.21830000  0.21830000  0.43660000  1.0 -0.1896540684
C  C134  1  0.78170000  0.78170000  0.56340000  1.0 -0.1998738799
C  C135  1  0.96830000  0.03170000  0.50000000  1.0 -0.1896540684
C  C136  1  0.53170000  0.46830000  0.50000000  1.0 -0.1998738799
C  C137  1  0.51546000  0.97836000  0.95810000  1.0 -0.1896540684
C  C138  1  0.02026000  0.55736000  0.04190000  1.0 -0.1896540684
C  C139  1  0.72836000  0.27026000  0.96290000  1.0 -0.1896540684
C  C140  1  0.30736000  0.76546000  0.03710000  1.0 -0.1896540684
C  C141  1  0.72974000  0.27164000  0.03710000  1.0 -0.1896540684
C  C142  1  0.23454000  0.69264000  0.96290000  1.0 -0.1896540684
C  C143  1  0.44264000  0.97974000  0.95810000  1.0 -0.1896540684
C  C144  1  0.02164000  0.48454000  0.04190000  1.0 -0.1896540684
C  C145  1  0.23454000  0.27164000  0.54190000  1.0 -0.1896540684
C  C146  1  0.72974000  0.69264000  0.45810000  1.0 -0.1896540684
C  C147  1  0.02164000  0.97974000  0.53710000  1.0 -0.1896540684
C  C148  1  0.44264000  0.48454000  0.46290000  1.0 -0.1896540684
C  C149  1  0.02026000  0.97836000  0.46290000  1.0 -0.1896540684
C  C150  1  0.51546000  0.55736000  0.53710000  1.0 -0.1896540684
C  C151  1  0.30736000  0.27026000  0.54190000  1.0 -0.1896540684
C  C152  1  0.72836000  0.76546000  0.45810000  1.0 -0.1896540684
C  C153  1  0.46150000  0.96150000  0.92300000  1.0 0.1007341385
C  C154  1  0.03850000  0.53850000  0.07700000  1.0 0.1007341385
C  C155  1  0.71150000  0.28850000  0.00000000  1.0 0.1007341385
C  C156  1  0.28850000  0.71150000  0.00000000  1.0 0.1007341385
C  C157  1  0.28850000  0.28850000  0.57700000  1.0 0.1007341385
C  C158  1  0.71150000  0.71150000  0.42300000  1.0 0.1007341385
C  C159  1  0.03850000  0.96150000  0.50000000  1.0 0.1007341385
C  C160  1  0.46150000  0.53850000  0.50000000  1.0 0.1007341385
C  C161  1  0.42380000  0.92380000  0.84760000  1.0 0.0925402812
C  C162  1  0.07620000  0.57620000  0.15240000  1.0 0.0925402812
C  C163  1  0.67380000  0.32620000  0.00000000  1.0 0.0925402812
C  C164  1  0.32620000  0.67380000  0.00000000  1.0 0.0925402812
C  C165  1  0.32620000  0.32620000  0.65240000  1.0 0.0925402812
C  C166  1  0.67380000  0.67380000  0.34760000  1.0 0.0925402812
C  C167  1  0.07620000  0.92380000  0.50000000  1.0 0.0925402812
C  C168  1  0.42380000  0.57620000  0.50000000  1.0 0.0925402812
C  C169  1  0.38330000  0.88260000  0.81030000  1.0 -0.2226817751
C  C170  1  0.07230000  0.57300000  0.18970000  1.0 -0.2226817751
C  C171  1  0.63260000  0.32230000  0.99930000  1.0 -0.2226817751
C  C172  1  0.32300000  0.63330000  0.00070000  1.0 -0.2226817751
C  C173  1  0.67770000  0.36740000  0.00070000  1.0 -0.2226817751
C  C174  1  0.36670000  0.67700000  0.99930000  1.0 -0.2226817751
C  C175  1  0.42700000  0.92770000  0.81030000  1.0 -0.2226817751
C  C176  1  0.11740000  0.61670000  0.18970000  1.0 -0.2226817751
C  C177  1  0.36670000  0.36740000  0.68970000  1.0 -0.2226817751
C  C178  1  0.67770000  0.67700000  0.31030000  1.0 -0.225389484
C  C179  1  0.11740000  0.92770000  0.50070000  1.0 -0.2226817751
C  C180  1  0.42700000  0.61670000  0.49930000  1.0 -0.2226817751
C  C181  1  0.07230000  0.88260000  0.49930000  1.0 -0.2226817751
C  C182  1  0.38330000  0.57300000  0.50070000  1.0 -0.2226817751
C  C183  1  0.32300000  0.32230000  0.68970000  1.0 -0.2226817751
C  C184  1  0.63260000  0.63330000  0.31030000  1.0 -0.2226817751
C  C185  1  0.34967000  0.84807000  0.74180000  1.0 0.2131398318
C  C186  1  0.10627000  0.60787000  0.25820000  1.0 0.2131398318
C  C187  1  0.59807000  0.35627000  0.99840000  1.0 0.2131398318
C  C188  1  0.35787000  0.59967000  0.00160000  1.0 0.2131398318
C  C189  1  0.64373000  0.40193000  0.00160000  1.0 0.2131398318
C  C190  1  0.40033000  0.64213000  0.99840000  1.0 0.2131398318
C  C191  1  0.39213000  0.89373000  0.74180000  1.0 0.2131398318
C  C192  1  0.15193000  0.65033000  0.25820000  1.0 0.2131398318
C  C193  1  0.40033000  0.40193000  0.75820000  1.0 0.2131398318
C  C194  1  0.64373000  0.64213000  0.24180000  1.0 0.2165386941
C  C195  1  0.15193000  0.89373000  0.50160000  1.0 0.2131398318
C  C196  1  0.39213000  0.65033000  0.49840000  1.0 0.2165386941
C  C197  1  0.10627000  0.84807000  0.49840000  1.0 0.2131398318
C  C198  1  0.34967000  0.60787000  0.50160000  1.0 0.2131398318
C  C199  1  0.35787000  0.35627000  0.75820000  1.0 0.2131398318
C  C200  1  0.59807000  0.59967000  0.24180000  1.0 0.2131398318
C  C201  1  0.35170000  0.85170000  0.70340000  1.0 -0.1396621724
C  C202  1  0.14830000  0.64830000  0.29660000  1.0 -0.1396621724
C  C203  1  0.60170000  0.39830000  0.00000000  1.0 -0.1396621724
C  C204  1  0.39830000  0.60170000  0.00000000  1.0 -0.1396621724
C  C205  1  0.39830000  0.39830000  0.79660000  1.0 -0.1396621724
C  C206  1  0.60170000  0.60170000  0.20340000  1.0 -0.1396621724
C  C207  1  0.14830000  0.85170000  0.50000000  1.0 -0.1396621724
C  C208  1  0.35170000  0.64830000  0.50000000  1.0 -0.1396621724
C  C209  1  0.31430000  0.81430000  0.62860000  1.0 0.576627713
C  C210  1  0.18570000  0.68570000  0.37140000  1.0 0.576627713
C  C211  1  0.56430000  0.43570000  0.00000000  1.0 0.576627713
C  C212  1  0.43570000  0.56430000  0.00000000  1.0 0.576627713
C  C213  1  0.43570000  0.43570000  0.87140000  1.0 0.576627713
C  C214  1  0.56430000  0.56430000  0.12860000  1.0 0.576627713
C  C215  1  0.18570000  0.81430000  0.50000000  1.0 0.576627713
C  C216  1  0.31430000  0.68570000  0.50000000  1.0 0.576627713
C  C217  1  0.87278000  0.34634000  0.47276000  1.0 0.0105292371
C  C218  1  0.87358000  0.40002000  0.52724000  1.0 0.0105292371
C  C219  1  0.09634000  0.12358000  0.97356000  1.0 0.0105292371
C  C220  1  0.15002000  0.12278000  0.02644000  1.0 0.0105292371
C  C221  1  0.87642000  0.90366000  0.02644000  1.0 0.0105292371
C  C222  1  0.87722000  0.84998000  0.97356000  1.0 0.0105292371
C  C223  1  0.59998000  0.12642000  0.47276000  1.0 0.0105292371
C  C224  1  0.65366000  0.12722000  0.52724000  1.0 0.0105292371
C  C225  1  0.91480000  0.27240000  0.43880000  1.0 -0.0405973263
C  C226  1  0.83360000  0.47600000  0.56120000  1.0 -0.0405973263
C  C227  1  0.02240000  0.08360000  0.85760000  1.0 -0.0405973263
C  C228  1  0.22600000  0.16480000  0.14240000  1.0 -0.0405973263
C  C229  1  0.91640000  0.97760000  0.14240000  1.0 -0.0405973263
C  C230  1  0.83520000  0.77400000  0.85760000  1.0 -0.0405973263
C  C231  1  0.52400000  0.16640000  0.43880000  1.0 -0.0405973263
C  C232  1  0.72760000  0.08520000  0.56120000  1.0 -0.0405973263
C  C233  1  0.83520000  0.97760000  0.06120000  1.0 -0.0405973263
C  C234  1  0.91640000  0.77400000  0.93880000  1.0 -0.0405973263
C  C235  1  0.72760000  0.16640000  0.64240000  1.0 -0.0405973263
C  C236  1  0.52400000  0.08520000  0.35760000  1.0 -0.0405973263
C  C237  1  0.83360000  0.27240000  0.35760000  1.0 -0.0405973263
C  C238  1  0.91480000  0.47600000  0.64240000  1.0 -0.0405973263
C  C239  1  0.22600000  0.08360000  0.06120000  1.0 -0.0405973263
C  C240  1  0.02240000  0.16480000  0.93880000  1.0 -0.0405973263
C  C241  1  0.91550000  0.32190000  0.48880000  1.0 -0.0970664878
C  C242  1  0.83310000  0.42670000  0.51120000  1.0 -0.0970664878
C  C243  1  0.07190000  0.08310000  0.90640000  1.0 -0.0970664878
C  C244  1  0.17670000  0.16550000  0.09360000  1.0 -0.0970664878
C  C245  1  0.91690000  0.92810000  0.09360000  1.0 -0.0970664878
C  C246  1  0.83450000  0.82330000  0.90640000  1.0 -0.0945440222
C  C247  1  0.57330000  0.16690000  0.48880000  1.0 -0.0970664878
C  C248  1  0.67810000  0.08450000  0.51120000  1.0 -0.0970664878
C  C249  1  0.83450000  0.92810000  0.01120000  1.0 -0.0945440222
C  C250  1  0.91690000  0.82330000  0.98880000  1.0 -0.0970664878
C  C251  1  0.67810000  0.16690000  0.59360000  1.0 -0.0945440222
C  C252  1  0.57330000  0.08450000  0.40640000  1.0 -0.0970664878
C  C253  1  0.83310000  0.32190000  0.40640000  1.0 -0.0945440222
C  C254  1  0.91550000  0.42670000  0.59360000  1.0 -0.0970664878
C  C255  1  0.17670000  0.08310000  0.01120000  1.0 -0.0970664878
C  C256  1  0.07190000  0.16550000  0.98880000  1.0 -0.0945440222
C  C257  1  0.83417000  0.25087000  0.37930000  1.0 -0.0168694387
C  C258  1  0.87157000  0.45487000  0.62070000  1.0 -0.0168694387
C  C259  1  0.00087000  0.12157000  0.91670000  1.0 -0.0168694387
C  C260  1  0.20487000  0.08417000  0.08330000  1.0 -0.0168694387
C  C261  1  0.87843000  0.99913000  0.08330000  1.0 -0.0168694387
C  C262  1  0.91583000  0.79513000  0.91670000  1.0 -0.0168694387
C  C263  1  0.54513000  0.12843000  0.37930000  1.0 -0.0168694387
C  C264  1  0.74913000  0.16583000  0.62070000  1.0 -0.0168694387
C  C265  1  0.91583000  0.99913000  0.12070000  1.0 -0.0168694387
C  C266  1  0.87843000  0.79513000  0.87930000  1.0 -0.0168694387
C  C267  1  0.74913000  0.12843000  0.58330000  1.0 -0.0168694387
C  C268  1  0.54513000  0.16583000  0.41670000  1.0 -0.0168694387
C  C269  1  0.87157000  0.25087000  0.41670000  1.0 -0.0168694387
C  C270  1  0.83417000  0.45487000  0.58330000  1.0 -0.0168694387
C  C271  1  0.20487000  0.12157000  0.12070000  1.0 -0.0168694387
C  C272  1  0.00087000  0.08417000  0.87930000  1.0 -0.0168694387
C  C273  1  0.83350000  0.30070000  0.42860000  1.0 -0.0583120251
C  C274  1  0.87210000  0.40490000  0.57140000  1.0 -0.0583120251
C  C275  1  0.05070000  0.12210000  0.96720000  1.0 -0.0583120251
C  C276  1  0.15490000  0.08350000  0.03280000  1.0 -0.0583120251
C  C277  1  0.87790000  0.94930000  0.03280000  1.0 -0.0583120251
C  C278  1  0.91650000  0.84510000  0.96720000  1.0 -0.0583120251
C  C279  1  0.59510000  0.12790000  0.42860000  1.0 -0.0583120251
C  C280  1  0.69930000  0.16650000  0.57140000  1.0 -0.0583120251
C  C281  1  0.91650000  0.94930000  0.07140000  1.0 -0.0583120251
C  C282  1  0.87790000  0.84510000  0.92860000  1.0 -0.0583120251
C  C283  1  0.69930000  0.12790000  0.53280000  1.0 -0.0583120251
C  C284  1  0.59510000  0.16650000  0.46720000  1.0 -0.0583120251
C  C285  1  0.87210000  0.30070000  0.46720000  1.0 -0.0583120251
C  C286  1  0.83350000  0.40490000  0.53280000  1.0 -0.0583120251
C  C287  1  0.15490000  0.12210000  0.07140000  1.0 -0.0583120251
C  C288  1  0.05070000  0.08350000  0.92860000  1.0 -0.0583120251
C  C289  1  0.91053000  0.34213000  0.46540000  1.0 -0.0405973263
C  C290  1  0.87673000  0.44513000  0.53460000  1.0 -0.0405973263
C  C291  1  0.09213000  0.12673000  0.93160000  1.0 -0.0459916384
C  C292  1  0.19513000  0.16053000  0.06840000  1.0 -0.0459916384
C  C293  1  0.87327000  0.90787000  0.06840000  1.0 -0.0405973263
C  C294  1  0.83947000  0.80487000  0.93160000  1.0 -0.0459916384
C  C295  1  0.55487000  0.12327000  0.46540000  1.0 -0.0405973263
C  C296  1  0.65787000  0.08947000  0.53460000  1.0 -0.0405973263
C  C297  1  0.83947000  0.90787000  0.03460000  1.0 -0.0405973263
C  C298  1  0.87327000  0.80487000  0.96540000  1.0 -0.0405973263
C  C299  1  0.65787000  0.12327000  0.56840000  1.0 -0.0405973263
C  C300  1  0.55487000  0.08947000  0.43160000  1.0 -0.0405973263
C  C301  1  0.87673000  0.34213000  0.43160000  1.0 -0.0405973263
C  C302  1  0.91053000  0.44513000  0.56840000  1.0 -0.0405973263
C  C303  1  0.19513000  0.12673000  0.03460000  1.0 -0.0405973263
C  C304  1  0.09213000  0.16053000  0.96540000  1.0 -0.0459916384
C  C305  1  0.91121000  0.29231000  0.41610000  1.0 0.0105292371
C  C306  1  0.87621000  0.49511000  0.58390000  1.0 0.0105292371
C  C307  1  0.04231000  0.12621000  0.88110000  1.0 0.0105292371
C  C308  1  0.24511000  0.16121000  0.11890000  1.0 0.0105292371
C  C309  1  0.87379000  0.95769000  0.11890000  1.0 0.0105292371
C  C310  1  0.83879000  0.75489000  0.88110000  1.0 0.0105292371
C  C311  1  0.50489000  0.12379000  0.41610000  1.0 0.0105292371
C  C312  1  0.70769000  0.08879000  0.58390000  1.0 0.0105292371
C  C313  1  0.83879000  0.95769000  0.08390000  1.0 0.0105292371
C  C314  1  0.87379000  0.75489000  0.91610000  1.0 0.0105292371
C  C315  1  0.70769000  0.12379000  0.61890000  1.0 0.0105292371
C  C316  1  0.50489000  0.08879000  0.38110000  1.0 0.0105292371
C  C317  1  0.87621000  0.29231000  0.38110000  1.0 0.0105292371
C  C318  1  0.91121000  0.49511000  0.61890000  1.0 0.0105292371
C  C319  1  0.24511000  0.12621000  0.08390000  1.0 0.0105292371
C  C320  1  0.04231000  0.16121000  0.91610000  1.0 0.0105292371
N  N1  1  0.87333000  0.24671000  0.37338000  1.0 -0.0459916384
N  N2  1  0.87333000  0.49995000  0.62662000  1.0 -0.0459916384
N  N3  1  0.99671000  0.12333000  0.87338000  1.0 -0.0459916384
N  N4  1  0.24995000  0.12333000  0.12662000  1.0 -0.0459916384
N  N5  1  0.87667000  0.00329000  0.12662000  1.0 -0.0459916384
N  N6  1  0.87667000  0.75005000  0.87338000  1.0 -0.0459916384
N  N7  1  0.50005000  0.12667000  0.37338000  1.0 -0.0459916384
N  N8  1  0.75329000  0.12667000  0.62662000  1.0 -0.0459916384
N  N9  1  0.31550000  0.80580000  0.71610000  1.0 -0.2515170143
N  N10  1  0.08970000  0.59940000  0.28390000  1.0 -0.2515170143
N  N11  1  0.55580000  0.33970000  0.99030000  1.0 -0.2515170143
N  N12  1  0.34940000  0.56550000  0.00970000  1.0 -0.2515170143
N  N13  1  0.66030000  0.44420000  0.00970000  1.0 -0.2515170143
N  N14  1  0.43450000  0.65060000  0.99030000  1.0 -0.2515170143
N  N15  1  0.40060000  0.91030000  0.71610000  1.0 -0.2515170143
N  N16  1  0.19420000  0.68450000  0.28390000  1.0 -0.2515170143
N  N17  1  0.43450000  0.44420000  0.78390000  1.0 -0.2515170143
N  N18  1  0.66030000  0.65060000  0.21610000  1.0 -0.2515170143
N  N19  1  0.19420000  0.91030000  0.50970000  1.0 -0.2515170143
N  N20  1  0.40060000  0.68450000  0.49030000  1.0 -0.2515170143
N  N21  1  0.08970000  0.80580000  0.49030000  1.0 -0.2515170143
N  N22  1  0.31550000  0.59940000  0.50970000  1.0 -0.2515170143
N  N23  1  0.34940000  0.33970000  0.78390000  1.0 -0.2515170143
N  N24  1  0.55580000  0.56550000  0.21610000  1.0 -0.2515170143
N  N25  1  0.71550000  0.97730000  0.05460000  1.0 -0.3214679916
N  N26  1  0.92270000  0.66090000  0.94540000  1.0 -0.3214679916
N  N27  1  0.72730000  0.17270000  0.76180000  1.0 -0.3214679916
N  N28  1  0.41090000  0.96550000  0.23820000  1.0 -0.3214679916
N  N29  1  0.82730000  0.27270000  0.23820000  1.0 -0.3214679916
N  N30  1  0.03450000  0.58910000  0.76180000  1.0 -0.3214679916
N  N31  1  0.33910000  0.07730000  0.05460000  1.0 -0.3214679916
N  N32  1  0.02270000  0.28450000  0.94540000  1.0 -0.3214679916
N  N33  1  0.03450000  0.27270000  0.44540000  1.0 -0.3214679916
N  N34  1  0.82730000  0.58910000  0.55460000  1.0 -0.3214679916
N  N35  1  0.02270000  0.07730000  0.73820000  1.0 -0.3214679916
N  N36  1  0.33910000  0.28450000  0.26180000  1.0 -0.3214679916
N  N37  1  0.92270000  0.97730000  0.26180000  1.0 -0.3214679916
N  N38  1  0.71550000  0.66090000  0.73820000  1.0 -0.3214679916
N  N39  1  0.41090000  0.17270000  0.44540000  1.0 -0.3214679916
N  N40  1  0.72730000  0.96550000  0.55460000  1.0 -0.3214679916
O  O1  1  0.32033000  0.82078000  0.59893000  1.0 -0.5138489489
O  O2  1  0.22185000  0.72140000  0.40107000  1.0 -0.5138489489
O  O3  1  0.57078000  0.47185000  0.00045000  1.0 -0.5138489489
O  O4  1  0.47140000  0.57033000  0.99955000  1.0 -0.5138489489
O  O5  1  0.52815000  0.42922000  0.99955000  1.0 -0.5138489489
O  O6  1  0.42967000  0.52860000  0.00045000  1.0 -0.5138489489
O  O7  1  0.27860000  0.77815000  0.59893000  1.0 -0.5138489489
O  O8  1  0.17922000  0.67967000  0.40107000  1.0 -0.5138489489
O  O9  1  0.42967000  0.42922000  0.90107000  1.0 -0.5138489489
O  O10  1  0.52815000  0.52860000  0.09893000  1.0 -0.5138489489
O  O11  1  0.17922000  0.77815000  0.49955000  1.0 -0.5138489489
O  O12  1  0.27860000  0.67967000  0.50045000  1.0 -0.5138489489
O  O13  1  0.22185000  0.82078000  0.50045000  1.0 -0.5138489489
O  O14  1  0.32033000  0.72140000  0.49955000  1.0 -0.5138489489
O  O15  1  0.47140000  0.47185000  0.90107000  1.0 -0.5138489489
O  O16  1  0.57078000  0.57033000  0.09893000  1.0 -0.5138489489
O  O17  1  0.79863000  0.13649000  0.23778000  1.0 -0.5179658045
O  O18  1  0.89871000  0.56085000  0.76222000  1.0 -0.5179658045
O  O19  1  0.88649000  0.14871000  0.83786000  1.0 -0.5179658045
O  O20  1  0.31085000  0.04863000  0.16214000  1.0 -0.5179658045
O  O21  1  0.85129000  0.11351000  0.16214000  1.0 -0.5179658045
O  O22  1  0.95137000  0.68915000  0.83786000  1.0 -0.5179658045
O  O23  1  0.43915000  0.10129000  0.23778000  1.0 -0.5179658045
O  O24  1  0.86351000  0.20137000  0.76222000  1.0 -0.5179658045
O  O25  1  0.95137000  0.11351000  0.26222000  1.0 -0.5179658045
O  O26  1  0.85129000  0.68915000  0.73778000  1.0 -0.5179658045
O  O27  1  0.86351000  0.10129000  0.66214000  1.0 -0.5179658045
O  O28  1  0.43915000  0.20137000  0.33786000  1.0 -0.5179658045
O  O29  1  0.89871000  0.13649000  0.33786000  1.0 -0.5179658045
O  O30  1  0.79863000  0.56085000  0.66214000  1.0 -0.5179658045
O  O31  1  0.31085000  0.14871000  0.26222000  1.0 -0.5179658045
O  O32  1  0.88649000  0.04863000  0.73778000  1.0 -0.5179658045
O  O33  1  0.79993000  0.05848000  0.15863000  1.0 -0.4982548763
O  O34  1  0.89985000  0.64130000  0.84137000  1.0 -0.4982548763
O  O35  1  0.80848000  0.14985000  0.75855000  1.0 -0.4982548763
O  O36  1  0.39130000  0.04993000  0.24145000  1.0 -0.4982548763
O  O37  1  0.85015000  0.19152000  0.24145000  1.0 -0.4982548763
O  O38  1  0.95007000  0.60870000  0.75855000  1.0 -0.4982548763
O  O39  1  0.35870000  0.10015000  0.15863000  1.0 -0.4982548763
O  O40  1  0.94152000  0.20007000  0.84137000  1.0 -0.4982548763
O  O41  1  0.95007000  0.19152000  0.34137000  1.0 -0.4982548763
O  O42  1  0.85015000  0.60870000  0.65863000  1.0 -0.4982548763
O  O43  1  0.94152000  0.10015000  0.74145000  1.0 -0.4982548763
O  O44  1  0.35870000  0.20007000  0.25855000  1.0 -0.4982548763
O  O45  1  0.89985000  0.05848000  0.25855000  1.0 -0.4982548763
O  O46  1  0.79993000  0.64130000  0.74145000  1.0 -0.4982548763
O  O47  1  0.39130000  0.14985000  0.34137000  1.0 -0.4982548763
O  O48  1  0.80848000  0.04993000  0.65863000  1.0 -0.4982548763
