# DDEC6 charges by PACMAN v1.1 (https://github.com/mtap-research/PACMAN-charge/)
data_UGOCAW_ASR_pacman
_symmetry_space_group_name_H-M   'P 1'
_cell_length_a   31.30430000
_cell_length_b   31.30430000
_cell_length_c   31.30430000
_cell_angle_alpha   60.00000000
_cell_angle_beta   60.00000000
_cell_angle_gamma   60.00000000
_symmetry_Int_Tables_number   1
_chemical_formula_structural   Cu9H27C45(N9O16)2
_chemical_formula_sum   'Cu72 H216 C360 N144 O256'
_cell_volume   21691.86999297
_cell_formula_units_Z   8
loop_
 _symmetry_equiv_pos_site_id
 _symmetry_equiv_pos_as_xyz
  1  'x, y, z'
loop_
 _atom_site_type_symbol
 _atom_site_label
 _atom_site_symmetry_multiplicity
 _atom_site_fract_x
 _atom_site_fract_y
 _atom_site_fract_z
 _atom_site_occupancy
 _atom_site_charge
Cu  Cu1  1  0.00000000  0.33838000  0.00000000  1.0 0.7835250314
Cu  Cu2  1  0.33838000  0.00000000  0.66162000  1.0 0.7835250314
Cu  Cu3  1  0.00000000  0.66162000  0.00000000  1.0 0.7835250314
Cu  Cu4  1  0.66162000  0.00000000  0.33838000  1.0 0.7835250314
Cu  Cu5  1  0.00000000  0.00000000  0.33838000  1.0 0.7835250314
Cu  Cu6  1  0.66162000  0.33838000  0.00000000  1.0 0.7835250314
Cu  Cu7  1  0.00000000  0.00000000  0.66162000  1.0 0.7835250314
Cu  Cu8  1  0.33838000  0.66162000  0.00000000  1.0 0.7835250314
Cu  Cu9  1  0.33838000  0.00000000  0.00000000  1.0 0.7835250314
Cu  Cu10  1  0.00000000  0.66162000  0.33838000  1.0 0.7835250314
Cu  Cu11  1  0.66162000  0.00000000  0.00000000  1.0 0.7835250314
Cu  Cu12  1  0.00000000  0.33838000  0.66162000  1.0 0.7835250314
Cu  Cu13  1  0.00000000  0.25340000  0.00000000  1.0 0.7535544799
Cu  Cu14  1  0.25340000  0.00000000  0.74660000  1.0 0.7535544799
Cu  Cu15  1  0.00000000  0.74660000  0.00000000  1.0 0.7535544799
Cu  Cu16  1  0.74660000  0.00000000  0.25340000  1.0 0.7552371786
Cu  Cu17  1  0.00000000  0.00000000  0.25340000  1.0 0.7552371786
Cu  Cu18  1  0.74660000  0.25340000  0.00000000  1.0 0.7552371786
Cu  Cu19  1  0.00000000  0.00000000  0.74660000  1.0 0.7535544799
Cu  Cu20  1  0.25340000  0.74660000  0.00000000  1.0 0.7535544799
Cu  Cu21  1  0.25340000  0.00000000  0.00000000  1.0 0.7535544799
Cu  Cu22  1  0.00000000  0.74660000  0.25340000  1.0 0.7535544799
Cu  Cu23  1  0.74660000  0.00000000  0.00000000  1.0 0.7535544799
Cu  Cu24  1  0.00000000  0.25340000  0.74660000  1.0 0.7535544799
Cu  Cu25  1  0.39970000  0.29264000  0.90796000  1.0 0.2806911609
Cu  Cu26  1  0.29264000  0.39970000  0.39970000  1.0 0.2806911609
Cu  Cu27  1  0.90796000  0.39970000  0.39970000  1.0 0.2806911609
Cu  Cu28  1  0.39970000  0.90796000  0.29264000  1.0 0.2806911609
Cu  Cu29  1  0.90796000  0.39970000  0.29264000  1.0 0.2806911609
Cu  Cu30  1  0.39970000  0.29264000  0.39970000  1.0 0.2806911609
Cu  Cu31  1  0.39970000  0.90796000  0.39970000  1.0 0.2806911609
Cu  Cu32  1  0.29264000  0.39970000  0.90796000  1.0 0.2806911609
Cu  Cu33  1  0.29264000  0.90796000  0.39970000  1.0 0.2806911609
Cu  Cu34  1  0.39970000  0.39970000  0.29264000  1.0 0.2806911609
Cu  Cu35  1  0.39970000  0.39970000  0.90796000  1.0 0.2806911609
Cu  Cu36  1  0.90796000  0.29264000  0.39970000  1.0 0.2806911609
Cu  Cu37  1  0.60030000  0.70736000  0.60030000  1.0 0.2806911609
Cu  Cu38  1  0.70736000  0.60030000  0.09204000  1.0 0.2806911609
Cu  Cu39  1  0.09204000  0.60030000  0.70736000  1.0 0.2806911609
Cu  Cu40  1  0.60030000  0.09204000  0.60030000  1.0 0.2806911609
Cu  Cu41  1  0.09204000  0.60030000  0.60030000  1.0 0.2806911609
Cu  Cu42  1  0.60030000  0.70736000  0.09204000  1.0 0.2806911609
Cu  Cu43  1  0.60030000  0.09204000  0.70736000  1.0 0.2806911609
Cu  Cu44  1  0.70736000  0.60030000  0.60030000  1.0 0.2806911609
Cu  Cu45  1  0.70736000  0.09204000  0.60030000  1.0 0.2806911609
Cu  Cu46  1  0.60030000  0.60030000  0.09204000  1.0 0.2806911609
Cu  Cu47  1  0.60030000  0.60030000  0.70736000  1.0 0.2806911609
Cu  Cu48  1  0.09204000  0.70736000  0.60030000  1.0 0.2806911609
Cu  Cu49  1  0.38700000  0.28356000  0.94244000  1.0 0.439654748
Cu  Cu50  1  0.28356000  0.38700000  0.38700000  1.0 0.439654748
Cu  Cu51  1  0.94244000  0.38700000  0.38700000  1.0 0.439654748
Cu  Cu52  1  0.38700000  0.94244000  0.28356000  1.0 0.439654748
Cu  Cu53  1  0.94244000  0.38700000  0.28356000  1.0 0.439654748
Cu  Cu54  1  0.38700000  0.28356000  0.38700000  1.0 0.439654748
Cu  Cu55  1  0.38700000  0.94244000  0.38700000  1.0 0.439654748
Cu  Cu56  1  0.28356000  0.38700000  0.94244000  1.0 0.439654748
Cu  Cu57  1  0.28356000  0.94244000  0.38700000  1.0 0.439654748
Cu  Cu58  1  0.38700000  0.38700000  0.28356000  1.0 0.439654748
Cu  Cu59  1  0.38700000  0.38700000  0.94244000  1.0 0.439654748
Cu  Cu60  1  0.94244000  0.28356000  0.38700000  1.0 0.439654748
Cu  Cu61  1  0.61300000  0.71644000  0.61300000  1.0 0.439654748
Cu  Cu62  1  0.71644000  0.61300000  0.05756000  1.0 0.439654748
Cu  Cu63  1  0.05756000  0.61300000  0.71644000  1.0 0.439654748
Cu  Cu64  1  0.61300000  0.05756000  0.61300000  1.0 0.439654748
Cu  Cu65  1  0.05756000  0.61300000  0.61300000  1.0 0.439654748
Cu  Cu66  1  0.61300000  0.71644000  0.05756000  1.0 0.439654748
Cu  Cu67  1  0.61300000  0.05756000  0.71644000  1.0 0.439654748
Cu  Cu68  1  0.71644000  0.61300000  0.61300000  1.0 0.439654748
Cu  Cu69  1  0.71644000  0.05756000  0.61300000  1.0 0.439654748
Cu  Cu70  1  0.61300000  0.61300000  0.05756000  1.0 0.439654748
Cu  Cu71  1  0.61300000  0.61300000  0.71644000  1.0 0.439654748
Cu  Cu72  1  0.05756000  0.71644000  0.61300000  1.0 0.439654748
H  H1  1  0.17040000  0.29560000  0.95080000  1.0 0.0952291579
H  H2  1  0.29560000  0.17040000  0.58320000  1.0 0.0952291579
H  H3  1  0.95080000  0.58320000  0.17040000  1.0 0.0952291579
H  H4  1  0.58320000  0.95080000  0.29560000  1.0 0.0952291579
H  H5  1  0.95080000  0.17040000  0.29560000  1.0 0.0952291579
H  H6  1  0.58320000  0.29560000  0.17040000  1.0 0.0952291579
H  H7  1  0.17040000  0.95080000  0.58320000  1.0 0.0952291579
H  H8  1  0.29560000  0.58320000  0.95080000  1.0 0.0952291579
H  H9  1  0.29560000  0.95080000  0.17040000  1.0 0.0952291579
H  H10  1  0.17040000  0.58320000  0.29560000  1.0 0.0952291579
H  H11  1  0.58320000  0.17040000  0.95080000  1.0 0.0952291579
H  H12  1  0.95080000  0.29560000  0.58320000  1.0 0.0952291579
H  H13  1  0.82960000  0.70440000  0.41680000  1.0 0.0952291579
H  H14  1  0.70440000  0.82960000  0.04920000  1.0 0.0952291579
H  H15  1  0.04920000  0.41680000  0.70440000  1.0 0.0952291579
H  H16  1  0.41680000  0.04920000  0.82960000  1.0 0.0952291579
H  H17  1  0.04920000  0.82960000  0.41680000  1.0 0.0952291579
H  H18  1  0.41680000  0.70440000  0.04920000  1.0 0.0952291579
H  H19  1  0.82960000  0.04920000  0.70440000  1.0 0.0952291579
H  H20  1  0.70440000  0.41680000  0.82960000  1.0 0.0952291579
H  H21  1  0.70440000  0.04920000  0.41680000  1.0 0.0952291579
H  H22  1  0.82960000  0.41680000  0.04920000  1.0 0.0952291579
H  H23  1  0.41680000  0.82960000  0.70440000  1.0 0.0952291579
H  H24  1  0.04920000  0.70440000  0.82960000  1.0 0.0952291579
H  H25  1  0.82960000  0.70440000  0.04920000  1.0 0.0952291579
H  H26  1  0.70440000  0.82960000  0.41680000  1.0 0.0952291579
H  H27  1  0.04920000  0.41680000  0.82960000  1.0 0.0952291579
H  H28  1  0.41680000  0.04920000  0.70440000  1.0 0.0952291579
H  H29  1  0.04920000  0.82960000  0.70440000  1.0 0.0952291579
H  H30  1  0.41680000  0.70440000  0.82960000  1.0 0.0952291579
H  H31  1  0.82960000  0.04920000  0.41680000  1.0 0.0952291579
H  H32  1  0.70440000  0.41680000  0.04920000  1.0 0.0952291579
H  H33  1  0.70440000  0.04920000  0.82960000  1.0 0.0952291579
H  H34  1  0.82960000  0.41680000  0.70440000  1.0 0.0952291579
H  H35  1  0.41680000  0.82960000  0.04920000  1.0 0.0952291579
H  H36  1  0.04920000  0.70440000  0.41680000  1.0 0.0952291579
H  H37  1  0.17040000  0.29560000  0.58320000  1.0 0.0952291579
H  H38  1  0.29560000  0.17040000  0.95080000  1.0 0.0952291579
H  H39  1  0.95080000  0.58320000  0.29560000  1.0 0.0952291579
H  H40  1  0.58320000  0.95080000  0.17040000  1.0 0.0952291579
H  H41  1  0.95080000  0.17040000  0.58320000  1.0 0.0952291579
H  H42  1  0.58320000  0.29560000  0.95080000  1.0 0.0952291579
H  H43  1  0.17040000  0.95080000  0.29560000  1.0 0.0952291579
H  H44  1  0.29560000  0.58320000  0.17040000  1.0 0.0952291579
H  H45  1  0.29560000  0.95080000  0.58320000  1.0 0.0952291579
H  H46  1  0.17040000  0.58320000  0.95080000  1.0 0.0952291579
H  H47  1  0.58320000  0.17040000  0.29560000  1.0 0.0952291579
H  H48  1  0.95080000  0.29560000  0.17040000  1.0 0.0952291579
H  H49  1  0.15800000  0.15800000  0.98720000  1.0 0.1385341641
H  H50  1  0.15800000  0.15800000  0.69680000  1.0 0.1385341641
H  H51  1  0.98720000  0.69680000  0.15800000  1.0 0.1385341641
H  H52  1  0.69680000  0.98720000  0.15800000  1.0 0.1385341641
H  H53  1  0.98720000  0.15800000  0.15800000  1.0 0.1385341641
H  H54  1  0.69680000  0.15800000  0.15800000  1.0 0.1385341641
H  H55  1  0.15800000  0.98720000  0.69680000  1.0 0.1385341641
H  H56  1  0.15800000  0.69680000  0.98720000  1.0 0.1385341641
H  H57  1  0.15800000  0.98720000  0.15800000  1.0 0.1385341641
H  H58  1  0.15800000  0.69680000  0.15800000  1.0 0.1385341641
H  H59  1  0.69680000  0.15800000  0.98720000  1.0 0.1385341641
H  H60  1  0.98720000  0.15800000  0.69680000  1.0 0.1385341641
H  H61  1  0.84200000  0.84200000  0.30320000  1.0 0.1385341641
H  H62  1  0.84200000  0.84200000  0.01280000  1.0 0.1385341641
H  H63  1  0.01280000  0.30320000  0.84200000  1.0 0.1385341641
H  H64  1  0.30320000  0.01280000  0.84200000  1.0 0.1385341641
H  H65  1  0.01280000  0.84200000  0.30320000  1.0 0.1385341641
H  H66  1  0.30320000  0.84200000  0.01280000  1.0 0.1385341641
H  H67  1  0.84200000  0.01280000  0.84200000  1.0 0.1385341641
H  H68  1  0.84200000  0.30320000  0.84200000  1.0 0.1385341641
H  H69  1  0.84200000  0.01280000  0.30320000  1.0 0.1385341641
H  H70  1  0.84200000  0.30320000  0.01280000  1.0 0.1385341641
H  H71  1  0.30320000  0.84200000  0.84200000  1.0 0.1385341641
H  H72  1  0.01280000  0.84200000  0.84200000  1.0 0.1385341641
H  H73  1  0.33320000  0.20900000  0.95780000  1.0 0.0928980669
H  H74  1  0.20900000  0.33320000  0.50000000  1.0 0.0928980669
H  H75  1  0.95780000  0.50000000  0.33320000  1.0 0.0928980669
H  H76  1  0.50000000  0.95780000  0.20900000  1.0 0.0928980669
H  H77  1  0.95780000  0.33320000  0.20900000  1.0 0.0928980669
H  H78  1  0.50000000  0.20900000  0.33320000  1.0 0.0928980669
H  H79  1  0.33320000  0.95780000  0.50000000  1.0 0.0928980669
H  H80  1  0.20900000  0.50000000  0.95780000  1.0 0.0928980669
H  H81  1  0.20900000  0.95780000  0.33320000  1.0 0.0928980669
H  H82  1  0.33320000  0.50000000  0.20900000  1.0 0.0928980669
H  H83  1  0.50000000  0.33320000  0.95780000  1.0 0.0928980669
H  H84  1  0.95780000  0.20900000  0.50000000  1.0 0.0928980669
H  H85  1  0.66680000  0.79100000  0.50000000  1.0 0.0928980669
H  H86  1  0.79100000  0.66680000  0.04220000  1.0 0.0928980669
H  H87  1  0.04220000  0.50000000  0.79100000  1.0 0.0928980669
H  H88  1  0.50000000  0.04220000  0.66680000  1.0 0.0928980669
H  H89  1  0.04220000  0.66680000  0.50000000  1.0 0.0928980669
H  H90  1  0.50000000  0.79100000  0.04220000  1.0 0.0928980669
H  H91  1  0.66680000  0.04220000  0.79100000  1.0 0.0928980669
H  H92  1  0.79100000  0.50000000  0.66680000  1.0 0.0928980669
H  H93  1  0.79100000  0.04220000  0.50000000  1.0 0.0928980669
H  H94  1  0.66680000  0.50000000  0.04220000  1.0 0.0928980669
H  H95  1  0.50000000  0.66680000  0.79100000  1.0 0.0928980669
H  H96  1  0.04220000  0.79100000  0.66680000  1.0 0.0928980669
H  H97  1  0.66680000  0.79100000  0.04220000  1.0 0.0928980669
H  H98  1  0.79100000  0.66680000  0.50000000  1.0 0.0928980669
H  H99  1  0.04220000  0.50000000  0.66680000  1.0 0.0928980669
H  H100  1  0.50000000  0.04220000  0.79100000  1.0 0.0928980669
H  H101  1  0.04220000  0.66680000  0.79100000  1.0 0.0928980669
H  H102  1  0.50000000  0.79100000  0.66680000  1.0 0.0928980669
H  H103  1  0.66680000  0.04220000  0.50000000  1.0 0.0928980669
H  H104  1  0.79100000  0.50000000  0.04220000  1.0 0.0928980669
H  H105  1  0.79100000  0.04220000  0.66680000  1.0 0.0928980669
H  H106  1  0.66680000  0.50000000  0.79100000  1.0 0.0928980669
H  H107  1  0.50000000  0.66680000  0.04220000  1.0 0.0928980669
H  H108  1  0.04220000  0.79100000  0.50000000  1.0 0.0928980669
H  H109  1  0.33320000  0.20900000  0.50000000  1.0 0.0928980669
H  H110  1  0.20900000  0.33320000  0.95780000  1.0 0.0928980669
H  H111  1  0.95780000  0.50000000  0.20900000  1.0 0.0928980669
H  H112  1  0.50000000  0.95780000  0.33320000  1.0 0.0928980669
H  H113  1  0.95780000  0.33320000  0.50000000  1.0 0.0928980669
H  H114  1  0.50000000  0.20900000  0.95780000  1.0 0.0928980669
H  H115  1  0.33320000  0.95780000  0.20900000  1.0 0.0928980669
H  H116  1  0.20900000  0.50000000  0.33320000  1.0 0.0928980669
H  H117  1  0.20900000  0.95780000  0.50000000  1.0 0.0928980669
H  H118  1  0.33320000  0.50000000  0.95780000  1.0 0.0928980669
H  H119  1  0.50000000  0.33320000  0.20900000  1.0 0.0928980669
H  H120  1  0.95780000  0.20900000  0.33320000  1.0 0.0928980669
H  H121  1  0.16130000  0.29050000  0.97630000  1.0 0.0928980669
H  H122  1  0.29050000  0.16130000  0.57190000  1.0 0.0928980669
H  H123  1  0.97630000  0.57190000  0.16130000  1.0 0.0928980669
H  H124  1  0.57190000  0.97630000  0.29050000  1.0 0.0928980669
H  H125  1  0.97630000  0.16130000  0.29050000  1.0 0.0928980669
H  H126  1  0.57190000  0.29050000  0.16130000  1.0 0.0928980669
H  H127  1  0.16130000  0.97630000  0.57190000  1.0 0.0928980669
H  H128  1  0.29050000  0.57190000  0.97630000  1.0 0.0928980669
H  H129  1  0.29050000  0.97630000  0.16130000  1.0 0.0928980669
H  H130  1  0.16130000  0.57190000  0.29050000  1.0 0.0928980669
H  H131  1  0.57190000  0.16130000  0.97630000  1.0 0.0928980669
H  H132  1  0.97630000  0.29050000  0.57190000  1.0 0.0928980669
H  H133  1  0.83870000  0.70950000  0.42810000  1.0 0.0928980669
H  H134  1  0.70950000  0.83870000  0.02370000  1.0 0.0928980669
H  H135  1  0.02370000  0.42810000  0.70950000  1.0 0.0928980669
H  H136  1  0.42810000  0.02370000  0.83870000  1.0 0.0928980669
H  H137  1  0.02370000  0.83870000  0.42810000  1.0 0.0928980669
H  H138  1  0.42810000  0.70950000  0.02370000  1.0 0.0928980669
H  H139  1  0.83870000  0.02370000  0.70950000  1.0 0.0928980669
H  H140  1  0.70950000  0.42810000  0.83870000  1.0 0.0928980669
H  H141  1  0.70950000  0.02370000  0.42810000  1.0 0.0928980669
H  H142  1  0.83870000  0.42810000  0.02370000  1.0 0.0928980669
H  H143  1  0.42810000  0.83870000  0.70950000  1.0 0.0928980669
H  H144  1  0.02370000  0.70950000  0.83870000  1.0 0.0928980669
H  H145  1  0.83870000  0.70950000  0.02370000  1.0 0.0928980669
H  H146  1  0.70950000  0.83870000  0.42810000  1.0 0.0928980669
H  H147  1  0.02370000  0.42810000  0.83870000  1.0 0.0928980669
H  H148  1  0.42810000  0.02370000  0.70950000  1.0 0.0928980669
H  H149  1  0.02370000  0.83870000  0.70950000  1.0 0.0928980669
H  H150  1  0.42810000  0.70950000  0.83870000  1.0 0.0928980669
H  H151  1  0.83870000  0.02370000  0.42810000  1.0 0.0928980669
H  H152  1  0.70950000  0.42810000  0.02370000  1.0 0.0928980669
H  H153  1  0.70950000  0.02370000  0.83870000  1.0 0.0928980669
H  H154  1  0.83870000  0.42810000  0.70950000  1.0 0.0928980669
H  H155  1  0.42810000  0.83870000  0.02370000  1.0 0.0928980669
H  H156  1  0.02370000  0.70950000  0.42810000  1.0 0.0928980669
H  H157  1  0.16130000  0.29050000  0.57190000  1.0 0.0928980669
H  H158  1  0.29050000  0.16130000  0.97630000  1.0 0.0928980669
H  H159  1  0.97630000  0.57190000  0.29050000  1.0 0.0928980669
H  H160  1  0.57190000  0.97630000  0.16130000  1.0 0.0928980669
H  H161  1  0.97630000  0.16130000  0.57190000  1.0 0.0928980669
H  H162  1  0.57190000  0.29050000  0.97630000  1.0 0.0928980669
H  H163  1  0.16130000  0.97630000  0.29050000  1.0 0.0928980669
H  H164  1  0.29050000  0.57190000  0.16130000  1.0 0.0928980669
H  H165  1  0.29050000  0.97630000  0.57190000  1.0 0.0928980669
H  H166  1  0.16130000  0.57190000  0.97630000  1.0 0.0928980669
H  H167  1  0.57190000  0.16130000  0.29050000  1.0 0.0928980669
H  H168  1  0.97630000  0.29050000  0.16130000  1.0 0.0928980669
H  H169  1  0.34500000  0.22120000  0.92360000  1.0 0.0952291579
H  H170  1  0.22120000  0.34500000  0.51020000  1.0 0.0928980669
H  H171  1  0.92360000  0.51020000  0.34500000  1.0 0.0928980669
H  H172  1  0.51020000  0.92360000  0.22120000  1.0 0.0952291579
H  H173  1  0.92360000  0.34500000  0.22120000  1.0 0.0928980669
H  H174  1  0.51020000  0.22120000  0.34500000  1.0 0.0928980669
H  H175  1  0.34500000  0.92360000  0.51020000  1.0 0.0928980669
H  H176  1  0.22120000  0.51020000  0.92360000  1.0 0.0952291579
H  H177  1  0.22120000  0.92360000  0.34500000  1.0 0.0928980669
H  H178  1  0.34500000  0.51020000  0.22120000  1.0 0.0928980669
H  H179  1  0.51020000  0.34500000  0.92360000  1.0 0.0952291579
H  H180  1  0.92360000  0.22120000  0.51020000  1.0 0.0928980669
H  H181  1  0.65500000  0.77880000  0.48980000  1.0 0.0928980669
H  H182  1  0.77880000  0.65500000  0.07640000  1.0 0.0928980669
H  H183  1  0.07640000  0.48980000  0.77880000  1.0 0.0952291579
H  H184  1  0.48980000  0.07640000  0.65500000  1.0 0.0952291579
H  H185  1  0.07640000  0.65500000  0.48980000  1.0 0.0952291579
H  H186  1  0.48980000  0.77880000  0.07640000  1.0 0.0928980669
H  H187  1  0.65500000  0.07640000  0.77880000  1.0 0.0928980669
H  H188  1  0.77880000  0.48980000  0.65500000  1.0 0.0928980669
H  H189  1  0.77880000  0.07640000  0.48980000  1.0 0.0952291579
H  H190  1  0.65500000  0.48980000  0.07640000  1.0 0.0928980669
H  H191  1  0.48980000  0.65500000  0.77880000  1.0 0.0928980669
H  H192  1  0.07640000  0.77880000  0.65500000  1.0 0.0928980669
H  H193  1  0.65500000  0.77880000  0.07640000  1.0 0.0928980669
H  H194  1  0.77880000  0.65500000  0.48980000  1.0 0.0928980669
H  H195  1  0.07640000  0.48980000  0.65500000  1.0 0.0928980669
H  H196  1  0.48980000  0.07640000  0.77880000  1.0 0.0952291579
H  H197  1  0.07640000  0.65500000  0.77880000  1.0 0.0928980669
H  H198  1  0.48980000  0.77880000  0.65500000  1.0 0.0928980669
H  H199  1  0.65500000  0.07640000  0.48980000  1.0 0.0928980669
H  H200  1  0.77880000  0.48980000  0.07640000  1.0 0.0928980669
H  H201  1  0.77880000  0.07640000  0.65500000  1.0 0.0928980669
H  H202  1  0.65500000  0.48980000  0.77880000  1.0 0.0952291579
H  H203  1  0.48980000  0.65500000  0.07640000  1.0 0.0928980669
H  H204  1  0.07640000  0.77880000  0.48980000  1.0 0.0952291579
H  H205  1  0.34500000  0.22120000  0.51020000  1.0 0.0928980669
H  H206  1  0.22120000  0.34500000  0.92360000  1.0 0.0952291579
H  H207  1  0.92360000  0.51020000  0.22120000  1.0 0.0952291579
H  H208  1  0.51020000  0.92360000  0.34500000  1.0 0.0928980669
H  H209  1  0.92360000  0.34500000  0.51020000  1.0 0.0928980669
H  H210  1  0.51020000  0.22120000  0.92360000  1.0 0.0952291579
H  H211  1  0.34500000  0.92360000  0.22120000  1.0 0.0928980669
H  H212  1  0.22120000  0.51020000  0.34500000  1.0 0.0928980669
H  H213  1  0.22120000  0.92360000  0.51020000  1.0 0.0928980669
H  H214  1  0.34500000  0.51020000  0.92360000  1.0 0.0952291579
H  H215  1  0.51020000  0.34500000  0.22120000  1.0 0.0928980669
H  H216  1  0.92360000  0.22120000  0.34500000  1.0 0.0928980669
C  C1  1  0.09698000  0.25420000  0.98448000  1.0 0.5234527964
C  C2  1  0.25420000  0.09698000  0.66434000  1.0 0.5234527964
C  C3  1  0.98448000  0.66434000  0.09698000  1.0 0.5234527964
C  C4  1  0.66434000  0.98448000  0.25420000  1.0 0.5234527964
C  C5  1  0.98448000  0.09698000  0.25420000  1.0 0.5234527964
C  C6  1  0.66434000  0.25420000  0.09698000  1.0 0.5234527964
C  C7  1  0.09698000  0.98448000  0.66434000  1.0 0.5234527964
C  C8  1  0.25420000  0.66434000  0.98448000  1.0 0.5234527964
C  C9  1  0.25420000  0.98448000  0.09698000  1.0 0.5234527964
C  C10  1  0.09698000  0.66434000  0.25420000  1.0 0.5234527964
C  C11  1  0.66434000  0.09698000  0.98448000  1.0 0.5234527964
C  C12  1  0.98448000  0.25420000  0.66434000  1.0 0.5234527964
C  C13  1  0.90302000  0.74580000  0.33566000  1.0 0.5234527964
C  C14  1  0.74580000  0.90302000  0.01552000  1.0 0.5234527964
C  C15  1  0.01552000  0.33566000  0.74580000  1.0 0.5234527964
C  C16  1  0.33566000  0.01552000  0.90302000  1.0 0.5234527964
C  C17  1  0.01552000  0.90302000  0.33566000  1.0 0.5234527964
C  C18  1  0.33566000  0.74580000  0.01552000  1.0 0.5234527964
C  C19  1  0.90302000  0.01552000  0.74580000  1.0 0.5234527964
C  C20  1  0.74580000  0.33566000  0.90302000  1.0 0.5234527964
C  C21  1  0.74580000  0.01552000  0.33566000  1.0 0.5234527964
C  C22  1  0.90302000  0.33566000  0.01552000  1.0 0.5234527964
C  C23  1  0.33566000  0.90302000  0.74580000  1.0 0.5234527964
C  C24  1  0.01552000  0.74580000  0.90302000  1.0 0.5234527964
C  C25  1  0.90302000  0.74580000  0.01552000  1.0 0.5234527964
C  C26  1  0.74580000  0.90302000  0.33566000  1.0 0.5234527964
C  C27  1  0.01552000  0.33566000  0.90302000  1.0 0.5234527964
C  C28  1  0.33566000  0.01552000  0.74580000  1.0 0.5234527964
C  C29  1  0.01552000  0.90302000  0.74580000  1.0 0.5234527964
C  C30  1  0.33566000  0.74580000  0.90302000  1.0 0.5234527964
C  C31  1  0.90302000  0.01552000  0.33566000  1.0 0.5234527964
C  C32  1  0.74580000  0.33566000  0.01552000  1.0 0.5234527964
C  C33  1  0.74580000  0.01552000  0.90302000  1.0 0.5234527964
C  C34  1  0.90302000  0.33566000  0.74580000  1.0 0.5234527964
C  C35  1  0.33566000  0.90302000  0.01552000  1.0 0.5234527964
C  C36  1  0.01552000  0.74580000  0.33566000  1.0 0.5234527964
C  C37  1  0.09698000  0.25420000  0.66434000  1.0 0.5234527964
C  C38  1  0.25420000  0.09698000  0.98448000  1.0 0.5234527964
C  C39  1  0.98448000  0.66434000  0.25420000  1.0 0.5234527964
C  C40  1  0.66434000  0.98448000  0.09698000  1.0 0.5234527964
C  C41  1  0.98448000  0.09698000  0.66434000  1.0 0.5234527964
C  C42  1  0.66434000  0.25420000  0.98448000  1.0 0.5234527964
C  C43  1  0.09698000  0.98448000  0.25420000  1.0 0.5234527964
C  C44  1  0.25420000  0.66434000  0.09698000  1.0 0.5234527964
C  C45  1  0.25420000  0.98448000  0.66434000  1.0 0.5234527964
C  C46  1  0.09698000  0.66434000  0.98448000  1.0 0.5234527964
C  C47  1  0.66434000  0.09698000  0.25420000  1.0 0.5234527964
C  C48  1  0.98448000  0.25420000  0.09698000  1.0 0.5234527964
C  C49  1  0.15286000  0.23068000  0.97614000  1.0 -0.0121023782
C  C50  1  0.23068000  0.15286000  0.64032000  1.0 -0.0121023782
C  C51  1  0.97614000  0.64032000  0.15286000  1.0 -0.0121023782
C  C52  1  0.64032000  0.97614000  0.23068000  1.0 -0.0121023782
C  C53  1  0.97614000  0.15286000  0.23068000  1.0 -0.0121023782
C  C54  1  0.64032000  0.23068000  0.15286000  1.0 -0.0121023782
C  C55  1  0.15286000  0.97614000  0.64032000  1.0 -0.0121023782
C  C56  1  0.23068000  0.64032000  0.97614000  1.0 -0.0121023782
C  C57  1  0.23068000  0.97614000  0.15286000  1.0 -0.0121023782
C  C58  1  0.15286000  0.64032000  0.23068000  1.0 -0.0121023782
C  C59  1  0.64032000  0.15286000  0.97614000  1.0 -0.0121023782
C  C60  1  0.97614000  0.23068000  0.64032000  1.0 -0.0121023782
C  C61  1  0.84714000  0.76932000  0.35968000  1.0 -0.0121023782
C  C62  1  0.76932000  0.84714000  0.02386000  1.0 -0.0121023782
C  C63  1  0.02386000  0.35968000  0.76932000  1.0 -0.0121023782
C  C64  1  0.35968000  0.02386000  0.84714000  1.0 -0.0121023782
C  C65  1  0.02386000  0.84714000  0.35968000  1.0 -0.0121023782
C  C66  1  0.35968000  0.76932000  0.02386000  1.0 -0.0121023782
C  C67  1  0.84714000  0.02386000  0.76932000  1.0 -0.0121023782
C  C68  1  0.76932000  0.35968000  0.84714000  1.0 -0.0121023782
C  C69  1  0.76932000  0.02386000  0.35968000  1.0 -0.0121023782
C  C70  1  0.84714000  0.35968000  0.02386000  1.0 -0.0121023782
C  C71  1  0.35968000  0.84714000  0.76932000  1.0 -0.0121023782
C  C72  1  0.02386000  0.76932000  0.84714000  1.0 -0.0121023782
C  C73  1  0.84714000  0.76932000  0.02386000  1.0 -0.0121023782
C  C74  1  0.76932000  0.84714000  0.35968000  1.0 -0.0121023782
C  C75  1  0.02386000  0.35968000  0.84714000  1.0 -0.0121023782
C  C76  1  0.35968000  0.02386000  0.76932000  1.0 -0.0121023782
C  C77  1  0.02386000  0.84714000  0.76932000  1.0 -0.0121023782
C  C78  1  0.35968000  0.76932000  0.84714000  1.0 -0.0121023782
C  C79  1  0.84714000  0.02386000  0.35968000  1.0 -0.0121023782
C  C80  1  0.76932000  0.35968000  0.02386000  1.0 -0.0121023782
C  C81  1  0.76932000  0.02386000  0.84714000  1.0 -0.0121023782
C  C82  1  0.84714000  0.35968000  0.76932000  1.0 -0.0121023782
C  C83  1  0.35968000  0.84714000  0.02386000  1.0 -0.0121023782
C  C84  1  0.02386000  0.76932000  0.35968000  1.0 -0.0121023782
C  C85  1  0.15286000  0.23068000  0.64032000  1.0 -0.0121023782
C  C86  1  0.23068000  0.15286000  0.97614000  1.0 -0.0121023782
C  C87  1  0.97614000  0.64032000  0.23068000  1.0 -0.0121023782
C  C88  1  0.64032000  0.97614000  0.15286000  1.0 -0.0121023782
C  C89  1  0.97614000  0.15286000  0.64032000  1.0 -0.0121023782
C  C90  1  0.64032000  0.23068000  0.97614000  1.0 -0.0121023782
C  C91  1  0.15286000  0.97614000  0.23068000  1.0 -0.0121023782
C  C92  1  0.23068000  0.64032000  0.15286000  1.0 -0.0121023782
C  C93  1  0.23068000  0.97614000  0.64032000  1.0 -0.0121023782
C  C94  1  0.15286000  0.64032000  0.97614000  1.0 -0.0121023782
C  C95  1  0.64032000  0.15286000  0.23068000  1.0 -0.0121023782
C  C96  1  0.97614000  0.23068000  0.15286000  1.0 -0.0121023782
C  C97  1  0.18612000  0.25932000  0.95748000  1.0 -0.1010255483
C  C98  1  0.25932000  0.18612000  0.59708000  1.0 -0.1010255483
C  C99  1  0.95748000  0.59708000  0.18612000  1.0 -0.1010255483
C  C100  1  0.59708000  0.95748000  0.25932000  1.0 -0.1010255483
C  C101  1  0.95748000  0.18612000  0.25932000  1.0 -0.1010255483
C  C102  1  0.59708000  0.25932000  0.18612000  1.0 -0.1010255483
C  C103  1  0.18612000  0.95748000  0.59708000  1.0 -0.1010255483
C  C104  1  0.25932000  0.59708000  0.95748000  1.0 -0.1010255483
C  C105  1  0.25932000  0.95748000  0.18612000  1.0 -0.1010255483
C  C106  1  0.18612000  0.59708000  0.25932000  1.0 -0.1010255483
C  C107  1  0.59708000  0.18612000  0.95748000  1.0 -0.1010255483
C  C108  1  0.95748000  0.25932000  0.59708000  1.0 -0.1010255483
C  C109  1  0.81388000  0.74068000  0.40292000  1.0 -0.1010255483
C  C110  1  0.74068000  0.81388000  0.04252000  1.0 -0.1010255483
C  C111  1  0.04252000  0.40292000  0.74068000  1.0 -0.1010255483
C  C112  1  0.40292000  0.04252000  0.81388000  1.0 -0.1010255483
C  C113  1  0.04252000  0.81388000  0.40292000  1.0 -0.1010255483
C  C114  1  0.40292000  0.74068000  0.04252000  1.0 -0.1010255483
C  C115  1  0.81388000  0.04252000  0.74068000  1.0 -0.1010255483
C  C116  1  0.74068000  0.40292000  0.81388000  1.0 -0.1010255483
C  C117  1  0.74068000  0.04252000  0.40292000  1.0 -0.1010255483
C  C118  1  0.81388000  0.40292000  0.04252000  1.0 -0.1010255483
C  C119  1  0.40292000  0.81388000  0.74068000  1.0 -0.1010255483
C  C120  1  0.04252000  0.74068000  0.81388000  1.0 -0.1010255483
C  C121  1  0.81388000  0.74068000  0.04252000  1.0 -0.1010255483
C  C122  1  0.74068000  0.81388000  0.40292000  1.0 -0.1010255483
C  C123  1  0.04252000  0.40292000  0.81388000  1.0 -0.1010255483
C  C124  1  0.40292000  0.04252000  0.74068000  1.0 -0.1010255483
C  C125  1  0.04252000  0.81388000  0.74068000  1.0 -0.1010255483
C  C126  1  0.40292000  0.74068000  0.81388000  1.0 -0.1010255483
C  C127  1  0.81388000  0.04252000  0.40292000  1.0 -0.1010255483
C  C128  1  0.74068000  0.40292000  0.04252000  1.0 -0.1010255483
C  C129  1  0.74068000  0.04252000  0.81388000  1.0 -0.1010255483
C  C130  1  0.81388000  0.40292000  0.74068000  1.0 -0.1010255483
C  C131  1  0.40292000  0.81388000  0.04252000  1.0 -0.1010255483
C  C132  1  0.04252000  0.74068000  0.40292000  1.0 -0.1010255483
C  C133  1  0.18612000  0.25932000  0.59708000  1.0 -0.1010255483
C  C134  1  0.25932000  0.18612000  0.95748000  1.0 -0.1010255483
C  C135  1  0.95748000  0.59708000  0.25932000  1.0 -0.1010255483
C  C136  1  0.59708000  0.95748000  0.18612000  1.0 -0.1010255483
C  C137  1  0.95748000  0.18612000  0.59708000  1.0 -0.1010255483
C  C138  1  0.59708000  0.25932000  0.95748000  1.0 -0.1010255483
C  C139  1  0.18612000  0.95748000  0.25932000  1.0 -0.1010255483
C  C140  1  0.25932000  0.59708000  0.18612000  1.0 -0.1010255483
C  C141  1  0.25932000  0.95748000  0.59708000  1.0 -0.1010255483
C  C142  1  0.18612000  0.59708000  0.95748000  1.0 -0.1010255483
C  C143  1  0.59708000  0.18612000  0.25932000  1.0 -0.1010255483
C  C144  1  0.95748000  0.25932000  0.18612000  1.0 -0.1010255483
C  C145  1  0.17714000  0.17714000  0.98096000  1.0 -0.1782042792
C  C146  1  0.17714000  0.17714000  0.66476000  1.0 -0.1782042792
C  C147  1  0.98096000  0.66476000  0.17714000  1.0 -0.1782042792
C  C148  1  0.66476000  0.98096000  0.17714000  1.0 -0.1782042792
C  C149  1  0.98096000  0.17714000  0.17714000  1.0 -0.1782042792
C  C150  1  0.66476000  0.17714000  0.17714000  1.0 -0.1782042792
C  C151  1  0.17714000  0.98096000  0.66476000  1.0 -0.1782042792
C  C152  1  0.17714000  0.66476000  0.98096000  1.0 -0.1717676718
C  C153  1  0.17714000  0.98096000  0.17714000  1.0 -0.1782042792
C  C154  1  0.17714000  0.66476000  0.17714000  1.0 -0.1782042792
C  C155  1  0.66476000  0.17714000  0.98096000  1.0 -0.1782042792
C  C156  1  0.98096000  0.17714000  0.66476000  1.0 -0.1782042792
C  C157  1  0.82286000  0.82286000  0.33524000  1.0 -0.1782042792
C  C158  1  0.82286000  0.82286000  0.01904000  1.0 -0.1782042792
C  C159  1  0.01904000  0.33524000  0.82286000  1.0 -0.1717676718
C  C160  1  0.33524000  0.01904000  0.82286000  1.0 -0.1782042792
C  C161  1  0.01904000  0.82286000  0.33524000  1.0 -0.1782042792
C  C162  1  0.33524000  0.82286000  0.01904000  1.0 -0.1782042792
C  C163  1  0.82286000  0.01904000  0.82286000  1.0 -0.1782042792
C  C164  1  0.82286000  0.33524000  0.82286000  1.0 -0.1782042792
C  C165  1  0.82286000  0.01904000  0.33524000  1.0 -0.1782042792
C  C166  1  0.82286000  0.33524000  0.01904000  1.0 -0.1782042792
C  C167  1  0.33524000  0.82286000  0.82286000  1.0 -0.1782042792
C  C168  1  0.01904000  0.82286000  0.82286000  1.0 -0.1782042792
C  C169  1  0.23900000  0.23900000  0.94840000  1.0 0.0392680574
C  C170  1  0.23900000  0.23900000  0.57360000  1.0 0.0392680574
C  C171  1  0.94840000  0.57360000  0.23900000  1.0 0.0392680574
C  C172  1  0.57360000  0.94840000  0.23900000  1.0 0.0392680574
C  C173  1  0.94840000  0.23900000  0.23900000  1.0 0.0392680574
C  C174  1  0.57360000  0.23900000  0.23900000  1.0 0.0392680574
C  C175  1  0.23900000  0.94840000  0.57360000  1.0 0.0392680574
C  C176  1  0.23900000  0.57360000  0.94840000  1.0 0.0392680574
C  C177  1  0.23900000  0.94840000  0.23900000  1.0 0.0392680574
C  C178  1  0.23900000  0.57360000  0.23900000  1.0 0.0392680574
C  C179  1  0.57360000  0.23900000  0.94840000  1.0 0.0392680574
C  C180  1  0.94840000  0.23900000  0.57360000  1.0 0.0392680574
C  C181  1  0.76100000  0.76100000  0.42640000  1.0 0.0392680574
C  C182  1  0.76100000  0.76100000  0.05160000  1.0 0.0392680574
C  C183  1  0.05160000  0.42640000  0.76100000  1.0 0.0392680574
C  C184  1  0.42640000  0.05160000  0.76100000  1.0 0.0392680574
C  C185  1  0.05160000  0.76100000  0.42640000  1.0 0.0392680574
C  C186  1  0.42640000  0.76100000  0.05160000  1.0 0.0392680574
C  C187  1  0.76100000  0.05160000  0.76100000  1.0 0.0392680574
C  C188  1  0.76100000  0.42640000  0.76100000  1.0 0.0392680574
C  C189  1  0.76100000  0.05160000  0.42640000  1.0 0.0392680574
C  C190  1  0.76100000  0.42640000  0.05160000  1.0 0.0392680574
C  C191  1  0.42640000  0.76100000  0.76100000  1.0 0.0392680574
C  C192  1  0.05160000  0.76100000  0.76100000  1.0 0.0392680574
C  C193  1  0.27090000  0.27090000  0.93410000  1.0 0.0392680574
C  C194  1  0.27090000  0.27090000  0.52410000  1.0 0.0341122977
C  C195  1  0.93410000  0.52410000  0.27090000  1.0 0.0392680574
C  C196  1  0.52410000  0.93410000  0.27090000  1.0 0.0341122977
C  C197  1  0.93410000  0.27090000  0.27090000  1.0 0.0341122977
C  C198  1  0.52410000  0.27090000  0.27090000  1.0 0.0341122977
C  C199  1  0.27090000  0.93410000  0.52410000  1.0 0.0341122977
C  C200  1  0.27090000  0.52410000  0.93410000  1.0 0.0341122977
C  C201  1  0.27090000  0.93410000  0.27090000  1.0 0.0341122977
C  C202  1  0.27090000  0.52410000  0.27090000  1.0 0.0392680574
C  C203  1  0.52410000  0.27090000  0.93410000  1.0 0.0341122977
C  C204  1  0.93410000  0.27090000  0.52410000  1.0 0.0392680574
C  C205  1  0.72910000  0.72910000  0.47590000  1.0 0.0341122977
C  C206  1  0.72910000  0.72910000  0.06590000  1.0 0.0341122977
C  C207  1  0.06590000  0.47590000  0.72910000  1.0 0.0392680574
C  C208  1  0.47590000  0.06590000  0.72910000  1.0 0.0341122977
C  C209  1  0.06590000  0.72910000  0.47590000  1.0 0.0392680574
C  C210  1  0.47590000  0.72910000  0.06590000  1.0 0.0341122977
C  C211  1  0.72910000  0.06590000  0.72910000  1.0 0.0392680574
C  C212  1  0.72910000  0.47590000  0.72910000  1.0 0.0392680574
C  C213  1  0.72910000  0.06590000  0.47590000  1.0 0.0341122977
C  C214  1  0.72910000  0.47590000  0.06590000  1.0 0.0341122977
C  C215  1  0.47590000  0.72910000  0.72910000  1.0 0.0341122977
C  C216  1  0.06590000  0.72910000  0.72910000  1.0 0.0341122977
C  C217  1  0.22920000  0.22920000  0.97580000  1.0 -0.0203454193
C  C218  1  0.22920000  0.22920000  0.56580000  1.0 -0.0203454193
C  C219  1  0.97580000  0.56580000  0.22920000  1.0 -0.0121023782
C  C220  1  0.56580000  0.97580000  0.22920000  1.0 -0.0121023782
C  C221  1  0.97580000  0.22920000  0.22920000  1.0 -0.0203454193
C  C222  1  0.56580000  0.22920000  0.22920000  1.0 -0.0203454193
C  C223  1  0.22920000  0.97580000  0.56580000  1.0 -0.0121023782
C  C224  1  0.22920000  0.56580000  0.97580000  1.0 -0.0203454193
C  C225  1  0.22920000  0.97580000  0.22920000  1.0 -0.0121023782
C  C226  1  0.22920000  0.56580000  0.22920000  1.0 -0.0203454193
C  C227  1  0.56580000  0.22920000  0.97580000  1.0 -0.0203454193
C  C228  1  0.97580000  0.22920000  0.56580000  1.0 -0.0121023782
C  C229  1  0.77080000  0.77080000  0.43420000  1.0 -0.0121023782
C  C230  1  0.77080000  0.77080000  0.02420000  1.0 -0.0121023782
C  C231  1  0.02420000  0.43420000  0.77080000  1.0 -0.0121023782
C  C232  1  0.43420000  0.02420000  0.77080000  1.0 -0.0203454193
C  C233  1  0.02420000  0.77080000  0.43420000  1.0 -0.0203454193
C  C234  1  0.43420000  0.77080000  0.02420000  1.0 -0.0121023782
C  C235  1  0.77080000  0.02420000  0.77080000  1.0 -0.0203454193
C  C236  1  0.77080000  0.43420000  0.77080000  1.0 -0.0121023782
C  C237  1  0.77080000  0.02420000  0.43420000  1.0 -0.0121023782
C  C238  1  0.77080000  0.43420000  0.02420000  1.0 -0.0121023782
C  C239  1  0.43420000  0.77080000  0.77080000  1.0 -0.0121023782
C  C240  1  0.02420000  0.77080000  0.77080000  1.0 -0.0203454193
C  C241  1  0.26040000  0.26040000  0.96360000  1.0 -0.0121023782
C  C242  1  0.26040000  0.26040000  0.51560000  1.0 -0.0121023782
C  C243  1  0.96360000  0.51560000  0.26040000  1.0 -0.0121023782
C  C244  1  0.51560000  0.96360000  0.26040000  1.0 -0.0121023782
C  C245  1  0.96360000  0.26040000  0.26040000  1.0 -0.0121023782
C  C246  1  0.51560000  0.26040000  0.26040000  1.0 -0.0121023782
C  C247  1  0.26040000  0.96360000  0.51560000  1.0 -0.0121023782
C  C248  1  0.26040000  0.51560000  0.96360000  1.0 -0.0121023782
C  C249  1  0.26040000  0.96360000  0.26040000  1.0 -0.0121023782
C  C250  1  0.26040000  0.51560000  0.26040000  1.0 -0.0121023782
C  C251  1  0.51560000  0.26040000  0.96360000  1.0 -0.0121023782
C  C252  1  0.96360000  0.26040000  0.51560000  1.0 -0.0121023782
C  C253  1  0.73960000  0.73960000  0.48440000  1.0 -0.0121023782
C  C254  1  0.73960000  0.73960000  0.03640000  1.0 -0.0121023782
C  C255  1  0.03640000  0.48440000  0.73960000  1.0 -0.0121023782
C  C256  1  0.48440000  0.03640000  0.73960000  1.0 -0.0121023782
C  C257  1  0.03640000  0.73960000  0.48440000  1.0 -0.0121023782
C  C258  1  0.48440000  0.73960000  0.03640000  1.0 -0.0121023782
C  C259  1  0.73960000  0.03640000  0.73960000  1.0 -0.0121023782
C  C260  1  0.73960000  0.48440000  0.73960000  1.0 -0.0121023782
C  C261  1  0.73960000  0.03640000  0.48440000  1.0 -0.0121023782
C  C262  1  0.73960000  0.48440000  0.03640000  1.0 -0.0121023782
C  C263  1  0.48440000  0.73960000  0.73960000  1.0 -0.0121023782
C  C264  1  0.03640000  0.73960000  0.73960000  1.0 -0.0121023782
C  C265  1  0.31000000  0.24300000  0.95740000  1.0 0.0161919759
C  C266  1  0.24300000  0.31000000  0.48960000  1.0 0.0161919759
C  C267  1  0.95740000  0.48960000  0.31000000  1.0 0.0161919759
C  C268  1  0.48960000  0.95740000  0.24300000  1.0 0.0161919759
C  C269  1  0.95740000  0.31000000  0.24300000  1.0 0.0161919759
C  C270  1  0.48960000  0.24300000  0.31000000  1.0 0.0115403844
C  C271  1  0.31000000  0.95740000  0.48960000  1.0 0.0161919759
C  C272  1  0.24300000  0.48960000  0.95740000  1.0 0.0161919759
C  C273  1  0.24300000  0.95740000  0.31000000  1.0 0.0161919759
C  C274  1  0.31000000  0.48960000  0.24300000  1.0 0.0161919759
C  C275  1  0.48960000  0.31000000  0.95740000  1.0 0.0161919759
C  C276  1  0.95740000  0.24300000  0.48960000  1.0 0.0161919759
C  C277  1  0.69000000  0.75700000  0.51040000  1.0 0.0161919759
C  C278  1  0.75700000  0.69000000  0.04260000  1.0 0.0161919759
C  C279  1  0.04260000  0.51040000  0.75700000  1.0 0.0161919759
C  C280  1  0.51040000  0.04260000  0.69000000  1.0 0.0115403844
C  C281  1  0.04260000  0.69000000  0.51040000  1.0 0.0161919759
C  C282  1  0.51040000  0.75700000  0.04260000  1.0 0.0161919759
C  C283  1  0.69000000  0.04260000  0.75700000  1.0 0.0161919759
C  C284  1  0.75700000  0.51040000  0.69000000  1.0 0.0161919759
C  C285  1  0.75700000  0.04260000  0.51040000  1.0 0.0161919759
C  C286  1  0.69000000  0.51040000  0.04260000  1.0 0.0161919759
C  C287  1  0.51040000  0.69000000  0.75700000  1.0 0.0161919759
C  C288  1  0.04260000  0.75700000  0.69000000  1.0 0.0161919759
C  C289  1  0.69000000  0.75700000  0.04260000  1.0 0.0161919759
C  C290  1  0.75700000  0.69000000  0.51040000  1.0 0.0161919759
C  C291  1  0.04260000  0.51040000  0.69000000  1.0 0.0161919759
C  C292  1  0.51040000  0.04260000  0.75700000  1.0 0.0115403844
C  C293  1  0.04260000  0.69000000  0.75700000  1.0 0.0161919759
C  C294  1  0.51040000  0.75700000  0.69000000  1.0 0.0161919759
C  C295  1  0.69000000  0.04260000  0.51040000  1.0 0.0161919759
C  C296  1  0.75700000  0.51040000  0.04260000  1.0 0.0161919759
C  C297  1  0.75700000  0.04260000  0.69000000  1.0 0.0161919759
C  C298  1  0.69000000  0.51040000  0.75700000  1.0 0.0161919759
C  C299  1  0.51040000  0.69000000  0.04260000  1.0 0.0161919759
C  C300  1  0.04260000  0.75700000  0.51040000  1.0 0.0161919759
C  C301  1  0.31000000  0.24300000  0.48960000  1.0 0.0161919759
C  C302  1  0.24300000  0.31000000  0.95740000  1.0 0.0115403844
C  C303  1  0.95740000  0.48960000  0.24300000  1.0 0.0161919759
C  C304  1  0.48960000  0.95740000  0.31000000  1.0 0.0161919759
C  C305  1  0.95740000  0.31000000  0.48960000  1.0 0.0161919759
C  C306  1  0.48960000  0.24300000  0.95740000  1.0 0.0161919759
C  C307  1  0.31000000  0.95740000  0.24300000  1.0 0.0161919759
C  C308  1  0.24300000  0.48960000  0.31000000  1.0 0.0161919759
C  C309  1  0.24300000  0.95740000  0.48960000  1.0 0.0161919759
C  C310  1  0.31000000  0.48960000  0.95740000  1.0 0.0161919759
C  C311  1  0.48960000  0.31000000  0.24300000  1.0 0.0161919759
C  C312  1  0.95740000  0.24300000  0.31000000  1.0 0.0161919759
C  C313  1  0.17820000  0.25600000  0.97600000  1.0 -0.1010255483
C  C314  1  0.25600000  0.17820000  0.58980000  1.0 -0.1010255483
C  C315  1  0.97600000  0.58980000  0.17820000  1.0 -0.1010255483
C  C316  1  0.58980000  0.97600000  0.25600000  1.0 -0.1010255483
C  C317  1  0.97600000  0.17820000  0.25600000  1.0 -0.1010255483
C  C318  1  0.58980000  0.25600000  0.17820000  1.0 -0.1010255483
C  C319  1  0.17820000  0.97600000  0.58980000  1.0 -0.1010255483
C  C320  1  0.25600000  0.58980000  0.97600000  1.0 -0.1010255483
C  C321  1  0.25600000  0.97600000  0.17820000  1.0 -0.1010255483
C  C322  1  0.17820000  0.58980000  0.25600000  1.0 -0.1010255483
C  C323  1  0.58980000  0.17820000  0.97600000  1.0 -0.1010255483
C  C324  1  0.97600000  0.25600000  0.58980000  1.0 -0.1010255483
C  C325  1  0.82180000  0.74400000  0.41020000  1.0 -0.1010255483
C  C326  1  0.74400000  0.82180000  0.02400000  1.0 -0.1010255483
C  C327  1  0.02400000  0.41020000  0.74400000  1.0 -0.1010255483
C  C328  1  0.41020000  0.02400000  0.82180000  1.0 -0.1010255483
C  C329  1  0.02400000  0.82180000  0.41020000  1.0 -0.1010255483
C  C330  1  0.41020000  0.74400000  0.02400000  1.0 -0.1010255483
C  C331  1  0.82180000  0.02400000  0.74400000  1.0 -0.1010255483
C  C332  1  0.74400000  0.41020000  0.82180000  1.0 -0.1010255483
C  C333  1  0.74400000  0.02400000  0.41020000  1.0 -0.1010255483
C  C334  1  0.82180000  0.41020000  0.02400000  1.0 -0.1010255483
C  C335  1  0.41020000  0.82180000  0.74400000  1.0 -0.1010255483
C  C336  1  0.02400000  0.74400000  0.82180000  1.0 -0.1010255483
C  C337  1  0.82180000  0.74400000  0.02400000  1.0 -0.1010255483
C  C338  1  0.74400000  0.82180000  0.41020000  1.0 -0.1010255483
C  C339  1  0.02400000  0.41020000  0.82180000  1.0 -0.1010255483
C  C340  1  0.41020000  0.02400000  0.74400000  1.0 -0.1010255483
C  C341  1  0.02400000  0.82180000  0.74400000  1.0 -0.1010255483
C  C342  1  0.41020000  0.74400000  0.82180000  1.0 -0.1010255483
C  C343  1  0.82180000  0.02400000  0.41020000  1.0 -0.1010255483
C  C344  1  0.74400000  0.41020000  0.02400000  1.0 -0.1010255483
C  C345  1  0.74400000  0.02400000  0.82180000  1.0 -0.1010255483
C  C346  1  0.82180000  0.41020000  0.74400000  1.0 -0.1010255483
C  C347  1  0.41020000  0.82180000  0.02400000  1.0 -0.1010255483
C  C348  1  0.02400000  0.74400000  0.41020000  1.0 -0.1010255483
C  C349  1  0.17820000  0.25600000  0.58980000  1.0 -0.1010255483
C  C350  1  0.25600000  0.17820000  0.97600000  1.0 -0.1010255483
C  C351  1  0.97600000  0.58980000  0.25600000  1.0 -0.1010255483
C  C352  1  0.58980000  0.97600000  0.17820000  1.0 -0.1010255483
C  C353  1  0.97600000  0.17820000  0.58980000  1.0 -0.1010255483
C  C354  1  0.58980000  0.25600000  0.97600000  1.0 -0.1010255483
C  C355  1  0.17820000  0.97600000  0.25600000  1.0 -0.1010255483
C  C356  1  0.25600000  0.58980000  0.17820000  1.0 -0.1010255483
C  C357  1  0.25600000  0.97600000  0.58980000  1.0 -0.1010255483
C  C358  1  0.17820000  0.58980000  0.97600000  1.0 -0.1010255483
C  C359  1  0.58980000  0.17820000  0.25600000  1.0 -0.1010255483
C  C360  1  0.97600000  0.25600000  0.17820000  1.0 -0.1010255483
N  N1  1  0.32130000  0.25470000  0.92490000  1.0 -0.0203454193
N  N2  1  0.25470000  0.32130000  0.49910000  1.0 -0.0279104802
N  N3  1  0.92490000  0.49910000  0.32130000  1.0 -0.0279104802
N  N4  1  0.49910000  0.92490000  0.25470000  1.0 -0.0203454193
N  N5  1  0.92490000  0.32130000  0.25470000  1.0 -0.0279104802
N  N6  1  0.49910000  0.25470000  0.32130000  1.0 -0.0203454193
N  N7  1  0.32130000  0.92490000  0.49910000  1.0 -0.0279104802
N  N8  1  0.25470000  0.49910000  0.92490000  1.0 -0.0279104802
N  N9  1  0.25470000  0.92490000  0.32130000  1.0 -0.0279104802
N  N10  1  0.32130000  0.49910000  0.25470000  1.0 -0.0279104802
N  N11  1  0.49910000  0.32130000  0.92490000  1.0 -0.0203454193
N  N12  1  0.92490000  0.25470000  0.49910000  1.0 -0.0279104802
N  N13  1  0.67870000  0.74530000  0.50090000  1.0 -0.0279104802
N  N14  1  0.74530000  0.67870000  0.07510000  1.0 -0.0279104802
N  N15  1  0.07510000  0.50090000  0.74530000  1.0 -0.0279104802
N  N16  1  0.50090000  0.07510000  0.67870000  1.0 -0.0203454193
N  N17  1  0.07510000  0.67870000  0.50090000  1.0 -0.0279104802
N  N18  1  0.50090000  0.74530000  0.07510000  1.0 -0.0279104802
N  N19  1  0.67870000  0.07510000  0.74530000  1.0 -0.0279104802
N  N20  1  0.74530000  0.50090000  0.67870000  1.0 -0.0279104802
N  N21  1  0.74530000  0.07510000  0.50090000  1.0 -0.0203454193
N  N22  1  0.67870000  0.50090000  0.07510000  1.0 -0.0279104802
N  N23  1  0.50090000  0.67870000  0.74530000  1.0 -0.0279104802
N  N24  1  0.07510000  0.74530000  0.67870000  1.0 -0.0279104802
N  N25  1  0.67870000  0.74530000  0.07510000  1.0 -0.0279104802
N  N26  1  0.74530000  0.67870000  0.50090000  1.0 -0.0279104802
N  N27  1  0.07510000  0.50090000  0.67870000  1.0 -0.0279104802
N  N28  1  0.50090000  0.07510000  0.74530000  1.0 -0.0279104802
N  N29  1  0.07510000  0.67870000  0.74530000  1.0 -0.0279104802
N  N30  1  0.50090000  0.74530000  0.67870000  1.0 -0.0279104802
N  N31  1  0.67870000  0.07510000  0.50090000  1.0 -0.0279104802
N  N32  1  0.74530000  0.50090000  0.07510000  1.0 -0.0279104802
N  N33  1  0.74530000  0.07510000  0.67870000  1.0 -0.0203454193
N  N34  1  0.67870000  0.50090000  0.74530000  1.0 -0.0203454193
N  N35  1  0.50090000  0.67870000  0.07510000  1.0 -0.0279104802
N  N36  1  0.07510000  0.74530000  0.50090000  1.0 -0.0279104802
N  N37  1  0.32130000  0.25470000  0.49910000  1.0 -0.0279104802
N  N38  1  0.25470000  0.32130000  0.92490000  1.0 -0.0203454193
N  N39  1  0.92490000  0.49910000  0.25470000  1.0 -0.0203454193
N  N40  1  0.49910000  0.92490000  0.32130000  1.0 -0.0279104802
N  N41  1  0.92490000  0.32130000  0.49910000  1.0 -0.0279104802
N  N42  1  0.49910000  0.25470000  0.92490000  1.0 -0.0203454193
N  N43  1  0.32130000  0.92490000  0.25470000  1.0 -0.0279104802
N  N44  1  0.25470000  0.49910000  0.32130000  1.0 -0.0279104802
N  N45  1  0.25470000  0.92490000  0.49910000  1.0 -0.0279104802
N  N46  1  0.32130000  0.49910000  0.92490000  1.0 -0.0279104802
N  N47  1  0.49910000  0.32130000  0.25470000  1.0 -0.0279104802
N  N48  1  0.92490000  0.25470000  0.32130000  1.0 -0.0279104802
N  N49  1  0.33340000  0.29360000  0.91760000  1.0 -0.0279104802
N  N50  1  0.29360000  0.33340000  0.45540000  1.0 -0.0279104802
N  N51  1  0.91760000  0.45540000  0.33340000  1.0 -0.0279104802
N  N52  1  0.45540000  0.91760000  0.29360000  1.0 -0.0279104802
N  N53  1  0.91760000  0.33340000  0.29360000  1.0 -0.0279104802
N  N54  1  0.45540000  0.29360000  0.33340000  1.0 -0.0279104802
N  N55  1  0.33340000  0.91760000  0.45540000  1.0 -0.0279104802
N  N56  1  0.29360000  0.45540000  0.91760000  1.0 -0.0203454193
N  N57  1  0.29360000  0.91760000  0.33340000  1.0 -0.0279104802
N  N58  1  0.33340000  0.45540000  0.29360000  1.0 -0.0279104802
N  N59  1  0.45540000  0.33340000  0.91760000  1.0 -0.0279104802
N  N60  1  0.91760000  0.29360000  0.45540000  1.0 -0.0279104802
N  N61  1  0.66666667  0.70640000  0.54460000  1.0 -0.0279104802
N  N62  1  0.70640000  0.66666667  0.08240000  1.0 -0.0279104802
N  N63  1  0.08240000  0.54460000  0.70640000  1.0 -0.0279104802
N  N64  1  0.54460000  0.08240000  0.66666667  1.0 -0.0279104802
N  N65  1  0.08240000  0.66666667  0.54460000  1.0 -0.0279104802
N  N66  1  0.54460000  0.70640000  0.08240000  1.0 -0.0279104802
N  N67  1  0.66666667  0.08240000  0.70640000  1.0 -0.0203454193
N  N68  1  0.70640000  0.54460000  0.66666667  1.0 -0.0203454193
N  N69  1  0.70640000  0.08240000  0.54460000  1.0 -0.0279104802
N  N70  1  0.66666667  0.54460000  0.08240000  1.0 -0.0279104802
N  N71  1  0.54460000  0.66666667  0.70640000  1.0 -0.0279104802
N  N72  1  0.08240000  0.70640000  0.66666667  1.0 -0.0279104802
N  N73  1  0.66666667  0.70640000  0.08240000  1.0 -0.0279104802
N  N74  1  0.70640000  0.66666667  0.54460000  1.0 -0.0279104802
N  N75  1  0.08240000  0.54460000  0.66666667  1.0 -0.0203454193
N  N76  1  0.54460000  0.08240000  0.70640000  1.0 -0.0279104802
N  N77  1  0.08240000  0.66666667  0.70640000  1.0 -0.0279104802
N  N78  1  0.54460000  0.70640000  0.66666667  1.0 -0.0279104802
N  N79  1  0.66666667  0.08240000  0.54460000  1.0 -0.0279104802
N  N80  1  0.70640000  0.54460000  0.08240000  1.0 -0.0279104802
N  N81  1  0.70640000  0.08240000  0.66666667  1.0 -0.0203454193
N  N82  1  0.66666667  0.54460000  0.70640000  1.0 -0.0279104802
N  N83  1  0.54460000  0.66666667  0.08240000  1.0 -0.0279104802
N  N84  1  0.08240000  0.70640000  0.54460000  1.0 -0.0279104802
N  N85  1  0.33340000  0.29360000  0.45540000  1.0 -0.0279104802
N  N86  1  0.29360000  0.33340000  0.91760000  1.0 -0.0279104802
N  N87  1  0.91760000  0.45540000  0.29360000  1.0 -0.0279104802
N  N88  1  0.45540000  0.91760000  0.33340000  1.0 -0.0279104802
N  N89  1  0.91760000  0.33340000  0.45540000  1.0 -0.0279104802
N  N90  1  0.45540000  0.29360000  0.91760000  1.0 -0.0203454193
N  N91  1  0.33340000  0.91760000  0.29360000  1.0 -0.0279104802
N  N92  1  0.29360000  0.45540000  0.33340000  1.0 -0.0279104802
N  N93  1  0.29360000  0.91760000  0.45540000  1.0 -0.0279104802
N  N94  1  0.33340000  0.45540000  0.91760000  1.0 -0.0279104802
N  N95  1  0.45540000  0.33340000  0.29360000  1.0 -0.0279104802
N  N96  1  0.91760000  0.29360000  0.33340000  1.0 -0.0279104802
N  N97  1  0.32210000  0.28190000  0.95030000  1.0 -0.0430617328
N  N98  1  0.28190000  0.32210000  0.44570000  1.0 -0.0430617328
N  N99  1  0.95030000  0.44570000  0.32210000  1.0 -0.0430617328
N  N100  1  0.44570000  0.95030000  0.28190000  1.0 -0.0430617328
N  N101  1  0.95030000  0.32210000  0.28190000  1.0 -0.0430617328
N  N102  1  0.44570000  0.28190000  0.32210000  1.0 -0.0430617328
N  N103  1  0.32210000  0.95030000  0.44570000  1.0 -0.0430617328
N  N104  1  0.28190000  0.44570000  0.95030000  1.0 -0.0430617328
N  N105  1  0.28190000  0.95030000  0.32210000  1.0 -0.0430617328
N  N106  1  0.32210000  0.44570000  0.28190000  1.0 -0.0430617328
N  N107  1  0.44570000  0.32210000  0.95030000  1.0 -0.0430617328
N  N108  1  0.95030000  0.28190000  0.44570000  1.0 -0.0430617328
N  N109  1  0.67790000  0.71810000  0.55430000  1.0 -0.0430617328
N  N110  1  0.71810000  0.67790000  0.04970000  1.0 -0.0430617328
N  N111  1  0.04970000  0.55430000  0.71810000  1.0 -0.0430617328
N  N112  1  0.55430000  0.04970000  0.67790000  1.0 -0.0430617328
N  N113  1  0.04970000  0.67790000  0.55430000  1.0 -0.0430617328
N  N114  1  0.55430000  0.71810000  0.04970000  1.0 -0.0430617328
N  N115  1  0.67790000  0.04970000  0.71810000  1.0 -0.0430617328
N  N116  1  0.71810000  0.55430000  0.67790000  1.0 -0.0430617328
N  N117  1  0.71810000  0.04970000  0.55430000  1.0 -0.0430617328
N  N118  1  0.67790000  0.55430000  0.04970000  1.0 -0.0430617328
N  N119  1  0.55430000  0.67790000  0.71810000  1.0 -0.0430617328
N  N120  1  0.04970000  0.71810000  0.67790000  1.0 -0.0430617328
N  N121  1  0.67790000  0.71810000  0.04970000  1.0 -0.0430617328
N  N122  1  0.71810000  0.67790000  0.55430000  1.0 -0.0430617328
N  N123  1  0.04970000  0.55430000  0.67790000  1.0 -0.0430617328
N  N124  1  0.55430000  0.04970000  0.71810000  1.0 -0.0430617328
N  N125  1  0.04970000  0.67790000  0.71810000  1.0 -0.0430617328
N  N126  1  0.55430000  0.71810000  0.67790000  1.0 -0.0430617328
N  N127  1  0.67790000  0.04970000  0.55430000  1.0 -0.0430617328
N  N128  1  0.71810000  0.55430000  0.04970000  1.0 -0.0430617328
N  N129  1  0.71810000  0.04970000  0.67790000  1.0 -0.0430617328
N  N130  1  0.67790000  0.55430000  0.71810000  1.0 -0.0430617328
N  N131  1  0.55430000  0.67790000  0.04970000  1.0 -0.0430617328
N  N132  1  0.04970000  0.71810000  0.55430000  1.0 -0.0430617328
N  N133  1  0.32210000  0.28190000  0.44570000  1.0 -0.0430617328
N  N134  1  0.28190000  0.32210000  0.95030000  1.0 -0.0430617328
N  N135  1  0.95030000  0.44570000  0.28190000  1.0 -0.0430617328
N  N136  1  0.44570000  0.95030000  0.32210000  1.0 -0.0430617328
N  N137  1  0.95030000  0.32210000  0.44570000  1.0 -0.0430617328
N  N138  1  0.44570000  0.28190000  0.95030000  1.0 -0.0430617328
N  N139  1  0.32210000  0.95030000  0.28190000  1.0 -0.0430617328
N  N140  1  0.28190000  0.44570000  0.32210000  1.0 -0.0430617328
N  N141  1  0.28190000  0.95030000  0.44570000  1.0 -0.0430617328
N  N142  1  0.32210000  0.44570000  0.95030000  1.0 -0.0430617328
N  N143  1  0.44570000  0.32210000  0.28190000  1.0 -0.0430617328
N  N144  1  0.95030000  0.28190000  0.32210000  1.0 -0.0430617328
O  O1  1  0.07418000  0.30104000  0.98714000  1.0 -0.5389593029
O  O2  1  0.30104000  0.07418000  0.63764000  1.0 -0.5389593029
O  O3  1  0.98714000  0.63764000  0.07418000  1.0 -0.5389593029
O  O4  1  0.63764000  0.98714000  0.30104000  1.0 -0.5389593029
O  O5  1  0.98714000  0.07418000  0.30104000  1.0 -0.5389593029
O  O6  1  0.63764000  0.30104000  0.07418000  1.0 -0.5389593029
O  O7  1  0.07418000  0.98714000  0.63764000  1.0 -0.5389593029
O  O8  1  0.30104000  0.63764000  0.98714000  1.0 -0.5389593029
O  O9  1  0.30104000  0.98714000  0.07418000  1.0 -0.5389593029
O  O10  1  0.07418000  0.63764000  0.30104000  1.0 -0.5389593029
O  O11  1  0.63764000  0.07418000  0.98714000  1.0 -0.5389593029
O  O12  1  0.98714000  0.30104000  0.63764000  1.0 -0.5389593029
O  O13  1  0.92582000  0.69896000  0.36236000  1.0 -0.5389593029
O  O14  1  0.69896000  0.92582000  0.01286000  1.0 -0.5389593029
O  O15  1  0.01286000  0.36236000  0.69896000  1.0 -0.5389593029
O  O16  1  0.36236000  0.01286000  0.92582000  1.0 -0.5389593029
O  O17  1  0.01286000  0.92582000  0.36236000  1.0 -0.5389593029
O  O18  1  0.36236000  0.69896000  0.01286000  1.0 -0.5389593029
O  O19  1  0.92582000  0.01286000  0.69896000  1.0 -0.5389593029
O  O20  1  0.69896000  0.36236000  0.92582000  1.0 -0.5389593029
O  O21  1  0.69896000  0.01286000  0.36236000  1.0 -0.5389593029
O  O22  1  0.92582000  0.36236000  0.01286000  1.0 -0.5389593029
O  O23  1  0.36236000  0.92582000  0.69896000  1.0 -0.5389593029
O  O24  1  0.01286000  0.69896000  0.92582000  1.0 -0.5389593029
O  O25  1  0.92582000  0.69896000  0.01286000  1.0 -0.5389593029
O  O26  1  0.69896000  0.92582000  0.36236000  1.0 -0.5389593029
O  O27  1  0.01286000  0.36236000  0.92582000  1.0 -0.5389593029
O  O28  1  0.36236000  0.01286000  0.69896000  1.0 -0.5389593029
O  O29  1  0.01286000  0.92582000  0.69896000  1.0 -0.5389593029
O  O30  1  0.36236000  0.69896000  0.92582000  1.0 -0.5389593029
O  O31  1  0.92582000  0.01286000  0.36236000  1.0 -0.5389593029
O  O32  1  0.69896000  0.36236000  0.01286000  1.0 -0.5389593029
O  O33  1  0.69896000  0.01286000  0.92582000  1.0 -0.5389593029
O  O34  1  0.92582000  0.36236000  0.69896000  1.0 -0.5389593029
O  O35  1  0.36236000  0.92582000  0.01286000  1.0 -0.5389593029
O  O36  1  0.01286000  0.69896000  0.36236000  1.0 -0.5389593029
O  O37  1  0.07418000  0.30104000  0.63764000  1.0 -0.5389593029
O  O38  1  0.30104000  0.07418000  0.98714000  1.0 -0.5389593029
O  O39  1  0.98714000  0.63764000  0.30104000  1.0 -0.5389593029
O  O40  1  0.63764000  0.98714000  0.07418000  1.0 -0.5389593029
O  O41  1  0.98714000  0.07418000  0.63764000  1.0 -0.5389593029
O  O42  1  0.63764000  0.30104000  0.98714000  1.0 -0.5389593029
O  O43  1  0.07418000  0.98714000  0.30104000  1.0 -0.5389593029
O  O44  1  0.30104000  0.63764000  0.07418000  1.0 -0.5389593029
O  O45  1  0.30104000  0.98714000  0.63764000  1.0 -0.5389593029
O  O46  1  0.07418000  0.63764000  0.98714000  1.0 -0.5389593029
O  O47  1  0.63764000  0.07418000  0.30104000  1.0 -0.5389593029
O  O48  1  0.98714000  0.30104000  0.07418000  1.0 -0.5389593029
O  O49  1  0.07440000  0.22900000  0.98802000  1.0 -0.4958771036
O  O50  1  0.22900000  0.07440000  0.70858000  1.0 -0.4958771036
O  O51  1  0.98802000  0.70858000  0.07440000  1.0 -0.4958771036
O  O52  1  0.70858000  0.98802000  0.22900000  1.0 -0.4958771036
O  O53  1  0.98802000  0.07440000  0.22900000  1.0 -0.4958771036
O  O54  1  0.70858000  0.22900000  0.07440000  1.0 -0.4958771036
O  O55  1  0.07440000  0.98802000  0.70858000  1.0 -0.4958771036
O  O56  1  0.22900000  0.70858000  0.98802000  1.0 -0.4958771036
O  O57  1  0.22900000  0.98802000  0.07440000  1.0 -0.4958771036
O  O58  1  0.07440000  0.70858000  0.22900000  1.0 -0.4958771036
O  O59  1  0.70858000  0.07440000  0.98802000  1.0 -0.4958771036
O  O60  1  0.98802000  0.22900000  0.70858000  1.0 -0.4958771036
O  O61  1  0.92560000  0.77100000  0.29142000  1.0 -0.4958771036
O  O62  1  0.77100000  0.92560000  0.01198000  1.0 -0.4958771036
O  O63  1  0.01198000  0.29142000  0.77100000  1.0 -0.4958771036
O  O64  1  0.29142000  0.01198000  0.92560000  1.0 -0.4958771036
O  O65  1  0.01198000  0.92560000  0.29142000  1.0 -0.4958771036
O  O66  1  0.29142000  0.77100000  0.01198000  1.0 -0.4958771036
O  O67  1  0.92560000  0.01198000  0.77100000  1.0 -0.4958771036
O  O68  1  0.77100000  0.29142000  0.92560000  1.0 -0.4958771036
O  O69  1  0.77100000  0.01198000  0.29142000  1.0 -0.4958771036
O  O70  1  0.92560000  0.29142000  0.01198000  1.0 -0.4958771036
O  O71  1  0.29142000  0.92560000  0.77100000  1.0 -0.4958771036
O  O72  1  0.01198000  0.77100000  0.92560000  1.0 -0.4958771036
O  O73  1  0.92560000  0.77100000  0.01198000  1.0 -0.4958771036
O  O74  1  0.77100000  0.92560000  0.29142000  1.0 -0.4958771036
O  O75  1  0.01198000  0.29142000  0.92560000  1.0 -0.4958771036
O  O76  1  0.29142000  0.01198000  0.77100000  1.0 -0.4946857526
O  O77  1  0.01198000  0.92560000  0.77100000  1.0 -0.4958771036
O  O78  1  0.29142000  0.77100000  0.92560000  1.0 -0.4958771036
O  O79  1  0.92560000  0.01198000  0.29142000  1.0 -0.4958771036
O  O80  1  0.77100000  0.29142000  0.01198000  1.0 -0.4958771036
O  O81  1  0.77100000  0.01198000  0.92560000  1.0 -0.4958771036
O  O82  1  0.92560000  0.29142000  0.77100000  1.0 -0.4958771036
O  O83  1  0.29142000  0.92560000  0.01198000  1.0 -0.4958771036
O  O84  1  0.01198000  0.77100000  0.29142000  1.0 -0.4958771036
O  O85  1  0.07440000  0.22900000  0.70858000  1.0 -0.4958771036
O  O86  1  0.22900000  0.07440000  0.98802000  1.0 -0.4958771036
O  O87  1  0.98802000  0.70858000  0.22900000  1.0 -0.4958771036
O  O88  1  0.70858000  0.98802000  0.07440000  1.0 -0.4958771036
O  O89  1  0.98802000  0.07440000  0.70858000  1.0 -0.4946857526
O  O90  1  0.70858000  0.22900000  0.98802000  1.0 -0.4958771036
O  O91  1  0.07440000  0.98802000  0.22900000  1.0 -0.4958771036
O  O92  1  0.22900000  0.70858000  0.07440000  1.0 -0.4958771036
O  O93  1  0.22900000  0.98802000  0.70858000  1.0 -0.4958771036
O  O94  1  0.07440000  0.70858000  0.98802000  1.0 -0.4958771036
O  O95  1  0.70858000  0.07440000  0.22900000  1.0 -0.4958771036
O  O96  1  0.98802000  0.22900000  0.07440000  1.0 -0.4958771036
O  O97  1  0.99150000  0.40750000  0.00850000  1.0 -0.001776122
O  O98  1  0.40750000  0.99150000  0.59250000  1.0 -0.001776122
O  O99  1  0.00850000  0.59250000  0.99150000  1.0 0.0115403844
O  O100  1  0.59250000  0.00850000  0.40750000  1.0 -0.001776122
O  O101  1  0.00850000  0.99150000  0.40750000  1.0 -0.001776122
O  O102  1  0.59250000  0.40750000  0.99150000  1.0 0.0115403844
O  O103  1  0.99150000  0.00850000  0.59250000  1.0 -0.001776122
O  O104  1  0.40750000  0.59250000  0.00850000  1.0 -0.001776122
O  O105  1  0.40750000  0.00850000  0.99150000  1.0 -0.001776122
O  O106  1  0.99150000  0.59250000  0.40750000  1.0 -0.001776122
O  O107  1  0.59250000  0.99150000  0.00850000  1.0 -0.001776122
O  O108  1  0.00850000  0.40750000  0.59250000  1.0 -0.001776122
O  O109  1  0.00850000  0.59250000  0.40750000  1.0 -0.001776122
O  O110  1  0.59250000  0.00850000  0.99150000  1.0 0.0018385929
O  O111  1  0.99150000  0.40750000  0.59250000  1.0 -0.001776122
O  O112  1  0.40750000  0.99150000  0.00850000  1.0 -0.001776122
O  O113  1  0.99150000  0.00850000  0.40750000  1.0 -0.001776122
O  O114  1  0.40750000  0.59250000  0.99150000  1.0 0.0018385929
O  O115  1  0.00850000  0.99150000  0.59250000  1.0 -0.001776122
O  O116  1  0.59250000  0.40750000  0.00850000  1.0 -0.001776122
O  O117  1  0.59250000  0.99150000  0.40750000  1.0 -0.001776122
O  O118  1  0.00850000  0.40750000  0.99150000  1.0 0.0018385929
O  O119  1  0.40750000  0.00850000  0.59250000  1.0 -0.001776122
O  O120  1  0.99150000  0.59250000  0.00850000  1.0 -0.001776122
O  O121  1  0.00782000  0.17556000  0.00782000  1.0 0.1725778094
O  O122  1  0.17556000  0.00782000  0.80880000  1.0 0.1725778094
O  O123  1  0.00782000  0.80880000  0.00782000  1.0 0.1725778094
O  O124  1  0.80880000  0.00782000  0.17556000  1.0 0.179948447
O  O125  1  0.00782000  0.00782000  0.17556000  1.0 0.1855414973
O  O126  1  0.80880000  0.17556000  0.00782000  1.0 0.1725778094
O  O127  1  0.00782000  0.00782000  0.80880000  1.0 0.1725778094
O  O128  1  0.17556000  0.80880000  0.00782000  1.0 0.1725778094
O  O129  1  0.17556000  0.00782000  0.00782000  1.0 0.1725778094
O  O130  1  0.00782000  0.80880000  0.17556000  1.0 0.179948447
O  O131  1  0.80880000  0.00782000  0.00782000  1.0 0.179948447
O  O132  1  0.00782000  0.17556000  0.80880000  1.0 0.1725778094
O  O133  1  0.99218000  0.82444000  0.19120000  1.0 0.1725778094
O  O134  1  0.82444000  0.99218000  0.99218000  1.0 0.1725778094
O  O135  1  0.99218000  0.19120000  0.82444000  1.0 0.1725778094
O  O136  1  0.19120000  0.99218000  0.99218000  1.0 0.179948447
O  O137  1  0.99218000  0.99218000  0.19120000  1.0 0.1725778094
O  O138  1  0.19120000  0.82444000  0.99218000  1.0 0.1725778094
O  O139  1  0.99218000  0.99218000  0.82444000  1.0 0.1725778094
O  O140  1  0.82444000  0.19120000  0.99218000  1.0 0.1725778094
O  O141  1  0.82444000  0.99218000  0.19120000  1.0 0.1725778094
O  O142  1  0.99218000  0.19120000  0.99218000  1.0 0.1725778094
O  O143  1  0.19120000  0.99218000  0.82444000  1.0 0.1725778094
O  O144  1  0.99218000  0.82444000  0.99218000  1.0 0.1725778094
O  O145  1  0.36640000  0.36640000  0.90080000  1.0 -0.2083395778
O  O146  1  0.36640000  0.36640000  0.36640000  1.0 -0.2083395778
O  O147  1  0.90080000  0.36640000  0.36640000  1.0 -0.2083395778
O  O148  1  0.36640000  0.90080000  0.36640000  1.0 -0.2083395778
O  O149  1  0.63360000  0.63360000  0.63360000  1.0 -0.2083395778
O  O150  1  0.63360000  0.63360000  0.09920000  1.0 -0.2083395778
O  O151  1  0.09920000  0.63360000  0.63360000  1.0 -0.2083395778
O  O152  1  0.63360000  0.09920000  0.63360000  1.0 -0.2083395778
O  O153  1  0.36450000  0.26830000  0.00270000  1.0 -0.1595668369
O  O154  1  0.26830000  0.36450000  0.36450000  1.0 -0.1595668369
O  O155  1  0.00270000  0.36450000  0.36450000  1.0 -0.1546155944
O  O156  1  0.36450000  0.00270000  0.26830000  1.0 -0.1595668369
O  O157  1  0.00270000  0.36450000  0.26830000  1.0 -0.1595668369
O  O158  1  0.36450000  0.26830000  0.36450000  1.0 -0.1595668369
O  O159  1  0.36450000  0.00270000  0.36450000  1.0 -0.1595668369
O  O160  1  0.26830000  0.36450000  0.00270000  1.0 -0.1595668369
O  O161  1  0.26830000  0.00270000  0.36450000  1.0 -0.1595668369
O  O162  1  0.36450000  0.36450000  0.26830000  1.0 -0.1595668369
O  O163  1  0.36450000  0.36450000  0.00270000  1.0 -0.1595668369
O  O164  1  0.00270000  0.26830000  0.36450000  1.0 -0.1595668369
O  O165  1  0.63550000  0.73170000  0.63550000  1.0 -0.1595668369
O  O166  1  0.73170000  0.63550000  0.99730000  1.0 -0.1595668369
O  O167  1  0.99730000  0.63550000  0.73170000  1.0 -0.1595668369
O  O168  1  0.63550000  0.99730000  0.63550000  1.0 -0.1595668369
O  O169  1  0.99730000  0.63550000  0.63550000  1.0 -0.1595668369
O  O170  1  0.63550000  0.73170000  0.99730000  1.0 -0.1595668369
O  O171  1  0.63550000  0.99730000  0.73170000  1.0 -0.1595668369
O  O172  1  0.73170000  0.63550000  0.63550000  1.0 -0.1595668369
O  O173  1  0.73170000  0.99730000  0.63550000  1.0 -0.1595668369
O  O174  1  0.63550000  0.63550000  0.99730000  1.0 -0.1595668369
O  O175  1  0.63550000  0.63550000  0.73170000  1.0 -0.1595668369
O  O176  1  0.99730000  0.73170000  0.63550000  1.0 -0.1595668369
O  O177  1  0.43120000  0.21500000  0.92260000  1.0 -0.468787665
O  O178  1  0.21500000  0.43120000  0.43120000  1.0 -0.468787665
O  O179  1  0.92260000  0.43120000  0.43120000  1.0 -0.468787665
O  O180  1  0.43120000  0.92260000  0.21500000  1.0 -0.468787665
O  O181  1  0.92260000  0.43120000  0.21500000  1.0 -0.468787665
O  O182  1  0.43120000  0.21500000  0.43120000  1.0 -0.468787665
O  O183  1  0.43120000  0.92260000  0.43120000  1.0 -0.468787665
O  O184  1  0.21500000  0.43120000  0.92260000  1.0 -0.4638814165
O  O185  1  0.21500000  0.92260000  0.43120000  1.0 -0.468787665
O  O186  1  0.43120000  0.43120000  0.21500000  1.0 -0.468787665
O  O187  1  0.43120000  0.43120000  0.92260000  1.0 -0.468787665
O  O188  1  0.92260000  0.21500000  0.43120000  1.0 -0.4638814165
O  O189  1  0.56880000  0.78500000  0.56880000  1.0 -0.468787665
O  O190  1  0.78500000  0.56880000  0.07740000  1.0 -0.468787665
O  O191  1  0.07740000  0.56880000  0.78500000  1.0 -0.468787665
O  O192  1  0.56880000  0.07740000  0.56880000  1.0 -0.468787665
O  O193  1  0.07740000  0.56880000  0.56880000  1.0 -0.468787665
O  O194  1  0.56880000  0.78500000  0.07740000  1.0 -0.468787665
O  O195  1  0.56880000  0.07740000  0.78500000  1.0 -0.468787665
O  O196  1  0.78500000  0.56880000  0.56880000  1.0 -0.4638814165
O  O197  1  0.78500000  0.07740000  0.56880000  1.0 -0.468787665
O  O198  1  0.56880000  0.56880000  0.07740000  1.0 -0.468787665
O  O199  1  0.56880000  0.56880000  0.78500000  1.0 -0.468787665
O  O200  1  0.07740000  0.78500000  0.56880000  1.0 -0.468787665
O  O201  1  0.35080000  0.25020000  0.04820000  1.0 0.1385341641
O  O202  1  0.25020000  0.35080000  0.35080000  1.0 0.1385341641
O  O203  1  0.04820000  0.35080000  0.35080000  1.0 0.1385341641
O  O204  1  0.35080000  0.04820000  0.25020000  1.0 0.1385341641
O  O205  1  0.04820000  0.35080000  0.25020000  1.0 0.1385341641
O  O206  1  0.35080000  0.25020000  0.35080000  1.0 0.1385341641
O  O207  1  0.35080000  0.04820000  0.35080000  1.0 0.1385341641
O  O208  1  0.25020000  0.35080000  0.04820000  1.0 0.1385341641
O  O209  1  0.25020000  0.04820000  0.35080000  1.0 0.1385341641
O  O210  1  0.35080000  0.35080000  0.25020000  1.0 0.1385341641
O  O211  1  0.35080000  0.35080000  0.04820000  1.0 0.1385341641
O  O212  1  0.04820000  0.25020000  0.35080000  1.0 0.1385341641
O  O213  1  0.64920000  0.74980000  0.64920000  1.0 0.1385341641
O  O214  1  0.74980000  0.64920000  0.95180000  1.0 0.1385341641
O  O215  1  0.95180000  0.64920000  0.74980000  1.0 0.1385341641
O  O216  1  0.64920000  0.95180000  0.64920000  1.0 0.1385341641
O  O217  1  0.95180000  0.64920000  0.64920000  1.0 0.1385341641
O  O218  1  0.64920000  0.74980000  0.95180000  1.0 0.1385341641
O  O219  1  0.64920000  0.95180000  0.74980000  1.0 0.1385341641
O  O220  1  0.74980000  0.64920000  0.64920000  1.0 0.1385341641
O  O221  1  0.74980000  0.95180000  0.64920000  1.0 0.1385341641
O  O222  1  0.64920000  0.64920000  0.95180000  1.0 0.1385341641
O  O223  1  0.64920000  0.64920000  0.74980000  1.0 0.1385341641
O  O224  1  0.95180000  0.74980000  0.64920000  1.0 0.1385341641
O  O225  1  0.35580000  0.35580000  0.93260000  1.0 -0.2328503393
O  O226  1  0.35580000  0.35580000  0.35580000  1.0 -0.2328503393
O  O227  1  0.93260000  0.35580000  0.35580000  1.0 -0.2328503393
O  O228  1  0.35580000  0.93260000  0.35580000  1.0 -0.2353597566
O  O229  1  0.64420000  0.64420000  0.64420000  1.0 -0.2328503393
O  O230  1  0.64420000  0.64420000  0.06740000  1.0 -0.2328503393
O  O231  1  0.06740000  0.64420000  0.64420000  1.0 -0.2328503393
O  O232  1  0.64420000  0.06740000  0.64420000  1.0 -0.2328503393
O  O233  1  0.40680000  0.19600000  0.99040000  1.0 -0.1717676718
O  O234  1  0.19600000  0.40680000  0.40680000  1.0 -0.1717676718
O  O235  1  0.99040000  0.40680000  0.40680000  1.0 -0.1717676718
O  O236  1  0.40680000  0.99040000  0.19600000  1.0 -0.1782042792
O  O237  1  0.99040000  0.40680000  0.19600000  1.0 -0.1717676718
O  O238  1  0.40680000  0.19600000  0.40680000  1.0 -0.1717676718
O  O239  1  0.40680000  0.99040000  0.40680000  1.0 -0.1717676718
O  O240  1  0.19600000  0.40680000  0.99040000  1.0 -0.1717676718
O  O241  1  0.19600000  0.99040000  0.40680000  1.0 -0.1717676718
O  O242  1  0.40680000  0.40680000  0.19600000  1.0 -0.1717676718
O  O243  1  0.40680000  0.40680000  0.99040000  1.0 -0.1717676718
O  O244  1  0.99040000  0.19600000  0.40680000  1.0 -0.1717676718
O  O245  1  0.59320000  0.80400000  0.59320000  1.0 -0.1717676718
O  O246  1  0.80400000  0.59320000  0.00960000  1.0 -0.1717676718
O  O247  1  0.00960000  0.59320000  0.80400000  1.0 -0.1717676718
O  O248  1  0.59320000  0.00960000  0.59320000  1.0 -0.1717676718
O  O249  1  0.00960000  0.59320000  0.59320000  1.0 -0.1782042792
O  O250  1  0.59320000  0.80400000  0.00960000  1.0 -0.1717676718
O  O251  1  0.59320000  0.00960000  0.80400000  1.0 -0.1717676718
O  O252  1  0.80400000  0.59320000  0.59320000  1.0 -0.1717676718
O  O253  1  0.80400000  0.00960000  0.59320000  1.0 -0.1717676718
O  O254  1  0.59320000  0.59320000  0.00960000  1.0 -0.1717676718
O  O255  1  0.59320000  0.59320000  0.80400000  1.0 -0.1717676718
O  O256  1  0.00960000  0.80400000  0.59320000  1.0 -0.1782042792
