# DDEC6 charges by PACMAN v1.1 (https://github.com/mtap-research/PACMAN-charge/)
data_UHAQIG_ASR_pacman
_symmetry_space_group_name_H-M   'P 1'
_cell_length_a   29.25990000
_cell_length_b   29.25990000
_cell_length_c   29.25990000
_cell_angle_alpha   128.90400000
_cell_angle_beta   128.90400000
_cell_angle_gamma   75.16470000
_symmetry_Int_Tables_number   1
_chemical_formula_structural   Gd4H38C84(N5O18)3
_chemical_formula_sum   'Gd16 H152 C336 N60 O216'
_cell_volume   14769.23913424
_cell_formula_units_Z   4
loop_
 _symmetry_equiv_pos_site_id
 _symmetry_equiv_pos_as_xyz
  1  'x, y, z'
loop_
 _atom_site_type_symbol
 _atom_site_label
 _atom_site_symmetry_multiplicity
 _atom_site_fract_x
 _atom_site_fract_y
 _atom_site_fract_z
 _atom_site_occupancy
 _atom_site_charge
Gd  Gd1  1  0.19598000  0.57221000  0.63909000  1.0 2.0388477607
Gd  Gd2  1  0.93312000  0.55689000  0.36091000  1.0 2.0388477607
Gd  Gd3  1  0.42779000  0.06688000  0.62377000  1.0 2.0388477607
Gd  Gd4  1  0.44311000  0.80402000  0.37623000  1.0 2.0388477607
Gd  Gd5  1  0.55402000  0.69311000  0.87623000  1.0 2.0388477607
Gd  Gd6  1  0.81688000  0.67779000  0.12377000  1.0 2.0388477607
Gd  Gd7  1  0.32221000  0.44598000  0.13909000  1.0 2.0388477607
Gd  Gd8  1  0.30689000  0.18312000  0.86091000  1.0 2.0388477607
Gd  Gd9  1  0.37500000  0.63073000  0.75573000  1.0 2.0611429974
Gd  Gd10  1  0.87500000  0.61927000  0.24427000  1.0 2.0611429974
Gd  Gd11  1  0.36927000  0.12500000  0.74427000  1.0 2.0611429974
Gd  Gd12  1  0.38073000  0.62500000  0.25573000  1.0 2.0611429974
Gd  Gd13  1  0.50154000  0.00154000  0.50000000  1.0 2.010883288
Gd  Gd14  1  0.99846000  0.49846000  0.50000000  1.0 2.010883288
Gd  Gd15  1  0.24846000  0.24846000  0.00000000  1.0 2.010883288
Gd  Gd16  1  0.75154000  0.75154000  0.00000000  1.0 2.010883288
H  H1  1  0.39055000  0.47111000  0.65304000  1.0 0.130328507
H  H2  1  0.56924000  0.48987000  0.79249000  1.0 0.130328507
H  H3  1  0.55382000  0.38807000  0.73623000  1.0 0.130328507
H  H4  1  0.41339000  0.21370000  0.63493000  1.0 0.130328507
H  H5  1  0.48454000  0.17406000  0.53614000  1.0 0.1393953576
H  H6  1  0.49110000  0.27194000  0.57648000  1.0 0.130328507
H  H7  1  0.75043000  0.33743000  0.92762000  1.0 0.1171291756
H  H8  1  0.80541000  0.43304000  0.04153000  1.0 0.130328507
H  H9  1  0.86136000  0.36647000  0.14997000  1.0 0.1461893539
H  H10  1  0.67050000  0.13105000  0.72111000  1.0 0.130328507
H  H11  1  0.67944000  0.24536000  0.93068000  1.0 0.1029124647
H  H12  1  0.59599000  0.16755000  0.81530000  1.0 0.130328507
H  H13  1  0.42142000  0.46589000  0.87607000  1.0 0.1171291756
H  H14  1  0.41746000  0.51862000  0.84058000  1.0 0.1149974033
H  H15  1  0.33090000  0.37901000  0.92307000  1.0 0.130328507
H  H16  1  0.34285000  0.25349000  0.75960000  1.0 0.130328507
H  H17  1  0.23577000  0.47872000  0.70649000  1.0 0.130328507
H  H18  1  0.33386000  0.44734000  0.90830000  1.0 0.2120357064
H  H19  1  0.34851000  0.83062000  0.76069000  1.0 0.2120357064
H  H20  1  0.81807000  0.73751000  0.34696000  1.0 0.130328507
H  H21  1  0.69738000  0.77675000  0.20751000  1.0 0.130328507
H  H22  1  0.65184000  0.81759000  0.26377000  1.0 0.130328507
H  H23  1  0.57877000  0.77846000  0.36507000  1.0 0.130328507
H  H24  1  0.63792000  0.94840000  0.46386000  1.0 0.1393953576
H  H25  1  0.69546000  0.91462000  0.42352000  1.0 0.130328507
H  H26  1  0.40981000  0.82281000  0.07238000  1.0 0.1171291756
H  H27  1  0.39151000  0.76388000  0.95847000  1.0 0.130328507
H  H28  1  0.21650000  0.71139000  0.85003000  1.0 0.1461893539
H  H29  1  0.40994000  0.94939000  0.27889000  1.0 0.130328507
H  H30  1  0.31468000  0.74876000  0.06932000  1.0 0.1029124647
H  H31  1  0.35225000  0.78069000  0.18470000  1.0 0.130328507
H  H32  1  0.58982000  0.54535000  0.12393000  1.0 0.1171291756
H  H33  1  0.67804000  0.57688000  0.15942000  1.0 0.1149974033
H  H34  1  0.45594000  0.40783000  0.07693000  1.0 0.130328507
H  H35  1  0.49389000  0.58325000  0.24040000  1.0 0.130328507
H  H36  1  0.77223000  0.52928000  0.29351000  1.0 0.130328507
H  H37  1  0.53904000  0.42556000  0.09170000  1.0 0.2120357064
H  H38  1  0.06993000  0.58782000  0.23931000  1.0 0.2120357064
H  H39  1  0.52889000  0.18193000  0.91944000  1.0 0.130328507
H  H40  1  0.51013000  0.30262000  0.07937000  1.0 0.130328507
H  H41  1  0.61193000  0.34816000  0.16575000  1.0 0.130328507
H  H42  1  0.78630000  0.42123000  0.19969000  1.0 0.130328507
H  H43  1  0.82594000  0.36208000  0.31048000  1.0 0.1393953576
H  H44  1  0.72806000  0.30454000  0.21916000  1.0 0.130328507
H  H45  1  0.66257000  0.59019000  0.41300000  1.0 0.1171291756
H  H46  1  0.56696000  0.60849000  0.37237000  1.0 0.130328507
H  H47  1  0.63353000  0.78350000  0.49489000  1.0 0.1461893539
H  H48  1  0.86895000  0.59006000  0.53945000  1.0 0.130328507
H  H49  1  0.75464000  0.68532000  0.43408000  1.0 0.1029124647
H  H50  1  0.83245000  0.64775000  0.42844000  1.0 0.130328507
H  H51  1  0.53411000  0.41018000  0.95553000  1.0 0.1171291756
H  H52  1  0.48138000  0.32196000  0.89884000  1.0 0.1149974033
H  H53  1  0.62099000  0.54406000  0.95189000  1.0 0.130328507
H  H54  1  0.74651000  0.50611000  0.08936000  1.0 0.130328507
H  H55  1  0.52128000  0.22777000  0.75705000  1.0 0.130328507
H  H56  1  0.55266000  0.46096000  0.88652000  1.0 0.2120357064
H  H57  1  0.16938000  0.93007000  0.51789000  1.0 0.2120357064
H  H58  1  0.26249000  0.60945000  0.08056000  1.0 0.130328507
H  H59  1  0.22325000  0.43076000  0.92063000  1.0 0.130328507
H  H60  1  0.18241000  0.44618000  0.83425000  1.0 0.130328507
H  H61  1  0.22154000  0.58661000  0.80031000  1.0 0.130328507
H  H62  1  0.05160000  0.51546000  0.68952000  1.0 0.1393953576
H  H63  1  0.08538000  0.50890000  0.78084000  1.0 0.130328507
H  H64  1  0.17719000  0.24957000  0.58700000  1.0 0.1171291756
H  H65  1  0.23612000  0.19459000  0.62763000  1.0 0.130328507
H  H66  1  0.28861000  0.13864000  0.50511000  1.0 0.1461893539
H  H67  1  0.05061000  0.32950000  0.46055000  1.0 0.130328507
H  H68  1  0.25124000  0.32056000  0.56592000  1.0 0.1029124647
H  H69  1  0.21931000  0.40401000  0.57156000  1.0 0.130328507
H  H70  1  0.45465000  0.57858000  0.04447000  1.0 0.1171291756
H  H71  1  0.42312000  0.58254000  0.10116000  1.0 0.1171291756
H  H72  1  0.59217000  0.66910000  0.04811000  1.0 0.130328507
H  H73  1  0.41675000  0.65715000  0.91064000  1.0 0.130328507
H  H74  1  0.47072000  0.76423000  0.24295000  1.0 0.130328507
H  H75  1  0.57444000  0.66614000  0.11348000  1.0 0.2120357064
H  H76  1  0.41218000  0.65149000  0.48211000  1.0 0.2120357064
H  H77  1  0.35945000  0.51249000  0.58056000  1.0 0.130328507
H  H78  1  0.18076000  0.47325000  0.42063000  1.0 0.130328507
H  H79  1  0.19618000  0.43241000  0.33425000  1.0 0.130328507
H  H80  1  0.33661000  0.47154000  0.30031000  1.0 0.130328507
H  H81  1  0.26546000  0.30160000  0.18952000  1.0 0.1393953576
H  H82  1  0.25890000  0.33538000  0.28084000  1.0 0.130328507
H  H83  1  0.99957000  0.42719000  0.08700000  1.0 0.1171291756
H  H84  1  0.94459000  0.48612000  0.12763000  1.0 0.130328507
H  H85  1  0.88864000  0.53861000  0.00511000  1.0 0.1461893539
H  H86  1  0.07950000  0.30061000  0.96055000  1.0 0.130328507
H  H87  1  0.07056000  0.50124000  0.06592000  1.0 0.1029124647
H  H88  1  0.15401000  0.46931000  0.07156000  1.0 0.130328507
H  H89  1  0.32858000  0.70465000  0.54447000  1.0 0.1171291756
H  H90  1  0.33254000  0.67312000  0.60116000  1.0 0.1149974033
H  H91  1  0.41910000  0.84217000  0.54811000  1.0 0.130328507
H  H92  1  0.40715000  0.66675000  0.41064000  1.0 0.130328507
H  H93  1  0.51423000  0.72072000  0.74295000  1.0 0.130328507
H  H94  1  0.41614000  0.82444000  0.61348000  1.0 0.2120357064
H  H95  1  0.40149000  0.66218000  0.98211000  1.0 0.2120357064
H  H96  1  0.93193000  0.77889000  0.41944000  1.0 0.130328507
H  H97  1  0.05262000  0.76013000  0.57937000  1.0 0.130328507
H  H98  1  0.09816000  0.86193000  0.66575000  1.0 0.130328507
H  H99  1  0.17123000  0.03630000  0.69969000  1.0 0.130328507
H  H100  1  0.11208000  0.07594000  0.81048000  1.0 0.1393953576
H  H101  1  0.05454000  0.97806000  0.71916000  1.0 0.130328507
H  H102  1  0.34019000  0.91257000  0.91300000  1.0 0.1171291756
H  H103  1  0.35849000  0.81696000  0.87237000  1.0 0.130328507
H  H104  1  0.53350000  0.88353000  0.99489000  1.0 0.1461893539
H  H105  1  0.34006000  0.11895000  0.03945000  1.0 0.130328507
H  H106  1  0.43532000  0.00464000  0.93408000  1.0 0.1029124647
H  H107  1  0.39775000  0.08245000  0.92844000  1.0 0.130328507
H  H108  1  0.16018000  0.78411000  0.45553000  1.0 0.1171291756
H  H109  1  0.07196000  0.73138000  0.39884000  1.0 0.1149974033
H  H110  1  0.29406000  0.87099000  0.45189000  1.0 0.130328507
H  H111  1  0.25611000  0.99651000  0.58936000  1.0 0.130328507
H  H112  1  0.97777000  0.77128000  0.25705000  1.0 0.130328507
H  H113  1  0.21096000  0.80266000  0.38652000  1.0 0.2120357064
H  H114  1  0.68007000  0.41938000  0.01789000  1.0 0.2120357064
H  H115  1  0.22111000  0.64055000  0.15304000  1.0 0.130328507
H  H116  1  0.23987000  0.81924000  0.29249000  1.0 0.130328507
H  H117  1  0.13807000  0.80382000  0.23623000  1.0 0.130328507
H  H118  1  0.96370000  0.66339000  0.13493000  1.0 0.130328507
H  H119  1  0.92406000  0.73454000  0.03614000  1.0 0.1393953576
H  H120  1  0.02194000  0.74110000  0.07648000  1.0 0.130328507
H  H121  1  0.08743000  0.00043000  0.42762000  1.0 0.1171291756
H  H122  1  0.18304000  0.05541000  0.54153000  1.0 0.130328507
H  H123  1  0.11647000  0.11136000  0.64997000  1.0 0.1461893539
H  H124  1  0.88105000  0.92050000  0.22111000  1.0 0.130328507
H  H125  1  0.99536000  0.92944000  0.43068000  1.0 0.1029124647
H  H126  1  0.91755000  0.84599000  0.31530000  1.0 0.130328507
H  H127  1  0.21589000  0.67142000  0.37607000  1.0 0.1171291756
H  H128  1  0.26862000  0.66746000  0.34058000  1.0 0.1149974033
H  H129  1  0.12901000  0.58090000  0.42307000  1.0 0.130328507
H  H130  1  0.00349000  0.59285000  0.25960000  1.0 0.130328507
H  H131  1  0.22872000  0.48577000  0.20649000  1.0 0.130328507
H  H132  1  0.19734000  0.58386000  0.40830000  1.0 0.2120357064
H  H133  1  0.58062000  0.59851000  0.26069000  1.0 0.2120357064
H  H134  1  0.48751000  0.06807000  0.84696000  1.0 0.130328507
H  H135  1  0.52675000  0.94738000  0.70751000  1.0 0.130328507
H  H136  1  0.56759000  0.90184000  0.76377000  1.0 0.130328507
H  H137  1  0.52846000  0.82877000  0.86507000  1.0 0.130328507
H  H138  1  0.69840000  0.88792000  0.96386000  1.0 0.1393953576
H  H139  1  0.66462000  0.94546000  0.92352000  1.0 0.130328507
H  H140  1  0.57281000  0.65981000  0.57238000  1.0 0.1171291756
H  H141  1  0.51388000  0.64151000  0.45847000  1.0 0.130328507
H  H142  1  0.46139000  0.46650000  0.35003000  1.0 0.1461893539
H  H143  1  0.69939000  0.65994000  0.77889000  1.0 0.130328507
H  H144  1  0.49876000  0.56468000  0.56932000  1.0 0.1029124647
H  H145  1  0.53069000  0.60225000  0.68470000  1.0 0.130328507
H  H146  1  0.29535000  0.83982000  0.62393000  1.0 0.1171291756
H  H147  1  0.32688000  0.92804000  0.65942000  1.0 0.1149974033
H  H148  1  0.15783000  0.70594000  0.57693000  1.0 0.130328507
H  H149  1  0.33325000  0.74389000  0.74040000  1.0 0.130328507
H  H150  1  0.27928000  0.02223000  0.79351000  1.0 0.130328507
H  H151  1  0.17556000  0.78904000  0.59170000  1.0 0.2120357064
H  H152  1  0.33782000  0.31993000  0.73931000  1.0 0.2120357064
C  C1  1  0.48270000  0.55000000  0.75450000  1.0 0.5553360894
C  C2  1  0.44850000  0.12220000  0.56050000  1.0 0.6355884462
C  C3  1  0.46290000  0.36860000  0.66090000  1.0 0.0393044963
C  C4  1  0.41410000  0.39350000  0.63600000  1.0 -0.0179712164
C  C5  1  0.42330000  0.45450000  0.66980000  1.0 -0.1182792239
C  C6  1  0.48140000  0.49050000  0.72830000  1.0 -0.0903492383
C  C7  1  0.53030000  0.46570000  0.75320000  1.0 -0.0319346971
C  C8  1  0.52110000  0.40470000  0.71960000  1.0 -0.1524892495
C  C9  1  0.45620000  0.30150000  0.62990000  1.0 0.0316680281
C  C10  1  0.43290000  0.28410000  0.64740000  1.0 0.0026627631
C  C11  1  0.42900000  0.22540000  0.62320000  1.0 -0.1700073019
C  C12  1  0.44830000  0.18420000  0.58150000  1.0 -0.0108225921
C  C13  1  0.47160000  0.20160000  0.56400000  1.0 -0.0686974977
C  C14  1  0.47550000  0.26030000  0.58820000  1.0 -0.1387230036
C  C15  1  0.77290000  0.29460000  0.97050000  1.0 0.0210064847
C  C16  1  0.77270000  0.34330000  0.97220000  1.0 -0.1700073019
C  C17  1  0.80570000  0.40060000  0.04050000  1.0 -0.1004218557
C  C18  1  0.83880000  0.40920000  0.10700000  1.0 -0.0319346971
C  C19  1  0.83910000  0.36070000  0.10540000  1.0 -0.1524892495
C  C20  1  0.80620000  0.30340000  0.03720000  1.0 0.0026627631
C  C21  1  0.67230000  0.15400000  0.76310000  1.0 -0.1574472761
C  C22  1  0.72230000  0.20060000  0.83230000  1.0 0.0210064847
C  C23  1  0.72500000  0.23480000  0.89500000  1.0 0.0316680281
C  C24  1  0.67760000  0.22240000  0.88860000  1.0 -0.1574472761
C  C25  1  0.62770000  0.17590000  0.81960000  1.0 -0.1004218557
C  C26  1  0.62500000  0.14160000  0.75680000  1.0 -0.0108225921
C  C27  1  0.56850000  0.09330000  0.68120000  1.0 0.6673336043
C  C28  1  0.86530000  0.47140000  0.17750000  1.0 0.6294629663
C  C29  1  0.32470000  0.53810000  0.74780000  1.0 0.6294629663
C  C30  1  0.33420000  0.30870000  0.83990000  1.0 0.0026627631
C  C31  1  0.32860000  0.26270000  0.84470000  1.0 0.6160308882
C  C32  1  0.33300000  0.39220000  0.82100000  1.0 -0.0686974977
C  C33  1  0.33670000  0.33260000  0.77670000  1.0 -0.0809508473
C  C34  1  0.38430000  0.46590000  0.83960000  1.0 -0.1700073019
C  C35  1  0.38190000  0.49810000  0.81920000  1.0 -0.1109884199
C  C36  1  0.33250000  0.36690000  0.88620000  1.0 -0.1292467933
C  C37  1  0.33090000  0.43260000  0.80570000  1.0 -0.0013934227
C  C38  1  0.33860000  0.29220000  0.78800000  1.0 -0.1387230036
C  C39  1  0.27650000  0.43860000  0.75670000  1.0 0.0393044963
C  C40  1  0.32440000  0.50050000  0.76470000  1.0 -0.0368076259
C  C41  1  0.33320000  0.40740000  0.87560000  1.0 -0.060606379
C  C42  1  0.27290000  0.47390000  0.73740000  1.0 -0.1524892495
C  C43  1  0.79550000  0.72820000  0.24550000  1.0 0.5553360894
C  C44  1  0.56170000  0.88800000  0.43950000  1.0 0.6355884462
C  C45  1  0.70770000  0.80200000  0.33910000  1.0 0.0393044963
C  C46  1  0.75750000  0.77810000  0.36400000  1.0 -0.0179712164
C  C47  1  0.78470000  0.75350000  0.33020000  1.0 -0.1182792239
C  C48  1  0.76220000  0.75310000  0.27170000  1.0 -0.0903492383
C  C49  1  0.71250000  0.77710000  0.24680000  1.0 -0.0319346971
C  C50  1  0.68510000  0.80150000  0.28040000  1.0 -0.1524892495
C  C51  1  0.67160000  0.82630000  0.37010000  1.0 0.0316680281
C  C52  1  0.63670000  0.78550000  0.35260000  1.0 0.0026627631
C  C53  1  0.60220000  0.80580000  0.37680000  1.0 -0.1700073019
C  C54  1  0.60270000  0.86680000  0.41850000  1.0 -0.0108225921
C  C55  1  0.63760000  0.90760000  0.43600000  1.0 -0.0686974977
C  C56  1  0.67210000  0.88730000  0.41180000  1.0 -0.1387230036
C  C57  1  0.32410000  0.80240000  0.02950000  1.0 0.0210064847
C  C58  1  0.37110000  0.80050000  0.02780000  1.0 -0.1700073019
C  C59  1  0.36010000  0.76520000  0.95950000  1.0 -0.1004218557
C  C60  1  0.30220000  0.73180000  0.89300000  1.0 -0.0319346971
C  C61  1  0.25530000  0.73370000  0.89460000  1.0 -0.1524892495
C  C62  1  0.26620000  0.76900000  0.96280000  1.0 0.0026627631
C  C63  1  0.39090000  0.90920000  0.23690000  1.0 -0.1574472761
C  C64  1  0.36830000  0.89000000  0.16770000  1.0 0.0123903999
C  C65  1  0.33980000  0.83000000  0.10500000  1.0 0.0316680281
C  C66  1  0.33380000  0.78900000  0.11140000  1.0 -0.1574472761
C  C67  1  0.35630000  0.80810000  0.18040000  1.0 -0.1004218557
C  C68  1  0.38480000  0.86820000  0.24320000  1.0 -0.0108225921
C  C69  1  0.41210000  0.88730000  0.31880000  1.0 0.6673336043
C  C70  1  0.29390000  0.68780000  0.82250000  1.0 0.6294629663
C  C71  1  0.79030000  0.57690000  0.25220000  1.0 0.6294629663
C  C72  1  0.46880000  0.49430000  0.16010000  1.0 0.0026627631
C  C73  1  0.41800000  0.48390000  0.15530000  1.0 0.6160308882
C  C74  1  0.57120000  0.51200000  0.17900000  1.0 -0.0686974977
C  C75  1  0.55590000  0.56000000  0.22330000  1.0 -0.0809508473
C  C76  1  0.62630000  0.54470000  0.16040000  1.0 -0.1700073019
C  C77  1  0.67890000  0.56270000  0.18080000  1.0 -0.1109884199
C  C78  1  0.48070000  0.44630000  0.11380000  1.0 -0.1292467933
C  C79  1  0.62690000  0.52520000  0.19430000  1.0 -0.0013934227
C  C80  1  0.50420000  0.55060000  0.21200000  1.0 -0.1387230036
C  C81  1  0.68190000  0.51980000  0.24330000  1.0 0.0393044963
C  C82  1  0.73580000  0.55970000  0.23530000  1.0 -0.0368076259
C  C83  1  0.53180000  0.45760000  0.12440000  1.0 -0.060606379
C  C84  1  0.73650000  0.53550000  0.26260000  1.0 -0.1524892495
C  C85  1  0.45000000  0.20450000  0.93270000  1.0 0.5553360894
C  C86  1  0.87780000  0.43830000  0.32630000  1.0 0.6355884462
C  C87  1  0.63140000  0.29230000  0.09430000  1.0 0.0393044963
C  C88  1  0.60650000  0.24250000  0.02060000  1.0 -0.0179712164
C  C89  1  0.54550000  0.21530000  0.96880000  1.0 -0.1182792239
C  C90  1  0.50950000  0.23780000  0.99090000  1.0 -0.0903492383
C  C91  1  0.53430000  0.28750000  0.06460000  1.0 -0.0368076259
C  C92  1  0.59530000  0.31490000  0.11640000  1.0 -0.1524892495
C  C93  1  0.69850000  0.32840000  0.15470000  1.0 0.0316680281
C  C94  1  0.71590000  0.36330000  0.14880000  1.0 -0.0013934227
C  C95  1  0.77460000  0.39780000  0.20360000  1.0 -0.1700073019
C  C96  1  0.81580000  0.39730000  0.26410000  1.0 -0.0108225921
C  C97  1  0.79840000  0.36240000  0.27000000  1.0 -0.0686974977
C  C98  1  0.73970000  0.32790000  0.21520000  1.0 -0.1387230036
C  C99  1  0.70540000  0.67590000  0.47830000  1.0 0.0210064847
C  C100  1  0.65670000  0.62890000  0.42940000  1.0 -0.1700073019
C  C101  1  0.59940000  0.63990000  0.40510000  1.0 -0.1004218557
C  C102  1  0.59080000  0.69780000  0.42960000  1.0 -0.0319346971
C  C103  1  0.63930000  0.74470000  0.47840000  1.0 -0.1524892495
C  C104  1  0.69660000  0.73380000  0.50280000  1.0 0.0123903999
C  C105  1  0.84600000  0.60910000  0.51830000  1.0 -0.1574472761
C  C106  1  0.79940000  0.63170000  0.52170000  1.0 0.0123903999
C  C107  1  0.76520000  0.66020000  0.49020000  1.0 0.0316680281
C  C108  1  0.77760000  0.66620000  0.45520000  1.0 -0.1574472761
C  C109  1  0.82410000  0.64370000  0.45180000  1.0 -0.1004218557
C  C110  1  0.85840000  0.61520000  0.48340000  1.0 -0.0108225921
C  C111  1  0.90670000  0.58790000  0.47520000  1.0 0.6673336043
C  C112  1  0.52860000  0.70610000  0.39390000  1.0 0.6294629663
C  C113  1  0.46190000  0.20970000  0.78660000  1.0 0.6294629663
C  C114  1  0.69130000  0.53120000  0.02550000  1.0 0.0026627631
C  C115  1  0.73730000  0.58200000  0.06590000  1.0 0.6160308882
C  C116  1  0.60780000  0.42880000  0.94080000  1.0 -0.0686974977
C  C117  1  0.66740000  0.44410000  0.00410000  1.0 -0.0809508473
C  C118  1  0.53410000  0.37370000  0.91840000  1.0 -0.1700073019
C  C119  1  0.50190000  0.32110000  0.88380000  1.0 -0.1109884199
C  C120  1  0.63310000  0.51930000  0.96560000  1.0 -0.1292467933
C  C121  1  0.56740000  0.37310000  0.89830000  1.0 -0.0013934227
C  C122  1  0.70780000  0.49580000  0.04640000  1.0 -0.1387230036
C  C123  1  0.56140000  0.31810000  0.83790000  1.0 0.0393044963
C  C124  1  0.49950000  0.26420000  0.82390000  1.0 -0.0368076259
C  C125  1  0.59260000  0.46820000  0.92580000  1.0 -0.060606379
C  C126  1  0.52610000  0.26350000  0.79900000  1.0 -0.1524892495
C  C127  1  0.27180000  0.51730000  0.06730000  1.0 0.5553360894
C  C128  1  0.11200000  0.55150000  0.67370000  1.0 0.6355884462
C  C129  1  0.19800000  0.53710000  0.90570000  1.0 0.0393044963
C  C130  1  0.22190000  0.58590000  0.97940000  1.0 -0.0179712164
C  C131  1  0.24650000  0.57670000  0.03120000  1.0 -0.1182792239
C  C132  1  0.24690000  0.51860000  0.00910000  1.0 -0.0903492383
C  C133  1  0.22290000  0.46970000  0.93540000  1.0 -0.0319346971
C  C134  1  0.19850000  0.47890000  0.88360000  1.0 -0.1524892495
C  C135  1  0.17370000  0.54380000  0.84530000  1.0 0.0316680281
C  C136  1  0.21450000  0.56710000  0.85120000  1.0 0.0026627631
C  C137  1  0.19420000  0.57100000  0.79640000  1.0 -0.1700073019
C  C138  1  0.13320000  0.55170000  0.73590000  1.0 -0.0108225921
C  C139  1  0.09240000  0.52840000  0.73000000  1.0 -0.0686974977
C  C140  1  0.11270000  0.52450000  0.78480000  1.0 -0.1387230036
C  C141  1  0.19760000  0.22710000  0.52170000  1.0 0.0210064847
C  C142  1  0.19950000  0.22730000  0.57060000  1.0 -0.1700073019
C  C143  1  0.23480000  0.19430000  0.59490000  1.0 -0.1004218557
C  C144  1  0.26820000  0.16120000  0.57040000  1.0 -0.0319346971
C  C145  1  0.26630000  0.16090000  0.52160000  1.0 -0.1524892495
C  C146  1  0.23100000  0.19380000  0.49720000  1.0 0.0026627631
C  C147  1  0.09080000  0.32770000  0.48170000  1.0 -0.1574472761
C  C148  1  0.11000000  0.27770000  0.47830000  1.0 0.0123903999
C  C149  1  0.17000000  0.27500000  0.50980000  1.0 0.0316680281
C  C150  1  0.21100000  0.32240000  0.54480000  1.0 -0.1574472761
C  C151  1  0.19190000  0.37230000  0.54820000  1.0 -0.1004218557
C  C152  1  0.13180000  0.37500000  0.51660000  1.0 -0.0108225921
C  C153  1  0.11270000  0.43150000  0.52480000  1.0 0.6673336043
C  C154  1  0.31220000  0.13470000  0.60610000  1.0 0.6294629663
C  C155  1  0.42310000  0.67530000  0.21340000  1.0 0.6294629663
C  C156  1  0.50570000  0.66580000  0.97450000  1.0 0.0026627631
C  C157  1  0.51610000  0.67140000  0.93410000  1.0 0.6160308882
C  C158  1  0.48800000  0.66700000  0.05920000  1.0 -0.0686974977
C  C159  1  0.44000000  0.66330000  0.99590000  1.0 -0.0809508473
C  C160  1  0.45530000  0.61570000  0.08160000  1.0 -0.1700073019
C  C161  1  0.43730000  0.61810000  0.11620000  1.0 -0.1109884199
C  C162  1  0.55370000  0.66750000  0.03440000  1.0 -0.1292467933
C  C163  1  0.47480000  0.66910000  0.10170000  1.0 -0.0013934227
C  C164  1  0.44940000  0.66140000  0.95360000  1.0 -0.1387230036
C  C165  1  0.48020000  0.72350000  0.16210000  1.0 0.0393044963
C  C166  1  0.44030000  0.67560000  0.17610000  1.0 -0.0368076259
C  C167  1  0.54240000  0.66680000  0.07420000  1.0 -0.060606379
C  C168  1  0.46450000  0.72710000  0.20100000  1.0 -0.1524892495
C  C169  1  0.26730000  0.52180000  0.56730000  1.0 0.5553360894
C  C170  1  0.30150000  0.36200000  0.17370000  1.0 0.6355884462
C  C171  1  0.28710000  0.44800000  0.40570000  1.0 0.0393044963
C  C172  1  0.33590000  0.47190000  0.47940000  1.0 -0.0179712164
C  C173  1  0.32670000  0.49650000  0.53120000  1.0 -0.1182792239
C  C174  1  0.26860000  0.49690000  0.50910000  1.0 -0.0903492383
C  C175  1  0.21970000  0.47290000  0.43540000  1.0 -0.0368076259
C  C176  1  0.22890000  0.44850000  0.38360000  1.0 -0.1524892495
C  C177  1  0.29380000  0.42370000  0.34530000  1.0 0.0316680281
C  C178  1  0.31710000  0.46450000  0.35120000  1.0 0.0026627631
C  C179  1  0.32100000  0.44420000  0.29640000  1.0 -0.1700073019
C  C180  1  0.30170000  0.38320000  0.23590000  1.0 -0.0108225921
C  C181  1  0.27840000  0.34240000  0.23000000  1.0 -0.0686974977
C  C182  1  0.27450000  0.36270000  0.28480000  1.0 -0.1387230036
C  C183  1  0.97710000  0.44760000  0.02170000  1.0 0.0210064847
C  C184  1  0.97730000  0.44950000  0.07060000  1.0 -0.1700073019
C  C185  1  0.94430000  0.48480000  0.09490000  1.0 -0.1004218557
C  C186  1  0.91120000  0.51820000  0.07040000  1.0 -0.0319346971
C  C187  1  0.91090000  0.51630000  0.02160000  1.0 -0.1524892495
C  C188  1  0.94380000  0.48100000  0.99720000  1.0 0.0026627631
C  C189  1  0.07770000  0.34080000  0.98170000  1.0 -0.1524892495
C  C190  1  0.02770000  0.36000000  0.97830000  1.0 0.0123903999
C  C191  1  0.02500000  0.42000000  0.00980000  1.0 0.0316680281
C  C192  1  0.07240000  0.46100000  0.04480000  1.0 -0.1574472761
C  C193  1  0.12230000  0.44190000  0.04820000  1.0 -0.1004218557
C  C194  1  0.12500000  0.38180000  0.01660000  1.0 -0.0108225921
C  C195  1  0.18150000  0.36270000  0.02480000  1.0 0.6673336043
C  C196  1  0.88470000  0.56220000  0.10610000  1.0 0.6294629663
C  C197  1  0.42530000  0.67310000  0.71340000  1.0 0.6294629663
C  C198  1  0.41580000  0.75570000  0.47450000  1.0 0.0026627631
C  C199  1  0.42140000  0.76610000  0.43410000  1.0 0.6160308882
C  C200  1  0.41700000  0.73800000  0.55920000  1.0 -0.0686974977
C  C201  1  0.41330000  0.69000000  0.49590000  1.0 -0.0809508473
C  C202  1  0.36570000  0.70530000  0.58160000  1.0 -0.1700073019
C  C203  1  0.36810000  0.68730000  0.61620000  1.0 -0.1109884199
C  C204  1  0.41750000  0.80370000  0.53440000  1.0 -0.1292467933
C  C205  1  0.41910000  0.72480000  0.60170000  1.0 -0.0013934227
C  C206  1  0.41140000  0.69940000  0.45360000  1.0 -0.1387230036
C  C207  1  0.47350000  0.73020000  0.66210000  1.0 0.0393044963
C  C208  1  0.42560000  0.69030000  0.67610000  1.0 -0.0368076259
C  C209  1  0.41680000  0.79240000  0.57420000  1.0 -0.060606379
C  C210  1  0.47710000  0.71450000  0.70100000  1.0 -0.1524892495
C  C211  1  0.95450000  0.70000000  0.43270000  1.0 0.5553360894
C  C212  1  0.18830000  0.12780000  0.82630000  1.0 0.6355884462
C  C213  1  0.04230000  0.88140000  0.59430000  1.0 0.0393044963
C  C214  1  0.99250000  0.85650000  0.52060000  1.0 -0.0179712164
C  C215  1  0.96530000  0.79550000  0.46880000  1.0 -0.1182792239
C  C216  1  0.98780000  0.75950000  0.49090000  1.0 -0.0903492383
C  C217  1  0.03750000  0.78430000  0.56460000  1.0 -0.0368076259
C  C218  1  0.06490000  0.84530000  0.61640000  1.0 -0.1524892495
C  C219  1  0.07840000  0.94850000  0.65470000  1.0 0.0316680281
C  C220  1  0.11330000  0.96590000  0.64880000  1.0 0.0026627631
C  C221  1  0.14780000  0.02460000  0.70360000  1.0 -0.1700073019
C  C222  1  0.14730000  0.06580000  0.76410000  1.0 -0.0108225921
C  C223  1  0.11240000  0.04840000  0.77000000  1.0 -0.0686974977
C  C224  1  0.07790000  0.98970000  0.71520000  1.0 -0.1387230036
C  C225  1  0.42590000  0.95540000  0.97830000  1.0 0.0210064847
C  C226  1  0.37890000  0.90670000  0.92940000  1.0 -0.1700073019
C  C227  1  0.38990000  0.84940000  0.90510000  1.0 -0.1004218557
C  C228  1  0.44780000  0.84080000  0.92960000  1.0 -0.0319346971
C  C229  1  0.49470000  0.88930000  0.97840000  1.0 -0.1524892495
C  C230  1  0.48380000  0.94660000  0.00280000  1.0 0.0026627631
C  C231  1  0.35910000  0.09600000  0.01830000  1.0 -0.1574472761
C  C232  1  0.38170000  0.04940000  0.02170000  1.0 0.0210064847
C  C233  1  0.41020000  0.01520000  0.99020000  1.0 0.0316680281
C  C234  1  0.41620000  0.02760000  0.95520000  1.0 -0.1574472761
C  C235  1  0.39370000  0.07410000  0.95180000  1.0 -0.1004218557
C  C236  1  0.36520000  0.10840000  0.98340000  1.0 -0.0108225921
C  C237  1  0.33790000  0.15670000  0.97520000  1.0 0.6673336043
C  C238  1  0.45610000  0.77860000  0.89390000  1.0 0.6294629663
C  C239  1  0.95970000  0.71190000  0.28660000  1.0 0.6294629663
C  C240  1  0.28120000  0.94130000  0.52550000  1.0 0.0026627631
C  C241  1  0.33200000  0.98730000  0.56590000  1.0 0.6160308882
C  C242  1  0.17880000  0.85780000  0.44080000  1.0 -0.0686974977
C  C243  1  0.19410000  0.91740000  0.50410000  1.0 -0.0809508473
C  C244  1  0.12370000  0.78410000  0.41840000  1.0 -0.1700073019
C  C245  1  0.07110000  0.75190000  0.38380000  1.0 -0.1109884199
C  C246  1  0.26930000  0.88310000  0.46560000  1.0 -0.1292467933
C  C247  1  0.12310000  0.81740000  0.39830000  1.0 -0.0013934227
C  C248  1  0.24580000  0.95780000  0.54640000  1.0 -0.1387230036
C  C249  1  0.06810000  0.81140000  0.33790000  1.0 0.0393044963
C  C250  1  0.01420000  0.74950000  0.32390000  1.0 -0.0368076259
C  C251  1  0.21820000  0.84260000  0.42580000  1.0 -0.060606379
C  C252  1  0.01350000  0.77610000  0.29900000  1.0 -0.1524892495
C  C253  1  0.30000000  0.73270000  0.25450000  1.0 0.5553360894
C  C254  1  0.87220000  0.69850000  0.06050000  1.0 0.6355884462
C  C255  1  0.11860000  0.71290000  0.16090000  1.0 0.0393044963
C  C256  1  0.14350000  0.66410000  0.13600000  1.0 -0.0179712164
C  C257  1  0.20450000  0.67330000  0.16980000  1.0 -0.1182792239
C  C258  1  0.24050000  0.73140000  0.22830000  1.0 -0.0903492383
C  C259  1  0.21570000  0.78030000  0.25320000  1.0 -0.0368076259
C  C260  1  0.15470000  0.77110000  0.21960000  1.0 -0.1524892495
C  C261  1  0.05150000  0.70620000  0.12990000  1.0 0.0316680281
C  C262  1  0.03410000  0.68290000  0.14740000  1.0 -0.0013934227
C  C263  1  0.97540000  0.67900000  0.12320000  1.0 -0.1700073019
C  C264  1  0.93420000  0.69830000  0.08150000  1.0 -0.0108225921
C  C265  1  0.95160000  0.72160000  0.06400000  1.0 -0.0686974977
C  C266  1  0.01030000  0.72550000  0.08820000  1.0 -0.1387230036
C  C267  1  0.04460000  0.02290000  0.47050000  1.0 0.0210064847
C  C268  1  0.09330000  0.02270000  0.47220000  1.0 -0.1700073019
C  C269  1  0.15060000  0.05570000  0.54050000  1.0 -0.1004218557
C  C270  1  0.15920000  0.08880000  0.60700000  1.0 -0.0319346971
C  C271  1  0.11070000  0.08910000  0.60540000  1.0 -0.1524892495
C  C272  1  0.05340000  0.05620000  0.53720000  1.0 0.0026627631
C  C273  1  0.90400000  0.92230000  0.26310000  1.0 -0.1574472761
C  C274  1  0.95060000  0.97230000  0.33230000  1.0 0.0123903999
C  C275  1  0.98480000  0.97500000  0.39500000  1.0 0.0316680281
C  C276  1  0.97240000  0.92760000  0.38860000  1.0 -0.1574472761
C  C277  1  0.92590000  0.87770000  0.31960000  1.0 -0.1004218557
C  C278  1  0.89160000  0.87500000  0.25680000  1.0 -0.0108225921
C  C279  1  0.84330000  0.81850000  0.18120000  1.0 0.6673336043
C  C280  1  0.22140000  0.11530000  0.67750000  1.0 0.6294629663
C  C281  1  0.28810000  0.57470000  0.24780000  1.0 0.6294629663
C  C282  1  0.05870000  0.58420000  0.33990000  1.0 0.0026627631
C  C283  1  0.01270000  0.57860000  0.34470000  1.0 0.6160308882
C  C284  1  0.14220000  0.58300000  0.32100000  1.0 -0.0686974977
C  C285  1  0.08260000  0.58670000  0.27670000  1.0 -0.0809508473
C  C286  1  0.21590000  0.63430000  0.33960000  1.0 -0.1700073019
C  C287  1  0.24810000  0.63190000  0.31920000  1.0 -0.1109884199
C  C288  1  0.11690000  0.58250000  0.38620000  1.0 -0.1292467933
C  C289  1  0.18260000  0.58090000  0.30570000  1.0 -0.0013934227
C  C290  1  0.04220000  0.58860000  0.28800000  1.0 -0.1387230036
C  C291  1  0.18860000  0.52650000  0.25670000  1.0 0.0393044963
C  C292  1  0.25050000  0.57440000  0.26470000  1.0 -0.0368076259
C  C293  1  0.15740000  0.58320000  0.37560000  1.0 -0.060606379
C  C294  1  0.22390000  0.52290000  0.23740000  1.0 -0.1524892495
C  C295  1  0.47820000  0.04550000  0.74550000  1.0 0.5553360894
C  C296  1  0.63800000  0.81170000  0.93950000  1.0 0.6355884462
C  C297  1  0.55200000  0.95770000  0.83910000  1.0 0.0393044963
C  C298  1  0.52810000  0.00750000  0.86400000  1.0 -0.0179712164
C  C299  1  0.50350000  0.03470000  0.83020000  1.0 -0.1182792239
C  C300  1  0.50310000  0.01220000  0.77170000  1.0 -0.0903492383
C  C301  1  0.52710000  0.96250000  0.74680000  1.0 -0.0368076259
C  C302  1  0.55150000  0.93510000  0.78040000  1.0 -0.1524892495
C  C303  1  0.57630000  0.92160000  0.87010000  1.0 0.0316680281
C  C304  1  0.53550000  0.88670000  0.85260000  1.0 0.0026627631
C  C305  1  0.55580000  0.85220000  0.87680000  1.0 -0.1700073019
C  C306  1  0.61680000  0.85270000  0.91850000  1.0 -0.0108225921
C  C307  1  0.65760000  0.88760000  0.93600000  1.0 -0.0686974977
C  C308  1  0.63730000  0.92210000  0.91180000  1.0 -0.1387230036
C  C309  1  0.55240000  0.57410000  0.52950000  1.0 0.0210064847
C  C310  1  0.55050000  0.62110000  0.52780000  1.0 -0.1700073019
C  C311  1  0.51520000  0.61010000  0.45950000  1.0 -0.1004218557
C  C312  1  0.48180000  0.55220000  0.39300000  1.0 -0.0319346971
C  C313  1  0.48370000  0.50530000  0.39460000  1.0 -0.1524892495
C  C314  1  0.51900000  0.51620000  0.46280000  1.0 0.0026627631
C  C315  1  0.65920000  0.64090000  0.73690000  1.0 -0.1574472761
C  C316  1  0.64000000  0.61830000  0.66770000  1.0 0.0123903999
C  C317  1  0.58000000  0.58980000  0.60500000  1.0 0.0316680281
C  C318  1  0.53900000  0.58380000  0.61140000  1.0 -0.1574472761
C  C319  1  0.55810000  0.60630000  0.68040000  1.0 -0.1004218557
C  C320  1  0.61820000  0.63480000  0.74320000  1.0 -0.0108225921
C  C321  1  0.63730000  0.66210000  0.81880000  1.0 0.6673336043
C  C322  1  0.43780000  0.54390000  0.32250000  1.0 0.6294629663
C  C323  1  0.32690000  0.04030000  0.75220000  1.0 0.6294629663
C  C324  1  0.24430000  0.71880000  0.66010000  1.0 0.0026627631
C  C325  1  0.23390000  0.66800000  0.65530000  1.0 0.6160308882
C  C326  1  0.26200000  0.82120000  0.67900000  1.0 -0.0686974977
C  C327  1  0.31000000  0.80590000  0.72330000  1.0 -0.0809508473
C  C328  1  0.29470000  0.87630000  0.66040000  1.0 -0.1700073019
C  C329  1  0.31270000  0.92890000  0.68080000  1.0 -0.1109884199
C  C330  1  0.19630000  0.73070000  0.61380000  1.0 -0.1292467933
C  C331  1  0.27520000  0.87690000  0.69430000  1.0 -0.0013934227
C  C332  1  0.30060000  0.75420000  0.71200000  1.0 -0.1387230036
C  C333  1  0.26980000  0.93190000  0.74330000  1.0 0.0393044963
C  C334  1  0.30970000  0.98580000  0.73530000  1.0 -0.0368076259
C  C335  1  0.20760000  0.78180000  0.62440000  1.0 -0.060606379
C  C336  1  0.28550000  0.98650000  0.76260000  1.0 -0.1524892495
N  N1  1  0.35560000  0.36300000  0.57940000  1.0 0.4002851828
N  N2  1  0.40200000  0.32050000  0.68050000  1.0 0.2120357064
N  N3  1  0.81070000  0.25350000  0.04220000  1.0 0.496788708
N  N4  1  0.76800000  0.20920000  0.83100000  1.0 0.4002851828
N  N5  1  0.21300000  0.40660000  0.71420000  1.0 0.3335442876
N  N6  1  0.35180000  0.31440000  0.73060000  1.0 0.2919767066
N  N7  1  0.22100000  0.59580000  0.43960000  1.0 0.2212149345
N  N8  1  0.78360000  0.77620000  0.42060000  1.0 0.4002851828
N  N9  1  0.64000000  0.72150000  0.31950000  1.0 0.2120357064
N  N10  1  0.21130000  0.76850000  0.95780000  1.0 0.496788708
N  N11  1  0.37820000  0.93700000  0.16900000  1.0 0.4002851828
N  N12  1  0.69240000  0.49880000  0.28580000  1.0 0.3335442876
N  N13  1  0.58380000  0.62120000  0.26940000  1.0 0.2919767066
N  N14  1  0.15620000  0.78140000  0.56040000  1.0 0.2212149345
N  N15  1  0.63700000  0.21640000  0.99260000  1.0 0.4002851828
N  N16  1  0.67950000  0.36000000  0.08150000  1.0 0.2120357064
N  N17  1  0.74650000  0.78870000  0.55720000  1.0 0.496788708
N  N18  1  0.79080000  0.62180000  0.55880000  1.0 0.4058271661
N  N19  1  0.59340000  0.30760000  0.80640000  1.0 0.3335442876
N  N20  1  0.68560000  0.41620000  0.03740000  1.0 0.2919767066
N  N21  1  0.40420000  0.84380000  0.62520000  1.0 0.2212149345
N  N22  1  0.22380000  0.64440000  0.00740000  1.0 0.3939287602
N  N23  1  0.27850000  0.59800000  0.91850000  1.0 0.2120357064
N  N24  1  0.23150000  0.18930000  0.44280000  1.0 0.496788708
N  N25  1  0.06300000  0.23200000  0.44120000  1.0 0.4002851828
N  N26  1  0.50120000  0.78700000  0.19360000  1.0 0.3335442876
N  N27  1  0.37880000  0.64820000  0.96260000  1.0 0.2919767066
N  N28  1  0.21860000  0.77900000  0.37480000  1.0 0.2212149345
N  N29  1  0.39440000  0.47380000  0.50740000  1.0 0.3939287602
N  N30  1  0.34800000  0.52850000  0.41850000  1.0 0.2120357064
N  N31  1  0.93930000  0.48150000  0.94280000  1.0 0.496788708
N  N32  1  0.98200000  0.31300000  0.94120000  1.0 0.4058271661
N  N33  1  0.53700000  0.75120000  0.69360000  1.0 0.3335442876
N  N34  1  0.39820000  0.62880000  0.46260000  1.0 0.2919767066
N  N35  1  0.52900000  0.46860000  0.87480000  1.0 0.2212149345
N  N36  1  0.96640000  0.88700000  0.49260000  1.0 0.4002851828
N  N37  1  0.11000000  0.92950000  0.58150000  1.0 0.2120357064
N  N38  1  0.53870000  0.99650000  0.05720000  1.0 0.496788708
N  N39  1  0.37180000  0.04080000  0.05880000  1.0 0.4002851828
N  N40  1  0.05760000  0.84340000  0.30640000  1.0 0.3335442876
N  N41  1  0.16620000  0.93560000  0.53740000  1.0 0.2919767066
N  N42  1  0.59380000  0.65420000  0.12520000  1.0 0.2212149345
N  N43  1  0.11300000  0.60560000  0.07940000  1.0 0.3939287602
N  N44  1  0.07050000  0.65200000  0.18050000  1.0 0.2120357064
N  N45  1  0.00350000  0.06070000  0.54220000  1.0 0.496788708
N  N46  1  0.95920000  0.01800000  0.33100000  1.0 0.4002851828
N  N47  1  0.15660000  0.46300000  0.21420000  1.0 0.342049615
N  N48  1  0.06440000  0.60180000  0.23060000  1.0 0.2919767066
N  N49  1  0.34580000  0.47100000  0.93960000  1.0 0.2212149345
N  N50  1  0.52620000  0.03360000  0.92060000  1.0 0.3939287602
N  N51  1  0.47150000  0.89000000  0.81950000  1.0 0.2120357064
N  N52  1  0.51850000  0.46130000  0.45780000  1.0 0.496788708
N  N53  1  0.68700000  0.62820000  0.66900000  1.0 0.4002851828
N  N54  1  0.24880000  0.94240000  0.78580000  1.0 0.3335442876
N  N55  1  0.37120000  0.83380000  0.76940000  1.0 0.2919767066
N  N56  1  0.53140000  0.40620000  0.06040000  1.0 0.2303854986
N  N57  1  0.43910000  0.93910000  0.50000000  1.0 0.3490565434
N  N58  1  0.06090000  0.56090000  0.50000000  1.0 0.342049615
N  N59  1  0.31090000  0.31090000  0.00000000  1.0 0.3490565434
N  N60  1  0.68910000  0.68910000  0.00000000  1.0 0.342049615
O  O1  1  0.46227000  0.91007000  0.46880000  1.0 -0.5039383844
O  O2  1  0.46710000  0.08820000  0.52570000  1.0 -0.619355733
O  O3  1  0.43060000  0.10970000  0.58030000  1.0 -0.6020591319
O  O4  1  0.31280000  0.38500000  0.55760000  1.0 -0.1900963843
O  O5  1  0.34010000  0.31500000  0.53910000  1.0 -0.0903492383
O  O6  1  0.44210000  0.57190000  0.73160000  1.0 -0.5074271667
O  O7  1  0.53090000  0.58400000  0.80370000  1.0 -0.4694642113
O  O8  1  0.35730000  0.29790000  0.66060000  1.0 0.0123903999
O  O9  1  0.43070000  0.36770000  0.73300000  1.0 -0.1292467933
O  O10  1  0.56650000  0.06220000  0.62370000  1.0 -0.7196710692
O  O11  1  0.90330000  0.47570000  0.23820000  1.0 -0.6672681034
O  O12  1  0.85160000  0.51300000  0.17520000  1.0 -0.6020591319
O  O13  1  0.52880000  0.08560000  0.68100000  1.0 -0.6346155242
O  O14  1  0.79660000  0.19910000  0.98810000  1.0 -0.3161391112
O  O15  1  0.82030000  0.26360000  0.09290000  1.0 -0.288571997
O  O16  1  0.81610000  0.23390000  0.88520000  1.0 -0.1292467933
O  O17  1  0.76650000  0.19400000  0.79150000  1.0 0.0584312824
O  O18  1  0.33977000  0.21277000  0.81340000  1.0 -0.6762832836
O  O19  1  0.31160000  0.27600000  0.88180000  1.0 -0.619355733
O  O20  1  0.37150000  0.56130000  0.77200000  1.0 -0.6020591319
O  O21  1  0.21130000  0.37330000  0.72340000  1.0 -0.2824811772
O  O22  1  0.17050000  0.42080000  0.68510000  1.0 -0.2372189075
O  O23  1  0.27340000  0.54760000  0.71060000  1.0 -0.7274097637
O  O24  1  0.38250000  0.28020000  0.72430000  1.0 -0.2004165337
O  O25  1  0.32810000  0.33460000  0.69490000  1.0 -0.2004165337
O  O26  1  0.23580000  0.60800000  0.49460000  1.0 -0.3095934294
O  O27  1  0.25650000  0.58680000  0.42810000  1.0 -0.2247025207
O  O28  1  0.44127000  0.99347000  0.53120000  1.0 -0.5074271667
O  O29  1  0.56250000  0.94140000  0.47430000  1.0 -0.619355733
O  O30  1  0.52940000  0.85030000  0.41970000  1.0 -0.6020591319
O  O31  1  0.82740000  0.75520000  0.44240000  1.0 -0.1900963843
O  O32  1  0.77590000  0.80100000  0.46090000  1.0 -0.0903492383
O  O33  1  0.84030000  0.71050000  0.26840000  1.0 -0.5074271667
O  O34  1  0.78030000  0.72720000  0.19630000  1.0 -0.4694642113
O  O35  1  0.63730000  0.69670000  0.33940000  1.0 0.0123903999
O  O36  1  0.63470000  0.69770000  0.26700000  1.0 -0.1292467933
O  O37  1  0.43850000  0.94280000  0.37630000  1.0 -0.7196710692
O  O38  1  0.23750000  0.66510000  0.76180000  1.0 -0.6672681034
O  O39  1  0.33780000  0.67640000  0.82480000  1.0 -0.6020591319
O  O40  1  0.40460000  0.84780000  0.31900000  1.0 -0.6356416777
O  O41  1  0.21100000  0.80850000  0.01190000  1.0 -0.3161391112
O  O42  1  0.17070000  0.72740000  0.90710000  1.0 -0.288571997
O  O43  1  0.34870000  0.93090000  0.11480000  1.0 -0.1292467933
O  O44  1  0.40250000  0.97500000  0.20850000  1.0 0.0584312824
O  O45  1  0.39937000  0.52637000  0.18660000  1.0 -0.6762832836
O  O46  1  0.39420000  0.42980000  0.11820000  1.0 -0.619355733
O  O47  1  0.78930000  0.59950000  0.22800000  1.0 -0.6020591319
O  O48  1  0.64990000  0.48790000  0.27660000  1.0 -0.2824811772
O  O49  1  0.73570000  0.48540000  0.31490000  1.0 -0.2372189075
O  O50  1  0.83700000  0.56280000  0.28940000  1.0 -0.7274097637
O  O51  1  0.55590000  0.65820000  0.27570000  1.0 -0.2004165337
O  O52  1  0.63970000  0.63320000  0.30510000  1.0 -0.2051724479
O  O53  1  0.11340000  0.74120000  0.50540000  1.0 -0.3095934294
O  O54  1  0.15870000  0.82840000  0.57190000  1.0 -0.2281446592
O  O55  1  0.08993000  0.55873000  0.55220000  1.0 -0.5039383844
O  O56  1  0.91180000  0.43750000  0.37890000  1.0 -0.619355733
O  O57  1  0.89030000  0.47060000  0.32090000  1.0 -0.6020591319
O  O58  1  0.61500000  0.17260000  0.92780000  1.0 -0.1900963843
O  O59  1  0.68500000  0.22410000  0.02510000  1.0 -0.0903492383
O  O60  1  0.42810000  0.15970000  0.87020000  1.0 -0.5074271667
O  O61  1  0.41600000  0.21970000  0.94690000  1.0 -0.4694642113
O  O62  1  0.70210000  0.36270000  0.05940000  1.0 0.0210064847
O  O63  1  0.63230000  0.36530000  0.06300000  1.0 -0.1292467933
O  O64  1  0.93780000  0.56150000  0.50430000  1.0 -0.7196710692
O  O65  1  0.52430000  0.76250000  0.42760000  1.0 -0.6672681034
O  O66  1  0.48700000  0.66220000  0.33860000  1.0 -0.6020591319
O  O67  1  0.91440000  0.59540000  0.44320000  1.0 -0.6346155242
O  O68  1  0.80090000  0.78900000  0.59750000  1.0 -0.3161391112
O  O69  1  0.73640000  0.82930000  0.55670000  1.0 -0.288571997
O  O70  1  0.76610000  0.65130000  0.58220000  1.0 -0.1387230036
O  O71  1  0.80600000  0.59750000  0.57250000  1.0 0.0584312824
O  O72  1  0.78723000  0.60063000  0.12700000  1.0 -0.6762832836
O  O73  1  0.72400000  0.60580000  0.03560000  1.0 -0.619355733
O  O74  1  0.43870000  0.21070000  0.81020000  1.0 -0.6020591319
O  O75  1  0.62670000  0.35010000  0.83800000  1.0 -0.2824811772
O  O76  1  0.57920000  0.26430000  0.74970000  1.0 -0.2372189075
O  O77  1  0.45240000  0.16300000  0.72580000  1.0 -0.7274097637
O  O78  1  0.71980000  0.44410000  0.10230000  1.0 -0.2004165337
O  O79  1  0.66540000  0.36030000  0.99350000  1.0 -0.2004165337
O  O80  1  0.39200000  0.88660000  0.62780000  1.0 -0.3095934294
O  O81  1  0.41320000  0.84130000  0.66970000  1.0 -0.2281446592
O  O82  1  0.00653000  0.53773000  0.44780000  1.0 -0.5074271667
O  O83  1  0.05860000  0.53290000  0.62110000  1.0 -0.619355733
O  O84  1  0.14970000  0.56940000  0.67910000  1.0 -0.6020591319
O  O85  1  0.24480000  0.68720000  0.07220000  1.0 -0.1900963843
O  O86  1  0.19900000  0.65990000  0.97490000  1.0 -0.0903492383
O  O87  1  0.28950000  0.55790000  0.12980000  1.0 -0.5074271667
O  O88  1  0.27280000  0.46910000  0.05310000  1.0 -0.4694642113
O  O89  1  0.30330000  0.64270000  0.94060000  1.0 0.0123903999
O  O90  1  0.30230000  0.56930000  0.93700000  1.0 -0.1292467933
O  O91  1  0.05720000  0.43350000  0.49570000  1.0 -0.7196710692
O  O92  1  0.33490000  0.09670000  0.57240000  1.0 -0.6672681034
O  O93  1  0.32360000  0.14840000  0.66140000  1.0 -0.6020591319
O  O94  1  0.15220000  0.47120000  0.55680000  1.0 -0.6346155242
O  O95  1  0.19150000  0.20340000  0.40250000  1.0 -0.3161391112
O  O96  1  0.27260000  0.17970000  0.44330000  1.0 -0.288571997
O  O97  1  0.06910000  0.18390000  0.41780000  1.0 -0.1292467933
O  O98  1  0.02500000  0.23350000  0.42750000  1.0 0.0584312824
O  O99  1  0.47363000  0.66023000  0.87300000  1.0 -0.6762832836
O  O100  1  0.57020000  0.68840000  0.96440000  1.0 -0.619355733
O  O101  1  0.40050000  0.62850000  0.18980000  1.0 -0.6020591319
O  O102  1  0.51210000  0.78870000  0.16200000  1.0 -0.2824811772
O  O103  1  0.51460000  0.82950000  0.25030000  1.0 -0.2372189075
O  O104  1  0.43720000  0.72660000  0.27420000  1.0 -0.7274097637
O  O105  1  0.34180000  0.61750000  0.89770000  1.0 -0.2004165337
O  O106  1  0.36680000  0.67190000  0.00650000  1.0 -0.2051724479
O  O107  1  0.25880000  0.76420000  0.37220000  1.0 -0.3095934294
O  O108  1  0.17160000  0.74350000  0.33030000  1.0 -0.2281446592
O  O109  1  0.28773000  0.25653000  0.94780000  1.0 -0.5074271667
O  O110  1  0.28290000  0.30860000  0.12110000  1.0 -0.619355733
O  O111  1  0.31940000  0.39970000  0.17910000  1.0 -0.6020591319
O  O112  1  0.43720000  0.49480000  0.57220000  1.0 -0.1900963843
O  O113  1  0.40990000  0.44900000  0.47490000  1.0 -0.0903492383
O  O114  1  0.30790000  0.53950000  0.62980000  1.0 -0.5074271667
O  O115  1  0.21910000  0.52280000  0.55310000  1.0 -0.4694642113
O  O116  1  0.39270000  0.55330000  0.44060000  1.0 0.0123903999
O  O117  1  0.31930000  0.55230000  0.43700000  1.0 -0.1292467933
O  O118  1  0.18350000  0.30720000  0.99570000  1.0 -0.7196710692
O  O119  1  0.84670000  0.58490000  0.07240000  1.0 -0.6672681034
O  O120  1  0.89840000  0.57360000  0.16140000  1.0 -0.6020591319
O  O121  1  0.22120000  0.40220000  0.05680000  1.0 -0.6356416777
O  O122  1  0.95340000  0.44150000  0.90250000  1.0 -0.3161391112
O  O123  1  0.92970000  0.52260000  0.94330000  1.0 -0.288571997
O  O124  1  0.93390000  0.31910000  0.91780000  1.0 -0.1387230036
O  O125  1  0.98350000  0.27500000  0.92750000  1.0 0.0455993093
O  O126  1  0.41023000  0.72363000  0.37300000  1.0 -0.6762832836
O  O127  1  0.43840000  0.82020000  0.46440000  1.0 -0.619355733
O  O128  1  0.37850000  0.65050000  0.68980000  1.0 -0.6020591319
O  O129  1  0.53870000  0.76210000  0.66200000  1.0 -0.2824811772
O  O130  1  0.57950000  0.76460000  0.75030000  1.0 -0.2372189075
O  O131  1  0.47660000  0.68720000  0.77420000  1.0 -0.7274097637
O  O132  1  0.36750000  0.59180000  0.39770000  1.0 -0.2004165337
O  O133  1  0.42190000  0.61680000  0.50650000  1.0 -0.2004165337
O  O134  1  0.51420000  0.50880000  0.87220000  1.0 -0.3095934294
O  O135  1  0.49350000  0.42160000  0.83030000  1.0 -0.2281446592
O  O136  1  0.30873000  0.33993000  0.05220000  1.0 -0.5039383844
O  O137  1  0.18750000  0.16180000  0.87890000  1.0 -0.619355733
O  O138  1  0.22060000  0.14030000  0.82090000  1.0 -0.6020591319
O  O139  1  0.92260000  0.86500000  0.42780000  1.0 -0.1900963843
O  O140  1  0.97410000  0.93500000  0.52510000  1.0 -0.0903492383
O  O141  1  0.90970000  0.67810000  0.37020000  1.0 -0.5074271667
O  O142  1  0.96970000  0.66600000  0.44690000  1.0 -0.4694642113
O  O143  1  0.11270000  0.95210000  0.55940000  1.0 0.0123903999
O  O144  1  0.11530000  0.88230000  0.56300000  1.0 -0.1292467933
O  O145  1  0.31150000  0.18780000  0.00430000  1.0 -0.7196710692
O  O146  1  0.51250000  0.77430000  0.92760000  1.0 -0.6672681034
O  O147  1  0.41220000  0.73700000  0.83860000  1.0 -0.6020591319
O  O148  1  0.34540000  0.16440000  0.94320000  1.0 -0.6356416777
O  O149  1  0.53900000  0.05090000  0.09750000  1.0 -0.3161391112
O  O150  1  0.57930000  0.98640000  0.05670000  1.0 -0.288571997
O  O151  1  0.40130000  0.01610000  0.08220000  1.0 -0.1292467933
O  O152  1  0.34750000  0.05600000  0.07250000  1.0 0.0584312824
O  O153  1  0.35063000  0.03723000  0.62700000  1.0 -0.6762832836
O  O154  1  0.35580000  0.97400000  0.53560000  1.0 -0.619355733
O  O155  1  0.96070000  0.68870000  0.31020000  1.0 -0.6020591319
O  O156  1  0.10010000  0.87670000  0.33800000  1.0 -0.2824811772
O  O157  1  0.01430000  0.82920000  0.24970000  1.0 -0.2372189075
O  O158  1  0.91300000  0.70240000  0.22580000  1.0 -0.7274097637
O  O159  1  0.19410000  0.96980000  0.60230000  1.0 -0.2004165337
O  O160  1  0.11030000  0.91540000  0.49350000  1.0 -0.2051724479
O  O161  1  0.63660000  0.64200000  0.12780000  1.0 -0.3095934294
O  O162  1  0.59130000  0.66320000  0.16970000  1.0 -0.2281446592
O  O163  1  0.66007000  0.71227000  0.96880000  1.0 -0.5039383844
O  O164  1  0.83820000  0.71710000  0.02570000  1.0 -0.619355733
O  O165  1  0.85970000  0.68060000  0.08030000  1.0 -0.6020591319
O  O166  1  0.13500000  0.56280000  0.05760000  1.0 -0.1900963843
O  O167  1  0.06500000  0.59010000  0.03910000  1.0 -0.0903492383
O  O168  1  0.32190000  0.69210000  0.23160000  1.0 -0.5074271667
O  O169  1  0.33400000  0.78090000  0.30370000  1.0 -0.4694642113
O  O170  1  0.04790000  0.60730000  0.16060000  1.0 0.0210064847
O  O171  1  0.11770000  0.68070000  0.23300000  1.0 -0.1292467933
O  O172  1  0.81220000  0.81650000  0.12370000  1.0 -0.7196710692
O  O173  1  0.22570000  0.15330000  0.73820000  1.0 -0.6672681034
O  O174  1  0.26300000  0.10160000  0.67520000  1.0 -0.6020591319
O  O175  1  0.83560000  0.77880000  0.18100000  1.0 -0.6356416777
O  O176  1  0.94910000  0.04660000  0.48810000  1.0 -0.3095934294
O  O177  1  0.01360000  0.07030000  0.59290000  1.0 -0.288571997
O  O178  1  0.98390000  0.06610000  0.38520000  1.0 -0.1292467933
O  O179  1  0.94400000  0.01650000  0.29150000  1.0 0.0584312824
O  O180  1  0.96277000  0.58977000  0.31340000  1.0 -0.6762832836
O  O181  1  0.02600000  0.56160000  0.38180000  1.0 -0.619355733
O  O182  1  0.31130000  0.62150000  0.27200000  1.0 -0.6020591319
O  O183  1  0.12330000  0.46130000  0.22340000  1.0 -0.2824811772
O  O184  1  0.17080000  0.42050000  0.18510000  1.0 -0.2372189075
O  O185  1  0.29760000  0.52340000  0.21060000  1.0 -0.7274097637
O  O186  1  0.03020000  0.63250000  0.22430000  1.0 -0.2004165337
O  O187  1  0.08460000  0.57810000  0.19490000  1.0 -0.2051724479
O  O188  1  0.35800000  0.48580000  0.99460000  1.0 -0.3095934294
O  O189  1  0.33680000  0.50650000  0.92810000  1.0 -0.2281446592
O  O190  1  0.74347000  0.69127000  0.03120000  1.0 -0.5039383844
O  O191  1  0.69140000  0.81250000  0.97430000  1.0 -0.619355733
O  O192  1  0.60030000  0.77940000  0.91970000  1.0 -0.6020591319
O  O193  1  0.50520000  0.07740000  0.94240000  1.0 -0.1900963843
O  O194  1  0.55100000  0.02590000  0.96090000  1.0 -0.0903492383
O  O195  1  0.46050000  0.09030000  0.76840000  1.0 -0.5074271667
O  O196  1  0.47720000  0.03030000  0.69630000  1.0 -0.4694642113
O  O197  1  0.44670000  0.88730000  0.83940000  1.0 0.0123903999
O  O198  1  0.44770000  0.88470000  0.76700000  1.0 -0.1292467933
O  O199  1  0.69280000  0.68850000  0.87630000  1.0 -0.7196710692
O  O200  1  0.41510000  0.48750000  0.26180000  1.0 -0.6672681034
O  O201  1  0.42640000  0.58780000  0.32480000  1.0 -0.6020591319
O  O202  1  0.59780000  0.65460000  0.81900000  1.0 -0.6356416777
O  O203  1  0.55850000  0.46100000  0.51190000  1.0 -0.3161391112
O  O204  1  0.47740000  0.42070000  0.40710000  1.0 -0.288571997
O  O205  1  0.68090000  0.59870000  0.61480000  1.0 -0.1182792239
O  O206  1  0.72500000  0.65250000  0.70850000  1.0 0.0584312824
O  O207  1  0.27637000  0.64937000  0.68660000  1.0 -0.6762832836
O  O208  1  0.17980000  0.64420000  0.61820000  1.0 -0.619355733
O  O209  1  0.34950000  0.03930000  0.72800000  1.0 -0.6020591319
O  O210  1  0.23790000  0.89990000  0.77660000  1.0 -0.2824811772
O  O211  1  0.23540000  0.98570000  0.81490000  1.0 -0.2372189075
O  O212  1  0.31280000  0.08700000  0.78940000  1.0 -0.7274097637
O  O213  1  0.40820000  0.80590000  0.77570000  1.0 -0.2004165337
O  O214  1  0.38320000  0.88970000  0.80510000  1.0 -0.2051724479
O  O215  1  0.49120000  0.36340000  0.00540000  1.0 -0.3095934294
O  O216  1  0.57840000  0.40870000  0.07190000  1.0 -0.2281446592
