# DDEC6 charges by PACMAN v1.1 (https://github.com/mtap-research/PACMAN-charge/)
data_UHAXUW_ASR_pacman
_symmetry_space_group_name_H-M   'P 1'
_cell_length_a   7.68000000
_cell_length_b   10.02900000
_cell_length_c   25.78600000
_cell_angle_alpha   90.00000000
_cell_angle_beta   93.77900000
_cell_angle_gamma   90.00000000
_symmetry_Int_Tables_number   1
_chemical_formula_structural   CdH8C14S2N6O
_chemical_formula_sum   'Cd4 H32 C56 S8 N24 O4'
_cell_volume   1981.78944757
_cell_formula_units_Z   4
loop_
 _symmetry_equiv_pos_site_id
 _symmetry_equiv_pos_as_xyz
  1  'x, y, z'
loop_
 _atom_site_type_symbol
 _atom_site_label
 _atom_site_symmetry_multiplicity
 _atom_site_fract_x
 _atom_site_fract_y
 _atom_site_fract_z
 _atom_site_occupancy
 _atom_site_charge
Cd  Cd1  1  0.73472000  0.25815000  0.76152000  1.0 0.7335702916
Cd  Cd2  1  0.73472000  0.24185000  0.26152000  1.0 0.7335702916
Cd  Cd3  1  0.26528000  0.74185000  0.23848000  1.0 0.7335702916
Cd  Cd4  1  0.26528000  0.75815000  0.73848000  1.0 0.7335702916
H  H1  1  0.66360000  0.51510000  0.68890000  1.0 0.1095080813
H  H2  1  0.66360000  0.98490000  0.18890000  1.0 0.1095080813
H  H3  1  0.33640000  0.48490000  0.31110000  1.0 0.1095080813
H  H4  1  0.33640000  0.01510000  0.81110000  1.0 0.1095080813
H  H5  1  0.52810000  0.59170000  0.61330000  1.0 0.1318810498
H  H6  1  0.52810000  0.90830000  0.11330000  1.0 0.1318810498
H  H7  1  0.47190000  0.40830000  0.38670000  1.0 0.1318810498
H  H8  1  0.47190000  0.09170000  0.88670000  1.0 0.1318810498
H  H9  1  0.31600000  0.23030000  0.59050000  1.0 0.1378068318
H  H10  1  0.31600000  0.26970000  0.09050000  1.0 0.1378068318
H  H11  1  0.68400000  0.76970000  0.40950000  1.0 0.1378068318
H  H12  1  0.68400000  0.73030000  0.90950000  1.0 0.1378068318
H  H13  1  0.45710000  0.16330000  0.66720000  1.0 0.1154623543
H  H14  1  0.45710000  0.33670000  0.16720000  1.0 0.1154623543
H  H15  1  0.54290000  0.83670000  0.33280000  1.0 0.1154623543
H  H16  1  0.54290000  0.66330000  0.83280000  1.0 0.1154623543
H  H17  1  0.05470000  0.58650000  0.38670000  1.0 0.1318810498
H  H18  1  0.05470000  0.91350000  0.88670000  1.0 0.1318810498
H  H19  1  0.94530000  0.41350000  0.61330000  1.0 0.1318810498
H  H20  1  0.94530000  0.08650000  0.11330000  1.0 0.1318810498
H  H21  1  0.89510000  0.50260000  0.31610000  1.0 0.1095080813
H  H22  1  0.89510000  0.99740000  0.81610000  1.0 0.1095080813
H  H23  1  0.10490000  0.49740000  0.68390000  1.0 0.1095080813
H  H24  1  0.10490000  0.00260000  0.18390000  1.0 0.1095080813
H  H25  1  0.89370000  0.14820000  0.37660000  1.0 0.1095080813
H  H26  1  0.89370000  0.35180000  0.87660000  1.0 0.1095080813
H  H27  1  0.10630000  0.85180000  0.62340000  1.0 0.1095080813
H  H28  1  0.10630000  0.64820000  0.12340000  1.0 0.1095080813
H  H29  1  0.05470000  0.22090000  0.44990000  1.0 0.1378068318
H  H30  1  0.05470000  0.27910000  0.94990000  1.0 0.1378068318
H  H31  1  0.94530000  0.77910000  0.55010000  1.0 0.1378068318
H  H32  1  0.94530000  0.72090000  0.05010000  1.0 0.1378068318
C  C1  1  0.59400000  0.45670000  0.66862000  1.0 0.1019102725
C  C2  1  0.59400000  0.04330000  0.16862000  1.0 0.1019102725
C  C3  1  0.40600000  0.54330000  0.33138000  1.0 0.1019102725
C  C4  1  0.40600000  0.95670000  0.83138000  1.0 0.1019102725
C  C5  1  0.51330000  0.50350000  0.62323000  1.0 -0.158551237
C  C6  1  0.51330000  0.99650000  0.12323000  1.0 -0.158551237
C  C7  1  0.48670000  0.49650000  0.37677000  1.0 -0.158551237
C  C8  1  0.48670000  0.00350000  0.87677000  1.0 -0.158551237
C  C9  1  0.40960000  0.41830000  0.59221000  1.0 0.0423862366
C  C10  1  0.40960000  0.08170000  0.09221000  1.0 0.0423862366
C  C11  1  0.59040000  0.58170000  0.40779000  1.0 0.0423862366
C  C12  1  0.59040000  0.91830000  0.90779000  1.0 0.0423862366
C  C13  1  0.38750000  0.28960000  0.60970000  1.0 -0.158551237
C  C14  1  0.38750000  0.21040000  0.10970000  1.0 -0.158551237
C  C15  1  0.61250000  0.71040000  0.39030000  1.0 -0.158551237
C  C16  1  0.61250000  0.78960000  0.89030000  1.0 -0.158551237
C  C17  1  0.47270000  0.25010000  0.65580000  1.0 0.0910680657
C  C18  1  0.47270000  0.24990000  0.15580000  1.0 0.0910680657
C  C19  1  0.52730000  0.74990000  0.34420000  1.0 0.0910680657
C  C20  1  0.52730000  0.75010000  0.84420000  1.0 0.0910680657
C  C21  1  0.32900000  0.46710000  0.54380000  1.0 0.2884327759
C  C22  1  0.32900000  0.03290000  0.04380000  1.0 0.2884327759
C  C23  1  0.67100000  0.53290000  0.45620000  1.0 0.2884327759
C  C24  1  0.67100000  0.96710000  0.95620000  1.0 0.2884327759
C  C25  1  0.17980000  0.46430000  0.47082000  1.0 0.2962921848
C  C26  1  0.17980000  0.03570000  0.97082000  1.0 0.2962921848
C  C27  1  0.82020000  0.53570000  0.52918000  1.0 0.2962921848
C  C28  1  0.82020000  0.96430000  0.02918000  1.0 0.2962921848
C  C29  1  0.07490000  0.41100000  0.42609000  1.0 0.0423862366
C  C30  1  0.07490000  0.08900000  0.92609000  1.0 0.0423862366
C  C31  1  0.92510000  0.58900000  0.57391000  1.0 0.0423862366
C  C32  1  0.92510000  0.91100000  0.07391000  1.0 0.0423862366
C  C33  1  0.02440000  0.49670000  0.38534000  1.0 -0.158551237
C  C34  1  0.02440000  0.00330000  0.88534000  1.0 -0.158551237
C  C35  1  0.97560000  0.50330000  0.61466000  1.0 -0.158551237
C  C36  1  0.97560000  0.99670000  0.11466000  1.0 -0.158551237
C  C37  1  0.92900000  0.44530000  0.34327000  1.0 0.0910680657
C  C38  1  0.92900000  0.05470000  0.84327000  1.0 0.0910680657
C  C39  1  0.07100000  0.55470000  0.65673000  1.0 0.0910680657
C  C40  1  0.07100000  0.94530000  0.15673000  1.0 0.0910680657
C  C41  1  0.92790000  0.23710000  0.37870000  1.0 0.1019102725
C  C42  1  0.92790000  0.26290000  0.87870000  1.0 0.1019102725
C  C43  1  0.07210000  0.76290000  0.62130000  1.0 0.1019102725
C  C44  1  0.07210000  0.73710000  0.12130000  1.0 0.1019102725
C  C45  1  0.02470000  0.27980000  0.42300000  1.0 -0.149571878
C  C46  1  0.02470000  0.22020000  0.92300000  1.0 -0.149571878
C  C47  1  0.97530000  0.72020000  0.57700000  1.0 -0.149571878
C  C48  1  0.97530000  0.77980000  0.07700000  1.0 -0.149571878
C  C49  1  0.09620000  0.07220000  0.71455000  1.0 0.2795805176
C  C50  1  0.09620000  0.42780000  0.21455000  1.0 0.2795805176
C  C51  1  0.90380000  0.92780000  0.28545000  1.0 0.2795805176
C  C52  1  0.90380000  0.57220000  0.78545000  1.0 0.2795805176
C  C53  1  0.38220000  0.44770000  0.78190000  1.0 0.2795805176
C  C54  1  0.38220000  0.05230000  0.28190000  1.0 0.2795805176
C  C55  1  0.61780000  0.55230000  0.21810000  1.0 0.2795805176
C  C56  1  0.61780000  0.94770000  0.71810000  1.0 0.2795805176
S  S1  1  0.01920000  0.22135000  0.70196000  1.0 -0.3436174626
S  S2  1  0.01920000  0.27865000  0.20196000  1.0 -0.3436174626
S  S3  1  0.98080000  0.77865000  0.29804000  1.0 -0.3436174626
S  S4  1  0.98080000  0.72135000  0.79804000  1.0 -0.3436174626
S  S5  1  0.44770000  0.31494000  0.81555000  1.0 -0.3472122038
S  S6  1  0.44770000  0.18506000  0.31555000  1.0 -0.3472122038
S  S7  1  0.55230000  0.68506000  0.18445000  1.0 -0.3472122038
S  S8  1  0.55230000  0.81494000  0.68445000  1.0 -0.3472122038
N  N1  1  0.57780000  0.33210000  0.68513000  1.0 -0.2196400418
N  N2  1  0.57780000  0.16790000  0.18513000  1.0 -0.2196400418
N  N3  1  0.42220000  0.66790000  0.31487000  1.0 -0.2196400418
N  N4  1  0.42220000  0.83210000  0.81487000  1.0 -0.2196400418
N  N5  1  0.33500000  0.58680000  0.52518000  1.0 -0.2407760034
N  N6  1  0.33500000  0.91320000  0.02518000  1.0 -0.2407760034
N  N7  1  0.66500000  0.41320000  0.47482000  1.0 -0.2407760034
N  N8  1  0.66500000  0.08680000  0.97482000  1.0 -0.2407760034
N  N9  1  0.23830000  0.58410000  0.47707000  1.0 -0.2506548884
N  N10  1  0.23830000  0.91590000  0.97707000  1.0 -0.2506548884
N  N11  1  0.76170000  0.41590000  0.52293000  1.0 -0.2506548884
N  N12  1  0.76170000  0.08410000  0.02293000  1.0 -0.2506548884
N  N13  1  0.88200000  0.31770000  0.33909000  1.0 -0.2196400418
N  N14  1  0.88200000  0.18230000  0.83909000  1.0 -0.2196400418
N  N15  1  0.11800000  0.68230000  0.66091000  1.0 -0.2196400418
N  N16  1  0.11800000  0.81770000  0.16091000  1.0 -0.2196400418
N  N17  1  0.15280000  0.96910000  0.72373000  1.0 -0.4594665515
N  N18  1  0.15280000  0.53090000  0.22373000  1.0 -0.4594665515
N  N19  1  0.84720000  0.03090000  0.27627000  1.0 -0.4594665515
N  N20  1  0.84720000  0.46910000  0.77627000  1.0 -0.4594665515
N  N21  1  0.34120000  0.54200000  0.75839000  1.0 -0.4594665515
N  N22  1  0.34120000  0.95800000  0.25839000  1.0 -0.4594665515
N  N23  1  0.65880000  0.45800000  0.24161000  1.0 -0.4594665515
N  N24  1  0.65880000  0.04200000  0.74161000  1.0 -0.4594665515
O  O1  1  0.23170000  0.38320000  0.51169000  1.0 -0.1658484648
O  O2  1  0.23170000  0.11680000  0.01169000  1.0 -0.1658484648
O  O3  1  0.76830000  0.61680000  0.48831000  1.0 -0.1658484648
O  O4  1  0.76830000  0.88320000  0.98831000  1.0 -0.1658484648
