# DDEC6 charges by PACMAN v1.1 (https://github.com/mtap-research/PACMAN-charge/)
data_UHIRIP_ASR_pacman
_symmetry_space_group_name_H-M   'P 1'
_cell_length_a   22.34290000
_cell_length_b   22.34290000
_cell_length_c   22.34290000
_cell_angle_alpha   90.00000000
_cell_angle_beta   90.00000000
_cell_angle_gamma   90.00000000
_symmetry_Int_Tables_number   1
_chemical_formula_structural   Co3H10C24N3O13
_chemical_formula_sum   'Co24 H80 C192 N24 O104'
_cell_volume   11153.69142538
_cell_formula_units_Z   8
loop_
 _symmetry_equiv_pos_site_id
 _symmetry_equiv_pos_as_xyz
  1  'x, y, z'
loop_
 _atom_site_type_symbol
 _atom_site_label
 _atom_site_symmetry_multiplicity
 _atom_site_fract_x
 _atom_site_fract_y
 _atom_site_fract_z
 _atom_site_occupancy
 _atom_site_charge
Co  Co1  1  0.69076000  0.82305000  0.24112000  1.0 1.1218885969
Co  Co2  1  0.30924000  0.17695000  0.24112000  1.0 1.1218885969
Co  Co3  1  0.30924000  0.82305000  0.75888000  1.0 1.1218885969
Co  Co4  1  0.69076000  0.17695000  0.75888000  1.0 1.1218885969
Co  Co5  1  0.24112000  0.69076000  0.82305000  1.0 1.1218885969
Co  Co6  1  0.24112000  0.30924000  0.17695000  1.0 1.1218885969
Co  Co7  1  0.75888000  0.30924000  0.82305000  1.0 1.1218885969
Co  Co8  1  0.75888000  0.69076000  0.17695000  1.0 1.1218885969
Co  Co9  1  0.82305000  0.24112000  0.69076000  1.0 1.1218885969
Co  Co10  1  0.17695000  0.24112000  0.30924000  1.0 1.1218885969
Co  Co11  1  0.82305000  0.75888000  0.30924000  1.0 1.1218885969
Co  Co12  1  0.17695000  0.75888000  0.69076000  1.0 1.1218885969
Co  Co13  1  0.32305000  0.19076000  0.74112000  1.0 1.1218885969
Co  Co14  1  0.67695000  0.80924000  0.74112000  1.0 1.1218885969
Co  Co15  1  0.32305000  0.80924000  0.25888000  1.0 1.1218885969
Co  Co16  1  0.67695000  0.19076000  0.25888000  1.0 1.1218885969
Co  Co17  1  0.19076000  0.74112000  0.32305000  1.0 1.1218885969
Co  Co18  1  0.80924000  0.74112000  0.67695000  1.0 1.1218885969
Co  Co19  1  0.80924000  0.25888000  0.32305000  1.0 1.1218885969
Co  Co20  1  0.19076000  0.25888000  0.67695000  1.0 1.1218885969
Co  Co21  1  0.74112000  0.32305000  0.19076000  1.0 1.1218885969
Co  Co22  1  0.74112000  0.67695000  0.80924000  1.0 1.1218885969
Co  Co23  1  0.25888000  0.32305000  0.80924000  1.0 1.1218885969
Co  Co24  1  0.25888000  0.67695000  0.19076000  1.0 1.1218885969
H  H1  1  0.59096000  0.78153000  0.39515000  1.0 0.1303527926
H  H2  1  0.58314000  0.77947000  0.57443000  1.0 0.1303527926
H  H3  1  0.74130000  0.77999000  0.49305000  1.0 0.1303527926
H  H4  1  0.40904000  0.21847000  0.39515000  1.0 0.1303527926
H  H5  1  0.41686000  0.22053000  0.57443000  1.0 0.1303527926
H  H6  1  0.25870000  0.22001000  0.49305000  1.0 0.1303527926
H  H7  1  0.40904000  0.78153000  0.60485000  1.0 0.1303527926
H  H8  1  0.41686000  0.77947000  0.42557000  1.0 0.1303527926
H  H9  1  0.25870000  0.77999000  0.50695000  1.0 0.1303527926
H  H10  1  0.59096000  0.21847000  0.60485000  1.0 0.1303527926
H  H11  1  0.58314000  0.22053000  0.42557000  1.0 0.1303527926
H  H12  1  0.74130000  0.22001000  0.50695000  1.0 0.1303527926
H  H13  1  0.39515000  0.59096000  0.78153000  1.0 0.1303527926
H  H14  1  0.57443000  0.58314000  0.77947000  1.0 0.1303527926
H  H15  1  0.49305000  0.74130000  0.77999000  1.0 0.1303527926
H  H16  1  0.39515000  0.40904000  0.21847000  1.0 0.1303527926
H  H17  1  0.57443000  0.41686000  0.22053000  1.0 0.1303527926
H  H18  1  0.49305000  0.25870000  0.22001000  1.0 0.1303527926
H  H19  1  0.60485000  0.40904000  0.78153000  1.0 0.1303527926
H  H20  1  0.42557000  0.41686000  0.77947000  1.0 0.1303527926
H  H21  1  0.50695000  0.25870000  0.77999000  1.0 0.1303527926
H  H22  1  0.60485000  0.59096000  0.21847000  1.0 0.1303527926
H  H23  1  0.42557000  0.58314000  0.22053000  1.0 0.1303527926
H  H24  1  0.50695000  0.74130000  0.22001000  1.0 0.1303527926
H  H25  1  0.78153000  0.39515000  0.59096000  1.0 0.1303527926
H  H26  1  0.77947000  0.57443000  0.58314000  1.0 0.1303527926
H  H27  1  0.77999000  0.49305000  0.74130000  1.0 0.1303527926
H  H28  1  0.21847000  0.39515000  0.40904000  1.0 0.1303527926
H  H29  1  0.22053000  0.57443000  0.41686000  1.0 0.1303527926
H  H30  1  0.22001000  0.49305000  0.25870000  1.0 0.1303527926
H  H31  1  0.78153000  0.60485000  0.40904000  1.0 0.1303527926
H  H32  1  0.77947000  0.42557000  0.41686000  1.0 0.1303527926
H  H33  1  0.77999000  0.50695000  0.25870000  1.0 0.1303527926
H  H34  1  0.21847000  0.60485000  0.59096000  1.0 0.1303527926
H  H35  1  0.22053000  0.42557000  0.58314000  1.0 0.1303527926
H  H36  1  0.22001000  0.50695000  0.74130000  1.0 0.1303527926
H  H37  1  0.28153000  0.09096000  0.89515000  1.0 0.1303527926
H  H38  1  0.27947000  0.08314000  0.07443000  1.0 0.1303527926
H  H39  1  0.27999000  0.24130000  0.99305000  1.0 0.1303527926
H  H40  1  0.71847000  0.90904000  0.89515000  1.0 0.1303527926
H  H41  1  0.72053000  0.91686000  0.07443000  1.0 0.1303527926
H  H42  1  0.72001000  0.75870000  0.99305000  1.0 0.1303527926
H  H43  1  0.28153000  0.90904000  0.10485000  1.0 0.1303527926
H  H44  1  0.27947000  0.91686000  0.92557000  1.0 0.1303527926
H  H45  1  0.27999000  0.75870000  0.00695000  1.0 0.1303527926
H  H46  1  0.71847000  0.09096000  0.10485000  1.0 0.1303527926
H  H47  1  0.72053000  0.08314000  0.92557000  1.0 0.1303527926
H  H48  1  0.72001000  0.24130000  0.00695000  1.0 0.1303527926
H  H49  1  0.09096000  0.89515000  0.28153000  1.0 0.1303527926
H  H50  1  0.08314000  0.07443000  0.27947000  1.0 0.1303527926
H  H51  1  0.24130000  0.99305000  0.27999000  1.0 0.1303527926
H  H52  1  0.90904000  0.89515000  0.71847000  1.0 0.1303527926
H  H53  1  0.91686000  0.07443000  0.72053000  1.0 0.1303527926
H  H54  1  0.75870000  0.99305000  0.72001000  1.0 0.1303527926
H  H55  1  0.90904000  0.10485000  0.28153000  1.0 0.1303527926
H  H56  1  0.91686000  0.92557000  0.27947000  1.0 0.1303527926
H  H57  1  0.75870000  0.00695000  0.27999000  1.0 0.1303527926
H  H58  1  0.09096000  0.10485000  0.71847000  1.0 0.1303527926
H  H59  1  0.08314000  0.92557000  0.72053000  1.0 0.1303527926
H  H60  1  0.24130000  0.00695000  0.72001000  1.0 0.1303527926
H  H61  1  0.89515000  0.28153000  0.09096000  1.0 0.1303527926
H  H62  1  0.07443000  0.27947000  0.08314000  1.0 0.1303527926
H  H63  1  0.99305000  0.27999000  0.24130000  1.0 0.1303527926
H  H64  1  0.89515000  0.71847000  0.90904000  1.0 0.1303527926
H  H65  1  0.07443000  0.72053000  0.91686000  1.0 0.1303527926
H  H66  1  0.99305000  0.72001000  0.75870000  1.0 0.1303527926
H  H67  1  0.10485000  0.28153000  0.90904000  1.0 0.1303527926
H  H68  1  0.92557000  0.27947000  0.91686000  1.0 0.1303527926
H  H69  1  0.00695000  0.27999000  0.75870000  1.0 0.1303527926
H  H70  1  0.10485000  0.71847000  0.09096000  1.0 0.1303527926
H  H71  1  0.92557000  0.72053000  0.08314000  1.0 0.1303527926
H  H72  1  0.00695000  0.72001000  0.24130000  1.0 0.1303527926
H  H73  1  0.78335000  0.78335000  0.21665000  1.0 0.3605270053
H  H74  1  0.21665000  0.21665000  0.21665000  1.0 0.3605270053
H  H75  1  0.21665000  0.78335000  0.78335000  1.0 0.3605270053
H  H76  1  0.78335000  0.21665000  0.78335000  1.0 0.3605270053
H  H77  1  0.28335000  0.28335000  0.71665000  1.0 0.3605270053
H  H78  1  0.71665000  0.71665000  0.71665000  1.0 0.3605270053
H  H79  1  0.28335000  0.71665000  0.28335000  1.0 0.3605270053
H  H80  1  0.71665000  0.28335000  0.28335000  1.0 0.3605270053
C  C1  1  0.70630000  0.79050000  0.37880000  1.0 0.5900498346
C  C2  1  0.67170000  0.78560000  0.43570000  1.0 -0.0098833168
C  C3  1  0.61020000  0.78280000  0.43200000  1.0 -0.139788062
C  C4  1  0.57850000  0.78210000  0.48440000  1.0 0.1427000131
C  C5  1  0.60620000  0.78070000  0.53980000  1.0 -0.139788062
C  C6  1  0.66540000  0.78090000  0.54400000  1.0 0.0005802871
C  C7  1  0.69980000  0.78190000  0.49090000  1.0 -0.0820362093
C  C8  1  0.69680000  0.77820000  0.60410000  1.0 0.5900498346
C  C9  1  0.29370000  0.20950000  0.37880000  1.0 0.5900498346
C  C10  1  0.32830000  0.21440000  0.43570000  1.0 -0.0098833168
C  C11  1  0.38980000  0.21720000  0.43200000  1.0 -0.139788062
C  C12  1  0.42150000  0.21790000  0.48440000  1.0 0.1427000131
C  C13  1  0.39380000  0.21930000  0.53980000  1.0 -0.139788062
C  C14  1  0.33460000  0.21910000  0.54400000  1.0 0.0005802871
C  C15  1  0.30020000  0.21810000  0.49090000  1.0 -0.0820362093
C  C16  1  0.30320000  0.22180000  0.60410000  1.0 0.5900498346
C  C17  1  0.29370000  0.79050000  0.62120000  1.0 0.5900498346
C  C18  1  0.32830000  0.78560000  0.56430000  1.0 -0.0098833168
C  C19  1  0.38980000  0.78280000  0.56800000  1.0 -0.139788062
C  C20  1  0.42150000  0.78210000  0.51560000  1.0 0.1427000131
C  C21  1  0.39380000  0.78070000  0.46020000  1.0 -0.139788062
C  C22  1  0.33460000  0.78090000  0.45600000  1.0 0.0005802871
C  C23  1  0.30020000  0.78190000  0.50910000  1.0 -0.0820362093
C  C24  1  0.30320000  0.77820000  0.39590000  1.0 0.5900498346
C  C25  1  0.70630000  0.20950000  0.62120000  1.0 0.5900498346
C  C26  1  0.67170000  0.21440000  0.56430000  1.0 -0.0098833168
C  C27  1  0.61020000  0.21720000  0.56800000  1.0 -0.139788062
C  C28  1  0.57850000  0.21790000  0.51560000  1.0 0.1427000131
C  C29  1  0.60620000  0.21930000  0.46020000  1.0 -0.139788062
C  C30  1  0.66540000  0.21910000  0.45600000  1.0 0.0005802871
C  C31  1  0.69980000  0.21810000  0.50910000  1.0 -0.0820362093
C  C32  1  0.69680000  0.22180000  0.39590000  1.0 0.5900498346
C  C33  1  0.37880000  0.70630000  0.79050000  1.0 0.5900498346
C  C34  1  0.43570000  0.67170000  0.78560000  1.0 -0.0098833168
C  C35  1  0.43200000  0.61020000  0.78280000  1.0 -0.139788062
C  C36  1  0.48440000  0.57850000  0.78210000  1.0 0.1427000131
C  C37  1  0.53980000  0.60620000  0.78070000  1.0 -0.139788062
C  C38  1  0.54400000  0.66540000  0.78090000  1.0 0.0005802871
C  C39  1  0.49090000  0.69980000  0.78190000  1.0 -0.0820362093
C  C40  1  0.60410000  0.69680000  0.77820000  1.0 0.5900498346
C  C41  1  0.37880000  0.29370000  0.20950000  1.0 0.5900498346
C  C42  1  0.43570000  0.32830000  0.21440000  1.0 -0.0098833168
C  C43  1  0.43200000  0.38980000  0.21720000  1.0 -0.139788062
C  C44  1  0.48440000  0.42150000  0.21790000  1.0 0.1427000131
C  C45  1  0.53980000  0.39380000  0.21930000  1.0 -0.139788062
C  C46  1  0.54400000  0.33460000  0.21910000  1.0 0.0005802871
C  C47  1  0.49090000  0.30020000  0.21810000  1.0 -0.0820362093
C  C48  1  0.60410000  0.30320000  0.22180000  1.0 0.5900498346
C  C49  1  0.62120000  0.29370000  0.79050000  1.0 0.5900498346
C  C50  1  0.56430000  0.32830000  0.78560000  1.0 -0.0098833168
C  C51  1  0.56800000  0.38980000  0.78280000  1.0 -0.139788062
C  C52  1  0.51560000  0.42150000  0.78210000  1.0 0.1427000131
C  C53  1  0.46020000  0.39380000  0.78070000  1.0 -0.139788062
C  C54  1  0.45600000  0.33460000  0.78090000  1.0 0.0005802871
C  C55  1  0.50910000  0.30020000  0.78190000  1.0 -0.0820362093
C  C56  1  0.39590000  0.30320000  0.77820000  1.0 0.5900498346
C  C57  1  0.62120000  0.70630000  0.20950000  1.0 0.5900498346
C  C58  1  0.56430000  0.67170000  0.21440000  1.0 -0.0098833168
C  C59  1  0.56800000  0.61020000  0.21720000  1.0 -0.139788062
C  C60  1  0.51560000  0.57850000  0.21790000  1.0 0.1427000131
C  C61  1  0.46020000  0.60620000  0.21930000  1.0 -0.139788062
C  C62  1  0.45600000  0.66540000  0.21910000  1.0 0.0005802871
C  C63  1  0.50910000  0.69980000  0.21810000  1.0 -0.0820362093
C  C64  1  0.39590000  0.69680000  0.22180000  1.0 0.5900498346
C  C65  1  0.79050000  0.37880000  0.70630000  1.0 0.5900498346
C  C66  1  0.78560000  0.43570000  0.67170000  1.0 -0.0098833168
C  C67  1  0.78280000  0.43200000  0.61020000  1.0 -0.139788062
C  C68  1  0.78210000  0.48440000  0.57850000  1.0 0.1427000131
C  C69  1  0.78070000  0.53980000  0.60620000  1.0 -0.139788062
C  C70  1  0.78090000  0.54400000  0.66540000  1.0 0.0005802871
C  C71  1  0.78190000  0.49090000  0.69980000  1.0 -0.0820362093
C  C72  1  0.77820000  0.60410000  0.69680000  1.0 0.5900498346
C  C73  1  0.20950000  0.37880000  0.29370000  1.0 0.5900498346
C  C74  1  0.21440000  0.43570000  0.32830000  1.0 -0.0098833168
C  C75  1  0.21720000  0.43200000  0.38980000  1.0 -0.139788062
C  C76  1  0.21790000  0.48440000  0.42150000  1.0 0.1427000131
C  C77  1  0.21930000  0.53980000  0.39380000  1.0 -0.139788062
C  C78  1  0.21910000  0.54400000  0.33460000  1.0 0.0005802871
C  C79  1  0.21810000  0.49090000  0.30020000  1.0 -0.0820362093
C  C80  1  0.22180000  0.60410000  0.30320000  1.0 0.5900498346
C  C81  1  0.79050000  0.62120000  0.29370000  1.0 0.5900498346
C  C82  1  0.78560000  0.56430000  0.32830000  1.0 -0.0098833168
C  C83  1  0.78280000  0.56800000  0.38980000  1.0 -0.139788062
C  C84  1  0.78210000  0.51560000  0.42150000  1.0 0.1427000131
C  C85  1  0.78070000  0.46020000  0.39380000  1.0 -0.139788062
C  C86  1  0.78090000  0.45600000  0.33460000  1.0 0.0005802871
C  C87  1  0.78190000  0.50910000  0.30020000  1.0 -0.0820362093
C  C88  1  0.77820000  0.39590000  0.30320000  1.0 0.5900498346
C  C89  1  0.20950000  0.62120000  0.70630000  1.0 0.5900498346
C  C90  1  0.21440000  0.56430000  0.67170000  1.0 -0.0098833168
C  C91  1  0.21720000  0.56800000  0.61020000  1.0 -0.139788062
C  C92  1  0.21790000  0.51560000  0.57850000  1.0 0.1427000131
C  C93  1  0.21930000  0.46020000  0.60620000  1.0 -0.139788062
C  C94  1  0.21910000  0.45600000  0.66540000  1.0 0.0005802871
C  C95  1  0.21810000  0.50910000  0.69980000  1.0 -0.0820362093
C  C96  1  0.22180000  0.39590000  0.69680000  1.0 0.5900498346
C  C97  1  0.29050000  0.20630000  0.87880000  1.0 0.5900498346
C  C98  1  0.28560000  0.17170000  0.93570000  1.0 -0.0098833168
C  C99  1  0.28280000  0.11020000  0.93200000  1.0 -0.139788062
C  C100  1  0.28210000  0.07850000  0.98440000  1.0 0.1427000131
C  C101  1  0.28070000  0.10620000  0.03980000  1.0 -0.139788062
C  C102  1  0.28090000  0.16540000  0.04400000  1.0 0.0005802871
C  C103  1  0.28190000  0.19980000  0.99090000  1.0 -0.0820362093
C  C104  1  0.27820000  0.19680000  0.10410000  1.0 0.5900498346
C  C105  1  0.70950000  0.79370000  0.87880000  1.0 0.5900498346
C  C106  1  0.71440000  0.82830000  0.93570000  1.0 -0.0098833168
C  C107  1  0.71720000  0.88980000  0.93200000  1.0 -0.139788062
C  C108  1  0.71790000  0.92150000  0.98440000  1.0 0.1427000131
C  C109  1  0.71930000  0.89380000  0.03980000  1.0 -0.139788062
C  C110  1  0.71910000  0.83460000  0.04400000  1.0 0.0005802871
C  C111  1  0.71810000  0.80020000  0.99090000  1.0 -0.0820362093
C  C112  1  0.72180000  0.80320000  0.10410000  1.0 0.5900498346
C  C113  1  0.29050000  0.79370000  0.12120000  1.0 0.5900498346
C  C114  1  0.28560000  0.82830000  0.06430000  1.0 -0.0098833168
C  C115  1  0.28280000  0.88980000  0.06800000  1.0 -0.139788062
C  C116  1  0.28210000  0.92150000  0.01560000  1.0 0.1427000131
C  C117  1  0.28070000  0.89380000  0.96020000  1.0 -0.139788062
C  C118  1  0.28090000  0.83460000  0.95600000  1.0 0.0005802871
C  C119  1  0.28190000  0.80020000  0.00910000  1.0 -0.0820362093
C  C120  1  0.27820000  0.80320000  0.89590000  1.0 0.5900498346
C  C121  1  0.70950000  0.20630000  0.12120000  1.0 0.5900498346
C  C122  1  0.71440000  0.17170000  0.06430000  1.0 -0.0098833168
C  C123  1  0.71720000  0.11020000  0.06800000  1.0 -0.139788062
C  C124  1  0.71790000  0.07850000  0.01560000  1.0 0.1427000131
C  C125  1  0.71930000  0.10620000  0.96020000  1.0 -0.139788062
C  C126  1  0.71910000  0.16540000  0.95600000  1.0 0.0005802871
C  C127  1  0.71810000  0.19980000  0.00910000  1.0 -0.0820362093
C  C128  1  0.72180000  0.19680000  0.89590000  1.0 0.5900498346
C  C129  1  0.20630000  0.87880000  0.29050000  1.0 0.5900498346
C  C130  1  0.17170000  0.93570000  0.28560000  1.0 -0.0098833168
C  C131  1  0.11020000  0.93200000  0.28280000  1.0 -0.139788062
C  C132  1  0.07850000  0.98440000  0.28210000  1.0 0.1427000131
C  C133  1  0.10620000  0.03980000  0.28070000  1.0 -0.139788062
C  C134  1  0.16540000  0.04400000  0.28090000  1.0 0.0005802871
C  C135  1  0.19980000  0.99090000  0.28190000  1.0 -0.0820362093
C  C136  1  0.19680000  0.10410000  0.27820000  1.0 0.5900498346
C  C137  1  0.79370000  0.87880000  0.70950000  1.0 0.5900498346
C  C138  1  0.82830000  0.93570000  0.71440000  1.0 -0.0098833168
C  C139  1  0.88980000  0.93200000  0.71720000  1.0 -0.139788062
C  C140  1  0.92150000  0.98440000  0.71790000  1.0 0.1427000131
C  C141  1  0.89380000  0.03980000  0.71930000  1.0 -0.139788062
C  C142  1  0.83460000  0.04400000  0.71910000  1.0 0.0005802871
C  C143  1  0.80020000  0.99090000  0.71810000  1.0 -0.0820362093
C  C144  1  0.80320000  0.10410000  0.72180000  1.0 0.5900498346
C  C145  1  0.79370000  0.12120000  0.29050000  1.0 0.5900498346
C  C146  1  0.82830000  0.06430000  0.28560000  1.0 -0.0098833168
C  C147  1  0.88980000  0.06800000  0.28280000  1.0 -0.139788062
C  C148  1  0.92150000  0.01560000  0.28210000  1.0 0.1427000131
C  C149  1  0.89380000  0.96020000  0.28070000  1.0 -0.139788062
C  C150  1  0.83460000  0.95600000  0.28090000  1.0 0.0005802871
C  C151  1  0.80020000  0.00910000  0.28190000  1.0 -0.0820362093
C  C152  1  0.80320000  0.89590000  0.27820000  1.0 0.5900498346
C  C153  1  0.20630000  0.12120000  0.70950000  1.0 0.5900498346
C  C154  1  0.17170000  0.06430000  0.71440000  1.0 -0.0098833168
C  C155  1  0.11020000  0.06800000  0.71720000  1.0 -0.139788062
C  C156  1  0.07850000  0.01560000  0.71790000  1.0 0.1427000131
C  C157  1  0.10620000  0.96020000  0.71930000  1.0 -0.139788062
C  C158  1  0.16540000  0.95600000  0.71910000  1.0 0.0005802871
C  C159  1  0.19980000  0.00910000  0.71810000  1.0 -0.0820362093
C  C160  1  0.19680000  0.89590000  0.72180000  1.0 0.5900498346
C  C161  1  0.87880000  0.29050000  0.20630000  1.0 0.5900498346
C  C162  1  0.93570000  0.28560000  0.17170000  1.0 -0.0098833168
C  C163  1  0.93200000  0.28280000  0.11020000  1.0 -0.139788062
C  C164  1  0.98440000  0.28210000  0.07850000  1.0 0.1427000131
C  C165  1  0.03980000  0.28070000  0.10620000  1.0 -0.139788062
C  C166  1  0.04400000  0.28090000  0.16540000  1.0 -0.0003356674
C  C167  1  0.99090000  0.28190000  0.19980000  1.0 -0.0820362093
C  C168  1  0.10410000  0.27820000  0.19680000  1.0 0.5900498346
C  C169  1  0.87880000  0.70950000  0.79370000  1.0 0.5900498346
C  C170  1  0.93570000  0.71440000  0.82830000  1.0 -0.0098833168
C  C171  1  0.93200000  0.71720000  0.88980000  1.0 -0.139788062
C  C172  1  0.98440000  0.71790000  0.92150000  1.0 0.1427000131
C  C173  1  0.03980000  0.71930000  0.89380000  1.0 -0.139788062
C  C174  1  0.04400000  0.71910000  0.83460000  1.0 0.0005802871
C  C175  1  0.99090000  0.71810000  0.80020000  1.0 -0.0820362093
C  C176  1  0.10410000  0.72180000  0.80320000  1.0 0.5900498346
C  C177  1  0.12120000  0.29050000  0.79370000  1.0 0.5900498346
C  C178  1  0.06430000  0.28560000  0.82830000  1.0 -0.0098833168
C  C179  1  0.06800000  0.28280000  0.88980000  1.0 -0.139788062
C  C180  1  0.01560000  0.28210000  0.92150000  1.0 0.1427000131
C  C181  1  0.96020000  0.28070000  0.89380000  1.0 -0.139788062
C  C182  1  0.95600000  0.28090000  0.83460000  1.0 0.0005802871
C  C183  1  0.00910000  0.28190000  0.80020000  1.0 -0.0820362093
C  C184  1  0.89590000  0.27820000  0.80320000  1.0 0.5900498346
C  C185  1  0.12120000  0.70950000  0.20630000  1.0 0.5900498346
C  C186  1  0.06430000  0.71440000  0.17170000  1.0 -0.0098833168
C  C187  1  0.06800000  0.71720000  0.11020000  1.0 -0.139788062
C  C188  1  0.01560000  0.71790000  0.07850000  1.0 0.1427000131
C  C189  1  0.96020000  0.71930000  0.10620000  1.0 -0.139788062
C  C190  1  0.95600000  0.71910000  0.16540000  1.0 0.0005802871
C  C191  1  0.00910000  0.71810000  0.19980000  1.0 -0.0820362093
C  C192  1  0.89590000  0.72180000  0.19680000  1.0 0.5900498346
N  N1  1  0.51380000  0.78090000  0.47740000  1.0 -0.0913330713
N  N2  1  0.48620000  0.21910000  0.47740000  1.0 -0.0913330713
N  N3  1  0.48620000  0.78090000  0.52260000  1.0 -0.0913330713
N  N4  1  0.51380000  0.21910000  0.52260000  1.0 -0.0913330713
N  N5  1  0.47740000  0.51380000  0.78090000  1.0 -0.0913330713
N  N6  1  0.47740000  0.48620000  0.21910000  1.0 -0.0913330713
N  N7  1  0.52260000  0.48620000  0.78090000  1.0 -0.0913330713
N  N8  1  0.52260000  0.51380000  0.21910000  1.0 -0.0913330713
N  N9  1  0.78090000  0.47740000  0.51380000  1.0 -0.0913330713
N  N10  1  0.21910000  0.47740000  0.48620000  1.0 -0.0913330713
N  N11  1  0.78090000  0.52260000  0.48620000  1.0 -0.0913330713
N  N12  1  0.21910000  0.52260000  0.51380000  1.0 -0.0913330713
N  N13  1  0.28090000  0.01380000  0.97740000  1.0 -0.0913330713
N  N14  1  0.71910000  0.98620000  0.97740000  1.0 -0.0913330713
N  N15  1  0.28090000  0.98620000  0.02260000  1.0 -0.0913330713
N  N16  1  0.71910000  0.01380000  0.02260000  1.0 -0.0913330713
N  N17  1  0.01380000  0.97740000  0.28090000  1.0 -0.0913330713
N  N18  1  0.98620000  0.97740000  0.71910000  1.0 -0.0913330713
N  N19  1  0.98620000  0.02260000  0.28090000  1.0 -0.0913330713
N  N20  1  0.01380000  0.02260000  0.71910000  1.0 -0.0913330713
N  N21  1  0.97740000  0.28090000  0.01380000  1.0 -0.0913330713
N  N22  1  0.97740000  0.71910000  0.98620000  1.0 -0.0913330713
N  N23  1  0.02260000  0.28090000  0.98620000  1.0 -0.0913330713
N  N24  1  0.02260000  0.71910000  0.01380000  1.0 -0.0913330713
O  O1  1  0.67640000  0.80490000  0.33310000  1.0 -0.5521876176
O  O2  1  0.76060000  0.77740000  0.38040000  1.0 -0.5407954265
O  O3  1  0.74944000  0.76400000  0.60498000  1.0 -0.5245333124
O  O4  1  0.66280000  0.79080000  0.64694000  1.0 -0.5562373955
O  O5  1  0.32360000  0.19510000  0.33310000  1.0 -0.5521876176
O  O6  1  0.23940000  0.22260000  0.38040000  1.0 -0.5407954265
O  O7  1  0.25056000  0.23600000  0.60498000  1.0 -0.5245333124
O  O8  1  0.33720000  0.20920000  0.64694000  1.0 -0.5562373955
O  O9  1  0.32360000  0.80490000  0.66690000  1.0 -0.5521876176
O  O10  1  0.23940000  0.77740000  0.61960000  1.0 -0.5407954265
O  O11  1  0.25056000  0.76400000  0.39502000  1.0 -0.5245333124
O  O12  1  0.33720000  0.79080000  0.35306000  1.0 -0.5562373955
O  O13  1  0.67640000  0.19510000  0.66690000  1.0 -0.5521876176
O  O14  1  0.76060000  0.22260000  0.61960000  1.0 -0.5407954265
O  O15  1  0.74944000  0.23600000  0.39502000  1.0 -0.5245333124
O  O16  1  0.66280000  0.20920000  0.35306000  1.0 -0.5562373955
O  O17  1  0.33310000  0.67640000  0.80490000  1.0 -0.5521876176
O  O18  1  0.38040000  0.76060000  0.77740000  1.0 -0.5407954265
O  O19  1  0.60498000  0.74944000  0.76400000  1.0 -0.5245333124
O  O20  1  0.64694000  0.66280000  0.79080000  1.0 -0.5562373955
O  O21  1  0.33310000  0.32360000  0.19510000  1.0 -0.5521876176
O  O22  1  0.38040000  0.23940000  0.22260000  1.0 -0.5407954265
O  O23  1  0.60498000  0.25056000  0.23600000  1.0 -0.5245333124
O  O24  1  0.64694000  0.33720000  0.20920000  1.0 -0.5562373955
O  O25  1  0.66690000  0.32360000  0.80490000  1.0 -0.5521876176
O  O26  1  0.61960000  0.23940000  0.77740000  1.0 -0.5407954265
O  O27  1  0.39502000  0.25056000  0.76400000  1.0 -0.5245333124
O  O28  1  0.35306000  0.33720000  0.79080000  1.0 -0.5562373955
O  O29  1  0.66690000  0.67640000  0.19510000  1.0 -0.5521876176
O  O30  1  0.61960000  0.76060000  0.22260000  1.0 -0.5407954265
O  O31  1  0.39502000  0.74944000  0.23600000  1.0 -0.5245333124
O  O32  1  0.35306000  0.66280000  0.20920000  1.0 -0.5562373955
O  O33  1  0.80490000  0.33310000  0.67640000  1.0 -0.5521876176
O  O34  1  0.77740000  0.38040000  0.76060000  1.0 -0.5407954265
O  O35  1  0.76400000  0.60498000  0.74944000  1.0 -0.5245333124
O  O36  1  0.79080000  0.64694000  0.66280000  1.0 -0.5562373955
O  O37  1  0.19510000  0.33310000  0.32360000  1.0 -0.5521876176
O  O38  1  0.22260000  0.38040000  0.23940000  1.0 -0.5407954265
O  O39  1  0.23600000  0.60498000  0.25056000  1.0 -0.5245333124
O  O40  1  0.20920000  0.64694000  0.33720000  1.0 -0.5562373955
O  O41  1  0.80490000  0.66690000  0.32360000  1.0 -0.5521876176
O  O42  1  0.77740000  0.61960000  0.23940000  1.0 -0.5407954265
O  O43  1  0.76400000  0.39502000  0.25056000  1.0 -0.5245333124
O  O44  1  0.79080000  0.35306000  0.33720000  1.0 -0.5562373955
O  O45  1  0.19510000  0.66690000  0.67640000  1.0 -0.5521876176
O  O46  1  0.22260000  0.61960000  0.76060000  1.0 -0.5407954265
O  O47  1  0.23600000  0.39502000  0.74944000  1.0 -0.5245333124
O  O48  1  0.20920000  0.35306000  0.66280000  1.0 -0.5562373955
O  O49  1  0.30490000  0.17640000  0.83310000  1.0 -0.5521876176
O  O50  1  0.27740000  0.26060000  0.88040000  1.0 -0.5407954265
O  O51  1  0.26400000  0.24944000  0.10498000  1.0 -0.5245333124
O  O52  1  0.29080000  0.16280000  0.14694000  1.0 -0.5562373955
O  O53  1  0.69510000  0.82360000  0.83310000  1.0 -0.5521876176
O  O54  1  0.72260000  0.73940000  0.88040000  1.0 -0.5407954265
O  O55  1  0.73600000  0.75056000  0.10498000  1.0 -0.5245333124
O  O56  1  0.70920000  0.83720000  0.14694000  1.0 -0.5562373955
O  O57  1  0.30490000  0.82360000  0.16690000  1.0 -0.5521876176
O  O58  1  0.27740000  0.73940000  0.11960000  1.0 -0.5407954265
O  O59  1  0.26400000  0.75056000  0.89502000  1.0 -0.5245333124
O  O60  1  0.29080000  0.83720000  0.85306000  1.0 -0.5562373955
O  O61  1  0.69510000  0.17640000  0.16690000  1.0 -0.5521876176
O  O62  1  0.72260000  0.26060000  0.11960000  1.0 -0.5407954265
O  O63  1  0.73600000  0.24944000  0.89502000  1.0 -0.5245333124
O  O64  1  0.70920000  0.16280000  0.85306000  1.0 -0.5562373955
O  O65  1  0.17640000  0.83310000  0.30490000  1.0 -0.5521876176
O  O66  1  0.26060000  0.88040000  0.27740000  1.0 -0.5407954265
O  O67  1  0.24944000  0.10498000  0.26400000  1.0 -0.5245333124
O  O68  1  0.16280000  0.14694000  0.29080000  1.0 -0.5562373955
O  O69  1  0.82360000  0.83310000  0.69510000  1.0 -0.5521876176
O  O70  1  0.73940000  0.88040000  0.72260000  1.0 -0.5407954265
O  O71  1  0.75056000  0.10498000  0.73600000  1.0 -0.5245333124
O  O72  1  0.83720000  0.14694000  0.70920000  1.0 -0.5562373955
O  O73  1  0.82360000  0.16690000  0.30490000  1.0 -0.5521876176
O  O74  1  0.73940000  0.11960000  0.27740000  1.0 -0.5407954265
O  O75  1  0.75056000  0.89502000  0.26400000  1.0 -0.5245333124
O  O76  1  0.83720000  0.85306000  0.29080000  1.0 -0.5562373955
O  O77  1  0.17640000  0.16690000  0.69510000  1.0 -0.5521876176
O  O78  1  0.26060000  0.11960000  0.72260000  1.0 -0.5407954265
O  O79  1  0.24944000  0.89502000  0.73600000  1.0 -0.5245333124
O  O80  1  0.16280000  0.85306000  0.70920000  1.0 -0.5562373955
O  O81  1  0.83310000  0.30490000  0.17640000  1.0 -0.5521876176
O  O82  1  0.88040000  0.27740000  0.26060000  1.0 -0.5407954265
O  O83  1  0.10498000  0.26400000  0.24944000  1.0 -0.5245333124
O  O84  1  0.14694000  0.29080000  0.16280000  1.0 -0.5562373955
O  O85  1  0.83310000  0.69510000  0.82360000  1.0 -0.5521876176
O  O86  1  0.88040000  0.72260000  0.73940000  1.0 -0.5407954265
O  O87  1  0.10498000  0.73600000  0.75056000  1.0 -0.5245333124
O  O88  1  0.14694000  0.70920000  0.83720000  1.0 -0.5562373955
O  O89  1  0.16690000  0.30490000  0.82360000  1.0 -0.5521876176
O  O90  1  0.11960000  0.27740000  0.73940000  1.0 -0.5407954265
O  O91  1  0.89502000  0.26400000  0.75056000  1.0 -0.5245333124
O  O92  1  0.85306000  0.29080000  0.83720000  1.0 -0.5562373955
O  O93  1  0.16690000  0.69510000  0.17640000  1.0 -0.5521876176
O  O94  1  0.11960000  0.72260000  0.26060000  1.0 -0.5407954265
O  O95  1  0.89502000  0.73600000  0.24944000  1.0 -0.5245333124
O  O96  1  0.85306000  0.70920000  0.16280000  1.0 -0.5562373955
O  O97  1  0.75803000  0.75803000  0.24197000  1.0 -0.9596459229
O  O98  1  0.24197000  0.24197000  0.24197000  1.0 -0.9596459229
O  O99  1  0.24197000  0.75803000  0.75803000  1.0 -0.9596459229
O  O100  1  0.75803000  0.24197000  0.75803000  1.0 -0.9596459229
O  O101  1  0.25803000  0.25803000  0.74197000  1.0 -0.9596459229
O  O102  1  0.74197000  0.74197000  0.74197000  1.0 -0.9596459229
O  O103  1  0.25803000  0.74197000  0.25803000  1.0 -0.9596459229
O  O104  1  0.74197000  0.25803000  0.25803000  1.0 -0.9596459229
