# DDEC6 charges by PACMAN v1.1 (https://github.com/mtap-research/PACMAN-charge/)
data_UJILAA_ASR_pacman
_symmetry_space_group_name_H-M   'P 1'
_cell_length_a   26.64360000
_cell_length_b   26.64360000
_cell_length_c   26.64360000
_cell_angle_alpha   113.18200000
_cell_angle_beta   113.18200000
_cell_angle_gamma   113.18200000
_symmetry_Int_Tables_number   1
_chemical_formula_structural   Cu2(CN)3
_chemical_formula_sum   'Cu30 C45 N45'
_cell_volume   12156.56157756
_cell_formula_units_Z   15
loop_
 _symmetry_equiv_pos_site_id
 _symmetry_equiv_pos_as_xyz
  1  'x, y, z'
loop_
 _atom_site_type_symbol
 _atom_site_label
 _atom_site_symmetry_multiplicity
 _atom_site_fract_x
 _atom_site_fract_y
 _atom_site_fract_z
 _atom_site_occupancy
 _atom_site_charge
Cu  Cu1  1  0.95613000  0.15763000  0.13739000  1.0 0.1993184396
Cu  Cu2  1  0.15763000  0.13739000  0.95613000  1.0 0.2263225251
Cu  Cu3  1  0.13739000  0.95613000  0.15763000  1.0 0.1993184396
Cu  Cu4  1  0.91352000  0.31826000  0.24179000  1.0 0.57861285
Cu  Cu5  1  0.31826000  0.24179000  0.91352000  1.0 0.5734675684
Cu  Cu6  1  0.24179000  0.91352000  0.31826000  1.0 0.5888661602
Cu  Cu7  1  0.01057000  0.45018000  0.48550000  1.0 0.5888661602
Cu  Cu8  1  0.45018000  0.48550000  0.01057000  1.0 0.6160260001
Cu  Cu9  1  0.48550000  0.01057000  0.45018000  1.0 0.57861285
Cu  Cu10  1  0.92384000  0.29304000  0.53401000  1.0 0.1907981166
Cu  Cu11  1  0.29304000  0.53401000  0.92384000  1.0 0.1907981166
Cu  Cu12  1  0.53401000  0.92384000  0.29304000  1.0 0.1907981166
Cu  Cu13  1  0.76877000  0.02903000  0.35963000  1.0 0.4800826171
Cu  Cu14  1  0.02903000  0.35963000  0.76877000  1.0 0.4800826171
Cu  Cu15  1  0.35963000  0.76877000  0.02903000  1.0 0.4800826171
Cu  Cu16  1  0.82676000  0.90496000  0.23224000  1.0 0.4100425103
Cu  Cu17  1  0.90496000  0.23224000  0.82676000  1.0 0.4100425103
Cu  Cu18  1  0.23224000  0.82676000  0.90496000  1.0 0.3891458371
Cu  Cu19  1  0.98597000  0.00665000  0.18803000  1.0 0.6093269446
Cu  Cu20  1  0.00665000  0.18803000  0.98597000  1.0 0.6160260001
Cu  Cu21  1  0.18803000  0.98597000  0.00665000  1.0 0.6093269446
Cu  Cu22  1  0.78448000  0.37551000  0.11468000  1.0 0.3108481744
Cu  Cu23  1  0.37551000  0.11468000  0.78448000  1.0 0.3108481744
Cu  Cu24  1  0.11468000  0.78448000  0.37551000  1.0 0.3108481744
Cu  Cu25  1  0.85142000  0.61000000  0.21795000  1.0 0.0488608712
Cu  Cu26  1  0.61000000  0.21795000  0.85142000  1.0 0.0611140612
Cu  Cu27  1  0.21795000  0.85142000  0.61000000  1.0 0.0410383116
Cu  Cu28  1  0.68677000  0.65323000  0.13490000  1.0 0.3274942198
Cu  Cu29  1  0.65323000  0.13490000  0.68677000  1.0 0.3204231867
Cu  Cu30  1  0.13490000  0.68677000  0.65323000  1.0 0.3108481744
C  C1  1  0.91560000  0.20140000  0.16430000  1.0 0.2914674291
C  C2  1  0.20140000  0.16430000  0.91560000  1.0 0.269605861
C  C3  1  0.16430000  0.91560000  0.20140000  1.0 0.2816972294
C  C4  1  0.98630000  0.39010000  0.35190000  1.0 0.1500867763
C  C5  1  0.39010000  0.35190000  0.98630000  1.0 0.1078481534
C  C6  1  0.35190000  0.98630000  0.39010000  1.0 0.1078481534
C  C7  1  0.94480000  0.35550000  0.51410000  1.0 0.2069425816
C  C8  1  0.35550000  0.51410000  0.94480000  1.0 0.1993184396
C  C9  1  0.51410000  0.94480000  0.35550000  1.0 0.2069425816
C  C10  1  0.85840000  0.19610000  0.46020000  1.0 0.1794577063
C  C11  1  0.19610000  0.46020000  0.85840000  1.0 0.1794577063
C  C12  1  0.46020000  0.85840000  0.19610000  1.0 0.1794577063
C  C13  1  0.80640000  0.95660000  0.29240000  1.0 0.0410383116
C  C14  1  0.95660000  0.29240000  0.80640000  1.0 0.0293016368
C  C15  1  0.29240000  0.80640000  0.95660000  1.0 0.0293016368
C  C16  1  0.90710000  0.95890000  0.23560000  1.0 0.1645528832
C  C17  1  0.95890000  0.23560000  0.90710000  1.0 0.1350290337
C  C18  1  0.23560000  0.90710000  0.95890000  1.0 0.1305561074
C  C19  1  0.96130000  0.09200000  0.15000000  1.0 0.238377274
C  C20  1  0.09200000  0.15000000  0.96130000  1.0 0.238377274
C  C21  1  0.15000000  0.96130000  0.09200000  1.0 0.2603751281
C  C22  1  0.83830000  0.35120000  0.16500000  1.0 0.2914674291
C  C23  1  0.35120000  0.16500000  0.83830000  1.0 0.269605861
C  C24  1  0.16500000  0.83830000  0.35120000  1.0 0.2816972294
C  C25  1  0.80160000  0.45810000  0.15630000  1.0 0.1907981166
C  C26  1  0.45810000  0.15630000  0.80160000  1.0 0.1794577063
C  C27  1  0.15630000  0.80160000  0.45810000  1.0 0.1993184396
C  C28  1  0.67940000  0.26910000  0.95630000  1.0 0.3108481744
C  C29  1  0.26910000  0.95630000  0.67940000  1.0 0.3204231867
C  C30  1  0.95630000  0.67940000  0.26910000  1.0 0.3047989467
C  C31  1  0.96670000  0.15790000  0.02260000  1.0 0.0767388278
C  C32  1  0.15790000  0.02260000  0.96670000  1.0 0.0611140612
C  C33  1  0.02260000  0.96670000  0.15790000  1.0 0.0611140612
C  C34  1  0.74360000  0.76010000  0.16320000  1.0 0.1993184396
C  C35  1  0.76010000  0.16320000  0.74360000  1.0 0.1907981166
C  C36  1  0.16320000  0.74360000  0.76010000  1.0 0.1746809342
C  C37  1  0.06470000  0.58210000  0.58700000  1.0 0.0410383116
C  C38  1  0.58210000  0.58700000  0.06470000  1.0 0.0660722935
C  C39  1  0.58700000  0.06470000  0.58210000  1.0 0.0057344632
C  C40  1  0.79230000  0.63190000  0.17510000  1.0 0.0488608712
C  C41  1  0.63190000  0.17510000  0.79230000  1.0 0.0182225042
C  C42  1  0.17510000  0.79230000  0.63190000  1.0 0.0293016368
C  C43  1  0.96930000  0.34820000  0.67960000  1.0 0.222260856
C  C44  1  0.34820000  0.67960000  0.96930000  1.0 0.222260856
C  C45  1  0.67960000  0.96930000  0.34820000  1.0 0.2263225251
N  N1  1  0.93350000  0.25940000  0.20840000  1.0 -0.6059183321
N  N2  1  0.25940000  0.20840000  0.93350000  1.0 -0.5682542762
N  N3  1  0.20840000  0.93350000  0.25940000  1.0 -0.5987250051
N  N4  1  0.98050000  0.40900000  0.39370000  1.0 -0.5091768941
N  N5  1  0.40900000  0.39370000  0.98050000  1.0 -0.4794435343
N  N6  1  0.39370000  0.98050000  0.40900000  1.0 -0.4714421174
N  N7  1  0.98320000  0.38900000  0.50550000  1.0 -0.5682542762
N  N8  1  0.38900000  0.50550000  0.98320000  1.0 -0.560512825
N  N9  1  0.50550000  0.98320000  0.38900000  1.0 -0.560512825
N  N10  1  0.82130000  0.13240000  0.41610000  1.0 -0.4794435343
N  N11  1  0.13240000  0.41610000  0.82130000  1.0 -0.4794435343
N  N12  1  0.41610000  0.82130000  0.13240000  1.0 -0.4910095474
N  N13  1  0.79130000  0.98850000  0.32000000  1.0 -0.369400098
N  N14  1  0.98850000  0.32000000  0.79130000  1.0 -0.369400098
N  N15  1  0.32000000  0.79130000  0.98850000  1.0 -0.3619431696
N  N16  1  0.92160000  0.96030000  0.19930000  1.0 -0.528763497
N  N17  1  0.96030000  0.19930000  0.92160000  1.0 -0.524158164
N  N18  1  0.19930000  0.92160000  0.96030000  1.0 -0.5091768941
N  N19  1  0.95970000  0.04640000  0.14980000  1.0 -0.528763497
N  N20  1  0.04640000  0.14980000  0.95970000  1.0 -0.528763497
N  N21  1  0.14980000  0.95970000  0.04640000  1.0 -0.5497428021
N  N22  1  0.86580000  0.33920000  0.19360000  1.0 -0.544579669
N  N23  1  0.33920000  0.19360000  0.86580000  1.0 -0.4958061418
N  N24  1  0.19360000  0.86580000  0.33920000  1.0 -0.524158164
N  N25  1  0.80770000  0.49970000  0.18390000  1.0 -0.2203988946
N  N26  1  0.49970000  0.18390000  0.80770000  1.0 -0.2203988946
N  N27  1  0.18390000  0.80770000  0.49970000  1.0 -0.2302943161
N  N28  1  0.71680000  0.30800000  0.01620000  1.0 -0.4551886758
N  N29  1  0.30800000  0.01620000  0.71680000  1.0 -0.4480573973
N  N30  1  0.01620000  0.71680000  0.30800000  1.0 -0.4379463336
N  N31  1  0.95420000  0.15030000  0.05770000  1.0 -0.3206833563
N  N32  1  0.15030000  0.05770000  0.95420000  1.0 -0.3206833563
N  N33  1  0.05770000  0.95420000  0.15030000  1.0 -0.3106128564
N  N34  1  0.78000000  0.81920000  0.19820000  1.0 -0.3206833563
N  N35  1  0.81920000  0.19820000  0.78000000  1.0 -0.3206833563
N  N36  1  0.19820000  0.78000000  0.81920000  1.0 -0.3106128564
N  N37  1  0.03870000  0.52520000  0.54120000  1.0 -0.350466325
N  N38  1  0.52520000  0.54120000  0.03870000  1.0 -0.3886549613
N  N39  1  0.54120000  0.03870000  0.52520000  1.0 -0.3206833563
N  N40  1  0.74280000  0.64540000  0.18230000  1.0 -0.2878369332
N  N41  1  0.64540000  0.18230000  0.74280000  1.0 -0.2702043346
N  N42  1  0.18230000  0.74280000  0.64540000  1.0 -0.2702043346
N  N43  1  0.95460000  0.32980000  0.63140000  1.0 -0.2878369332
N  N44  1  0.32980000  0.63140000  0.95460000  1.0 -0.2808205924
N  N45  1  0.63140000  0.95460000  0.32980000  1.0 -0.2878369332
