# DDEC6 charges by PACMAN v1.1 (https://github.com/mtap-research/PACMAN-charge/)
data_UJOJIO03_ASR_pacman
_symmetry_space_group_name_H-M   'P 1'
_cell_length_a   13.53240000
_cell_length_b   13.53240000
_cell_length_c   8.06680000
_cell_angle_alpha   90.00000000
_cell_angle_beta   90.00000000
_cell_angle_gamma   120.00000000
_symmetry_Int_Tables_number   1
_chemical_formula_structural   Mn4H21C15(N2O)6
_chemical_formula_sum   'Mn8 H42 C30 N24 O12'
_cell_volume   1279.32702527
_cell_formula_units_Z   2
loop_
 _symmetry_equiv_pos_site_id
 _symmetry_equiv_pos_as_xyz
  1  'x, y, z'
loop_
 _atom_site_type_symbol
 _atom_site_label
 _atom_site_symmetry_multiplicity
 _atom_site_fract_x
 _atom_site_fract_y
 _atom_site_fract_z
 _atom_site_occupancy
 _atom_site_charge
Mn  Mn1  1  0.33333333  0.66666667  0.92101000  1.0 0.1194478561
Mn  Mn2  1  0.66666667  0.33333333  0.42101000  1.0 0.1194478561
Mn  Mn3  1  0.30192000  0.33787000  0.54561000  1.0 0.8546656928
Mn  Mn4  1  0.69808000  0.66213000  0.04561000  1.0 0.8546656928
Mn  Mn5  1  0.66213000  0.96405000  0.54561000  1.0 0.8546656928
Mn  Mn6  1  0.03595000  0.69808000  0.54561000  1.0 0.8546656928
Mn  Mn7  1  0.96405000  0.30192000  0.04561000  1.0 0.8546656928
Mn  Mn8  1  0.33787000  0.03595000  0.04561000  1.0 0.8546656928
H  H1  1  0.41020000  0.25590000  0.94500000  1.0 0.2972005269
H  H2  1  0.58980000  0.74410000  0.44500000  1.0 0.2972005269
H  H3  1  0.74410000  0.15430000  0.94500000  1.0 0.2972005269
H  H4  1  0.84570000  0.58980000  0.94500000  1.0 0.2972005269
H  H5  1  0.15430000  0.41020000  0.44500000  1.0 0.2972005269
H  H6  1  0.25590000  0.84570000  0.44500000  1.0 0.2972005269
H  H7  1  0.28560000  0.19780000  0.94090000  1.0 0.3057810625
H  H8  1  0.71440000  0.80220000  0.44090000  1.0 0.3057810625
H  H9  1  0.80220000  0.08780000  0.94090000  1.0 0.3057810625
H  H10  1  0.91220000  0.71440000  0.94090000  1.0 0.3057810625
H  H11  1  0.08780000  0.28560000  0.44090000  1.0 0.3057810625
H  H12  1  0.19780000  0.91220000  0.44090000  1.0 0.3057810625
H  H13  1  0.42340000  0.28700000  0.20770000  1.0 0.1109992637
H  H14  1  0.57660000  0.71300000  0.70770000  1.0 0.1109992637
H  H15  1  0.71300000  0.13640000  0.20770000  1.0 0.1109992637
H  H16  1  0.86360000  0.57660000  0.20770000  1.0 0.1109992637
H  H17  1  0.13640000  0.42340000  0.70770000  1.0 0.1109992637
H  H18  1  0.28700000  0.86360000  0.70770000  1.0 0.1109992637
H  H19  1  0.34840000  0.48280000  0.29470000  1.0 0.2877716681
H  H20  1  0.65160000  0.51720000  0.79470000  1.0 0.2877716681
H  H21  1  0.51720000  0.86560000  0.29470000  1.0 0.2877716681
H  H22  1  0.13440000  0.65160000  0.29470000  1.0 0.2877716681
H  H23  1  0.86560000  0.34840000  0.79470000  1.0 0.2877716681
H  H24  1  0.48280000  0.13440000  0.79470000  1.0 0.2877716681
H  H25  1  0.44260000  0.46020000  0.30090000  1.0 0.2877716681
H  H26  1  0.55740000  0.53980000  0.80090000  1.0 0.2877716681
H  H27  1  0.53980000  0.98240000  0.30090000  1.0 0.2877716681
H  H28  1  0.01760000  0.55740000  0.30090000  1.0 0.2877716681
H  H29  1  0.98240000  0.44260000  0.80090000  1.0 0.2877716681
H  H30  1  0.46020000  0.01760000  0.80090000  1.0 0.2877716681
H  H31  1  0.35260000  0.39640000  0.05630000  1.0 0.1109992637
H  H32  1  0.64740000  0.60360000  0.55630000  1.0 0.1109992637
H  H33  1  0.60360000  0.95620000  0.05630000  1.0 0.1109992637
H  H34  1  0.04380000  0.64740000  0.05630000  1.0 0.1109992637
H  H35  1  0.95620000  0.35260000  0.55630000  1.0 0.1109992637
H  H36  1  0.39640000  0.04380000  0.55630000  1.0 0.1109992637
H  H37  1  0.23760000  0.32080000  0.15150000  1.0 0.1194478561
H  H38  1  0.76240000  0.67920000  0.65150000  1.0 0.1194478561
H  H39  1  0.67920000  0.91680000  0.15150000  1.0 0.1194478561
H  H40  1  0.08320000  0.76240000  0.15150000  1.0 0.1194478561
H  H41  1  0.91680000  0.23760000  0.65150000  1.0 0.1194478561
H  H42  1  0.32080000  0.08320000  0.65150000  1.0 0.1194478561
C  C1  1  0.53512000  0.32276000  0.54840000  1.0 0.0094252097
C  C2  1  0.46488000  0.67724000  0.04840000  1.0 0.0094252097
C  C3  1  0.67724000  0.21236000  0.54840000  1.0 0.0094252097
C  C4  1  0.78764000  0.46488000  0.54840000  1.0 0.0094252097
C  C5  1  0.21236000  0.53512000  0.04840000  1.0 0.0094252097
C  C6  1  0.32276000  0.78764000  0.04840000  1.0 0.0094252097
C  C7  1  0.35411000  0.56029000  0.77610000  1.0 0.0350091493
C  C8  1  0.64589000  0.43971000  0.27610000  1.0 0.0350091493
C  C9  1  0.43971000  0.79382000  0.77610000  1.0 0.0350091493
C  C10  1  0.20618000  0.64589000  0.77610000  1.0 0.0350091493
C  C11  1  0.79382000  0.35411000  0.27610000  1.0 0.0350091493
C  C12  1  0.56029000  0.20618000  0.27610000  1.0 0.0350091493
C  C13  1  0.26810000  0.15782000  0.28130000  1.0 0.5673556885
C  C14  1  0.73190000  0.84218000  0.78130000  1.0 0.5673556885
C  C15  1  0.84218000  0.11028000  0.28130000  1.0 0.5673556885
C  C16  1  0.88972000  0.73190000  0.28130000  1.0 0.5673556885
C  C17  1  0.11028000  0.26810000  0.78130000  1.0 0.5673556885
C  C18  1  0.15782000  0.88972000  0.78130000  1.0 0.5673556885
C  C19  1  0.34579000  0.25444000  0.16390000  1.0 -0.0157876541
C  C20  1  0.65421000  0.74556000  0.66390000  1.0 -0.0157876541
C  C21  1  0.74556000  0.09135000  0.16390000  1.0 -0.0157876541
C  C22  1  0.90865000  0.65421000  0.16390000  1.0 -0.0157876541
C  C23  1  0.09135000  0.34579000  0.66390000  1.0 -0.0157876541
C  C24  1  0.25444000  0.90865000  0.66390000  1.0 -0.0157876541
C  C25  1  0.31950000  0.35210000  0.15620000  1.0 -0.0569801667
C  C26  1  0.68050000  0.64790000  0.65620000  1.0 -0.0569801667
C  C27  1  0.64790000  0.96740000  0.15620000  1.0 -0.0569801667
C  C28  1  0.03260000  0.68050000  0.15620000  1.0 -0.0569801667
C  C29  1  0.96740000  0.31950000  0.65620000  1.0 -0.0569801667
C  C30  1  0.35210000  0.03260000  0.65620000  1.0 -0.0569801667
N  N1  1  0.34619000  0.20801000  0.00060000  1.0 -0.5544392108
N  N2  1  0.65381000  0.79199000  0.50060000  1.0 -0.5544392108
N  N3  1  0.79199000  0.13818000  0.00060000  1.0 -0.5544392108
N  N4  1  0.86182000  0.65381000  0.00060000  1.0 -0.5544392108
N  N5  1  0.13818000  0.34619000  0.50060000  1.0 -0.5544392108
N  N6  1  0.20801000  0.86182000  0.50060000  1.0 -0.5544392108
N  N7  1  0.36601000  0.42703000  0.30250000  1.0 -0.5357230941
N  N8  1  0.63399000  0.57297000  0.80250000  1.0 -0.5357230941
N  N9  1  0.57297000  0.93898000  0.30250000  1.0 -0.5357230941
N  N10  1  0.06102000  0.63399000  0.30250000  1.0 -0.5357230941
N  N11  1  0.93898000  0.36601000  0.80250000  1.0 -0.5357230941
N  N12  1  0.42703000  0.06102000  0.80250000  1.0 -0.5357230941
N  N13  1  0.45641000  0.32135000  0.60520000  1.0 -0.4108499923
N  N14  1  0.54359000  0.67865000  0.10520000  1.0 -0.4108499923
N  N15  1  0.67865000  0.13506000  0.60520000  1.0 -0.4108499923
N  N16  1  0.86494000  0.54359000  0.60520000  1.0 -0.4108499923
N  N17  1  0.13506000  0.45641000  0.10520000  1.0 -0.4108499923
N  N18  1  0.32135000  0.86494000  0.10520000  1.0 -0.4108499923
N  N19  1  0.36851000  0.50053000  0.68970000  1.0 -0.421480749
N  N20  1  0.63149000  0.49947000  0.18970000  1.0 -0.421480749
N  N21  1  0.49947000  0.86798000  0.68970000  1.0 -0.421480749
N  N22  1  0.13202000  0.63149000  0.68970000  1.0 -0.421480749
N  N23  1  0.86798000  0.36851000  0.18970000  1.0 -0.421480749
N  N24  1  0.50053000  0.13202000  0.18970000  1.0 -0.421480749
O  O1  1  0.23044000  0.18111000  0.40710000  1.0 -0.5017945109
O  O2  1  0.76956000  0.81889000  0.90710000  1.0 -0.5017945109
O  O3  1  0.81889000  0.04933000  0.40710000  1.0 -0.5017945109
O  O4  1  0.95067000  0.76956000  0.40710000  1.0 -0.5017945109
O  O5  1  0.04933000  0.23044000  0.90710000  1.0 -0.5017945109
O  O6  1  0.18111000  0.95067000  0.90710000  1.0 -0.5017945109
O  O7  1  0.24610000  0.05757000  0.24740000  1.0 -0.5291876236
O  O8  1  0.75390000  0.94243000  0.74740000  1.0 -0.5291876236
O  O9  1  0.94243000  0.18853000  0.24740000  1.0 -0.5291876236
O  O10  1  0.81147000  0.75390000  0.24740000  1.0 -0.5291876236
O  O11  1  0.18853000  0.24610000  0.74740000  1.0 -0.5291876236
O  O12  1  0.05757000  0.81147000  0.74740000  1.0 -0.5291876236
