# DDEC6 charges by PACMAN v1.1 (https://github.com/mtap-research/PACMAN-charge/)
data_UJOJIO_FSR_pacman
_symmetry_space_group_name_H-M   'P 1'
_cell_length_a   13.51600000
_cell_length_b   13.51600000
_cell_length_c   8.05330000
_cell_angle_alpha   90.00000000
_cell_angle_beta   90.00000000
_cell_angle_gamma   120.00000000
_symmetry_Int_Tables_number   1
_chemical_formula_structural   Mn4H21C15(N2O)6
_chemical_formula_sum   'Mn8 H42 C30 N24 O12'
_cell_volume   1274.09225452
_cell_formula_units_Z   2
loop_
 _symmetry_equiv_pos_site_id
 _symmetry_equiv_pos_as_xyz
  1  'x, y, z'
loop_
 _atom_site_type_symbol
 _atom_site_label
 _atom_site_symmetry_multiplicity
 _atom_site_fract_x
 _atom_site_fract_y
 _atom_site_fract_z
 _atom_site_occupancy
 _atom_site_charge
Mn  Mn1  1  0.33333333  0.66666667  0.92263000  1.0 0.1006484138
Mn  Mn2  1  0.66666667  0.33333333  0.42263000  1.0 0.1006484138
Mn  Mn3  1  0.30163000  0.33841000  0.54518000  1.0 0.8550023394
Mn  Mn4  1  0.69837000  0.66159000  0.04518000  1.0 0.8550023394
Mn  Mn5  1  0.66159000  0.96322000  0.54518000  1.0 0.8550023394
Mn  Mn6  1  0.03678000  0.69837000  0.54518000  1.0 0.8550023394
Mn  Mn7  1  0.96322000  0.30163000  0.04518000  1.0 0.8550023394
Mn  Mn8  1  0.33841000  0.03678000  0.04518000  1.0 0.8550023394
H  H1  1  0.41180000  0.25700000  0.94480000  1.0 0.3000354326
H  H2  1  0.58820000  0.74300000  0.44480000  1.0 0.3000354326
H  H3  1  0.74300000  0.15480000  0.94480000  1.0 0.3000354326
H  H4  1  0.84520000  0.58820000  0.94480000  1.0 0.3000354326
H  H5  1  0.15480000  0.41180000  0.44480000  1.0 0.3000354326
H  H6  1  0.25700000  0.84520000  0.44480000  1.0 0.3000354326
H  H7  1  0.28700000  0.19900000  0.93900000  1.0 0.3000354326
H  H8  1  0.71300000  0.80100000  0.43900000  1.0 0.3000354326
H  H9  1  0.80100000  0.08800000  0.93900000  1.0 0.3000354326
H  H10  1  0.91200000  0.71300000  0.93900000  1.0 0.3000354326
H  H11  1  0.08800000  0.28700000  0.43900000  1.0 0.3000354326
H  H12  1  0.19900000  0.91200000  0.43900000  1.0 0.3000354326
H  H13  1  0.42320000  0.28720000  0.20850000  1.0 0.111251186
H  H14  1  0.57680000  0.71280000  0.70850000  1.0 0.111251186
H  H15  1  0.71280000  0.13600000  0.20850000  1.0 0.111251186
H  H16  1  0.86400000  0.57680000  0.20850000  1.0 0.111251186
H  H17  1  0.13600000  0.42320000  0.70850000  1.0 0.111251186
H  H18  1  0.28720000  0.86400000  0.70850000  1.0 0.111251186
H  H19  1  0.34860000  0.48390000  0.29480000  1.0 0.285614516
H  H20  1  0.65140000  0.51610000  0.79480000  1.0 0.285614516
H  H21  1  0.51610000  0.86470000  0.29480000  1.0 0.285614516
H  H22  1  0.13530000  0.65140000  0.29480000  1.0 0.285614516
H  H23  1  0.86470000  0.34860000  0.79480000  1.0 0.285614516
H  H24  1  0.48390000  0.13530000  0.79480000  1.0 0.285614516
H  H25  1  0.44290000  0.46130000  0.30140000  1.0 0.285614516
H  H26  1  0.55710000  0.53870000  0.80140000  1.0 0.285614516
H  H27  1  0.53870000  0.98160000  0.30140000  1.0 0.285614516
H  H28  1  0.01840000  0.55710000  0.30140000  1.0 0.285614516
H  H29  1  0.98160000  0.44290000  0.80140000  1.0 0.285614516
H  H30  1  0.46130000  0.01840000  0.80140000  1.0 0.285614516
H  H31  1  0.35370000  0.39780000  0.05590000  1.0 0.111251186
H  H32  1  0.64630000  0.60220000  0.55590000  1.0 0.111251186
H  H33  1  0.60220000  0.95590000  0.05590000  1.0 0.111251186
H  H34  1  0.04410000  0.64630000  0.05590000  1.0 0.111251186
H  H35  1  0.95590000  0.35370000  0.55590000  1.0 0.111251186
H  H36  1  0.39780000  0.04410000  0.55590000  1.0 0.111251186
H  H37  1  0.23810000  0.32230000  0.15020000  1.0 0.1208648415
H  H38  1  0.76190000  0.67770000  0.65020000  1.0 0.1208648415
H  H39  1  0.67770000  0.91580000  0.15020000  1.0 0.1208648415
H  H40  1  0.08420000  0.76190000  0.15020000  1.0 0.1208648415
H  H41  1  0.91580000  0.23810000  0.65020000  1.0 0.1208648415
H  H42  1  0.32230000  0.08420000  0.65020000  1.0 0.1208648415
C  C1  1  0.53450000  0.32271000  0.54860000  1.0 0.0166742014
C  C2  1  0.46550000  0.67729000  0.04860000  1.0 0.0166742014
C  C3  1  0.67729000  0.21179000  0.54860000  1.0 0.0166742014
C  C4  1  0.78821000  0.46550000  0.54860000  1.0 0.0166742014
C  C5  1  0.21179000  0.53450000  0.04860000  1.0 0.0166742014
C  C6  1  0.32271000  0.78821000  0.04860000  1.0 0.0166742014
C  C7  1  0.35370000  0.56000000  0.77710000  1.0 0.0405011209
C  C8  1  0.64630000  0.44000000  0.27710000  1.0 0.0405011209
C  C9  1  0.44000000  0.79370000  0.77710000  1.0 0.0405011209
C  C10  1  0.20630000  0.64630000  0.77710000  1.0 0.0405011209
C  C11  1  0.79370000  0.35370000  0.27710000  1.0 0.0405011209
C  C12  1  0.56000000  0.20630000  0.27710000  1.0 0.0405011209
C  C13  1  0.26710000  0.15800000  0.27930000  1.0 0.5652453857
C  C14  1  0.73290000  0.84200000  0.77930000  1.0 0.5652453857
C  C15  1  0.84200000  0.10910000  0.27930000  1.0 0.5652453857
C  C16  1  0.89090000  0.73290000  0.27930000  1.0 0.5652453857
C  C17  1  0.10910000  0.26710000  0.77930000  1.0 0.5652453857
C  C18  1  0.15800000  0.89090000  0.77930000  1.0 0.5652453857
C  C19  1  0.34580000  0.25500000  0.16330000  1.0 -0.0162731455
C  C20  1  0.65420000  0.74500000  0.66330000  1.0 -0.0162731455
C  C21  1  0.74500000  0.09080000  0.16330000  1.0 -0.0162731455
C  C22  1  0.90920000  0.65420000  0.16330000  1.0 -0.0162731455
C  C23  1  0.09080000  0.34580000  0.66330000  1.0 -0.0162731455
C  C24  1  0.25500000  0.90920000  0.66330000  1.0 -0.0162731455
C  C25  1  0.32010000  0.35330000  0.15560000  1.0 -0.0586973583
C  C26  1  0.67990000  0.64670000  0.65560000  1.0 -0.0586973583
C  C27  1  0.64670000  0.96680000  0.15560000  1.0 -0.0586973583
C  C28  1  0.03320000  0.67990000  0.15560000  1.0 -0.0586973583
C  C29  1  0.96680000  0.32010000  0.65560000  1.0 -0.0586973583
C  C30  1  0.35330000  0.03320000  0.65560000  1.0 -0.0586973583
N  N1  1  0.34730000  0.20900000  0.99960000  1.0 -0.556689515
N  N2  1  0.65270000  0.79100000  0.49960000  1.0 -0.556689515
N  N3  1  0.79100000  0.13830000  0.99960000  1.0 -0.556689515
N  N4  1  0.86170000  0.65270000  0.99960000  1.0 -0.556689515
N  N5  1  0.13830000  0.34730000  0.49960000  1.0 -0.556689515
N  N6  1  0.20900000  0.86170000  0.49960000  1.0 -0.556689515
N  N7  1  0.36630000  0.42809000  0.30260000  1.0 -0.5335433129
N  N8  1  0.63370000  0.57191000  0.80260000  1.0 -0.5335433129
N  N9  1  0.57191000  0.93821000  0.30260000  1.0 -0.5335433129
N  N10  1  0.06179000  0.63370000  0.30260000  1.0 -0.5335433129
N  N11  1  0.93821000  0.36630000  0.80260000  1.0 -0.5335433129
N  N12  1  0.42809000  0.06179000  0.80260000  1.0 -0.5335433129
N  N13  1  0.45540000  0.32130000  0.60370000  1.0 -0.4082414551
N  N14  1  0.54460000  0.67870000  0.10370000  1.0 -0.4082414551
N  N15  1  0.67870000  0.13410000  0.60370000  1.0 -0.4082414551
N  N16  1  0.86590000  0.54460000  0.60370000  1.0 -0.4082414551
N  N17  1  0.13410000  0.45540000  0.10370000  1.0 -0.4082414551
N  N18  1  0.32130000  0.86590000  0.10370000  1.0 -0.4082414551
N  N19  1  0.36780000  0.50000000  0.69130000  1.0 -0.419384146
N  N20  1  0.63220000  0.50000000  0.19130000  1.0 -0.419384146
N  N21  1  0.50000000  0.86780000  0.69130000  1.0 -0.419384146
N  N22  1  0.13220000  0.63220000  0.69130000  1.0 -0.419384146
N  N23  1  0.86780000  0.36780000  0.19130000  1.0 -0.419384146
N  N24  1  0.50000000  0.13220000  0.19130000  1.0 -0.419384146
O  O1  1  0.22904000  0.18140000  0.40550000  1.0 -0.5080866856
O  O2  1  0.77096000  0.81860000  0.90550000  1.0 -0.5080866856
O  O3  1  0.81860000  0.04764000  0.40550000  1.0 -0.5080866856
O  O4  1  0.95236000  0.77096000  0.40550000  1.0 -0.5080866856
O  O5  1  0.04764000  0.22904000  0.90550000  1.0 -0.5080866856
O  O6  1  0.18140000  0.95236000  0.90550000  1.0 -0.5080866856
O  O7  1  0.24483000  0.05813000  0.24590000  1.0 -0.5247240109
O  O8  1  0.75517000  0.94187000  0.74590000  1.0 -0.5247240109
O  O9  1  0.94187000  0.18670000  0.24590000  1.0 -0.5247240109
O  O10  1  0.81330000  0.75517000  0.24590000  1.0 -0.5247240109
O  O11  1  0.18670000  0.24483000  0.74590000  1.0 -0.5247240109
O  O12  1  0.05813000  0.81330000  0.74590000  1.0 -0.5247240109
