# DDEC6 charges by PACMAN v1.1 (https://github.com/mtap-research/PACMAN-charge/)
data_UJOJOU01_ASR_pacman
_symmetry_space_group_name_H-M   'P 1'
_cell_length_a   13.48460000
_cell_length_b   13.48460000
_cell_length_c   8.03200000
_cell_angle_alpha   90.00000000
_cell_angle_beta   90.00000000
_cell_angle_gamma   120.00000000
_symmetry_Int_Tables_number   1
_chemical_formula_structural   Mn4H21C15(N2O)6
_chemical_formula_sum   'Mn8 H42 C30 N24 O12'
_cell_volume   1264.82507865
_cell_formula_units_Z   2
loop_
 _symmetry_equiv_pos_site_id
 _symmetry_equiv_pos_as_xyz
  1  'x, y, z'
loop_
 _atom_site_type_symbol
 _atom_site_label
 _atom_site_symmetry_multiplicity
 _atom_site_fract_x
 _atom_site_fract_y
 _atom_site_fract_z
 _atom_site_occupancy
 _atom_site_charge
Mn  Mn1  1  0.33333333  0.66666667  0.92480000  1.0 0.088626686
Mn  Mn2  1  0.66666667  0.33333333  0.42480000  1.0 0.088626686
Mn  Mn3  1  0.30142000  0.33873000  0.54463000  1.0 0.8523839707
Mn  Mn4  1  0.69858000  0.66127000  0.04463000  1.0 0.8523839707
Mn  Mn5  1  0.66127000  0.96269000  0.54463000  1.0 0.8523839707
Mn  Mn6  1  0.03731000  0.69858000  0.54463000  1.0 0.8523839707
Mn  Mn7  1  0.96269000  0.30142000  0.04463000  1.0 0.8523839707
Mn  Mn8  1  0.33873000  0.03731000  0.04463000  1.0 0.8523839707
H  H1  1  0.41390000  0.25880000  0.94600000  1.0 0.296468002
H  H2  1  0.58610000  0.74120000  0.44600000  1.0 0.296468002
H  H3  1  0.74120000  0.15510000  0.94600000  1.0 0.296468002
H  H4  1  0.84490000  0.58610000  0.94600000  1.0 0.296468002
H  H5  1  0.15510000  0.41390000  0.44600000  1.0 0.296468002
H  H6  1  0.25880000  0.84490000  0.44600000  1.0 0.296468002
H  H7  1  0.28890000  0.20090000  0.93690000  1.0 0.3051201696
H  H8  1  0.71110000  0.79910000  0.43690000  1.0 0.3051201696
H  H9  1  0.79910000  0.08800000  0.93690000  1.0 0.3051201696
H  H10  1  0.91200000  0.71110000  0.93690000  1.0 0.3051201696
H  H11  1  0.08800000  0.28890000  0.43690000  1.0 0.296468002
H  H12  1  0.20090000  0.91200000  0.43690000  1.0 0.3051201696
H  H13  1  0.42210000  0.28660000  0.20990000  1.0 0.1081464323
H  H14  1  0.57790000  0.71340000  0.70990000  1.0 0.1081464323
H  H15  1  0.71340000  0.13550000  0.20990000  1.0 0.1081464323
H  H16  1  0.86450000  0.57790000  0.20990000  1.0 0.1081464323
H  H17  1  0.13550000  0.42210000  0.70990000  1.0 0.1081464323
H  H18  1  0.28660000  0.86450000  0.70990000  1.0 0.1081464323
H  H19  1  0.34880000  0.48500000  0.29470000  1.0 0.2855669255
H  H20  1  0.65120000  0.51500000  0.79470000  1.0 0.2855669255
H  H21  1  0.51500000  0.86380000  0.29470000  1.0 0.2855669255
H  H22  1  0.13620000  0.65120000  0.29470000  1.0 0.2855669255
H  H23  1  0.86380000  0.34880000  0.79470000  1.0 0.2855669255
H  H24  1  0.48500000  0.13620000  0.79470000  1.0 0.2855669255
H  H25  1  0.44330000  0.46230000  0.30130000  1.0 0.2855669255
H  H26  1  0.55670000  0.53770000  0.80130000  1.0 0.2855669255
H  H27  1  0.53770000  0.98100000  0.30130000  1.0 0.2855669255
H  H28  1  0.01900000  0.55670000  0.30130000  1.0 0.2855669255
H  H29  1  0.98100000  0.44330000  0.80130000  1.0 0.2855669255
H  H30  1  0.46230000  0.01900000  0.80130000  1.0 0.2855669255
H  H31  1  0.35550000  0.39960000  0.05460000  1.0 0.1081464323
H  H32  1  0.64450000  0.60040000  0.55460000  1.0 0.1081464323
H  H33  1  0.60040000  0.95590000  0.05460000  1.0 0.1081464323
H  H34  1  0.04410000  0.64450000  0.05460000  1.0 0.1081464323
H  H35  1  0.95590000  0.35550000  0.55460000  1.0 0.1081464323
H  H36  1  0.39960000  0.04410000  0.55460000  1.0 0.1081464323
H  H37  1  0.23870000  0.32460000  0.14720000  1.0 0.1202529217
H  H38  1  0.76130000  0.67540000  0.64720000  1.0 0.1202529217
H  H39  1  0.67540000  0.91410000  0.14720000  1.0 0.1202529217
H  H40  1  0.08590000  0.76130000  0.14720000  1.0 0.1202529217
H  H41  1  0.91410000  0.23870000  0.64720000  1.0 0.1202529217
H  H42  1  0.32460000  0.08590000  0.64720000  1.0 0.1202529217
C  C1  1  0.53360000  0.32250000  0.54810000  1.0 0.0206833676
C  C2  1  0.46640000  0.67750000  0.04810000  1.0 0.0206833676
C  C3  1  0.67750000  0.21110000  0.54810000  1.0 0.0206833676
C  C4  1  0.78890000  0.46640000  0.54810000  1.0 0.0206833676
C  C5  1  0.21110000  0.53360000  0.04810000  1.0 0.0206833676
C  C6  1  0.32250000  0.78890000  0.04810000  1.0 0.0206833676
C  C7  1  0.35330000  0.55930000  0.77860000  1.0 0.0464866026
C  C8  1  0.64670000  0.44070000  0.27860000  1.0 0.0464866026
C  C9  1  0.44070000  0.79400000  0.77860000  1.0 0.0464866026
C  C10  1  0.20600000  0.64670000  0.77860000  1.0 0.0464866026
C  C11  1  0.79400000  0.35330000  0.27860000  1.0 0.0464866026
C  C12  1  0.55930000  0.20600000  0.27860000  1.0 0.0464866026
C  C13  1  0.26450000  0.15770000  0.27700000  1.0 0.56474628
C  C14  1  0.73550000  0.84230000  0.77700000  1.0 0.56474628
C  C15  1  0.84230000  0.10680000  0.27700000  1.0 0.56474628
C  C16  1  0.89320000  0.73550000  0.27700000  1.0 0.56474628
C  C17  1  0.10680000  0.26450000  0.77700000  1.0 0.56474628
C  C18  1  0.15770000  0.89320000  0.77700000  1.0 0.56474628
C  C19  1  0.34520000  0.25520000  0.16260000  1.0 -0.0167641384
C  C20  1  0.65480000  0.74480000  0.66260000  1.0 -0.0167641384
C  C21  1  0.74480000  0.09000000  0.16260000  1.0 -0.0167641384
C  C22  1  0.91000000  0.65480000  0.16260000  1.0 -0.0167641384
C  C23  1  0.09000000  0.34520000  0.66260000  1.0 -0.0167641384
C  C24  1  0.25520000  0.91000000  0.66260000  1.0 -0.0167641384
C  C25  1  0.32070000  0.35480000  0.15410000  1.0 -0.060202532
C  C26  1  0.67930000  0.64520000  0.65410000  1.0 -0.060202532
C  C27  1  0.64520000  0.96590000  0.15410000  1.0 -0.060202532
C  C28  1  0.03410000  0.67930000  0.15410000  1.0 -0.060202532
C  C29  1  0.96590000  0.32070000  0.65410000  1.0 -0.060202532
C  C30  1  0.35480000  0.03410000  0.65410000  1.0 -0.060202532
N  N1  1  0.34850000  0.21040000  0.99930000  1.0 -0.5533567672
N  N2  1  0.65150000  0.78960000  0.49930000  1.0 -0.5533567672
N  N3  1  0.78960000  0.13810000  0.99930000  1.0 -0.5533567672
N  N4  1  0.86190000  0.65150000  0.99930000  1.0 -0.5533567672
N  N5  1  0.13810000  0.34850000  0.49930000  1.0 -0.5533567672
N  N6  1  0.21040000  0.86190000  0.49930000  1.0 -0.5533567672
N  N7  1  0.36650000  0.42900000  0.30210000  1.0 -0.5332762306
N  N8  1  0.63350000  0.57100000  0.80210000  1.0 -0.5332762306
N  N9  1  0.57100000  0.93750000  0.30210000  1.0 -0.5332762306
N  N10  1  0.06250000  0.63350000  0.30210000  1.0 -0.5332762306
N  N11  1  0.93750000  0.36650000  0.80210000  1.0 -0.5332762306
N  N12  1  0.42900000  0.06250000  0.80210000  1.0 -0.5332762306
N  N13  1  0.45400000  0.32030000  0.60370000  1.0 -0.413722595
N  N14  1  0.54600000  0.67970000  0.10370000  1.0 -0.413722595
N  N15  1  0.67970000  0.13370000  0.60370000  1.0 -0.413722595
N  N16  1  0.86630000  0.54600000  0.60370000  1.0 -0.413722595
N  N17  1  0.13370000  0.45400000  0.10370000  1.0 -0.413722595
N  N18  1  0.32030000  0.86630000  0.10370000  1.0 -0.413722595
N  N19  1  0.36690000  0.49930000  0.69290000  1.0 -0.4220600431
N  N20  1  0.63310000  0.50070000  0.19290000  1.0 -0.4220600431
N  N21  1  0.50070000  0.86760000  0.69290000  1.0 -0.4220600431
N  N22  1  0.13240000  0.63310000  0.69290000  1.0 -0.4220600431
N  N23  1  0.86760000  0.36690000  0.19290000  1.0 -0.4220600431
N  N24  1  0.49930000  0.13240000  0.19290000  1.0 -0.4220600431
O  O1  1  0.22620000  0.18127000  0.40320000  1.0 -0.5039259448
O  O2  1  0.77380000  0.81873000  0.90320000  1.0 -0.5039259448
O  O3  1  0.81873000  0.04493000  0.40320000  1.0 -0.5039259448
O  O4  1  0.95507000  0.77380000  0.40320000  1.0 -0.5039259448
O  O5  1  0.04493000  0.22620000  0.90320000  1.0 -0.5039259448
O  O6  1  0.18127000  0.95507000  0.90320000  1.0 -0.5039259448
O  O7  1  0.24040000  0.05749000  0.24240000  1.0 -0.5183599794
O  O8  1  0.75960000  0.94251000  0.74240000  1.0 -0.5183599794
O  O9  1  0.94251000  0.18291000  0.24240000  1.0 -0.5183599794
O  O10  1  0.81709000  0.75960000  0.24240000  1.0 -0.5183599794
O  O11  1  0.18291000  0.24040000  0.74240000  1.0 -0.5183599794
O  O12  1  0.05749000  0.81709000  0.74240000  1.0 -0.5183599794
