# DDEC6 charges by PACMAN v1.1 (https://github.com/mtap-research/PACMAN-charge/)
data_UJOJIO04_ASR_pacman
_symmetry_space_group_name_H-M   'P 1'
_cell_length_a   13.52740000
_cell_length_b   13.52740000
_cell_length_c   8.07260000
_cell_angle_alpha   90.00000000
_cell_angle_beta   90.00000000
_cell_angle_gamma   120.00000000
_symmetry_Int_Tables_number   1
_chemical_formula_structural   Mn4H21C15(N2O)6
_chemical_formula_sum   'Mn8 H42 C30 N24 O12'
_cell_volume   1279.30097109
_cell_formula_units_Z   2
loop_
 _symmetry_equiv_pos_site_id
 _symmetry_equiv_pos_as_xyz
  1  'x, y, z'
loop_
 _atom_site_type_symbol
 _atom_site_label
 _atom_site_symmetry_multiplicity
 _atom_site_fract_x
 _atom_site_fract_y
 _atom_site_fract_z
 _atom_site_occupancy
 _atom_site_charge
Mn  Mn1  1  0.33333333  0.66666667  0.92240000  1.0 0.1099529688
Mn  Mn2  1  0.66666667  0.33333333  0.42240000  1.0 0.1099529688
Mn  Mn3  1  0.30132000  0.33822000  0.54516000  1.0 0.8532337382
Mn  Mn4  1  0.69868000  0.66178000  0.04516000  1.0 0.8532337382
Mn  Mn5  1  0.66178000  0.96310000  0.54516000  1.0 0.8532337382
Mn  Mn6  1  0.03690000  0.69868000  0.54516000  1.0 0.8532337382
Mn  Mn7  1  0.96310000  0.30132000  0.04516000  1.0 0.8532337382
Mn  Mn8  1  0.33822000  0.03690000  0.04516000  1.0 0.8532337382
H  H1  1  0.41120000  0.25680000  0.94530000  1.0 0.299742051
H  H2  1  0.58880000  0.74320000  0.44530000  1.0 0.299742051
H  H3  1  0.74320000  0.15440000  0.94530000  1.0 0.299742051
H  H4  1  0.84560000  0.58880000  0.94530000  1.0 0.299742051
H  H5  1  0.15440000  0.41120000  0.44530000  1.0 0.299742051
H  H6  1  0.25680000  0.84560000  0.44530000  1.0 0.299742051
H  H7  1  0.28660000  0.19880000  0.93980000  1.0 0.299742051
H  H8  1  0.71340000  0.80120000  0.43980000  1.0 0.299742051
H  H9  1  0.80120000  0.08780000  0.93980000  1.0 0.299742051
H  H10  1  0.91220000  0.71340000  0.93980000  1.0 0.299742051
H  H11  1  0.08780000  0.28660000  0.43980000  1.0 0.299742051
H  H12  1  0.19880000  0.91220000  0.43980000  1.0 0.3052095309
H  H13  1  0.42310000  0.28730000  0.20850000  1.0 0.1099529688
H  H14  1  0.57690000  0.71270000  0.70850000  1.0 0.1099529688
H  H15  1  0.71270000  0.13580000  0.20850000  1.0 0.1099529688
H  H16  1  0.86420000  0.57690000  0.20850000  1.0 0.1099529688
H  H17  1  0.13580000  0.42310000  0.70850000  1.0 0.1099529688
H  H18  1  0.28730000  0.86420000  0.70850000  1.0 0.1099529688
H  H19  1  0.34840000  0.48370000  0.29520000  1.0 0.2863775626
H  H20  1  0.65160000  0.51630000  0.79520000  1.0 0.2863775626
H  H21  1  0.51630000  0.86470000  0.29520000  1.0 0.2863775626
H  H22  1  0.13530000  0.65160000  0.29520000  1.0 0.2863775626
H  H23  1  0.86470000  0.34840000  0.79520000  1.0 0.2863775626
H  H24  1  0.48370000  0.13530000  0.79520000  1.0 0.2863775626
H  H25  1  0.44250000  0.46090000  0.30170000  1.0 0.2863775626
H  H26  1  0.55750000  0.53910000  0.80170000  1.0 0.2863775626
H  H27  1  0.53910000  0.98160000  0.30170000  1.0 0.2863775626
H  H28  1  0.01840000  0.55750000  0.30170000  1.0 0.2863775626
H  H29  1  0.98160000  0.44250000  0.80170000  1.0 0.2863775626
H  H30  1  0.46090000  0.01840000  0.80170000  1.0 0.2863775626
H  H31  1  0.35310000  0.39760000  0.05690000  1.0 0.1099529688
H  H32  1  0.64690000  0.60240000  0.55690000  1.0 0.1099529688
H  H33  1  0.60240000  0.95550000  0.05690000  1.0 0.1099529688
H  H34  1  0.04450000  0.64690000  0.05690000  1.0 0.1099529688
H  H35  1  0.95550000  0.35310000  0.55690000  1.0 0.1099529688
H  H36  1  0.39760000  0.04450000  0.55690000  1.0 0.1099529688
H  H37  1  0.23780000  0.32200000  0.15120000  1.0 0.119514434
H  H38  1  0.76220000  0.67800000  0.65120000  1.0 0.119514434
H  H39  1  0.67800000  0.91580000  0.15120000  1.0 0.119514434
H  H40  1  0.08420000  0.76220000  0.15120000  1.0 0.119514434
H  H41  1  0.91580000  0.23780000  0.65120000  1.0 0.119514434
H  H42  1  0.32200000  0.08420000  0.65120000  1.0 0.119514434
C  C1  1  0.53477000  0.32292000  0.54850000  1.0 0.0130552948
C  C2  1  0.46523000  0.67708000  0.04850000  1.0 0.0130552948
C  C3  1  0.67708000  0.21185000  0.54850000  1.0 0.0130552948
C  C4  1  0.78815000  0.46523000  0.54850000  1.0 0.0130552948
C  C5  1  0.21185000  0.53477000  0.04850000  1.0 0.0130552948
C  C6  1  0.32292000  0.78815000  0.04850000  1.0 0.0130552948
C  C7  1  0.35367000  0.55980000  0.77660000  1.0 0.0404850037
C  C8  1  0.64633000  0.44020000  0.27660000  1.0 0.0404850037
C  C9  1  0.44020000  0.79387000  0.77660000  1.0 0.0404850037
C  C10  1  0.20613000  0.64633000  0.77660000  1.0 0.0404850037
C  C11  1  0.79387000  0.35367000  0.27660000  1.0 0.0404850037
C  C12  1  0.55980000  0.20613000  0.27660000  1.0 0.0404850037
C  C13  1  0.26730000  0.15800000  0.28010000  1.0 0.56793098
C  C14  1  0.73270000  0.84200000  0.78010000  1.0 0.56793098
C  C15  1  0.84200000  0.10930000  0.28010000  1.0 0.56793098
C  C16  1  0.89070000  0.73270000  0.28010000  1.0 0.56793098
C  C17  1  0.10930000  0.26730000  0.78010000  1.0 0.56793098
C  C18  1  0.15800000  0.89070000  0.78010000  1.0 0.56793098
C  C19  1  0.34560000  0.25500000  0.16380000  1.0 -0.0180015351
C  C20  1  0.65440000  0.74500000  0.66380000  1.0 -0.0180015351
C  C21  1  0.74500000  0.09060000  0.16380000  1.0 -0.0180015351
C  C22  1  0.90940000  0.65440000  0.16380000  1.0 -0.0180015351
C  C23  1  0.09060000  0.34560000  0.66380000  1.0 -0.0180015351
C  C24  1  0.25500000  0.90940000  0.66380000  1.0 -0.0180015351
C  C25  1  0.31970000  0.35310000  0.15640000  1.0 -0.0595498882
C  C26  1  0.68030000  0.64690000  0.65640000  1.0 -0.0595498882
C  C27  1  0.64690000  0.96660000  0.15640000  1.0 -0.0595498882
C  C28  1  0.03340000  0.68030000  0.15640000  1.0 -0.0595498882
C  C29  1  0.96660000  0.31970000  0.65640000  1.0 -0.0595498882
C  C30  1  0.35310000  0.03340000  0.65640000  1.0 -0.0595498882
N  N1  1  0.34690000  0.20880000  0.00010000  1.0 -0.5535948441
N  N2  1  0.65310000  0.79120000  0.50010000  1.0 -0.5535948441
N  N3  1  0.79120000  0.13810000  0.00010000  1.0 -0.5535948441
N  N4  1  0.86190000  0.65310000  0.00010000  1.0 -0.5535948441
N  N5  1  0.13810000  0.34690000  0.50010000  1.0 -0.5535948441
N  N6  1  0.20880000  0.86190000  0.50010000  1.0 -0.5535948441
N  N7  1  0.36593000  0.42779000  0.30290000  1.0 -0.5335607494
N  N8  1  0.63407000  0.57221000  0.80290000  1.0 -0.5335607494
N  N9  1  0.57221000  0.93814000  0.30290000  1.0 -0.5335607494
N  N10  1  0.06186000  0.63407000  0.30290000  1.0 -0.5335607494
N  N11  1  0.93814000  0.36593000  0.80290000  1.0 -0.5335607494
N  N12  1  0.42779000  0.06186000  0.80290000  1.0 -0.5335607494
N  N13  1  0.45550000  0.32150000  0.60310000  1.0 -0.409651882
N  N14  1  0.54450000  0.67850000  0.10310000  1.0 -0.409651882
N  N15  1  0.67850000  0.13400000  0.60310000  1.0 -0.409651882
N  N16  1  0.86600000  0.54450000  0.60310000  1.0 -0.409651882
N  N17  1  0.13400000  0.45550000  0.10310000  1.0 -0.409651882
N  N18  1  0.32150000  0.86600000  0.10310000  1.0 -0.409651882
N  N19  1  0.36780000  0.50010000  0.69190000  1.0 -0.4202285275
N  N20  1  0.63220000  0.49990000  0.19190000  1.0 -0.4202285275
N  N21  1  0.49990000  0.86770000  0.69190000  1.0 -0.4202285275
N  N22  1  0.13230000  0.63220000  0.69190000  1.0 -0.4202285275
N  N23  1  0.86770000  0.36780000  0.19190000  1.0 -0.4202285275
N  N24  1  0.50010000  0.13230000  0.19190000  1.0 -0.4202285275
O  O1  1  0.22957000  0.18151000  0.40610000  1.0 -0.5058582191
O  O2  1  0.77043000  0.81849000  0.90610000  1.0 -0.5058582191
O  O3  1  0.81849000  0.04806000  0.40610000  1.0 -0.5058582191
O  O4  1  0.95194000  0.77043000  0.40610000  1.0 -0.5058582191
O  O5  1  0.04806000  0.22957000  0.90610000  1.0 -0.5058582191
O  O6  1  0.18151000  0.95194000  0.90610000  1.0 -0.5058582191
O  O7  1  0.24563000  0.05844000  0.24650000  1.0 -0.5234812066
O  O8  1  0.75437000  0.94156000  0.74650000  1.0 -0.5234812066
O  O9  1  0.94156000  0.18719000  0.24650000  1.0 -0.5234812066
O  O10  1  0.81281000  0.75437000  0.24650000  1.0 -0.5234812066
O  O11  1  0.18719000  0.24563000  0.74650000  1.0 -0.5234812066
O  O12  1  0.05844000  0.81281000  0.74650000  1.0 -0.5234812066
