# DDEC6 charges by PACMAN v1.1 (https://github.com/mtap-research/PACMAN-charge/)
data_UJOJIO07_FSR_pacman
_symmetry_space_group_name_H-M   'P 1'
_cell_length_a   13.52930000
_cell_length_b   13.52930000
_cell_length_c   8.07070000
_cell_angle_alpha   90.00000000
_cell_angle_beta   90.00000000
_cell_angle_gamma   120.00000000
_symmetry_Int_Tables_number   1
_chemical_formula_structural   Mn4H21C15(N2O)6
_chemical_formula_sum   'Mn8 H42 C30 N24 O12'
_cell_volume   1279.35918040
_cell_formula_units_Z   2
loop_
 _symmetry_equiv_pos_site_id
 _symmetry_equiv_pos_as_xyz
  1  'x, y, z'
loop_
 _atom_site_type_symbol
 _atom_site_label
 _atom_site_symmetry_multiplicity
 _atom_site_fract_x
 _atom_site_fract_y
 _atom_site_fract_z
 _atom_site_occupancy
 _atom_site_charge
Mn  Mn1  1  0.33333333  0.66666667  0.92128000  1.0 0.1078660833
Mn  Mn2  1  0.66666667  0.33333333  0.42128000  1.0 0.1078660833
Mn  Mn3  1  0.30199000  0.33804000  0.54555000  1.0 0.8511693925
Mn  Mn4  1  0.69801000  0.66196000  0.04555000  1.0 0.8511693925
Mn  Mn5  1  0.66196000  0.96395000  0.54555000  1.0 0.8511693925
Mn  Mn6  1  0.03605000  0.69801000  0.54555000  1.0 0.8511693925
Mn  Mn7  1  0.96395000  0.30199000  0.04555000  1.0 0.8511693925
Mn  Mn8  1  0.33804000  0.03605000  0.04555000  1.0 0.8511693925
H  H1  1  0.41020000  0.25600000  0.94520000  1.0 0.2975743463
H  H2  1  0.58980000  0.74400000  0.44520000  1.0 0.2975743463
H  H3  1  0.74400000  0.15420000  0.94520000  1.0 0.2975743463
H  H4  1  0.84580000  0.58980000  0.94520000  1.0 0.2975743463
H  H5  1  0.15420000  0.41020000  0.44520000  1.0 0.2975743463
H  H6  1  0.25600000  0.84580000  0.44520000  1.0 0.2975743463
H  H7  1  0.28550000  0.19780000  0.94110000  1.0 0.3061476449
H  H8  1  0.71450000  0.80220000  0.44110000  1.0 0.3061476449
H  H9  1  0.80220000  0.08770000  0.94110000  1.0 0.3061476449
H  H10  1  0.91230000  0.71450000  0.94110000  1.0 0.3061476449
H  H11  1  0.08770000  0.28550000  0.44110000  1.0 0.3061476449
H  H12  1  0.19780000  0.91230000  0.44110000  1.0 0.3061476449
H  H13  1  0.42330000  0.28650000  0.20800000  1.0 0.1078660833
H  H14  1  0.57670000  0.71350000  0.70800000  1.0 0.1078660833
H  H15  1  0.71350000  0.13680000  0.20800000  1.0 0.1078660833
H  H16  1  0.86320000  0.57670000  0.20800000  1.0 0.1078660833
H  H17  1  0.13680000  0.42330000  0.70800000  1.0 0.1078660833
H  H18  1  0.28650000  0.86320000  0.70800000  1.0 0.1078660833
H  H19  1  0.34880000  0.48330000  0.29440000  1.0 0.286800402
H  H20  1  0.65120000  0.51670000  0.79440000  1.0 0.286800402
H  H21  1  0.51670000  0.86550000  0.29440000  1.0 0.286800402
H  H22  1  0.13450000  0.65120000  0.29440000  1.0 0.286800402
H  H23  1  0.86550000  0.34880000  0.79440000  1.0 0.286800402
H  H24  1  0.48330000  0.13450000  0.79440000  1.0 0.286800402
H  H25  1  0.44280000  0.46040000  0.30050000  1.0 0.286800402
H  H26  1  0.55720000  0.53960000  0.80050000  1.0 0.286800402
H  H27  1  0.53960000  0.98240000  0.30050000  1.0 0.286800402
H  H28  1  0.01760000  0.55720000  0.30050000  1.0 0.286800402
H  H29  1  0.98240000  0.44280000  0.80050000  1.0 0.286800402
H  H30  1  0.46040000  0.01760000  0.80050000  1.0 0.286800402
H  H31  1  0.35180000  0.39620000  0.05700000  1.0 0.1078660833
H  H32  1  0.64820000  0.60380000  0.55700000  1.0 0.1078660833
H  H33  1  0.60380000  0.95560000  0.05700000  1.0 0.1078660833
H  H34  1  0.04440000  0.64820000  0.05700000  1.0 0.1078660833
H  H35  1  0.95560000  0.35180000  0.55700000  1.0 0.1078660833
H  H36  1  0.39620000  0.04440000  0.55700000  1.0 0.1078660833
H  H37  1  0.23740000  0.32080000  0.15330000  1.0 0.1181173921
H  H38  1  0.76260000  0.67920000  0.65330000  1.0 0.1181173921
H  H39  1  0.67920000  0.91660000  0.15330000  1.0 0.1181173921
H  H40  1  0.08340000  0.76260000  0.15330000  1.0 0.1181173921
H  H41  1  0.91660000  0.23740000  0.65330000  1.0 0.1181173921
H  H42  1  0.32080000  0.08340000  0.65330000  1.0 0.1181173921
C  C1  1  0.53510000  0.32270000  0.54880000  1.0 0.0208824088
C  C2  1  0.46490000  0.67730000  0.04880000  1.0 0.0208824088
C  C3  1  0.67730000  0.21240000  0.54880000  1.0 0.0208824088
C  C4  1  0.78760000  0.46490000  0.54880000  1.0 0.0208824088
C  C5  1  0.21240000  0.53510000  0.04880000  1.0 0.0208824088
C  C6  1  0.32270000  0.78760000  0.04880000  1.0 0.0208824088
C  C7  1  0.35390000  0.56000000  0.77600000  1.0 0.0441490561
C  C8  1  0.64610000  0.44000000  0.27600000  1.0 0.0451552372
C  C9  1  0.44000000  0.79390000  0.77600000  1.0 0.0441490561
C  C10  1  0.20610000  0.64610000  0.77600000  1.0 0.0441490561
C  C11  1  0.79390000  0.35390000  0.27600000  1.0 0.0451552372
C  C12  1  0.56000000  0.20610000  0.27600000  1.0 0.0451552372
C  C13  1  0.26780000  0.15740000  0.28110000  1.0 0.5679848145
C  C14  1  0.73220000  0.84260000  0.78110000  1.0 0.5679848145
C  C15  1  0.84260000  0.11040000  0.28110000  1.0 0.5679848145
C  C16  1  0.88960000  0.73220000  0.28110000  1.0 0.5679848145
C  C17  1  0.11040000  0.26780000  0.78110000  1.0 0.5679848145
C  C18  1  0.15740000  0.88960000  0.78110000  1.0 0.5679848145
C  C19  1  0.34570000  0.25410000  0.16410000  1.0 -0.0186203916
C  C20  1  0.65430000  0.74590000  0.66410000  1.0 -0.0186203916
C  C21  1  0.74590000  0.09160000  0.16410000  1.0 -0.0186203916
C  C22  1  0.90840000  0.65430000  0.16410000  1.0 -0.0186203916
C  C23  1  0.09160000  0.34570000  0.66410000  1.0 -0.0186203916
C  C24  1  0.25410000  0.90840000  0.66410000  1.0 -0.0186203916
C  C25  1  0.31930000  0.35210000  0.15720000  1.0 -0.0595145424
C  C26  1  0.68070000  0.64790000  0.65720000  1.0 -0.0595145424
C  C27  1  0.64790000  0.96720000  0.15720000  1.0 -0.0595145424
C  C28  1  0.03280000  0.68070000  0.15720000  1.0 -0.0595145424
C  C29  1  0.96720000  0.31930000  0.65720000  1.0 -0.0595145424
C  C30  1  0.35210000  0.03280000  0.65720000  1.0 -0.0595145424
N  N1  1  0.34620000  0.20800000  0.00060000  1.0 -0.5539104491
N  N2  1  0.65380000  0.79200000  0.50060000  1.0 -0.5539104491
N  N3  1  0.79200000  0.13820000  0.00060000  1.0 -0.5539104491
N  N4  1  0.86180000  0.65380000  0.00060000  1.0 -0.5539104491
N  N5  1  0.13820000  0.34620000  0.50060000  1.0 -0.5539104491
N  N6  1  0.20800000  0.86180000  0.50060000  1.0 -0.5539104491
N  N7  1  0.36620000  0.42740000  0.30230000  1.0 -0.530334424
N  N8  1  0.63380000  0.57260000  0.80230000  1.0 -0.530334424
N  N9  1  0.57260000  0.93880000  0.30230000  1.0 -0.530334424
N  N10  1  0.06120000  0.63380000  0.30230000  1.0 -0.530334424
N  N11  1  0.93880000  0.36620000  0.80230000  1.0 -0.530334424
N  N12  1  0.42740000  0.06120000  0.80230000  1.0 -0.530334424
N  N13  1  0.45630000  0.32130000  0.60470000  1.0 -0.4099752208
N  N14  1  0.54370000  0.67870000  0.10470000  1.0 -0.4099752208
N  N15  1  0.67870000  0.13500000  0.60470000  1.0 -0.4099752208
N  N16  1  0.86500000  0.54370000  0.60470000  1.0 -0.4099752208
N  N17  1  0.13500000  0.45630000  0.10470000  1.0 -0.4099752208
N  N18  1  0.32130000  0.86500000  0.10470000  1.0 -0.4099752208
N  N19  1  0.36820000  0.50060000  0.69010000  1.0 -0.4194362809
N  N20  1  0.63180000  0.49940000  0.19010000  1.0 -0.4194362809
N  N21  1  0.49940000  0.86760000  0.69010000  1.0 -0.4194362809
N  N22  1  0.13240000  0.63180000  0.69010000  1.0 -0.4194362809
N  N23  1  0.86760000  0.36820000  0.19010000  1.0 -0.4194362809
N  N24  1  0.50060000  0.13240000  0.19010000  1.0 -0.4194362809
O  O1  1  0.23050000  0.18151000  0.40740000  1.0 -0.5115033338
O  O2  1  0.76950000  0.81849000  0.90740000  1.0 -0.5115033338
O  O3  1  0.81849000  0.04899000  0.40740000  1.0 -0.5115033338
O  O4  1  0.95101000  0.76950000  0.40740000  1.0 -0.5115033338
O  O5  1  0.04899000  0.23050000  0.90740000  1.0 -0.5115033338
O  O6  1  0.18151000  0.95101000  0.90740000  1.0 -0.5115033338
O  O7  1  0.24620000  0.05810000  0.24740000  1.0 -0.530334424
O  O8  1  0.75380000  0.94190000  0.74740000  1.0 -0.5248966564
O  O9  1  0.94190000  0.18810000  0.24740000  1.0 -0.530334424
O  O10  1  0.81190000  0.75380000  0.24740000  1.0 -0.530334424
O  O11  1  0.18810000  0.24620000  0.74740000  1.0 -0.5248966564
O  O12  1  0.05810000  0.81190000  0.74740000  1.0 -0.530334424
