# DDEC6 charges by PACMAN v1.1 (https://github.com/mtap-research/PACMAN-charge/)
data_UJOJEK01_FSR_pacman
_symmetry_space_group_name_H-M   'P 1'
_cell_length_a   13.52630000
_cell_length_b   13.52630000
_cell_length_c   8.05670000
_cell_angle_alpha   90.00000000
_cell_angle_beta   90.00000000
_cell_angle_gamma   120.00000000
_symmetry_Int_Tables_number   1
_chemical_formula_structural   Mn4H21C15(N2O)6
_chemical_formula_sum   'Mn8 H42 C30 N24 O12'
_cell_volume   1276.57358892
_cell_formula_units_Z   2
loop_
 _symmetry_equiv_pos_site_id
 _symmetry_equiv_pos_as_xyz
  1  'x, y, z'
loop_
 _atom_site_type_symbol
 _atom_site_label
 _atom_site_symmetry_multiplicity
 _atom_site_fract_x
 _atom_site_fract_y
 _atom_site_fract_z
 _atom_site_occupancy
 _atom_site_charge
Mn  Mn1  1  0.33333333  0.66666667  0.57942000  1.0 0.1188743343
Mn  Mn2  1  0.66666667  0.33333333  0.07942000  1.0 0.1188743343
Mn  Mn3  1  0.30250000  0.33791000  0.95413000  1.0 0.8541273461
Mn  Mn4  1  0.69750000  0.66209000  0.45413000  1.0 0.8541273461
Mn  Mn5  1  0.66209000  0.96459000  0.95413000  1.0 0.8541273461
Mn  Mn6  1  0.03541000  0.69750000  0.95413000  1.0 0.8541273461
Mn  Mn7  1  0.96459000  0.30250000  0.45413000  1.0 0.8541273461
Mn  Mn8  1  0.33791000  0.03541000  0.45413000  1.0 0.8541273461
H  H1  1  0.44330000  0.46000000  0.19940000  1.0 0.2875055657
H  H2  1  0.55670000  0.54000000  0.69940000  1.0 0.2875055657
H  H3  1  0.54000000  0.98330000  0.19940000  1.0 0.2875055657
H  H4  1  0.01670000  0.55670000  0.19940000  1.0 0.2875055657
H  H5  1  0.98330000  0.44330000  0.69940000  1.0 0.2875055657
H  H6  1  0.46000000  0.01670000  0.69940000  1.0 0.2875055657
H  H7  1  0.34950000  0.48330000  0.20530000  1.0 0.2875055657
H  H8  1  0.65050000  0.51670000  0.70530000  1.0 0.2875055657
H  H9  1  0.51670000  0.86620000  0.20530000  1.0 0.2875055657
H  H10  1  0.13380000  0.65050000  0.20530000  1.0 0.2875055657
H  H11  1  0.86620000  0.34950000  0.70530000  1.0 0.2875055657
H  H12  1  0.48330000  0.13380000  0.70530000  1.0 0.2875055657
H  H13  1  0.23760000  0.32080000  0.34840000  1.0 0.1188743343
H  H14  1  0.76240000  0.67920000  0.84840000  1.0 0.1188743343
H  H15  1  0.67920000  0.91680000  0.34840000  1.0 0.1188743343
H  H16  1  0.08320000  0.76240000  0.34840000  1.0 0.1188743343
H  H17  1  0.91680000  0.23760000  0.84840000  1.0 0.1188743343
H  H18  1  0.32080000  0.08320000  0.84840000  1.0 0.1188743343
H  H19  1  0.35240000  0.39600000  0.44440000  1.0 0.1101045893
H  H20  1  0.64760000  0.60400000  0.94440000  1.0 0.1101045893
H  H21  1  0.60400000  0.95640000  0.44440000  1.0 0.1101045893
H  H22  1  0.04360000  0.64760000  0.44440000  1.0 0.1101045893
H  H23  1  0.95640000  0.35240000  0.94440000  1.0 0.1101045893
H  H24  1  0.39600000  0.04360000  0.94440000  1.0 0.1101045893
H  H25  1  0.42320000  0.28670000  0.29150000  1.0 0.1101045893
H  H26  1  0.57680000  0.71330000  0.79150000  1.0 0.1101045893
H  H27  1  0.71330000  0.13650000  0.29150000  1.0 0.1101045893
H  H28  1  0.86350000  0.57680000  0.29150000  1.0 0.1101045893
H  H29  1  0.13650000  0.42320000  0.79150000  1.0 0.1101045893
H  H30  1  0.28670000  0.86350000  0.79150000  1.0 0.1101045893
H  H31  1  0.28610000  0.19750000  0.55990000  1.0 0.3059900787
H  H32  1  0.71390000  0.80250000  0.05990000  1.0 0.3059900787
H  H33  1  0.80250000  0.08860000  0.55990000  1.0 0.3059900787
H  H34  1  0.91140000  0.71390000  0.55990000  1.0 0.3059900787
H  H35  1  0.08860000  0.28610000  0.05990000  1.0 0.3059900787
H  H36  1  0.19750000  0.91140000  0.05990000  1.0 0.3059900787
H  H37  1  0.41070000  0.25550000  0.55500000  1.0 0.2978707638
H  H38  1  0.58930000  0.74450000  0.05500000  1.0 0.2978707638
H  H39  1  0.74450000  0.15520000  0.55500000  1.0 0.2978707638
H  H40  1  0.84480000  0.58930000  0.55500000  1.0 0.2978707638
H  H41  1  0.15520000  0.41070000  0.05500000  1.0 0.2978707638
H  H42  1  0.25550000  0.84480000  0.05500000  1.0 0.2978707638
C  C1  1  0.35426000  0.56009000  0.72420000  1.0 0.0380644655
C  C2  1  0.64574000  0.43991000  0.22420000  1.0 0.0380644655
C  C3  1  0.43991000  0.79417000  0.72420000  1.0 0.0380644655
C  C4  1  0.20583000  0.64574000  0.72420000  1.0 0.0380644655
C  C5  1  0.79417000  0.35426000  0.22420000  1.0 0.0380644655
C  C6  1  0.56009000  0.20583000  0.22420000  1.0 0.0380644655
C  C7  1  0.46465000  0.67738000  0.45110000  1.0 0.0116693851
C  C8  1  0.53535000  0.32262000  0.95110000  1.0 0.0116693851
C  C9  1  0.32262000  0.78727000  0.45110000  1.0 0.0116693851
C  C10  1  0.21273000  0.53535000  0.45110000  1.0 0.0116693851
C  C11  1  0.78727000  0.46465000  0.95110000  1.0 0.0116693851
C  C12  1  0.67738000  0.21273000  0.95110000  1.0 0.0116693851
C  C13  1  0.26724000  0.15694000  0.21910000  1.0 0.5687807785
C  C14  1  0.73276000  0.84306000  0.71910000  1.0 0.5687807785
C  C15  1  0.84306000  0.11030000  0.21910000  1.0 0.5687807785
C  C16  1  0.88970000  0.73276000  0.21910000  1.0 0.5687807785
C  C17  1  0.11030000  0.26724000  0.71910000  1.0 0.5687807785
C  C18  1  0.15694000  0.88970000  0.71910000  1.0 0.5687807785
C  C19  1  0.31960000  0.35190000  0.34410000  1.0 -0.0600220525
C  C20  1  0.68040000  0.64810000  0.84410000  1.0 -0.0600220525
C  C21  1  0.64810000  0.96770000  0.34410000  1.0 -0.0600220525
C  C22  1  0.03230000  0.68040000  0.34410000  1.0 -0.0600220525
C  C23  1  0.96770000  0.31960000  0.84410000  1.0 -0.0600220525
C  C24  1  0.35190000  0.03230000  0.84410000  1.0 -0.0600220525
C  C25  1  0.34566000  0.25420000  0.33600000  1.0 -0.0176224247
C  C26  1  0.65434000  0.74580000  0.83600000  1.0 -0.0176224247
C  C27  1  0.74580000  0.09146000  0.33600000  1.0 -0.0176224247
C  C28  1  0.90854000  0.65434000  0.33600000  1.0 -0.0176224247
C  C29  1  0.09146000  0.34566000  0.83600000  1.0 -0.0176224247
C  C30  1  0.25420000  0.90854000  0.83600000  1.0 -0.0176224247
N  N1  1  0.36859000  0.50032000  0.81020000  1.0 -0.422354327
N  N2  1  0.63141000  0.49968000  0.31020000  1.0 -0.422354327
N  N3  1  0.49968000  0.86827000  0.81020000  1.0 -0.422354327
N  N4  1  0.13173000  0.63141000  0.81020000  1.0 -0.422354327
N  N5  1  0.86827000  0.36859000  0.31020000  1.0 -0.422354327
N  N6  1  0.50032000  0.13173000  0.31020000  1.0 -0.422354327
N  N7  1  0.36678000  0.42724000  0.19760000  1.0 -0.5350112332
N  N8  1  0.63322000  0.57276000  0.69760000  1.0 -0.5349175944
N  N9  1  0.57276000  0.93954000  0.19760000  1.0 -0.5350112332
N  N10  1  0.06046000  0.63322000  0.19760000  1.0 -0.5350112332
N  N11  1  0.93954000  0.36678000  0.69760000  1.0 -0.5349175944
N  N12  1  0.42724000  0.06046000  0.69760000  1.0 -0.5350112332
N  N13  1  0.45632000  0.32084000  0.89370000  1.0 -0.4125039492
N  N14  1  0.54368000  0.67916000  0.39370000  1.0 -0.4125039492
N  N15  1  0.67916000  0.13548000  0.89370000  1.0 -0.4125039492
N  N16  1  0.86452000  0.54368000  0.89370000  1.0 -0.4125039492
N  N17  1  0.13548000  0.45632000  0.39370000  1.0 -0.4125039492
N  N18  1  0.32084000  0.86452000  0.39370000  1.0 -0.4125039492
N  N19  1  0.13888000  0.34651000  0.99970000  1.0 -0.5541759345
N  N20  1  0.86112000  0.65349000  0.49970000  1.0 -0.5541759345
N  N21  1  0.65349000  0.79237000  0.99970000  1.0 -0.5541759345
N  N22  1  0.20763000  0.86112000  0.99970000  1.0 -0.5541759345
N  N23  1  0.79237000  0.13888000  0.49970000  1.0 -0.5541759345
N  N24  1  0.34651000  0.20763000  0.49970000  1.0 -0.5541759345
O  O1  1  0.22991000  0.18078000  0.09280000  1.0 -0.5059178783
O  O2  1  0.77009000  0.81922000  0.59280000  1.0 -0.5059178783
O  O3  1  0.81922000  0.04913000  0.09280000  1.0 -0.5059178783
O  O4  1  0.95087000  0.77009000  0.09280000  1.0 -0.5059178783
O  O5  1  0.04913000  0.22991000  0.59280000  1.0 -0.5059178783
O  O6  1  0.18078000  0.95087000  0.59280000  1.0 -0.5059178783
O  O7  1  0.18784000  0.24517000  0.75310000  1.0 -0.5226456536
O  O8  1  0.81216000  0.75483000  0.25310000  1.0 -0.5226456536
O  O9  1  0.75483000  0.94267000  0.75310000  1.0 -0.5226456536
O  O10  1  0.05733000  0.81216000  0.75310000  1.0 -0.5226456536
O  O11  1  0.94267000  0.18784000  0.25310000  1.0 -0.5226456536
O  O12  1  0.24517000  0.05733000  0.25310000  1.0 -0.5226456536
