# DDEC6 charges by PACMAN v1.1 (https://github.com/mtap-research/PACMAN-charge/)
data_UJOJIO01_ASR_pacman
_symmetry_space_group_name_H-M   'P 1'
_cell_length_a   13.50680000
_cell_length_b   13.50680000
_cell_length_c   8.06760000
_cell_angle_alpha   90.00000000
_cell_angle_beta   90.00000000
_cell_angle_gamma   120.00000000
_symmetry_Int_Tables_number   1
_chemical_formula_structural   Mn4H21C15(N2O)6
_chemical_formula_sum   'Mn8 H42 C30 N24 O12'
_cell_volume   1274.61764803
_cell_formula_units_Z   2
loop_
 _symmetry_equiv_pos_site_id
 _symmetry_equiv_pos_as_xyz
  1  'x, y, z'
loop_
 _atom_site_type_symbol
 _atom_site_label
 _atom_site_symmetry_multiplicity
 _atom_site_fract_x
 _atom_site_fract_y
 _atom_site_fract_z
 _atom_site_occupancy
 _atom_site_charge
Mn  Mn1  1  0.33333333  0.66666667  0.92056000  1.0 0.1023731292
Mn  Mn2  1  0.66666667  0.33333333  0.42056000  1.0 0.1023731292
Mn  Mn3  1  0.30249000  0.33787000  0.54595000  1.0 0.8533756122
Mn  Mn4  1  0.69751000  0.66213000  0.04595000  1.0 0.8533756122
Mn  Mn5  1  0.66213000  0.96462000  0.54595000  1.0 0.8533756122
Mn  Mn6  1  0.03538000  0.69751000  0.54595000  1.0 0.8533756122
Mn  Mn7  1  0.96462000  0.30249000  0.04595000  1.0 0.8533756122
Mn  Mn8  1  0.33787000  0.03538000  0.04595000  1.0 0.8533756122
H  H1  1  0.41120000  0.25590000  0.94540000  1.0 0.2898511177
H  H2  1  0.58880000  0.74410000  0.44540000  1.0 0.2898511177
H  H3  1  0.74410000  0.15530000  0.94540000  1.0 0.2898511177
H  H4  1  0.84470000  0.58880000  0.94540000  1.0 0.2898511177
H  H5  1  0.15530000  0.41120000  0.44540000  1.0 0.2898511177
H  H6  1  0.25590000  0.84470000  0.44540000  1.0 0.2898511177
H  H7  1  0.28640000  0.19790000  0.94000000  1.0 0.3030232326
H  H8  1  0.71360000  0.80210000  0.44000000  1.0 0.3030232326
H  H9  1  0.80210000  0.08850000  0.94000000  1.0 0.3030232326
H  H10  1  0.91150000  0.71360000  0.94000000  1.0 0.3030232326
H  H11  1  0.08850000  0.28640000  0.44000000  1.0 0.3030232326
H  H12  1  0.19790000  0.91150000  0.44000000  1.0 0.3030232326
H  H13  1  0.42310000  0.28670000  0.20870000  1.0 0.1095621423
H  H14  1  0.57690000  0.71330000  0.70870000  1.0 0.1095621423
H  H15  1  0.71330000  0.13640000  0.20870000  1.0 0.1095621423
H  H16  1  0.86360000  0.57690000  0.20870000  1.0 0.1095621423
H  H17  1  0.13640000  0.42310000  0.70870000  1.0 0.1095621423
H  H18  1  0.28670000  0.86360000  0.70870000  1.0 0.1095621423
H  H19  1  0.34970000  0.48380000  0.29550000  1.0 0.2843184159
H  H20  1  0.65030000  0.51620000  0.79550000  1.0 0.2843184159
H  H21  1  0.51620000  0.86590000  0.29550000  1.0 0.2843184159
H  H22  1  0.13410000  0.65030000  0.29550000  1.0 0.2843184159
H  H23  1  0.86590000  0.34970000  0.79550000  1.0 0.2843184159
H  H24  1  0.48380000  0.13410000  0.79550000  1.0 0.2843184159
H  H25  1  0.44360000  0.46050000  0.30120000  1.0 0.2898511177
H  H26  1  0.55640000  0.53950000  0.80120000  1.0 0.2898511177
H  H27  1  0.53950000  0.98310000  0.30120000  1.0 0.2898511177
H  H28  1  0.01690000  0.55640000  0.30120000  1.0 0.2898511177
H  H29  1  0.98310000  0.44360000  0.80120000  1.0 0.2898511177
H  H30  1  0.46050000  0.01690000  0.80120000  1.0 0.2898511177
H  H31  1  0.35280000  0.39680000  0.05630000  1.0 0.1095621423
H  H32  1  0.64720000  0.60320000  0.55630000  1.0 0.1095621423
H  H33  1  0.60320000  0.95600000  0.05630000  1.0 0.1095621423
H  H34  1  0.04400000  0.64720000  0.05630000  1.0 0.1095621423
H  H35  1  0.95600000  0.35280000  0.55630000  1.0 0.1095621423
H  H36  1  0.39680000  0.04400000  0.55630000  1.0 0.1095621423
H  H37  1  0.23760000  0.32150000  0.15170000  1.0 0.1208130107
H  H38  1  0.76240000  0.67850000  0.65170000  1.0 0.1208130107
H  H39  1  0.67850000  0.91610000  0.15170000  1.0 0.1208130107
H  H40  1  0.08390000  0.76240000  0.15170000  1.0 0.1208130107
H  H41  1  0.91610000  0.23760000  0.65170000  1.0 0.1208130107
H  H42  1  0.32150000  0.08390000  0.65170000  1.0 0.1208130107
C  C1  1  0.53539000  0.32267000  0.54860000  1.0 0.0198289213
C  C2  1  0.46461000  0.67733000  0.04860000  1.0 0.0198289213
C  C3  1  0.67733000  0.21272000  0.54860000  1.0 0.0198289213
C  C4  1  0.78728000  0.46461000  0.54860000  1.0 0.0198289213
C  C5  1  0.21272000  0.53539000  0.04860000  1.0 0.0198289213
C  C6  1  0.32267000  0.78728000  0.04860000  1.0 0.0198289213
C  C7  1  0.35424000  0.56007000  0.77620000  1.0 0.0424735308
C  C8  1  0.64576000  0.43993000  0.27620000  1.0 0.0424735308
C  C9  1  0.43993000  0.79417000  0.77620000  1.0 0.0424735308
C  C10  1  0.20583000  0.64576000  0.77620000  1.0 0.0424735308
C  C11  1  0.79417000  0.35424000  0.27620000  1.0 0.0424735308
C  C12  1  0.56007000  0.20583000  0.27620000  1.0 0.0424735308
C  C13  1  0.26685000  0.15690000  0.28060000  1.0 0.5654315934
C  C14  1  0.73315000  0.84310000  0.78060000  1.0 0.5654315934
C  C15  1  0.84310000  0.10995000  0.28060000  1.0 0.5654315934
C  C16  1  0.89005000  0.73315000  0.28060000  1.0 0.5654315934
C  C17  1  0.10995000  0.26685000  0.78060000  1.0 0.5654315934
C  C18  1  0.15690000  0.89005000  0.78060000  1.0 0.5654315934
C  C19  1  0.34553000  0.25434000  0.16400000  1.0 -0.0142612267
C  C20  1  0.65447000  0.74566000  0.66400000  1.0 -0.0142612267
C  C21  1  0.74566000  0.09119000  0.16400000  1.0 -0.0142612267
C  C22  1  0.90881000  0.65447000  0.16400000  1.0 -0.0142612267
C  C23  1  0.09119000  0.34553000  0.66400000  1.0 -0.0142612267
C  C24  1  0.25434000  0.90881000  0.66400000  1.0 -0.0142612267
C  C25  1  0.31970000  0.35247000  0.15620000  1.0 -0.0607802435
C  C26  1  0.68030000  0.64753000  0.65620000  1.0 -0.0607802435
C  C27  1  0.64753000  0.96723000  0.15620000  1.0 -0.0607802435
C  C28  1  0.03277000  0.68030000  0.15620000  1.0 -0.0607802435
C  C29  1  0.96723000  0.31970000  0.65620000  1.0 -0.0607802435
C  C30  1  0.35247000  0.03277000  0.65620000  1.0 -0.0607802435
N  N1  1  0.34672000  0.20793000  0.00035000  1.0 -0.5525455986
N  N2  1  0.65328000  0.79207000  0.50035000  1.0 -0.5525455986
N  N3  1  0.79207000  0.13879000  0.00035000  1.0 -0.5525455986
N  N4  1  0.86121000  0.65328000  0.00035000  1.0 -0.5525455986
N  N5  1  0.13879000  0.34672000  0.50035000  1.0 -0.5525455986
N  N6  1  0.20793000  0.86121000  0.50035000  1.0 -0.5525455986
N  N7  1  0.36695000  0.42765000  0.30300000  1.0 -0.5325710192
N  N8  1  0.63305000  0.57235000  0.80300000  1.0 -0.5325710192
N  N9  1  0.57235000  0.93930000  0.30300000  1.0 -0.5325710192
N  N10  1  0.06070000  0.63305000  0.30300000  1.0 -0.5325710192
N  N11  1  0.93930000  0.36695000  0.80300000  1.0 -0.5325710192
N  N12  1  0.42765000  0.06070000  0.80300000  1.0 -0.5325710192
N  N13  1  0.45618000  0.32068000  0.60580000  1.0 -0.4101230516
N  N14  1  0.54382000  0.67932000  0.10580000  1.0 -0.4101230516
N  N15  1  0.67932000  0.13550000  0.60580000  1.0 -0.4101230516
N  N16  1  0.86450000  0.54382000  0.60580000  1.0 -0.4101230516
N  N17  1  0.13550000  0.45618000  0.10580000  1.0 -0.4101230516
N  N18  1  0.32068000  0.86450000  0.10580000  1.0 -0.4101230516
N  N19  1  0.36840000  0.49985000  0.69010000  1.0 -0.4213632955
N  N20  1  0.63160000  0.50015000  0.19010000  1.0 -0.4213632955
N  N21  1  0.50015000  0.86855000  0.69010000  1.0 -0.4213632955
N  N22  1  0.13145000  0.63160000  0.69010000  1.0 -0.4213632955
N  N23  1  0.86855000  0.36840000  0.19010000  1.0 -0.4213632955
N  N24  1  0.49985000  0.13145000  0.19010000  1.0 -0.4213632955
O  O1  1  0.22970000  0.18051000  0.40702000  1.0 -0.506564559
O  O2  1  0.77030000  0.81949000  0.90702000  1.0 -0.506564559
O  O3  1  0.81949000  0.04919000  0.40702000  1.0 -0.506564559
O  O4  1  0.95081000  0.77030000  0.40702000  1.0 -0.506564559
O  O5  1  0.04919000  0.22970000  0.90702000  1.0 -0.506564559
O  O6  1  0.18051000  0.95081000  0.90702000  1.0 -0.506564559
O  O7  1  0.24420000  0.05708000  0.24600000  1.0 -0.5240062192
O  O8  1  0.75580000  0.94292000  0.74600000  1.0 -0.5240062192
O  O9  1  0.94292000  0.18712000  0.24600000  1.0 -0.5240062192
O  O10  1  0.81288000  0.75580000  0.24600000  1.0 -0.5240062192
O  O11  1  0.18712000  0.24420000  0.74600000  1.0 -0.5240062192
O  O12  1  0.05708000  0.81288000  0.74600000  1.0 -0.5240062192
