# DDEC6 charges by PACMAN v1.1 (https://github.com/mtap-research/PACMAN-charge/)
data_UJOKIP05_ASR_pacman
_symmetry_space_group_name_H-M   'P 1'
_cell_length_a   13.54160000
_cell_length_b   13.54160000
_cell_length_c   8.11400000
_cell_angle_alpha   90.00000000
_cell_angle_beta   90.00000000
_cell_angle_gamma   120.00000000
_symmetry_Int_Tables_number   1
_chemical_formula_structural   Mn3CrH21C15(N2O)6
_chemical_formula_sum   'Mn6 Cr2 H42 C30 N24 O12'
_cell_volume   1288.56282396
_cell_formula_units_Z   2
loop_
 _symmetry_equiv_pos_site_id
 _symmetry_equiv_pos_as_xyz
  1  'x, y, z'
loop_
 _atom_site_type_symbol
 _atom_site_label
 _atom_site_symmetry_multiplicity
 _atom_site_fract_x
 _atom_site_fract_y
 _atom_site_fract_z
 _atom_site_occupancy
 _atom_site_charge
Mn  Mn1  1  0.29530000  0.33142000  0.54425000  1.0 0.8384906127
Mn  Mn2  1  0.70470000  0.66858000  0.04425000  1.0 0.8384906127
Mn  Mn3  1  0.66858000  0.96388000  0.54425000  1.0 0.8384906127
Mn  Mn4  1  0.03612000  0.70470000  0.54425000  1.0 0.8384906127
Mn  Mn5  1  0.96388000  0.29530000  0.04425000  1.0 0.8384906127
Mn  Mn6  1  0.33142000  0.03612000  0.04425000  1.0 0.8384906127
Cr  Cr1  1  0.33333333  0.66666667  0.92350000  1.0 0.7360270097
Cr  Cr2  1  0.66666667  0.33333333  0.42350000  1.0 0.7360270097
H  H1  1  0.40370000  0.25410000  0.94550000  1.0 0.292349336
H  H2  1  0.59630000  0.74590000  0.44550000  1.0 0.292349336
H  H3  1  0.74590000  0.14960000  0.94550000  1.0 0.292349336
H  H4  1  0.85040000  0.59630000  0.94550000  1.0 0.292349336
H  H5  1  0.14960000  0.40370000  0.44550000  1.0 0.292349336
H  H6  1  0.25410000  0.85040000  0.44550000  1.0 0.292349336
H  H7  1  0.27920000  0.19610000  0.94110000  1.0 0.3022450879
H  H8  1  0.72080000  0.80390000  0.44110000  1.0 0.3022450879
H  H9  1  0.80390000  0.08310000  0.94110000  1.0 0.3022450879
H  H10  1  0.91690000  0.72080000  0.94110000  1.0 0.3022450879
H  H11  1  0.08310000  0.27920000  0.44110000  1.0 0.3022450879
H  H12  1  0.19610000  0.91690000  0.44110000  1.0 0.3022450879
H  H13  1  0.41650000  0.28410000  0.20810000  1.0 0.1036730259
H  H14  1  0.58350000  0.71590000  0.70810000  1.0 0.1036730259
H  H15  1  0.71590000  0.13240000  0.20810000  1.0 0.1036730259
H  H16  1  0.86760000  0.58350000  0.20810000  1.0 0.1036730259
H  H17  1  0.13240000  0.41650000  0.70810000  1.0 0.1036730259
H  H18  1  0.28410000  0.86760000  0.70810000  1.0 0.1036730259
H  H19  1  0.34620000  0.48020000  0.29790000  1.0 0.2843862846
H  H20  1  0.65380000  0.51980000  0.79790000  1.0 0.2843862846
H  H21  1  0.51980000  0.86600000  0.29790000  1.0 0.2843862846
H  H22  1  0.13400000  0.65380000  0.29790000  1.0 0.2843862846
H  H23  1  0.86600000  0.34620000  0.79790000  1.0 0.2843862846
H  H24  1  0.48020000  0.13400000  0.79790000  1.0 0.2843862846
H  H25  1  0.43870000  0.45500000  0.30340000  1.0 0.2843862846
H  H26  1  0.56130000  0.54500000  0.80340000  1.0 0.2843862846
H  H27  1  0.54500000  0.98370000  0.30340000  1.0 0.2843862846
H  H28  1  0.01630000  0.56130000  0.30340000  1.0 0.2843862846
H  H29  1  0.98370000  0.43870000  0.80340000  1.0 0.2843862846
H  H30  1  0.45500000  0.01630000  0.80340000  1.0 0.2843862846
H  H31  1  0.34690000  0.39360000  0.06110000  1.0 0.1080449
H  H32  1  0.65310000  0.60640000  0.56110000  1.0 0.1080449
H  H33  1  0.60640000  0.95330000  0.06110000  1.0 0.1080449
H  H34  1  0.04670000  0.65310000  0.06110000  1.0 0.1080449
H  H35  1  0.95330000  0.34690000  0.56110000  1.0 0.1080449
H  H36  1  0.39360000  0.04670000  0.56110000  1.0 0.1080449
H  H37  1  0.23280000  0.31860000  0.15750000  1.0 0.1187866702
H  H38  1  0.76720000  0.68140000  0.65750000  1.0 0.1187866702
H  H39  1  0.68140000  0.91420000  0.15750000  1.0 0.1187866702
H  H40  1  0.08580000  0.76720000  0.15750000  1.0 0.1187866702
H  H41  1  0.91420000  0.23280000  0.65750000  1.0 0.1187866702
H  H42  1  0.31860000  0.08580000  0.65750000  1.0 0.1187866702
C  C1  1  0.53090000  0.32040000  0.56070000  1.0 -0.1464746943
C  C2  1  0.46910000  0.67960000  0.06070000  1.0 -0.1464746943
C  C3  1  0.67960000  0.21050000  0.56070000  1.0 -0.1464746943
C  C4  1  0.78950000  0.46910000  0.56070000  1.0 -0.1464746943
C  C5  1  0.21050000  0.53090000  0.06070000  1.0 -0.1464746943
C  C6  1  0.32040000  0.78950000  0.06070000  1.0 -0.1464746943
C  C7  1  0.35280000  0.55380000  0.77320000  1.0 -0.118391956
C  C8  1  0.64720000  0.44620000  0.27320000  1.0 -0.118391956
C  C9  1  0.44620000  0.79900000  0.77320000  1.0 -0.118391956
C  C10  1  0.20100000  0.64720000  0.77320000  1.0 -0.118391956
C  C11  1  0.79900000  0.35280000  0.27320000  1.0 -0.118391956
C  C12  1  0.55380000  0.20100000  0.27320000  1.0 -0.118391956
C  C13  1  0.26110000  0.15400000  0.28080000  1.0 0.562541671
C  C14  1  0.73890000  0.84600000  0.78080000  1.0 0.562541671
C  C15  1  0.84600000  0.10710000  0.28080000  1.0 0.562541671
C  C16  1  0.89290000  0.73890000  0.28080000  1.0 0.562541671
C  C17  1  0.10710000  0.26110000  0.78080000  1.0 0.562541671
C  C18  1  0.15400000  0.89290000  0.78080000  1.0 0.562541671
C  C19  1  0.33900000  0.25230000  0.16460000  1.0 -0.0218840178
C  C20  1  0.66100000  0.74770000  0.66460000  1.0 -0.0218840178
C  C21  1  0.74770000  0.08670000  0.16460000  1.0 -0.0218840178
C  C22  1  0.91330000  0.66100000  0.16460000  1.0 -0.0218840178
C  C23  1  0.08670000  0.33900000  0.66460000  1.0 -0.0218840178
C  C24  1  0.25230000  0.91330000  0.66460000  1.0 -0.0218840178
C  C25  1  0.31460000  0.34920000  0.16050000  1.0 -0.0578384773
C  C26  1  0.68540000  0.65080000  0.66050000  1.0 -0.0578384773
C  C27  1  0.65080000  0.96540000  0.16050000  1.0 -0.0578384773
C  C28  1  0.03460000  0.68540000  0.16050000  1.0 -0.0578384773
C  C29  1  0.96540000  0.31460000  0.66050000  1.0 -0.0578384773
C  C30  1  0.34920000  0.03460000  0.66050000  1.0 -0.0578384773
N  N1  1  0.33970000  0.20620000  0.00050000  1.0 -0.5549445675
N  N2  1  0.66030000  0.79380000  0.50050000  1.0 -0.5559801087
N  N3  1  0.79380000  0.13350000  0.00050000  1.0 -0.5549445675
N  N4  1  0.86650000  0.66030000  0.00050000  1.0 -0.5559801087
N  N5  1  0.13350000  0.33970000  0.50050000  1.0 -0.5559801087
N  N6  1  0.20620000  0.86650000  0.50050000  1.0 -0.5559801087
N  N7  1  0.36240000  0.42340000  0.30470000  1.0 -0.5334736035
N  N8  1  0.63760000  0.57660000  0.80470000  1.0 -0.5334736035
N  N9  1  0.57660000  0.93900000  0.30470000  1.0 -0.5334736035
N  N10  1  0.06100000  0.63760000  0.30470000  1.0 -0.5334736035
N  N11  1  0.93900000  0.36240000  0.80470000  1.0 -0.5334736035
N  N12  1  0.42340000  0.06100000  0.80470000  1.0 -0.5334736035
N  N13  1  0.45120000  0.31850000  0.61160000  1.0 -0.3494145027
N  N14  1  0.54880000  0.68150000  0.11160000  1.0 -0.3494145027
N  N15  1  0.68150000  0.13270000  0.61160000  1.0 -0.3494145027
N  N16  1  0.86730000  0.54880000  0.61160000  1.0 -0.3494145027
N  N17  1  0.13270000  0.45120000  0.11160000  1.0 -0.3494145027
N  N18  1  0.31850000  0.86730000  0.11160000  1.0 -0.3494145027
N  N19  1  0.36260000  0.49320000  0.69020000  1.0 -0.3494145027
N  N20  1  0.63740000  0.50680000  0.19020000  1.0 -0.3494145027
N  N21  1  0.50680000  0.86940000  0.69020000  1.0 -0.3494145027
N  N22  1  0.13060000  0.63740000  0.69020000  1.0 -0.3494145027
N  N23  1  0.86940000  0.36260000  0.19020000  1.0 -0.3494145027
N  N24  1  0.49320000  0.13060000  0.19020000  1.0 -0.3494145027
O  O1  1  0.22640000  0.17630000  0.40750000  1.0 -0.4890001193
O  O2  1  0.77360000  0.82370000  0.90750000  1.0 -0.4890001193
O  O3  1  0.82370000  0.05010000  0.40750000  1.0 -0.4890001193
O  O4  1  0.94990000  0.77360000  0.40750000  1.0 -0.4890001193
O  O5  1  0.05010000  0.22640000  0.90750000  1.0 -0.4890001193
O  O6  1  0.17630000  0.94990000  0.90750000  1.0 -0.4890001193
O  O7  1  0.23790000  0.05410000  0.24430000  1.0 -0.5187194075
O  O8  1  0.76210000  0.94590000  0.74430000  1.0 -0.5187194075
O  O9  1  0.94590000  0.18380000  0.24430000  1.0 -0.5187194075
O  O10  1  0.81620000  0.76210000  0.24430000  1.0 -0.5187194075
O  O11  1  0.18380000  0.23790000  0.74430000  1.0 -0.5187194075
O  O12  1  0.05410000  0.81620000  0.74430000  1.0 -0.5187194075
