# DDEC6 charges by PACMAN v1.1 (https://github.com/mtap-research/PACMAN-charge/)
data_UJOKIP02_FSR_pacman
_symmetry_space_group_name_H-M   'P 1'
_cell_length_a   13.55760000
_cell_length_b   13.55760000
_cell_length_c   8.09940000
_cell_angle_alpha   90.00000000
_cell_angle_beta   90.00000000
_cell_angle_gamma   120.00000000
_symmetry_Int_Tables_number   1
_chemical_formula_structural   Mn3CrH21C15(N2O)6
_chemical_formula_sum   'Mn6 Cr2 H42 C30 N24 O12'
_cell_volume   1289.28554137
_cell_formula_units_Z   2
loop_
 _symmetry_equiv_pos_site_id
 _symmetry_equiv_pos_as_xyz
  1  'x, y, z'
loop_
 _atom_site_type_symbol
 _atom_site_label
 _atom_site_symmetry_multiplicity
 _atom_site_fract_x
 _atom_site_fract_y
 _atom_site_fract_z
 _atom_site_occupancy
 _atom_site_charge
Mn  Mn1  1  0.29573000  0.33190000  0.54415000  1.0 0.8415344787
Mn  Mn2  1  0.70427000  0.66810000  0.04415000  1.0 0.8415344787
Mn  Mn3  1  0.66810000  0.96383000  0.54415000  1.0 0.8415344787
Mn  Mn4  1  0.03617000  0.70427000  0.54415000  1.0 0.8415344787
Mn  Mn5  1  0.96383000  0.29573000  0.04415000  1.0 0.8415344787
Mn  Mn6  1  0.33190000  0.03617000  0.04415000  1.0 0.8415344787
Cr  Cr1  1  0.33333333  0.66666667  0.92380000  1.0 0.7394724519
Cr  Cr2  1  0.66666667  0.33333333  0.42380000  1.0 0.7394724519
H  H1  1  0.40410000  0.25450000  0.94490000  1.0 0.2925881179
H  H2  1  0.59590000  0.74550000  0.44490000  1.0 0.2925881179
H  H3  1  0.74550000  0.14960000  0.94490000  1.0 0.2925881179
H  H4  1  0.85040000  0.59590000  0.94490000  1.0 0.2925881179
H  H5  1  0.14960000  0.40410000  0.44490000  1.0 0.2925881179
H  H6  1  0.25450000  0.85040000  0.44490000  1.0 0.2925881179
H  H7  1  0.27970000  0.19660000  0.94070000  1.0 0.3020504297
H  H8  1  0.72030000  0.80340000  0.44070000  1.0 0.3020504297
H  H9  1  0.80340000  0.08310000  0.94070000  1.0 0.3020504297
H  H10  1  0.91690000  0.72030000  0.94070000  1.0 0.3020504297
H  H11  1  0.08310000  0.27970000  0.44070000  1.0 0.3020504297
H  H12  1  0.19660000  0.91690000  0.44070000  1.0 0.3020504297
H  H13  1  0.41700000  0.28440000  0.20860000  1.0 0.1076580777
H  H14  1  0.58300000  0.71560000  0.70860000  1.0 0.1076580777
H  H15  1  0.71560000  0.13260000  0.20860000  1.0 0.1076580777
H  H16  1  0.86740000  0.58300000  0.20860000  1.0 0.1076580777
H  H17  1  0.13260000  0.41700000  0.70860000  1.0 0.1076580777
H  H18  1  0.28440000  0.86740000  0.70860000  1.0 0.1076580777
H  H19  1  0.34680000  0.48030000  0.29770000  1.0 0.2839499147
H  H20  1  0.65320000  0.51970000  0.79770000  1.0 0.2839499147
H  H21  1  0.51970000  0.86650000  0.29770000  1.0 0.2839499147
H  H22  1  0.13350000  0.65320000  0.29770000  1.0 0.2839499147
H  H23  1  0.86650000  0.34680000  0.79770000  1.0 0.2839499147
H  H24  1  0.48030000  0.13350000  0.79770000  1.0 0.2839499147
H  H25  1  0.43900000  0.45490000  0.30330000  1.0 0.2839499147
H  H26  1  0.56100000  0.54510000  0.80330000  1.0 0.2839499147
H  H27  1  0.54510000  0.98410000  0.30330000  1.0 0.2839499147
H  H28  1  0.01590000  0.56100000  0.30330000  1.0 0.2839499147
H  H29  1  0.98410000  0.43900000  0.80330000  1.0 0.2839499147
H  H30  1  0.45490000  0.01590000  0.80330000  1.0 0.2839499147
H  H31  1  0.34730000  0.39330000  0.05920000  1.0 0.1076580777
H  H32  1  0.65270000  0.60670000  0.55920000  1.0 0.1076580777
H  H33  1  0.60670000  0.95400000  0.05920000  1.0 0.1076580777
H  H34  1  0.04600000  0.65270000  0.05920000  1.0 0.1076580777
H  H35  1  0.95400000  0.34730000  0.55920000  1.0 0.1076580777
H  H36  1  0.39330000  0.04600000  0.55920000  1.0 0.1076580777
H  H37  1  0.23300000  0.31840000  0.15550000  1.0 0.1200417461
H  H38  1  0.76700000  0.68160000  0.65550000  1.0 0.1200417461
H  H39  1  0.68160000  0.91460000  0.15550000  1.0 0.1200417461
H  H40  1  0.08540000  0.76700000  0.15550000  1.0 0.1200417461
H  H41  1  0.91460000  0.23300000  0.65550000  1.0 0.1200417461
H  H42  1  0.31840000  0.08540000  0.65550000  1.0 0.1200417461
C  C1  1  0.53080000  0.32030000  0.56060000  1.0 -0.1445123423
C  C2  1  0.46920000  0.67970000  0.06060000  1.0 -0.1445123423
C  C3  1  0.67970000  0.21050000  0.56060000  1.0 -0.1445123423
C  C4  1  0.78950000  0.46920000  0.56060000  1.0 -0.1445123423
C  C5  1  0.21050000  0.53080000  0.06060000  1.0 -0.1445123423
C  C6  1  0.32030000  0.78950000  0.06060000  1.0 -0.1445123423
C  C7  1  0.35300000  0.55460000  0.77300000  1.0 -0.113239464
C  C8  1  0.64700000  0.44540000  0.27300000  1.0 -0.113239464
C  C9  1  0.44540000  0.79840000  0.77300000  1.0 -0.113239464
C  C10  1  0.20160000  0.64700000  0.77300000  1.0 -0.113239464
C  C11  1  0.79840000  0.35300000  0.27300000  1.0 -0.113239464
C  C12  1  0.55460000  0.20160000  0.27300000  1.0 -0.113239464
C  C13  1  0.26140000  0.15460000  0.28050000  1.0 0.5650635393
C  C14  1  0.73860000  0.84540000  0.78050000  1.0 0.5650635393
C  C15  1  0.84540000  0.10680000  0.28050000  1.0 0.5650635393
C  C16  1  0.89320000  0.73860000  0.28050000  1.0 0.5650635393
C  C17  1  0.10680000  0.26140000  0.78050000  1.0 0.5650635393
C  C18  1  0.15460000  0.89320000  0.78050000  1.0 0.5650635393
C  C19  1  0.33960000  0.25250000  0.16470000  1.0 -0.0270856289
C  C20  1  0.66040000  0.74750000  0.66470000  1.0 -0.0270856289
C  C21  1  0.74750000  0.08710000  0.16470000  1.0 -0.0270856289
C  C22  1  0.91290000  0.66040000  0.16470000  1.0 -0.0270856289
C  C23  1  0.08710000  0.33960000  0.66470000  1.0 -0.0270856289
C  C24  1  0.25250000  0.91290000  0.66470000  1.0 -0.0270856289
C  C25  1  0.31480000  0.34900000  0.15890000  1.0 -0.0615760988
C  C26  1  0.68520000  0.65100000  0.65890000  1.0 -0.0615760988
C  C27  1  0.65100000  0.96580000  0.15890000  1.0 -0.0615760988
C  C28  1  0.03420000  0.68520000  0.15890000  1.0 -0.0615760988
C  C29  1  0.96580000  0.31480000  0.65890000  1.0 -0.0615760988
C  C30  1  0.34900000  0.03420000  0.65890000  1.0 -0.0615760988
N  N1  1  0.34010000  0.20660000  0.00000000  1.0 -0.5559420853
N  N2  1  0.65990000  0.79340000  0.50000000  1.0 -0.5559420853
N  N3  1  0.79340000  0.13350000  0.00000000  1.0 -0.5559420853
N  N4  1  0.86650000  0.65990000  0.00000000  1.0 -0.5559420853
N  N5  1  0.13350000  0.34010000  0.50000000  1.0 -0.5559420853
N  N6  1  0.20660000  0.86650000  0.50000000  1.0 -0.5559420853
N  N7  1  0.36270000  0.42350000  0.30450000  1.0 -0.5359464455
N  N8  1  0.63730000  0.57650000  0.80450000  1.0 -0.5359464455
N  N9  1  0.57650000  0.93920000  0.30450000  1.0 -0.5359464455
N  N10  1  0.06080000  0.63730000  0.30450000  1.0 -0.5359464455
N  N11  1  0.93920000  0.36270000  0.80450000  1.0 -0.5359464455
N  N12  1  0.42350000  0.06080000  0.80450000  1.0 -0.5359464455
N  N13  1  0.45130000  0.31880000  0.61090000  1.0 -0.3473674474
N  N14  1  0.54870000  0.68120000  0.11090000  1.0 -0.343815711
N  N15  1  0.68120000  0.13250000  0.61090000  1.0 -0.3473674474
N  N16  1  0.86750000  0.54870000  0.61090000  1.0 -0.343815711
N  N17  1  0.13250000  0.45130000  0.11090000  1.0 -0.343815711
N  N18  1  0.31880000  0.86750000  0.11090000  1.0 -0.343815711
N  N19  1  0.36340000  0.49330000  0.68960000  1.0 -0.3473674474
N  N20  1  0.63660000  0.50670000  0.18960000  1.0 -0.3473674474
N  N21  1  0.50670000  0.87010000  0.68960000  1.0 -0.3473674474
N  N22  1  0.12990000  0.63660000  0.68960000  1.0 -0.3473674474
N  N23  1  0.87010000  0.36340000  0.18960000  1.0 -0.3473674474
N  N24  1  0.49330000  0.12990000  0.18960000  1.0 -0.3473674474
O  O1  1  0.22620000  0.17670000  0.40710000  1.0 -0.492634631
O  O2  1  0.77380000  0.82330000  0.90710000  1.0 -0.492634631
O  O3  1  0.82330000  0.04950000  0.40710000  1.0 -0.492634631
O  O4  1  0.95050000  0.77380000  0.40710000  1.0 -0.492634631
O  O5  1  0.04950000  0.22620000  0.90710000  1.0 -0.492634631
O  O6  1  0.17670000  0.95050000  0.90710000  1.0 -0.492634631
O  O7  1  0.23970000  0.05440000  0.24520000  1.0 -0.5276813476
O  O8  1  0.76030000  0.94560000  0.74520000  1.0 -0.5276813476
O  O9  1  0.94560000  0.18530000  0.24520000  1.0 -0.5276813476
O  O10  1  0.81470000  0.76030000  0.24520000  1.0 -0.5276813476
O  O11  1  0.18530000  0.23970000  0.74520000  1.0 -0.5276813476
O  O12  1  0.05440000  0.81470000  0.74520000  1.0 -0.5276813476
