# DDEC6 charges by PACMAN v1.1 (https://github.com/mtap-research/PACMAN-charge/)
data_UJOKIP01_ASR_pacman
_symmetry_space_group_name_H-M   'P 1'
_cell_length_a   13.57390000
_cell_length_b   13.57390000
_cell_length_c   8.11560000
_cell_angle_alpha   90.00000000
_cell_angle_beta   90.00000000
_cell_angle_gamma   120.00000000
_symmetry_Int_Tables_number   1
_chemical_formula_structural   Mn3CrH21C15(N2O)6
_chemical_formula_sum   'Mn6 Cr2 H42 C30 N24 O12'
_cell_volume   1294.97253009
_cell_formula_units_Z   2
loop_
 _symmetry_equiv_pos_site_id
 _symmetry_equiv_pos_as_xyz
  1  'x, y, z'
loop_
 _atom_site_type_symbol
 _atom_site_label
 _atom_site_symmetry_multiplicity
 _atom_site_fract_x
 _atom_site_fract_y
 _atom_site_fract_z
 _atom_site_occupancy
 _atom_site_charge
Mn  Mn1  1  0.29540000  0.33182000  0.54438000  1.0 0.8384414751
Mn  Mn2  1  0.70460000  0.66818000  0.04438000  1.0 0.8384414751
Mn  Mn3  1  0.66818000  0.96358000  0.54438000  1.0 0.8384414751
Mn  Mn4  1  0.03642000  0.70460000  0.54438000  1.0 0.8384414751
Mn  Mn5  1  0.96358000  0.29540000  0.04438000  1.0 0.8384414751
Mn  Mn6  1  0.33182000  0.03642000  0.04438000  1.0 0.8384414751
Cr  Cr1  1  0.33333333  0.66666667  0.92330000  1.0 0.733981643
Cr  Cr2  1  0.66666667  0.33333333  0.42330000  1.0 0.733981643
H  H1  1  0.40340000  0.25510000  0.94520000  1.0 0.2895843724
H  H2  1  0.59660000  0.74490000  0.44520000  1.0 0.2895843724
H  H3  1  0.74490000  0.14830000  0.94520000  1.0 0.2895843724
H  H4  1  0.85170000  0.59660000  0.94520000  1.0 0.2895843724
H  H5  1  0.14830000  0.40340000  0.44520000  1.0 0.2895843724
H  H6  1  0.25510000  0.85170000  0.44520000  1.0 0.2895843724
H  H7  1  0.27910000  0.19720000  0.94230000  1.0 0.3022768934
H  H8  1  0.72090000  0.80280000  0.44230000  1.0 0.3022768934
H  H9  1  0.80280000  0.08190000  0.94230000  1.0 0.3022768934
H  H10  1  0.91810000  0.72090000  0.94230000  1.0 0.3022768934
H  H11  1  0.08190000  0.27910000  0.44230000  1.0 0.3022768934
H  H12  1  0.19720000  0.91810000  0.44230000  1.0 0.3022768934
H  H13  1  0.41740000  0.28480000  0.20820000  1.0 0.1031878555
H  H14  1  0.58260000  0.71520000  0.70820000  1.0 0.1031878555
H  H15  1  0.71520000  0.13260000  0.20820000  1.0 0.1031878555
H  H16  1  0.86740000  0.58260000  0.20820000  1.0 0.1031878555
H  H17  1  0.13260000  0.41740000  0.70820000  1.0 0.1031878555
H  H18  1  0.28480000  0.86740000  0.70820000  1.0 0.1031878555
H  H19  1  0.34660000  0.48020000  0.29800000  1.0 0.2895843724
H  H20  1  0.65340000  0.51980000  0.79800000  1.0 0.2895843724
H  H21  1  0.51980000  0.86640000  0.29800000  1.0 0.2895843724
H  H22  1  0.13360000  0.65340000  0.29800000  1.0 0.2895843724
H  H23  1  0.86640000  0.34660000  0.79800000  1.0 0.2895843724
H  H24  1  0.48020000  0.13360000  0.79800000  1.0 0.2895843724
H  H25  1  0.43880000  0.45500000  0.30390000  1.0 0.2843532005
H  H26  1  0.56120000  0.54500000  0.80390000  1.0 0.2843532005
H  H27  1  0.54500000  0.98380000  0.30390000  1.0 0.2843532005
H  H28  1  0.01620000  0.56120000  0.30390000  1.0 0.2843532005
H  H29  1  0.98380000  0.43880000  0.80390000  1.0 0.2843532005
H  H30  1  0.45500000  0.01620000  0.80390000  1.0 0.2843532005
H  H31  1  0.34780000  0.39370000  0.06000000  1.0 0.1074300261
H  H32  1  0.65220000  0.60630000  0.56000000  1.0 0.1074300261
H  H33  1  0.60630000  0.95410000  0.06000000  1.0 0.1074300261
H  H34  1  0.04590000  0.65220000  0.06000000  1.0 0.1074300261
H  H35  1  0.95410000  0.34780000  0.56000000  1.0 0.1074300261
H  H36  1  0.39370000  0.04590000  0.56000000  1.0 0.1074300261
H  H37  1  0.23340000  0.31880000  0.15550000  1.0 0.118341112
H  H38  1  0.76660000  0.68120000  0.65550000  1.0 0.118341112
H  H39  1  0.68120000  0.91460000  0.15550000  1.0 0.118341112
H  H40  1  0.08540000  0.76660000  0.15550000  1.0 0.118341112
H  H41  1  0.91460000  0.23340000  0.65550000  1.0 0.118341112
H  H42  1  0.31880000  0.08540000  0.65550000  1.0 0.118341112
C  C1  1  0.53070000  0.32080000  0.55910000  1.0 -0.1397529206
C  C2  1  0.46930000  0.67920000  0.05910000  1.0 -0.1397529206
C  C3  1  0.67920000  0.20990000  0.55910000  1.0 -0.1397529206
C  C4  1  0.79010000  0.46930000  0.55910000  1.0 -0.1397529206
C  C5  1  0.20990000  0.53070000  0.05910000  1.0 -0.1397529206
C  C6  1  0.32080000  0.79010000  0.05910000  1.0 -0.1397529206
C  C7  1  0.35240000  0.55420000  0.77330000  1.0 -0.1125935625
C  C8  1  0.64760000  0.44580000  0.27330000  1.0 -0.1125935625
C  C9  1  0.44580000  0.79820000  0.77330000  1.0 -0.1125935625
C  C10  1  0.20180000  0.64760000  0.77330000  1.0 -0.1125935625
C  C11  1  0.79820000  0.35240000  0.27330000  1.0 -0.1125935625
C  C12  1  0.55420000  0.20180000  0.27330000  1.0 -0.1125935625
C  C13  1  0.26250000  0.15550000  0.28080000  1.0 0.562074089
C  C14  1  0.73750000  0.84450000  0.78080000  1.0 0.562074089
C  C15  1  0.84450000  0.10700000  0.28080000  1.0 0.562074089
C  C16  1  0.89300000  0.73750000  0.28080000  1.0 0.562074089
C  C17  1  0.10700000  0.26250000  0.78080000  1.0 0.562074089
C  C18  1  0.15550000  0.89300000  0.78080000  1.0 0.562074089
C  C19  1  0.33990000  0.25290000  0.16510000  1.0 -0.0284130702
C  C20  1  0.66010000  0.74710000  0.66510000  1.0 -0.0284130702
C  C21  1  0.74710000  0.08700000  0.16510000  1.0 -0.0284130702
C  C22  1  0.91300000  0.66010000  0.16510000  1.0 -0.0284130702
C  C23  1  0.08700000  0.33990000  0.66510000  1.0 -0.0284130702
C  C24  1  0.25290000  0.91300000  0.66510000  1.0 -0.0284130702
C  C25  1  0.31510000  0.34930000  0.15930000  1.0 -0.0629892385
C  C26  1  0.68490000  0.65070000  0.65930000  1.0 -0.0629892385
C  C27  1  0.65070000  0.96580000  0.15930000  1.0 -0.0629892385
C  C28  1  0.03420000  0.68490000  0.15930000  1.0 -0.0629892385
C  C29  1  0.96580000  0.31510000  0.65930000  1.0 -0.0629892385
C  C30  1  0.34930000  0.03420000  0.65930000  1.0 -0.0629892385
N  N1  1  0.33980000  0.20720000  0.00080000  1.0 -0.5562762579
N  N2  1  0.66020000  0.79280000  0.50080000  1.0 -0.5562762579
N  N3  1  0.79280000  0.13260000  0.00080000  1.0 -0.5562762579
N  N4  1  0.86740000  0.66020000  0.00080000  1.0 -0.5562762579
N  N5  1  0.13260000  0.33980000  0.50080000  1.0 -0.5562762579
N  N6  1  0.20720000  0.86740000  0.50080000  1.0 -0.5562762579
N  N7  1  0.36260000  0.42350000  0.30490000  1.0 -0.5340842168
N  N8  1  0.63740000  0.57650000  0.80490000  1.0 -0.5340842168
N  N9  1  0.57650000  0.93910000  0.30490000  1.0 -0.5340842168
N  N10  1  0.06090000  0.63740000  0.30490000  1.0 -0.5340842168
N  N11  1  0.93910000  0.36260000  0.80490000  1.0 -0.5340842168
N  N12  1  0.42350000  0.06090000  0.80490000  1.0 -0.5340842168
N  N13  1  0.45180000  0.31890000  0.61130000  1.0 -0.3482442857
N  N14  1  0.54820000  0.68110000  0.11130000  1.0 -0.3482442857
N  N15  1  0.68110000  0.13290000  0.61130000  1.0 -0.3482442857
N  N16  1  0.86710000  0.54820000  0.61130000  1.0 -0.3482442857
N  N17  1  0.13290000  0.45180000  0.11130000  1.0 -0.3482442857
N  N18  1  0.31890000  0.86710000  0.11130000  1.0 -0.3482442857
N  N19  1  0.36310000  0.49380000  0.69100000  1.0 -0.3482442857
N  N20  1  0.63690000  0.50620000  0.19100000  1.0 -0.3482442857
N  N21  1  0.50620000  0.86930000  0.69100000  1.0 -0.3482442857
N  N22  1  0.13070000  0.63690000  0.69100000  1.0 -0.3482442857
N  N23  1  0.86930000  0.36310000  0.19100000  1.0 -0.3482442857
N  N24  1  0.49380000  0.13070000  0.19100000  1.0 -0.3482442857
O  O1  1  0.22720000  0.17750000  0.40640000  1.0 -0.485312309
O  O2  1  0.77280000  0.82250000  0.90640000  1.0 -0.485312309
O  O3  1  0.82250000  0.04970000  0.40640000  1.0 -0.485312309
O  O4  1  0.95030000  0.77280000  0.40640000  1.0 -0.485312309
O  O5  1  0.04970000  0.22720000  0.90640000  1.0 -0.4840442797
O  O6  1  0.17750000  0.95030000  0.90640000  1.0 -0.485312309
O  O7  1  0.23930000  0.05500000  0.24640000  1.0 -0.5242351354
O  O8  1  0.76070000  0.94500000  0.74640000  1.0 -0.5242351354
O  O9  1  0.94500000  0.18430000  0.24640000  1.0 -0.5242351354
O  O10  1  0.81570000  0.76070000  0.24640000  1.0 -0.5242351354
O  O11  1  0.18430000  0.23930000  0.74640000  1.0 -0.5242351354
O  O12  1  0.05500000  0.81570000  0.74640000  1.0 -0.5242351354
