# DDEC6 charges by PACMAN v1.1 (https://github.com/mtap-research/PACMAN-charge/)
data_UJUMUJ_FSR_pacman
_symmetry_space_group_name_H-M   'P 1'
_cell_length_a   14.67240000
_cell_length_b   14.67240000
_cell_length_c   24.92300000
_cell_angle_alpha   66.66140000
_cell_angle_beta   113.33900000
_cell_angle_gamma   142.71300000
_symmetry_Int_Tables_number   1
_chemical_formula_structural   CoH21C29N3O4
_chemical_formula_sum   'Co4 H84 C116 N12 O16'
_cell_volume   2952.66109323
_cell_formula_units_Z   4
loop_
 _symmetry_equiv_pos_site_id
 _symmetry_equiv_pos_as_xyz
  1  'x, y, z'
loop_
 _atom_site_type_symbol
 _atom_site_label
 _atom_site_symmetry_multiplicity
 _atom_site_fract_x
 _atom_site_fract_y
 _atom_site_fract_z
 _atom_site_occupancy
 _atom_site_charge
Co  Co1  1  0.62010000  0.08604000  0.46995000  1.0 0.8378194321
Co  Co2  1  0.08604000  0.62010000  0.03005000  1.0 0.8378194321
Co  Co3  1  0.37990000  0.91396000  0.53005000  1.0 0.8378194321
Co  Co4  1  0.91396000  0.37990000  0.96995000  1.0 0.8378194321
H  H1  1  0.64720000  0.78840000  0.54120000  1.0 0.1187689851
H  H2  1  0.78840000  0.64720000  0.95880000  1.0 0.1187689851
H  H3  1  0.35280000  0.21160000  0.45880000  1.0 0.1187689851
H  H4  1  0.21160000  0.35280000  0.04120000  1.0 0.1187689851
H  H5  1  0.63290000  0.60770000  0.57440000  1.0 0.1095133031
H  H6  1  0.60770000  0.63290000  0.92560000  1.0 0.1095133031
H  H7  1  0.36710000  0.39230000  0.42560000  1.0 0.1095133031
H  H8  1  0.39230000  0.36710000  0.07440000  1.0 0.1095133031
H  H9  1  0.26010000  0.32990000  0.64490000  1.0 0.1187689851
H  H10  1  0.32990000  0.26010000  0.85510000  1.0 0.1187689851
H  H11  1  0.73990000  0.67010000  0.35510000  1.0 0.1187689851
H  H12  1  0.67010000  0.73990000  0.14490000  1.0 0.1187689851
H  H13  1  0.28130000  0.51610000  0.61260000  1.0 0.1187689851
H  H14  1  0.51610000  0.28130000  0.88740000  1.0 0.1187689851
H  H15  1  0.71870000  0.48390000  0.38740000  1.0 0.1187689851
H  H16  1  0.48390000  0.71870000  0.11260000  1.0 0.1187689851
H  H17  1  0.27890000  0.95110000  0.88080000  1.0 0.1187689851
H  H18  1  0.95110000  0.27890000  0.61920000  1.0 0.1187689851
H  H19  1  0.72110000  0.04890000  0.11920000  1.0 0.1187689851
H  H20  1  0.04890000  0.72110000  0.38080000  1.0 0.1187689851
H  H21  1  0.36520000  0.12360000  0.79660000  1.0 0.1095133031
H  H22  1  0.12360000  0.36520000  0.70340000  1.0 0.1095133031
H  H23  1  0.63480000  0.87640000  0.20340000  1.0 0.1095133031
H  H24  1  0.87640000  0.63480000  0.29660000  1.0 0.1095133031
H  H25  1  0.18400000  0.81480000  0.71290000  1.0 0.1095133031
H  H26  1  0.81480000  0.18400000  0.78710000  1.0 0.1095133031
H  H27  1  0.81600000  0.18520000  0.28710000  1.0 0.1095133031
H  H28  1  0.18520000  0.81600000  0.21290000  1.0 0.1095133031
H  H29  1  0.09870000  0.64250000  0.79760000  1.0 0.1187689851
H  H30  1  0.64250000  0.09870000  0.70240000  1.0 0.1187689851
H  H31  1  0.90130000  0.35750000  0.20240000  1.0 0.1187689851
H  H32  1  0.35750000  0.90130000  0.29760000  1.0 0.1187689851
H  H33  1  0.33760000  0.22240000  0.70200000  1.0 0.1187689851
H  H34  1  0.22240000  0.33760000  0.79800000  1.0 0.1187689851
H  H35  1  0.66240000  0.77760000  0.29800000  1.0 0.1187689851
H  H36  1  0.77760000  0.66240000  0.20200000  1.0 0.1187689851
H  H37  1  0.37940000  0.02080000  0.66020000  1.0 0.1187689851
H  H38  1  0.02080000  0.37940000  0.83980000  1.0 0.1187689851
H  H39  1  0.62060000  0.97920000  0.33980000  1.0 0.1187689851
H  H40  1  0.97920000  0.62060000  0.16020000  1.0 0.1187689851
H  H41  1  0.47730000  0.19790000  0.57640000  1.0 0.1187689851
H  H42  1  0.19790000  0.47730000  0.92360000  1.0 0.1187689851
H  H43  1  0.52270000  0.80210000  0.42360000  1.0 0.1187689851
H  H44  1  0.80210000  0.52270000  0.07640000  1.0 0.1187689851
H  H45  1  0.50230000  0.38470000  0.55490000  1.0 0.1095133031
H  H46  1  0.38470000  0.50230000  0.94510000  1.0 0.1095133031
H  H47  1  0.49770000  0.61530000  0.44510000  1.0 0.1095133031
H  H48  1  0.61530000  0.49770000  0.05490000  1.0 0.1095133031
H  H49  1  0.83230000  0.08170000  0.47030000  1.0 0.1347813207
H  H50  1  0.08170000  0.83230000  0.02970000  1.0 0.1347813207
H  H51  1  0.16770000  0.91830000  0.52970000  1.0 0.1347813207
H  H52  1  0.91830000  0.16770000  0.97030000  1.0 0.1347813207
H  H53  1  0.94980000  0.44140000  0.44960000  1.0 0.0961424477
H  H54  1  0.44140000  0.94980000  0.05040000  1.0 0.0961424477
H  H55  1  0.05020000  0.55860000  0.55040000  1.0 0.0961424477
H  H56  1  0.55860000  0.05020000  0.94960000  1.0 0.0961424477
H  H57  1  0.17870000  0.52890000  0.45020000  1.0 0.0961424477
H  H58  1  0.52890000  0.17870000  0.04980000  1.0 0.0961424477
H  H59  1  0.82130000  0.47110000  0.54980000  1.0 0.0961424477
H  H60  1  0.47110000  0.82130000  0.95020000  1.0 0.0961424477
H  H61  1  0.17470000  0.34650000  0.42980000  1.0 0.1095133031
H  H62  1  0.34650000  0.17470000  0.07020000  1.0 0.1095133031
H  H63  1  0.82530000  0.65350000  0.57020000  1.0 0.1095133031
H  H64  1  0.65350000  0.82530000  0.92980000  1.0 0.1095133031
H  H65  1  0.22900000  0.36580000  0.49670000  1.0 0.1095133031
H  H66  1  0.36580000  0.22900000  0.00330000  1.0 0.1095133031
H  H67  1  0.77100000  0.63420000  0.50330000  1.0 0.1095133031
H  H68  1  0.63420000  0.77100000  0.99670000  1.0 0.1095133031
H  H69  1  0.09360000  0.12920000  0.57190000  1.0 0.1187689851
H  H70  1  0.12920000  0.09360000  0.92810000  1.0 0.1187689851
H  H71  1  0.90640000  0.87080000  0.42810000  1.0 0.1187689851
H  H72  1  0.87080000  0.90640000  0.07190000  1.0 0.1187689851
H  H73  1  0.01920000  0.10980000  0.40300000  1.0 0.1187689851
H  H74  1  0.10980000  0.01920000  0.09700000  1.0 0.1187689851
H  H75  1  0.98080000  0.89020000  0.59700000  1.0 0.1187689851
H  H76  1  0.89020000  0.98080000  0.90300000  1.0 0.1187689851
H  H77  1  0.89070000  0.39850000  0.39570000  1.0 0.0961424477
H  H78  1  0.39850000  0.89070000  0.10430000  1.0 0.0961424477
H  H79  1  0.10930000  0.60150000  0.60430000  1.0 0.0961424477
H  H80  1  0.60150000  0.10930000  0.89570000  1.0 0.0961424477
H  H81  1  0.12170000  0.49950000  0.39980000  1.0 0.0736846756
H  H82  1  0.49950000  0.12170000  0.10020000  1.0 0.0736846756
H  H83  1  0.87830000  0.50050000  0.60020000  1.0 0.0736846756
H  H84  1  0.50050000  0.87830000  0.89980000  1.0 0.0799132468
C  C1  1  0.47249000  0.78811000  0.54730000  1.0 0.5660202253
C  C2  1  0.78811000  0.47249000  0.95270000  1.0 0.5660202253
C  C3  1  0.52751000  0.21189000  0.45270000  1.0 0.5660202253
C  C4  1  0.21189000  0.52751000  0.04730000  1.0 0.5660202253
C  C5  1  0.46274000  0.66886000  0.57190000  1.0 -0.0165812659
C  C6  1  0.66886000  0.46274000  0.92810000  1.0 -0.0165812659
C  C7  1  0.53726000  0.33114000  0.42810000  1.0 -0.0165812659
C  C8  1  0.33114000  0.53726000  0.07190000  1.0 -0.0165812659
C  C9  1  0.56833000  0.69547000  0.56160000  1.0 -0.1146385808
C  C10  1  0.69547000  0.56833000  0.93840000  1.0 -0.1146385808
C  C11  1  0.43167000  0.30453000  0.43840000  1.0 -0.1146385808
C  C12  1  0.30453000  0.43167000  0.06160000  1.0 -0.1146385808
C  C13  1  0.55921000  0.58659000  0.58130000  1.0 -0.1727733955
C  C14  1  0.58659000  0.55921000  0.91870000  1.0 -0.1727733955
C  C15  1  0.44079000  0.41341000  0.41870000  1.0 -0.1727733955
C  C16  1  0.41341000  0.44079000  0.08130000  1.0 -0.1727733955
C  C17  1  0.44074000  0.44506000  0.61124000  1.0 0.0736846756
C  C18  1  0.44506000  0.44074000  0.88876000  1.0 0.0736846756
C  C19  1  0.55926000  0.55494000  0.38876000  1.0 0.0736846756
C  C20  1  0.55494000  0.55926000  0.11124000  1.0 0.0736846756
C  C21  1  0.33771000  0.42129000  0.62350000  1.0 -0.1813664686
C  C22  1  0.42129000  0.33771000  0.87650000  1.0 -0.1813664686
C  C23  1  0.66229000  0.57871000  0.37650000  1.0 -0.1813664686
C  C24  1  0.57871000  0.66229000  0.12350000  1.0 -0.1813664686
C  C25  1  0.35043000  0.53337000  0.60390000  1.0 -0.1279456158
C  C26  1  0.53337000  0.35043000  0.89610000  1.0 -0.1279456158
C  C27  1  0.64957000  0.46663000  0.39610000  1.0 -0.1279456158
C  C28  1  0.46663000  0.64957000  0.10390000  1.0 -0.1279456158
C  C29  1  0.11355000  0.66245000  0.90260000  1.0 0.5563335765
C  C30  1  0.66245000  0.11355000  0.59740000  1.0 0.5563335765
C  C31  1  0.88645000  0.33755000  0.09740000  1.0 0.5563335765
C  C32  1  0.33755000  0.88645000  0.40260000  1.0 0.5563335765
C  C33  1  0.17772000  0.77788000  0.84820000  1.0 -0.0165812659
C  C34  1  0.77788000  0.17772000  0.65180000  1.0 -0.0165812659
C  C35  1  0.82228000  0.22212000  0.15180000  1.0 -0.0165812659
C  C36  1  0.22212000  0.82228000  0.34820000  1.0 -0.0165812659
C  C37  1  0.25930000  0.92290000  0.84690000  1.0 -0.1279456158
C  C38  1  0.92290000  0.25930000  0.65310000  1.0 -0.1279456158
C  C39  1  0.74070000  0.07710000  0.15310000  1.0 -0.1279456158
C  C40  1  0.07710000  0.74070000  0.34690000  1.0 -0.1279456158
C  C41  1  0.31250000  0.02690000  0.79650000  1.0 -0.1536204767
C  C42  1  0.02690000  0.31250000  0.70350000  1.0 -0.1536204767
C  C43  1  0.68750000  0.97310000  0.20350000  1.0 -0.1536204767
C  C44  1  0.97310000  0.68750000  0.29650000  1.0 -0.1536204767
C  C45  1  0.28898000  0.99062000  0.74510000  1.0 0.0736846756
C  C46  1  0.99062000  0.28898000  0.75490000  1.0 0.0736846756
C  C47  1  0.71102000  0.00938000  0.25490000  1.0 0.0736846756
C  C48  1  0.00938000  0.71102000  0.24510000  1.0 0.0736846756
C  C49  1  0.20520000  0.84400000  0.74690000  1.0 -0.1608114083
C  C50  1  0.84400000  0.20520000  0.75310000  1.0 -0.1608114083
C  C51  1  0.79480000  0.15600000  0.25310000  1.0 -0.1608114083
C  C52  1  0.15600000  0.79480000  0.24690000  1.0 -0.1608114083
C  C53  1  0.15210000  0.73950000  0.79750000  1.0 -0.1042275232
C  C54  1  0.73950000  0.15210000  0.70250000  1.0 -0.1042275232
C  C55  1  0.84790000  0.26050000  0.20250000  1.0 -0.1042275232
C  C56  1  0.26050000  0.84790000  0.29750000  1.0 -0.1042275232
C  C57  1  0.42420000  0.32460000  0.62670000  1.0 0.0736846756
C  C58  1  0.32460000  0.42420000  0.87330000  1.0 0.0736846756
C  C59  1  0.57580000  0.67540000  0.37330000  1.0 0.0736846756
C  C60  1  0.67540000  0.57580000  0.12670000  1.0 0.0736846756
C  C61  1  0.36614000  0.21766000  0.67680000  1.0 -0.1986150619
C  C62  1  0.21766000  0.36614000  0.82320000  1.0 -0.1986150619
C  C63  1  0.63386000  0.78234000  0.32320000  1.0 -0.1986150619
C  C64  1  0.78234000  0.63386000  0.17680000  1.0 -0.1986150619
C  C65  1  0.34888000  0.10332000  0.69070000  1.0 0.0799132468
C  C66  1  0.10332000  0.34888000  0.80930000  1.0 0.0799132468
C  C67  1  0.65112000  0.89668000  0.30930000  1.0 0.0799132468
C  C68  1  0.89668000  0.65112000  0.19070000  1.0 0.0799132468
C  C69  1  0.39062000  0.09678000  0.65200000  1.0 -0.1608114083
C  C70  1  0.09678000  0.39062000  0.84800000  1.0 -0.1608114083
C  C71  1  0.60938000  0.90322000  0.34800000  1.0 -0.1608114083
C  C72  1  0.90322000  0.60938000  0.15200000  1.0 -0.1608114083
C  C73  1  0.44868000  0.20232000  0.60180000  1.0 -0.1162038844
C  C74  1  0.20232000  0.44868000  0.89820000  1.0 -0.1162038844
C  C75  1  0.55132000  0.79768000  0.39820000  1.0 -0.1162038844
C  C76  1  0.79768000  0.55132000  0.10180000  1.0 -0.1162038844
C  C77  1  0.46431000  0.31469000  0.58910000  1.0 -0.1934951533
C  C78  1  0.31469000  0.46431000  0.91090000  1.0 -0.1934951533
C  C79  1  0.53569000  0.68531000  0.41090000  1.0 -0.1934951533
C  C80  1  0.68531000  0.53569000  0.08910000  1.0 -0.1934951533
C  C81  1  0.88770000  0.18190000  0.46400000  1.0 0.0736846756
C  C82  1  0.18190000  0.88770000  0.03600000  1.0 0.0736846756
C  C83  1  0.11230000  0.81810000  0.53600000  1.0 0.0736846756
C  C84  1  0.81810000  0.11230000  0.96400000  1.0 0.0736846756
C  C85  1  0.95370000  0.37950000  0.45210000  1.0 -0.0381496128
C  C86  1  0.37950000  0.95370000  0.04790000  1.0 -0.0381496128
C  C87  1  0.04630000  0.62050000  0.54790000  1.0 -0.0381496128
C  C88  1  0.62050000  0.04630000  0.95210000  1.0 -0.0381496128
C  C89  1  0.08140000  0.42900000  0.45440000  1.0 -0.0381496128
C  C90  1  0.42900000  0.08140000  0.04560000  1.0 -0.0381496128
C  C91  1  0.91860000  0.57100000  0.54560000  1.0 -0.0381496128
C  C92  1  0.57100000  0.91860000  0.95440000  1.0 -0.0381496128
C  C93  1  0.14040000  0.30200000  0.46780000  1.0 -0.0863915466
C  C94  1  0.30200000  0.14040000  0.03220000  1.0 -0.0863915466
C  C95  1  0.85960000  0.69800000  0.53220000  1.0 -0.0863915466
C  C96  1  0.69800000  0.85960000  0.96780000  1.0 -0.0863915466
C  C97  1  0.06740000  0.14500000  0.48470000  1.0 -0.0101228143
C  C98  1  0.14500000  0.06740000  0.01530000  1.0 -0.0101228143
C  C99  1  0.93260000  0.85500000  0.51530000  1.0 -0.0101228143
C  C100  1  0.85500000  0.93260000  0.98470000  1.0 -0.0101228143
C  C101  1  0.05580000  0.07780000  0.54250000  1.0 -0.1536204767
C  C102  1  0.07780000  0.05580000  0.95750000  1.0 -0.1536204767
C  C103  1  0.94420000  0.92220000  0.45750000  1.0 -0.1536204767
C  C104  1  0.92220000  0.94420000  0.04250000  1.0 -0.1536204767
C  C105  1  0.01140000  0.06580000  0.44250000  1.0 -0.1727733955
C  C106  1  0.06580000  0.01140000  0.05750000  1.0 -0.1727733955
C  C107  1  0.98860000  0.93420000  0.55750000  1.0 -0.1727733955
C  C108  1  0.93420000  0.98860000  0.94250000  1.0 -0.1727733955
C  C109  1  0.91520000  0.35080000  0.41810000  1.0 -0.0165812659
C  C110  1  0.35080000  0.91520000  0.08190000  1.0 -0.0165812659
C  C111  1  0.08480000  0.64920000  0.58190000  1.0 -0.0165812659
C  C112  1  0.64920000  0.08480000  0.91810000  1.0 -0.0165812659
C  C113  1  0.03920000  0.40280000  0.41750000  1.0 -0.0101228143
C  C114  1  0.40280000  0.03920000  0.08250000  1.0 -0.0101228143
C  C115  1  0.96080000  0.59720000  0.58250000  1.0 -0.0101228143
C  C116  1  0.59720000  0.96080000  0.91750000  1.0 -0.0101228143
N  N1  1  0.03540000  0.30060000  0.46420000  1.0 0.0799132468
N  N2  1  0.30060000  0.03540000  0.03580000  1.0 0.0799132468
N  N3  1  0.96460000  0.69940000  0.53580000  1.0 0.0799132468
N  N4  1  0.69940000  0.96460000  0.96420000  1.0 0.0799132468
N  N5  1  0.82872000  0.22248000  0.45388000  1.0 -0.2347414148
N  N6  1  0.22248000  0.82872000  0.04612000  1.0 -0.2347414148
N  N7  1  0.17128000  0.77752000  0.54612000  1.0 -0.2347414148
N  N8  1  0.77752000  0.17128000  0.95388000  1.0 -0.2347414148
N  N9  1  0.03200000  0.29600000  0.44640000  1.0 0.0389046894
N  N10  1  0.29600000  0.03200000  0.05360000  1.0 0.0389046894
N  N11  1  0.96800000  0.70400000  0.55360000  1.0 0.0389046894
N  N12  1  0.70400000  0.96800000  0.94640000  1.0 0.0389046894
O  O1  1  0.57027000  0.90153000  0.51420000  1.0 -0.5490416687
O  O2  1  0.90153000  0.57027000  0.98580000  1.0 -0.5490416687
O  O3  1  0.42973000  0.09847000  0.48580000  1.0 -0.5490416687
O  O4  1  0.09847000  0.42973000  0.01420000  1.0 -0.5490416687
O  O5  1  0.37950000  0.76330000  0.56147000  1.0 -0.5490416687
O  O6  1  0.76330000  0.37950000  0.93853000  1.0 -0.5490416687
O  O7  1  0.62050000  0.23670000  0.43853000  1.0 -0.5490416687
O  O8  1  0.23670000  0.62050000  0.06147000  1.0 -0.5490416687
O  O9  1  0.15248000  0.70952000  0.94820000  1.0 -0.5651350271
O  O10  1  0.70952000  0.15248000  0.55180000  1.0 -0.5651350271
O  O11  1  0.84752000  0.29048000  0.05180000  1.0 -0.5651350271
O  O12  1  0.29048000  0.84752000  0.44820000  1.0 -0.5651350271
O  O13  1  0.02161000  0.52579000  0.89892000  1.0 -0.527374829
O  O14  1  0.52579000  0.02161000  0.60108000  1.0 -0.527374829
O  O15  1  0.97839000  0.47421000  0.10108000  1.0 -0.527374829
O  O16  1  0.47421000  0.97839000  0.39892000  1.0 -0.527374829
