# DDEC6 charges by PACMAN v1.1 (https://github.com/mtap-research/PACMAN-charge/)
data_UKIQUB_ASR_pacman
_symmetry_space_group_name_H-M   'P 1'
_cell_length_a   18.45200000
_cell_length_b   18.45200000
_cell_length_c   40.92500000
_cell_angle_alpha   90.00000000
_cell_angle_beta   90.00000000
_cell_angle_gamma   120.00000000
_symmetry_Int_Tables_number   1
_chemical_formula_structural   Fe3Cu6H66C114O37
_chemical_formula_sum   'Fe6 Cu12 H132 C228 O74'
_cell_volume   12067.19169003
_cell_formula_units_Z   2
loop_
 _symmetry_equiv_pos_site_id
 _symmetry_equiv_pos_as_xyz
  1  'x, y, z'
loop_
 _atom_site_type_symbol
 _atom_site_label
 _atom_site_symmetry_multiplicity
 _atom_site_fract_x
 _atom_site_fract_y
 _atom_site_fract_z
 _atom_site_occupancy
 _atom_site_charge
Fe  Fe1  1  0.88308000  0.94154000  0.75000000  1.0 1.0653163587
Fe  Fe2  1  0.94154000  0.88308000  0.25000000  1.0 1.0653163587
Fe  Fe3  1  0.05846000  0.94154000  0.75000000  1.0 1.0653163587
Fe  Fe4  1  0.11692000  0.05846000  0.25000000  1.0 1.0653163587
Fe  Fe5  1  0.05846000  0.11692000  0.75000000  1.0 1.0653163587
Fe  Fe6  1  0.94154000  0.05846000  0.25000000  1.0 1.0653163587
Cu  Cu1  1  0.52395000  0.04791000  0.47406000  1.0 0.8650927539
Cu  Cu2  1  0.47604000  0.52395000  0.97406000  1.0 0.8650927539
Cu  Cu3  1  0.95209000  0.47604000  0.47406000  1.0 0.8650927539
Cu  Cu4  1  0.47604000  0.95209000  0.97406000  1.0 0.8650927539
Cu  Cu5  1  0.52395000  0.47604000  0.47406000  1.0 0.8650927539
Cu  Cu6  1  0.04791000  0.52395000  0.97406000  1.0 0.8650927539
Cu  Cu7  1  0.47604000  0.95209000  0.52594000  1.0 0.8650927539
Cu  Cu8  1  0.95209000  0.47604000  0.02594000  1.0 0.8650927539
Cu  Cu9  1  0.47604000  0.52395000  0.52594000  1.0 0.8650927539
Cu  Cu10  1  0.52395000  0.04791000  0.02594000  1.0 0.8650927539
Cu  Cu11  1  0.04791000  0.52395000  0.52594000  1.0 0.8650927539
Cu  Cu12  1  0.52395000  0.47604000  0.02594000  1.0 0.8650927539
H  H1  1  0.76190000  0.23810000  0.50790000  1.0 0.1355404104
H  H2  1  0.52380000  0.76190000  0.00790000  1.0 0.1355404104
H  H3  1  0.76190000  0.52380000  0.50790000  1.0 0.1355404104
H  H4  1  0.23810000  0.76190000  0.00790000  1.0 0.1355404104
H  H5  1  0.47620000  0.23810000  0.50790000  1.0 0.1355404104
H  H6  1  0.23810000  0.47620000  0.00790000  1.0 0.1355404104
H  H7  1  0.52380000  0.76190000  0.49210000  1.0 0.1355404104
H  H8  1  0.76190000  0.23810000  0.99210000  1.0 0.1355404104
H  H9  1  0.23810000  0.47620000  0.49210000  1.0 0.1355404104
H  H10  1  0.47620000  0.23810000  0.99210000  1.0 0.1355404104
H  H11  1  0.23810000  0.76190000  0.49210000  1.0 0.1355404104
H  H12  1  0.76190000  0.52380000  0.99210000  1.0 0.1355404104
H  H13  1  0.70930000  0.07610000  0.58160000  1.0 0.1173079382
H  H14  1  0.63320000  0.70930000  0.08160000  1.0 0.1173079382
H  H15  1  0.92390000  0.63320000  0.58160000  1.0 0.1173079382
H  H16  1  0.29070000  0.92390000  0.08160000  1.0 0.1173079382
H  H17  1  0.36680000  0.29070000  0.58160000  1.0 0.1173079382
H  H18  1  0.07610000  0.36680000  0.08160000  1.0 0.1173079382
H  H19  1  0.63320000  0.92390000  0.41840000  1.0 0.1173079382
H  H20  1  0.92390000  0.29070000  0.91840000  1.0 0.1173079382
H  H21  1  0.29070000  0.36680000  0.41840000  1.0 0.1173079382
H  H22  1  0.36680000  0.07610000  0.91840000  1.0 0.1173079382
H  H23  1  0.07610000  0.70930000  0.41840000  1.0 0.1173079382
H  H24  1  0.70930000  0.63320000  0.91840000  1.0 0.1173079382
H  H25  1  0.29070000  0.92390000  0.41840000  1.0 0.1173079382
H  H26  1  0.36680000  0.29070000  0.91840000  1.0 0.1173079382
H  H27  1  0.07610000  0.36680000  0.41840000  1.0 0.1173079382
H  H28  1  0.70930000  0.07610000  0.91840000  1.0 0.1173079382
H  H29  1  0.63320000  0.70930000  0.41840000  1.0 0.1173079382
H  H30  1  0.92390000  0.63320000  0.91840000  1.0 0.1173079382
H  H31  1  0.36680000  0.07610000  0.58160000  1.0 0.1173079382
H  H32  1  0.07610000  0.70930000  0.08160000  1.0 0.1173079382
H  H33  1  0.70930000  0.63320000  0.58160000  1.0 0.1173079382
H  H34  1  0.63320000  0.92390000  0.08160000  1.0 0.1173079382
H  H35  1  0.92390000  0.29070000  0.58160000  1.0 0.1173079382
H  H36  1  0.29070000  0.36680000  0.08160000  1.0 0.1173079382
H  H37  1  0.77350000  0.03340000  0.61240000  1.0 0.0895119379
H  H38  1  0.74010000  0.77350000  0.11240000  1.0 0.0895119379
H  H39  1  0.96660000  0.74010000  0.61240000  1.0 0.0895119379
H  H40  1  0.22650000  0.96660000  0.11240000  1.0 0.0895119379
H  H41  1  0.25990000  0.22650000  0.61240000  1.0 0.0895119379
H  H42  1  0.03340000  0.25990000  0.11240000  1.0 0.0895119379
H  H43  1  0.74010000  0.96660000  0.38760000  1.0 0.0895119379
H  H44  1  0.96660000  0.22650000  0.88760000  1.0 0.0895119379
H  H45  1  0.22650000  0.25990000  0.38760000  1.0 0.0895119379
H  H46  1  0.25990000  0.03340000  0.88760000  1.0 0.0895119379
H  H47  1  0.03340000  0.77350000  0.38760000  1.0 0.0895119379
H  H48  1  0.77350000  0.74010000  0.88760000  1.0 0.0895119379
H  H49  1  0.22650000  0.96660000  0.38760000  1.0 0.0895119379
H  H50  1  0.25990000  0.22650000  0.88760000  1.0 0.0895119379
H  H51  1  0.03340000  0.25990000  0.38760000  1.0 0.0895119379
H  H52  1  0.77350000  0.03340000  0.88760000  1.0 0.0895119379
H  H53  1  0.74010000  0.77350000  0.38760000  1.0 0.0895119379
H  H54  1  0.96660000  0.74010000  0.88760000  1.0 0.0895119379
H  H55  1  0.25990000  0.03340000  0.61240000  1.0 0.0895119379
H  H56  1  0.03340000  0.77350000  0.11240000  1.0 0.0895119379
H  H57  1  0.77350000  0.74010000  0.61240000  1.0 0.0895119379
H  H58  1  0.74010000  0.96660000  0.11240000  1.0 0.0895119379
H  H59  1  0.96660000  0.22650000  0.61240000  1.0 0.0895119379
H  H60  1  0.22650000  0.25990000  0.11240000  1.0 0.0895119379
H  H61  1  0.80700000  0.98940000  0.65970000  1.0 0.1014110978
H  H62  1  0.81760000  0.80700000  0.15970000  1.0 0.1014110978
H  H63  1  0.01060000  0.81760000  0.65970000  1.0 0.1014110978
H  H64  1  0.19300000  0.01060000  0.15970000  1.0 0.1014110978
H  H65  1  0.18240000  0.19300000  0.65970000  1.0 0.1014110978
H  H66  1  0.98940000  0.18240000  0.15970000  1.0 0.1014110978
H  H67  1  0.81760000  0.01060000  0.34030000  1.0 0.1014110978
H  H68  1  0.01060000  0.19300000  0.84030000  1.0 0.1014110978
H  H69  1  0.19300000  0.18240000  0.34030000  1.0 0.1014110978
H  H70  1  0.18240000  0.98940000  0.84030000  1.0 0.1014110978
H  H71  1  0.98940000  0.80700000  0.34030000  1.0 0.1014110978
H  H72  1  0.80700000  0.81760000  0.84030000  1.0 0.1014110978
H  H73  1  0.19300000  0.01060000  0.34030000  1.0 0.1014110978
H  H74  1  0.18240000  0.19300000  0.84030000  1.0 0.1014110978
H  H75  1  0.98940000  0.18240000  0.34030000  1.0 0.1014110978
H  H76  1  0.80700000  0.98940000  0.84030000  1.0 0.1014110978
H  H77  1  0.81760000  0.80700000  0.34030000  1.0 0.1014110978
H  H78  1  0.01060000  0.81760000  0.84030000  1.0 0.1014110978
H  H79  1  0.18240000  0.98940000  0.65970000  1.0 0.1014110978
H  H80  1  0.98940000  0.80700000  0.15970000  1.0 0.1014110978
H  H81  1  0.80700000  0.81760000  0.65970000  1.0 0.1014110978
H  H82  1  0.81760000  0.01060000  0.15970000  1.0 0.1014110978
H  H83  1  0.01060000  0.19300000  0.65970000  1.0 0.1014110978
H  H84  1  0.19300000  0.18240000  0.15970000  1.0 0.1014110978
H  H85  1  0.72710000  0.06890000  0.63260000  1.0 0.0895119379
H  H86  1  0.65820000  0.72710000  0.13260000  1.0 0.0895119379
H  H87  1  0.93110000  0.65820000  0.63260000  1.0 0.0895119379
H  H88  1  0.27290000  0.93110000  0.13260000  1.0 0.0895119379
H  H89  1  0.34180000  0.27290000  0.63260000  1.0 0.0895119379
H  H90  1  0.06890000  0.34180000  0.13260000  1.0 0.0895119379
H  H91  1  0.65820000  0.93110000  0.36740000  1.0 0.0895119379
H  H92  1  0.93110000  0.27290000  0.86740000  1.0 0.0895119379
H  H93  1  0.27290000  0.34180000  0.36740000  1.0 0.0895119379
H  H94  1  0.34180000  0.06890000  0.86740000  1.0 0.0895119379
H  H95  1  0.06890000  0.72710000  0.36740000  1.0 0.0895119379
H  H96  1  0.72710000  0.65820000  0.86740000  1.0 0.0895119379
H  H97  1  0.27290000  0.93110000  0.36740000  1.0 0.0895119379
H  H98  1  0.34180000  0.27290000  0.86740000  1.0 0.0895119379
H  H99  1  0.06890000  0.34180000  0.36740000  1.0 0.0895119379
H  H100  1  0.72710000  0.06890000  0.86740000  1.0 0.0895119379
H  H101  1  0.65820000  0.72710000  0.36740000  1.0 0.0895119379
H  H102  1  0.93110000  0.65820000  0.86740000  1.0 0.0895119379
H  H103  1  0.34180000  0.06890000  0.63260000  1.0 0.0895119379
H  H104  1  0.06890000  0.72710000  0.13260000  1.0 0.0895119379
H  H105  1  0.72710000  0.65820000  0.63260000  1.0 0.0895119379
H  H106  1  0.65820000  0.93110000  0.13260000  1.0 0.0895119379
H  H107  1  0.93110000  0.27290000  0.63260000  1.0 0.0895119379
H  H108  1  0.27290000  0.34180000  0.13260000  1.0 0.0895119379
H  H109  1  0.77140000  0.03770000  0.68160000  1.0 0.1014110978
H  H110  1  0.73370000  0.77140000  0.18160000  1.0 0.1014110978
H  H111  1  0.96230000  0.73370000  0.68160000  1.0 0.1014110978
H  H112  1  0.22860000  0.96230000  0.18160000  1.0 0.1014110978
H  H113  1  0.26630000  0.22860000  0.68160000  1.0 0.1014110978
H  H114  1  0.03770000  0.26630000  0.18160000  1.0 0.1014110978
H  H115  1  0.73370000  0.96230000  0.31840000  1.0 0.1014110978
H  H116  1  0.96230000  0.22860000  0.81840000  1.0 0.1014110978
H  H117  1  0.22860000  0.26630000  0.31840000  1.0 0.1014110978
H  H118  1  0.26630000  0.03770000  0.81840000  1.0 0.1014110978
H  H119  1  0.03770000  0.77140000  0.31840000  1.0 0.1014110978
H  H120  1  0.77140000  0.73370000  0.81840000  1.0 0.1014110978
H  H121  1  0.22860000  0.96230000  0.31840000  1.0 0.1014110978
H  H122  1  0.26630000  0.22860000  0.81840000  1.0 0.1014110978
H  H123  1  0.03770000  0.26630000  0.31840000  1.0 0.1014110978
H  H124  1  0.77140000  0.03770000  0.81840000  1.0 0.1014110978
H  H125  1  0.73370000  0.77140000  0.31840000  1.0 0.1014110978
H  H126  1  0.96230000  0.73370000  0.81840000  1.0 0.1014110978
H  H127  1  0.26630000  0.03770000  0.68160000  1.0 0.1014110978
H  H128  1  0.03770000  0.77140000  0.18160000  1.0 0.1014110978
H  H129  1  0.77140000  0.73370000  0.68160000  1.0 0.1014110978
H  H130  1  0.73370000  0.96230000  0.18160000  1.0 0.1014110978
H  H131  1  0.96230000  0.22860000  0.68160000  1.0 0.1014110978
H  H132  1  0.22860000  0.26630000  0.18160000  1.0 0.1014110978
C  C1  1  0.64070000  0.09020000  0.52631000  1.0 0.5773243875
C  C2  1  0.55050000  0.64070000  0.02631000  1.0 0.5773243875
C  C3  1  0.90980000  0.55050000  0.52631000  1.0 0.5773243875
C  C4  1  0.35930000  0.90980000  0.02631000  1.0 0.5773243875
C  C5  1  0.44950000  0.35930000  0.52631000  1.0 0.5773243875
C  C6  1  0.09020000  0.44950000  0.02631000  1.0 0.5773243875
C  C7  1  0.55050000  0.90980000  0.47369000  1.0 0.5773243875
C  C8  1  0.90980000  0.35930000  0.97369000  1.0 0.5773243875
C  C9  1  0.35930000  0.44950000  0.47369000  1.0 0.5773243875
C  C10  1  0.44950000  0.09020000  0.97369000  1.0 0.5773243875
C  C11  1  0.09020000  0.64070000  0.47369000  1.0 0.5773243875
C  C12  1  0.64070000  0.55050000  0.97369000  1.0 0.5773243875
C  C13  1  0.35930000  0.90980000  0.47369000  1.0 0.5773243875
C  C14  1  0.44950000  0.35930000  0.97369000  1.0 0.5773243875
C  C15  1  0.09020000  0.44950000  0.47369000  1.0 0.5773243875
C  C16  1  0.64070000  0.09020000  0.97369000  1.0 0.5773243875
C  C17  1  0.55050000  0.64070000  0.47369000  1.0 0.5773243875
C  C18  1  0.90980000  0.55050000  0.97369000  1.0 0.5773243875
C  C19  1  0.44950000  0.09020000  0.52631000  1.0 0.5773243875
C  C20  1  0.09020000  0.64070000  0.02631000  1.0 0.5773243875
C  C21  1  0.64070000  0.55050000  0.52631000  1.0 0.5773243875
C  C22  1  0.55050000  0.90980000  0.02631000  1.0 0.5773243875
C  C23  1  0.90980000  0.35930000  0.52631000  1.0 0.5773243875
C  C24  1  0.35930000  0.44950000  0.02631000  1.0 0.5773243875
C  C25  1  0.72236000  0.14669000  0.54192000  1.0 -0.0276093588
C  C26  1  0.57567000  0.72236000  0.04192000  1.0 -0.0276093588
C  C27  1  0.85331000  0.57567000  0.54192000  1.0 -0.0276093588
C  C28  1  0.27764000  0.85331000  0.04192000  1.0 -0.0276093588
C  C29  1  0.42433000  0.27764000  0.54192000  1.0 -0.0276093588
C  C30  1  0.14669000  0.42433000  0.04192000  1.0 -0.0276093588
C  C31  1  0.57567000  0.85331000  0.45808000  1.0 -0.0276093588
C  C32  1  0.85331000  0.27764000  0.95808000  1.0 -0.0276093588
C  C33  1  0.27764000  0.42433000  0.45808000  1.0 -0.0276093588
C  C34  1  0.42433000  0.14669000  0.95808000  1.0 -0.0276093588
C  C35  1  0.14669000  0.72236000  0.45808000  1.0 -0.0276093588
C  C36  1  0.72236000  0.57567000  0.95808000  1.0 -0.0276093588
C  C37  1  0.27764000  0.85331000  0.45808000  1.0 -0.0276093588
C  C38  1  0.42433000  0.27764000  0.95808000  1.0 -0.0276093588
C  C39  1  0.14669000  0.42433000  0.45808000  1.0 -0.0276093588
C  C40  1  0.72236000  0.14669000  0.95808000  1.0 -0.0276093588
C  C41  1  0.57567000  0.72236000  0.45808000  1.0 -0.0276093588
C  C42  1  0.85331000  0.57567000  0.95808000  1.0 -0.0276093588
C  C43  1  0.42433000  0.14669000  0.54192000  1.0 -0.0276093588
C  C44  1  0.14669000  0.72236000  0.04192000  1.0 -0.0276093588
C  C45  1  0.72236000  0.57567000  0.54192000  1.0 -0.0276093588
C  C46  1  0.57567000  0.85331000  0.04192000  1.0 -0.0276093588
C  C47  1  0.85331000  0.27764000  0.54192000  1.0 -0.0276093588
C  C48  1  0.27764000  0.42433000  0.04192000  1.0 -0.0276093588
C  C49  1  0.77679000  0.22321000  0.52746000  1.0 -0.1103737806
C  C50  1  0.55358000  0.77679000  0.02746000  1.0 -0.1103737806
C  C51  1  0.77679000  0.55358000  0.52746000  1.0 -0.1103737806
C  C52  1  0.22321000  0.77679000  0.02746000  1.0 -0.1103737806
C  C53  1  0.44642000  0.22321000  0.52746000  1.0 -0.1103737806
C  C54  1  0.22321000  0.44642000  0.02746000  1.0 -0.1103737806
C  C55  1  0.55358000  0.77679000  0.47254000  1.0 -0.1103737806
C  C56  1  0.77679000  0.22321000  0.97254000  1.0 -0.1103737806
C  C57  1  0.22321000  0.44642000  0.47254000  1.0 -0.1103737806
C  C58  1  0.44642000  0.22321000  0.97254000  1.0 -0.1103737806
C  C59  1  0.22321000  0.77679000  0.47254000  1.0 -0.1103737806
C  C60  1  0.77679000  0.55358000  0.97254000  1.0 -0.1103737806
C  C61  1  0.74610000  0.12632000  0.57141000  1.0 -0.1720587324
C  C62  1  0.61978000  0.74610000  0.07141000  1.0 -0.1720587324
C  C63  1  0.87368000  0.61978000  0.57141000  1.0 -0.1720587324
C  C64  1  0.25390000  0.87368000  0.07141000  1.0 -0.1720587324
C  C65  1  0.38022000  0.25390000  0.57141000  1.0 -0.1720587324
C  C66  1  0.12632000  0.38022000  0.07141000  1.0 -0.1720587324
C  C67  1  0.61978000  0.87368000  0.42859000  1.0 -0.1720587324
C  C68  1  0.87368000  0.25390000  0.92859000  1.0 -0.1720587324
C  C69  1  0.25390000  0.38022000  0.42859000  1.0 -0.1720587324
C  C70  1  0.38022000  0.12632000  0.92859000  1.0 -0.1720587324
C  C71  1  0.12632000  0.74610000  0.42859000  1.0 -0.1720587324
C  C72  1  0.74610000  0.61978000  0.92859000  1.0 -0.1720587324
C  C73  1  0.25390000  0.87368000  0.42859000  1.0 -0.1720587324
C  C74  1  0.38022000  0.25390000  0.92859000  1.0 -0.1720587324
C  C75  1  0.12632000  0.38022000  0.42859000  1.0 -0.1720587324
C  C76  1  0.74610000  0.12632000  0.92859000  1.0 -0.1720587324
C  C77  1  0.61978000  0.74610000  0.42859000  1.0 -0.1720587324
C  C78  1  0.87368000  0.61978000  0.92859000  1.0 -0.1720587324
C  C79  1  0.38022000  0.12632000  0.57141000  1.0 -0.1720587324
C  C80  1  0.12632000  0.74610000  0.07141000  1.0 -0.1720587324
C  C81  1  0.74610000  0.61978000  0.57141000  1.0 -0.1720587324
C  C82  1  0.61978000  0.87368000  0.07141000  1.0 -0.1720587324
C  C83  1  0.87368000  0.25390000  0.57141000  1.0 -0.1720587324
C  C84  1  0.25390000  0.38022000  0.07141000  1.0 -0.1720587324
C  C85  1  0.82204000  0.17796000  0.58578000  1.0 0.055268805
C  C86  1  0.64408000  0.82204000  0.08578000  1.0 0.055268805
C  C87  1  0.82204000  0.64408000  0.58578000  1.0 0.055268805
C  C88  1  0.17796000  0.82204000  0.08578000  1.0 0.055268805
C  C89  1  0.35592000  0.17796000  0.58578000  1.0 0.055268805
C  C90  1  0.17796000  0.35592000  0.08578000  1.0 0.055268805
C  C91  1  0.64408000  0.82204000  0.41422000  1.0 0.055268805
C  C92  1  0.82204000  0.17796000  0.91422000  1.0 0.055268805
C  C93  1  0.17796000  0.35592000  0.41422000  1.0 0.055268805
C  C94  1  0.35592000  0.17796000  0.91422000  1.0 0.055268805
C  C95  1  0.17796000  0.82204000  0.41422000  1.0 0.055268805
C  C96  1  0.82204000  0.64408000  0.91422000  1.0 0.055268805
C  C97  1  0.84541000  0.15459000  0.61661000  1.0 0.0088477149
C  C98  1  0.69082000  0.84541000  0.11661000  1.0 0.0088477149
C  C99  1  0.84541000  0.69082000  0.61661000  1.0 0.0088477149
C  C100  1  0.15459000  0.84541000  0.11661000  1.0 0.0088477149
C  C101  1  0.30918000  0.15459000  0.61661000  1.0 0.0088477149
C  C102  1  0.15459000  0.30918000  0.11661000  1.0 0.0088477149
C  C103  1  0.69082000  0.84541000  0.38339000  1.0 0.0088477149
C  C104  1  0.84541000  0.15459000  0.88339000  1.0 0.0088477149
C  C105  1  0.15459000  0.30918000  0.38339000  1.0 0.0088477149
C  C106  1  0.30918000  0.15459000  0.88339000  1.0 0.0088477149
C  C107  1  0.15459000  0.84541000  0.38339000  1.0 0.0088477149
C  C108  1  0.84541000  0.69082000  0.88339000  1.0 0.0088477149
C  C109  1  0.81320000  0.07410000  0.62610000  1.0 -0.0458726813
C  C110  1  0.73910000  0.81320000  0.12610000  1.0 -0.0458726813
C  C111  1  0.92590000  0.73910000  0.62610000  1.0 -0.0443039355
C  C112  1  0.18680000  0.92590000  0.12610000  1.0 -0.0458726813
C  C113  1  0.26090000  0.18680000  0.62610000  1.0 -0.0458726813
C  C114  1  0.07410000  0.26090000  0.12610000  1.0 -0.0458726813
C  C115  1  0.73910000  0.92590000  0.37390000  1.0 -0.0443039355
C  C116  1  0.92590000  0.18680000  0.87390000  1.0 -0.0443039355
C  C117  1  0.18680000  0.26090000  0.37390000  1.0 -0.0458726813
C  C118  1  0.26090000  0.07410000  0.87390000  1.0 -0.0458726813
C  C119  1  0.07410000  0.81320000  0.37390000  1.0 -0.0458726813
C  C120  1  0.81320000  0.73910000  0.87390000  1.0 -0.0443039355
C  C121  1  0.18680000  0.92590000  0.37390000  1.0 -0.0458726813
C  C122  1  0.26090000  0.18680000  0.87390000  1.0 -0.0458726813
C  C123  1  0.07410000  0.26090000  0.37390000  1.0 -0.0458726813
C  C124  1  0.81320000  0.07410000  0.87390000  1.0 -0.0458726813
C  C125  1  0.73910000  0.81320000  0.37390000  1.0 -0.0458726813
C  C126  1  0.92590000  0.73910000  0.87390000  1.0 -0.0443039355
C  C127  1  0.26090000  0.07410000  0.62610000  1.0 -0.0458726813
C  C128  1  0.07410000  0.81320000  0.12610000  1.0 -0.0458726813
C  C129  1  0.81320000  0.73910000  0.62610000  1.0 -0.0443039355
C  C130  1  0.73910000  0.92590000  0.12610000  1.0 -0.0443039355
C  C131  1  0.92590000  0.18680000  0.62610000  1.0 -0.0443039355
C  C132  1  0.18680000  0.26090000  0.12610000  1.0 -0.0458726813
C  C133  1  0.83370000  0.04610000  0.65450000  1.0 -0.0906550244
C  C134  1  0.78760000  0.83370000  0.15450000  1.0 -0.0906550244
C  C135  1  0.95390000  0.78760000  0.65450000  1.0 -0.0906550244
C  C136  1  0.16630000  0.95390000  0.15450000  1.0 -0.0906550244
C  C137  1  0.21240000  0.16630000  0.65450000  1.0 -0.0906550244
C  C138  1  0.04610000  0.21240000  0.15450000  1.0 -0.0906550244
C  C139  1  0.78760000  0.95390000  0.34550000  1.0 -0.0906550244
C  C140  1  0.95390000  0.16630000  0.84550000  1.0 -0.0906550244
C  C141  1  0.16630000  0.21240000  0.34550000  1.0 -0.0906550244
C  C142  1  0.21240000  0.04610000  0.84550000  1.0 -0.0906550244
C  C143  1  0.04610000  0.83370000  0.34550000  1.0 -0.0906550244
C  C144  1  0.83370000  0.78760000  0.84550000  1.0 -0.0906550244
C  C145  1  0.16630000  0.95390000  0.34550000  1.0 -0.0906550244
C  C146  1  0.21240000  0.16630000  0.84550000  1.0 -0.0906550244
C  C147  1  0.04610000  0.21240000  0.34550000  1.0 -0.0906550244
C  C148  1  0.83370000  0.04610000  0.84550000  1.0 -0.0906550244
C  C149  1  0.78760000  0.83370000  0.34550000  1.0 -0.0906550244
C  C150  1  0.95390000  0.78760000  0.84550000  1.0 -0.0906550244
C  C151  1  0.21240000  0.04610000  0.65450000  1.0 -0.0906550244
C  C152  1  0.04610000  0.83370000  0.15450000  1.0 -0.0906550244
C  C153  1  0.83370000  0.78760000  0.65450000  1.0 -0.0906550244
C  C154  1  0.78760000  0.95390000  0.15450000  1.0 -0.0906550244
C  C155  1  0.95390000  0.16630000  0.65450000  1.0 -0.0906550244
C  C156  1  0.16630000  0.21240000  0.15450000  1.0 -0.0906550244
C  C157  1  0.89492000  0.10508000  0.67466000  1.0 -0.024858723
C  C158  1  0.78984000  0.89492000  0.17466000  1.0 -0.024858723
C  C159  1  0.89492000  0.78984000  0.67466000  1.0 -0.0276093588
C  C160  1  0.10508000  0.89492000  0.17466000  1.0 -0.024858723
C  C161  1  0.21016000  0.10508000  0.67466000  1.0 -0.024858723
C  C162  1  0.10508000  0.21016000  0.17466000  1.0 -0.024858723
C  C163  1  0.78984000  0.89492000  0.32534000  1.0 -0.024858723
C  C164  1  0.89492000  0.10508000  0.82534000  1.0 -0.024858723
C  C165  1  0.10508000  0.21016000  0.32534000  1.0 -0.024858723
C  C166  1  0.21016000  0.10508000  0.82534000  1.0 -0.024858723
C  C167  1  0.10508000  0.89492000  0.32534000  1.0 -0.024858723
C  C168  1  0.89492000  0.78984000  0.82534000  1.0 -0.0276093588
C  C169  1  0.92131000  0.07869000  0.70452000  1.0 0.5154687247
C  C170  1  0.84262000  0.92131000  0.20452000  1.0 0.5139909024
C  C171  1  0.92131000  0.84262000  0.70452000  1.0 0.5154687247
C  C172  1  0.07869000  0.92131000  0.20452000  1.0 0.5139909024
C  C173  1  0.15738000  0.07869000  0.70452000  1.0 0.5154687247
C  C174  1  0.07869000  0.15738000  0.20452000  1.0 0.5139909024
C  C175  1  0.84262000  0.92131000  0.29548000  1.0 0.5154687247
C  C176  1  0.92131000  0.07869000  0.79548000  1.0 0.5154687247
C  C177  1  0.07869000  0.15738000  0.29548000  1.0 0.5139909024
C  C178  1  0.15738000  0.07869000  0.79548000  1.0 0.5154687247
C  C179  1  0.07869000  0.92131000  0.29548000  1.0 0.5139909024
C  C180  1  0.92131000  0.84262000  0.79548000  1.0 0.5154687247
C  C181  1  0.78380000  0.09430000  0.63770000  1.0 -0.0458726813
C  C182  1  0.68950000  0.78380000  0.13770000  1.0 -0.0458726813
C  C183  1  0.90570000  0.68950000  0.63770000  1.0 -0.0458726813
C  C184  1  0.21620000  0.90570000  0.13770000  1.0 -0.0458726813
C  C185  1  0.31050000  0.21620000  0.63770000  1.0 -0.0458726813
C  C186  1  0.09430000  0.31050000  0.13770000  1.0 -0.0458726813
C  C187  1  0.68950000  0.90570000  0.36230000  1.0 -0.0458726813
C  C188  1  0.90570000  0.21620000  0.86230000  1.0 -0.0458726813
C  C189  1  0.21620000  0.31050000  0.36230000  1.0 -0.0458726813
C  C190  1  0.31050000  0.09430000  0.86230000  1.0 -0.0458726813
C  C191  1  0.09430000  0.78380000  0.36230000  1.0 -0.0458726813
C  C192  1  0.78380000  0.68950000  0.86230000  1.0 -0.0458726813
C  C193  1  0.21620000  0.90570000  0.36230000  1.0 -0.0458726813
C  C194  1  0.31050000  0.21620000  0.86230000  1.0 -0.0458726813
C  C195  1  0.09430000  0.31050000  0.36230000  1.0 -0.0458726813
C  C196  1  0.78380000  0.09430000  0.86230000  1.0 -0.0458726813
C  C197  1  0.68950000  0.78380000  0.36230000  1.0 -0.0458726813
C  C198  1  0.90570000  0.68950000  0.86230000  1.0 -0.0458726813
C  C199  1  0.31050000  0.09430000  0.63770000  1.0 -0.0458726813
C  C200  1  0.09430000  0.78380000  0.13770000  1.0 -0.0458726813
C  C201  1  0.78380000  0.68950000  0.63770000  1.0 -0.0458726813
C  C202  1  0.68950000  0.90570000  0.13770000  1.0 -0.0458726813
C  C203  1  0.90570000  0.21620000  0.63770000  1.0 -0.0458726813
C  C204  1  0.21620000  0.31050000  0.13770000  1.0 -0.0458726813
C  C205  1  0.81160000  0.07400000  0.66690000  1.0 -0.0632283807
C  C206  1  0.73760000  0.81160000  0.16690000  1.0 -0.0632283807
C  C207  1  0.92600000  0.73760000  0.66690000  1.0 -0.0632283807
C  C208  1  0.18840000  0.92600000  0.16690000  1.0 -0.0632283807
C  C209  1  0.26240000  0.18840000  0.66690000  1.0 -0.0632283807
C  C210  1  0.07400000  0.26240000  0.16690000  1.0 -0.0632283807
C  C211  1  0.73760000  0.92600000  0.33310000  1.0 -0.0632283807
C  C212  1  0.92600000  0.18840000  0.83310000  1.0 -0.0632283807
C  C213  1  0.18840000  0.26240000  0.33310000  1.0 -0.0632283807
C  C214  1  0.26240000  0.07400000  0.83310000  1.0 -0.0632283807
C  C215  1  0.07400000  0.81160000  0.33310000  1.0 -0.0632283807
C  C216  1  0.81160000  0.73760000  0.83310000  1.0 -0.0632283807
C  C217  1  0.18840000  0.92600000  0.33310000  1.0 -0.0632283807
C  C218  1  0.26240000  0.18840000  0.83310000  1.0 -0.0632283807
C  C219  1  0.07400000  0.26240000  0.33310000  1.0 -0.0632283807
C  C220  1  0.81160000  0.07400000  0.83310000  1.0 -0.0632283807
C  C221  1  0.73760000  0.81160000  0.33310000  1.0 -0.0632283807
C  C222  1  0.92600000  0.73760000  0.83310000  1.0 -0.0632283807
C  C223  1  0.26240000  0.07400000  0.66690000  1.0 -0.0632283807
C  C224  1  0.07400000  0.81160000  0.16690000  1.0 -0.0632283807
C  C225  1  0.81160000  0.73760000  0.66690000  1.0 -0.0632283807
C  C226  1  0.73760000  0.92600000  0.16690000  1.0 -0.0632283807
C  C227  1  0.92600000  0.18840000  0.66690000  1.0 -0.0632283807
C  C228  1  0.18840000  0.26240000  0.16690000  1.0 -0.0632283807
O  O1  1  0.87091000  0.00919000  0.71615000  1.0 -0.4996206467
O  O2  1  0.86172000  0.87091000  0.21615000  1.0 -0.4996206467
O  O3  1  0.99081000  0.86172000  0.71615000  1.0 -0.4996206467
O  O4  1  0.12909000  0.99081000  0.21615000  1.0 -0.4996206467
O  O5  1  0.13828000  0.12909000  0.71615000  1.0 -0.4996206467
O  O6  1  0.00919000  0.13828000  0.21615000  1.0 -0.4996206467
O  O7  1  0.86172000  0.99081000  0.28385000  1.0 -0.4996206467
O  O8  1  0.99081000  0.12909000  0.78385000  1.0 -0.4996206467
O  O9  1  0.12909000  0.13828000  0.28385000  1.0 -0.4996206467
O  O10  1  0.13828000  0.00919000  0.78385000  1.0 -0.4996206467
O  O11  1  0.00919000  0.87091000  0.28385000  1.0 -0.4996206467
O  O12  1  0.87091000  0.86172000  0.78385000  1.0 -0.4996206467
O  O13  1  0.12909000  0.99081000  0.28385000  1.0 -0.4996206467
O  O14  1  0.13828000  0.12909000  0.78385000  1.0 -0.4996206467
O  O15  1  0.00919000  0.13828000  0.28385000  1.0 -0.4996206467
O  O16  1  0.87091000  0.00919000  0.78385000  1.0 -0.4996206467
O  O17  1  0.86172000  0.87091000  0.28385000  1.0 -0.4996206467
O  O18  1  0.99081000  0.86172000  0.78385000  1.0 -0.4996206467
O  O19  1  0.13828000  0.00919000  0.71615000  1.0 -0.4996206467
O  O20  1  0.00919000  0.87091000  0.21615000  1.0 -0.4996206467
O  O21  1  0.87091000  0.86172000  0.71615000  1.0 -0.4996206467
O  O22  1  0.86172000  0.99081000  0.21615000  1.0 -0.4996206467
O  O23  1  0.99081000  0.12909000  0.71615000  1.0 -0.4996206467
O  O24  1  0.12909000  0.13828000  0.21615000  1.0 -0.4996206467
O  O25  1  0.00000000  0.00000000  0.75000000  1.0 -0.8698306386
O  O26  1  0.00000000  0.00000000  0.25000000  1.0 -0.8698306386
O  O27  1  0.62822000  0.10954000  0.49825000  1.0 -0.5208210279
O  O28  1  0.51868000  0.62822000  0.99825000  1.0 -0.5208210279
O  O29  1  0.89046000  0.51868000  0.49825000  1.0 -0.5208210279
O  O30  1  0.37178000  0.89046000  0.99825000  1.0 -0.5208210279
O  O31  1  0.48132000  0.37178000  0.49825000  1.0 -0.5208210279
O  O32  1  0.10954000  0.48132000  0.99825000  1.0 -0.5208210279
O  O33  1  0.51868000  0.89046000  0.50175000  1.0 -0.5208210279
O  O34  1  0.89046000  0.37178000  0.00175000  1.0 -0.5208210279
O  O35  1  0.37178000  0.48132000  0.50175000  1.0 -0.5208210279
O  O36  1  0.48132000  0.10954000  0.00175000  1.0 -0.5208210279
O  O37  1  0.10954000  0.62822000  0.50175000  1.0 -0.5208210279
O  O38  1  0.62822000  0.51868000  0.00175000  1.0 -0.5208210279
O  O39  1  0.37178000  0.89046000  0.50175000  1.0 -0.5208210279
O  O40  1  0.48132000  0.37178000  0.00175000  1.0 -0.5208210279
O  O41  1  0.10954000  0.48132000  0.50175000  1.0 -0.5208210279
O  O42  1  0.62822000  0.10954000  0.00175000  1.0 -0.5208210279
O  O43  1  0.51868000  0.62822000  0.50175000  1.0 -0.5208210279
O  O44  1  0.89046000  0.51868000  0.00175000  1.0 -0.5208210279
O  O45  1  0.48132000  0.10954000  0.49825000  1.0 -0.5208210279
O  O46  1  0.10954000  0.62822000  0.99825000  1.0 -0.5208210279
O  O47  1  0.62822000  0.51868000  0.49825000  1.0 -0.5208210279
O  O48  1  0.51868000  0.89046000  0.99825000  1.0 -0.5208210279
O  O49  1  0.89046000  0.37178000  0.49825000  1.0 -0.5208210279
O  O50  1  0.37178000  0.48132000  0.99825000  1.0 -0.5208210279
O  O51  1  0.58807000  0.02714000  0.54276000  1.0 -0.5270618354
O  O52  1  0.56093000  0.58807000  0.04276000  1.0 -0.5270618354
O  O53  1  0.97286000  0.56093000  0.54276000  1.0 -0.5270618354
O  O54  1  0.41193000  0.97286000  0.04276000  1.0 -0.5270618354
O  O55  1  0.43907000  0.41193000  0.54276000  1.0 -0.5270618354
O  O56  1  0.02714000  0.43907000  0.04276000  1.0 -0.5270618354
O  O57  1  0.56093000  0.97286000  0.45724000  1.0 -0.5270618354
O  O58  1  0.97286000  0.41193000  0.95724000  1.0 -0.5270618354
O  O59  1  0.41193000  0.43907000  0.45724000  1.0 -0.5270618354
O  O60  1  0.43907000  0.02714000  0.95724000  1.0 -0.5270618354
O  O61  1  0.02714000  0.58807000  0.45724000  1.0 -0.5270618354
O  O62  1  0.58807000  0.56093000  0.95724000  1.0 -0.5270618354
O  O63  1  0.41193000  0.97286000  0.45724000  1.0 -0.5270618354
O  O64  1  0.43907000  0.41193000  0.95724000  1.0 -0.5270618354
O  O65  1  0.02714000  0.43907000  0.45724000  1.0 -0.5270618354
O  O66  1  0.58807000  0.02714000  0.95724000  1.0 -0.5270618354
O  O67  1  0.56093000  0.58807000  0.45724000  1.0 -0.5270618354
O  O68  1  0.97286000  0.56093000  0.95724000  1.0 -0.5270618354
O  O69  1  0.43907000  0.02714000  0.54276000  1.0 -0.5270618354
O  O70  1  0.02714000  0.58807000  0.04276000  1.0 -0.5270618354
O  O71  1  0.58807000  0.56093000  0.54276000  1.0 -0.5270618354
O  O72  1  0.56093000  0.97286000  0.04276000  1.0 -0.5270618354
O  O73  1  0.97286000  0.41193000  0.54276000  1.0 -0.5270618354
O  O74  1  0.41193000  0.43907000  0.04276000  1.0 -0.5270618354
