# DDEC6 charges by PACMAN v1.1 (https://github.com/mtap-research/PACMAN-charge/)
data_UKIQOV_FSR_pacman
_symmetry_space_group_name_H-M   'P 1'
_cell_length_a   18.43100000
_cell_length_b   18.43100000
_cell_length_c   40.52000000
_cell_angle_alpha   90.00000000
_cell_angle_beta   90.00000000
_cell_angle_gamma   120.00000000
_symmetry_Int_Tables_number   1
_chemical_formula_structural   CoCu2H14(C15O7)2
_chemical_formula_sum   'Co6 Cu12 H84 C180 O84'
_cell_volume   11920.59317392
_cell_formula_units_Z   6
loop_
 _symmetry_equiv_pos_site_id
 _symmetry_equiv_pos_as_xyz
  1  'x, y, z'
loop_
 _atom_site_type_symbol
 _atom_site_label
 _atom_site_symmetry_multiplicity
 _atom_site_fract_x
 _atom_site_fract_y
 _atom_site_fract_z
 _atom_site_occupancy
 _atom_site_charge
Co  Co1  1  0.88374000  0.94187000  0.25000000  1.0 0.6777415677
Co  Co2  1  0.94187000  0.88374000  0.75000000  1.0 0.6777415677
Co  Co3  1  0.05813000  0.94187000  0.25000000  1.0 0.6777415677
Co  Co4  1  0.11626000  0.05813000  0.75000000  1.0 0.6777415677
Co  Co5  1  0.05813000  0.11626000  0.25000000  1.0 0.6777415677
Co  Co6  1  0.94187000  0.05813000  0.75000000  1.0 0.6777415677
Cu  Cu1  1  0.52393000  0.04786000  0.52601000  1.0 0.9095678632
Cu  Cu2  1  0.47607000  0.52393000  0.02601000  1.0 0.9095678632
Cu  Cu3  1  0.95214000  0.47607000  0.52601000  1.0 0.9095678632
Cu  Cu4  1  0.47607000  0.95214000  0.02601000  1.0 0.9095678632
Cu  Cu5  1  0.52393000  0.47607000  0.52601000  1.0 0.9095678632
Cu  Cu6  1  0.04786000  0.52393000  0.02601000  1.0 0.9095678632
Cu  Cu7  1  0.47607000  0.95214000  0.47399000  1.0 0.9095678632
Cu  Cu8  1  0.95214000  0.47607000  0.97399000  1.0 0.9095678632
Cu  Cu9  1  0.47607000  0.52393000  0.47399000  1.0 0.9095678632
Cu  Cu10  1  0.52393000  0.04786000  0.97399000  1.0 0.9095678632
Cu  Cu11  1  0.04786000  0.52393000  0.47399000  1.0 0.9095678632
Cu  Cu12  1  0.52393000  0.47607000  0.97399000  1.0 0.9095678632
H  H1  1  0.76350000  0.23650000  0.49140000  1.0 0.1365239178
H  H2  1  0.52700000  0.76350000  0.99140000  1.0 0.1365239178
H  H3  1  0.76350000  0.52700000  0.49140000  1.0 0.1365239178
H  H4  1  0.23650000  0.76350000  0.99140000  1.0 0.1365239178
H  H5  1  0.47300000  0.23650000  0.49140000  1.0 0.1365239178
H  H6  1  0.23650000  0.47300000  0.99140000  1.0 0.1365239178
H  H7  1  0.52700000  0.76350000  0.50860000  1.0 0.1365239178
H  H8  1  0.76350000  0.23650000  0.00860000  1.0 0.1365239178
H  H9  1  0.23650000  0.47300000  0.50860000  1.0 0.1365239178
H  H10  1  0.47300000  0.23650000  0.00860000  1.0 0.1365239178
H  H11  1  0.23650000  0.76350000  0.50860000  1.0 0.1365239178
H  H12  1  0.76350000  0.52700000  0.00860000  1.0 0.1365239178
H  H13  1  0.70740000  0.07460000  0.41740000  1.0 0.1194293292
H  H14  1  0.63280000  0.70740000  0.91740000  1.0 0.1194293292
H  H15  1  0.92540000  0.63280000  0.41740000  1.0 0.1194293292
H  H16  1  0.29260000  0.92540000  0.91740000  1.0 0.1194293292
H  H17  1  0.36720000  0.29260000  0.41740000  1.0 0.1194293292
H  H18  1  0.07460000  0.36720000  0.91740000  1.0 0.1194293292
H  H19  1  0.63280000  0.92540000  0.58260000  1.0 0.1194293292
H  H20  1  0.92540000  0.29260000  0.08260000  1.0 0.1194293292
H  H21  1  0.29260000  0.36720000  0.58260000  1.0 0.1194293292
H  H22  1  0.36720000  0.07460000  0.08260000  1.0 0.1194293292
H  H23  1  0.07460000  0.70740000  0.58260000  1.0 0.1194293292
H  H24  1  0.70740000  0.63280000  0.08260000  1.0 0.1194293292
H  H25  1  0.29260000  0.92540000  0.58260000  1.0 0.1194293292
H  H26  1  0.36720000  0.29260000  0.08260000  1.0 0.1194293292
H  H27  1  0.07460000  0.36720000  0.58260000  1.0 0.1194293292
H  H28  1  0.70740000  0.07460000  0.08260000  1.0 0.1194293292
H  H29  1  0.63280000  0.70740000  0.58260000  1.0 0.1194293292
H  H30  1  0.92540000  0.63280000  0.08260000  1.0 0.1194293292
H  H31  1  0.36720000  0.07460000  0.41740000  1.0 0.1194293292
H  H32  1  0.07460000  0.70740000  0.91740000  1.0 0.1194293292
H  H33  1  0.70740000  0.63280000  0.41740000  1.0 0.1194293292
H  H34  1  0.63280000  0.92540000  0.91740000  1.0 0.1194293292
H  H35  1  0.92540000  0.29260000  0.41740000  1.0 0.1194293292
H  H36  1  0.29260000  0.36720000  0.91740000  1.0 0.1194293292
H  H37  1  0.95640000  0.24560000  0.38010000  1.0 0.1194293292
H  H38  1  0.71080000  0.95640000  0.88010000  1.0 0.1194293292
H  H39  1  0.75440000  0.71080000  0.38010000  1.0 0.1194293292
H  H40  1  0.04360000  0.75440000  0.88010000  1.0 0.1194293292
H  H41  1  0.28920000  0.04360000  0.38010000  1.0 0.1194293292
H  H42  1  0.24560000  0.28920000  0.88010000  1.0 0.1194293292
H  H43  1  0.71080000  0.75440000  0.61990000  1.0 0.1194293292
H  H44  1  0.75440000  0.04360000  0.11990000  1.0 0.1194293292
H  H45  1  0.04360000  0.28920000  0.61990000  1.0 0.1194293292
H  H46  1  0.28920000  0.24560000  0.11990000  1.0 0.1194293292
H  H47  1  0.24560000  0.95640000  0.61990000  1.0 0.1194293292
H  H48  1  0.95640000  0.71080000  0.11990000  1.0 0.1194293292
H  H49  1  0.04360000  0.75440000  0.61990000  1.0 0.1194293292
H  H50  1  0.28920000  0.04360000  0.11990000  1.0 0.1194293292
H  H51  1  0.24560000  0.28920000  0.61990000  1.0 0.1194293292
H  H52  1  0.95640000  0.24560000  0.11990000  1.0 0.1194293292
H  H53  1  0.71080000  0.95640000  0.61990000  1.0 0.1194293292
H  H54  1  0.75440000  0.71080000  0.11990000  1.0 0.1194293292
H  H55  1  0.28920000  0.24560000  0.38010000  1.0 0.1194293292
H  H56  1  0.24560000  0.95640000  0.88010000  1.0 0.1194293292
H  H57  1  0.95640000  0.71080000  0.38010000  1.0 0.1194293292
H  H58  1  0.71080000  0.75440000  0.88010000  1.0 0.1194293292
H  H59  1  0.75440000  0.04360000  0.38010000  1.0 0.1194293292
H  H60  1  0.04360000  0.28920000  0.88010000  1.0 0.1194293292
H  H61  1  0.98860000  0.21200000  0.32680000  1.0 0.1365239178
H  H62  1  0.77660000  0.98860000  0.82680000  1.0 0.1365239178
H  H63  1  0.78800000  0.77660000  0.32680000  1.0 0.1365239178
H  H64  1  0.01140000  0.78800000  0.82680000  1.0 0.1365239178
H  H65  1  0.22340000  0.01140000  0.32680000  1.0 0.1365239178
H  H66  1  0.21200000  0.22340000  0.82680000  1.0 0.1365239178
H  H67  1  0.77660000  0.78800000  0.67320000  1.0 0.1365239178
H  H68  1  0.78800000  0.01140000  0.17320000  1.0 0.1365239178
H  H69  1  0.01140000  0.22340000  0.67320000  1.0 0.1365239178
H  H70  1  0.22340000  0.21200000  0.17320000  1.0 0.1341268052
H  H71  1  0.21200000  0.98860000  0.67320000  1.0 0.1365239178
H  H72  1  0.98860000  0.77660000  0.17320000  1.0 0.1365239178
H  H73  1  0.01140000  0.78800000  0.67320000  1.0 0.1365239178
H  H74  1  0.22340000  0.01140000  0.17320000  1.0 0.1365239178
H  H75  1  0.21200000  0.22340000  0.67320000  1.0 0.1365239178
H  H76  1  0.98860000  0.21200000  0.17320000  1.0 0.1341268052
H  H77  1  0.77660000  0.98860000  0.67320000  1.0 0.1365239178
H  H78  1  0.78800000  0.77660000  0.17320000  1.0 0.1365239178
H  H79  1  0.22340000  0.21200000  0.32680000  1.0 0.1365239178
H  H80  1  0.21200000  0.98860000  0.82680000  1.0 0.1365239178
H  H81  1  0.98860000  0.77660000  0.32680000  1.0 0.1365239178
H  H82  1  0.77660000  0.78800000  0.82680000  1.0 0.1365239178
H  H83  1  0.78800000  0.01140000  0.32680000  1.0 0.1365239178
H  H84  1  0.01140000  0.22340000  0.82680000  1.0 0.1365239178
C  C1  1  0.64190000  0.09110000  0.47340000  1.0 0.5712657476
C  C2  1  0.55080000  0.64190000  0.97340000  1.0 0.5712657476
C  C3  1  0.90890000  0.55080000  0.47340000  1.0 0.5712657476
C  C4  1  0.35810000  0.90890000  0.97340000  1.0 0.5712657476
C  C5  1  0.44920000  0.35810000  0.47340000  1.0 0.5712657476
C  C6  1  0.09110000  0.44920000  0.97340000  1.0 0.5712657476
C  C7  1  0.55080000  0.90890000  0.52660000  1.0 0.5712657476
C  C8  1  0.90890000  0.35810000  0.02660000  1.0 0.5712657476
C  C9  1  0.35810000  0.44920000  0.52660000  1.0 0.5712657476
C  C10  1  0.44920000  0.09110000  0.02660000  1.0 0.5712657476
C  C11  1  0.09110000  0.64190000  0.52660000  1.0 0.5712657476
C  C12  1  0.64190000  0.55080000  0.02660000  1.0 0.5712657476
C  C13  1  0.35810000  0.90890000  0.52660000  1.0 0.5712657476
C  C14  1  0.44920000  0.35810000  0.02660000  1.0 0.5712657476
C  C15  1  0.09110000  0.44920000  0.52660000  1.0 0.5712657476
C  C16  1  0.64190000  0.09110000  0.02660000  1.0 0.5712657476
C  C17  1  0.55080000  0.64190000  0.52660000  1.0 0.5712657476
C  C18  1  0.90890000  0.55080000  0.02660000  1.0 0.5712657476
C  C19  1  0.44920000  0.09110000  0.47340000  1.0 0.5712657476
C  C20  1  0.09110000  0.64190000  0.97340000  1.0 0.5712657476
C  C21  1  0.64190000  0.55080000  0.47340000  1.0 0.5712657476
C  C22  1  0.55080000  0.90890000  0.97340000  1.0 0.5712657476
C  C23  1  0.90890000  0.35810000  0.47340000  1.0 0.5712657476
C  C24  1  0.35810000  0.44920000  0.97340000  1.0 0.5712657476
C  C25  1  0.72220000  0.14570000  0.45710000  1.0 -0.047227749
C  C26  1  0.57650000  0.72220000  0.95710000  1.0 -0.047227749
C  C27  1  0.85430000  0.57650000  0.45710000  1.0 -0.047227749
C  C28  1  0.27780000  0.85430000  0.95710000  1.0 -0.047227749
C  C29  1  0.42350000  0.27780000  0.45710000  1.0 -0.047227749
C  C30  1  0.14570000  0.42350000  0.95710000  1.0 -0.047227749
C  C31  1  0.57650000  0.85430000  0.54290000  1.0 -0.047227749
C  C32  1  0.85430000  0.27780000  0.04290000  1.0 -0.047227749
C  C33  1  0.27780000  0.42350000  0.54290000  1.0 -0.047227749
C  C34  1  0.42350000  0.14570000  0.04290000  1.0 -0.047227749
C  C35  1  0.14570000  0.72220000  0.54290000  1.0 -0.047227749
C  C36  1  0.72220000  0.57650000  0.04290000  1.0 -0.047227749
C  C37  1  0.27780000  0.85430000  0.54290000  1.0 -0.047227749
C  C38  1  0.42350000  0.27780000  0.04290000  1.0 -0.047227749
C  C39  1  0.14570000  0.42350000  0.54290000  1.0 -0.047227749
C  C40  1  0.72220000  0.14570000  0.04290000  1.0 -0.047227749
C  C41  1  0.57650000  0.72220000  0.54290000  1.0 -0.047227749
C  C42  1  0.85430000  0.57650000  0.04290000  1.0 -0.047227749
C  C43  1  0.42350000  0.14570000  0.45710000  1.0 -0.047227749
C  C44  1  0.14570000  0.72220000  0.95710000  1.0 -0.047227749
C  C45  1  0.72220000  0.57650000  0.45710000  1.0 -0.047227749
C  C46  1  0.57650000  0.85430000  0.95710000  1.0 -0.047227749
C  C47  1  0.85430000  0.27780000  0.45710000  1.0 -0.047227749
C  C48  1  0.27780000  0.42350000  0.95710000  1.0 -0.047227749
C  C49  1  0.77790000  0.22210000  0.47140000  1.0 -0.0888045277
C  C50  1  0.55580000  0.77790000  0.97140000  1.0 -0.0888045277
C  C51  1  0.77790000  0.55580000  0.47140000  1.0 -0.0888045277
C  C52  1  0.22210000  0.77790000  0.97140000  1.0 -0.0888045277
C  C53  1  0.44420000  0.22210000  0.47140000  1.0 -0.0888045277
C  C54  1  0.22210000  0.44420000  0.97140000  1.0 -0.0888045277
C  C55  1  0.55580000  0.77790000  0.52860000  1.0 -0.0888045277
C  C56  1  0.77790000  0.22210000  0.02860000  1.0 -0.0888045277
C  C57  1  0.22210000  0.44420000  0.52860000  1.0 -0.0888045277
C  C58  1  0.44420000  0.22210000  0.02860000  1.0 -0.0888045277
C  C59  1  0.22210000  0.77790000  0.52860000  1.0 -0.0888045277
C  C60  1  0.77790000  0.55580000  0.02860000  1.0 -0.0888045277
C  C61  1  0.74460000  0.12500000  0.42755000  1.0 -0.126220314
C  C62  1  0.61960000  0.74460000  0.92755000  1.0 -0.126220314
C  C63  1  0.87500000  0.61960000  0.42755000  1.0 -0.126220314
C  C64  1  0.25540000  0.87500000  0.92755000  1.0 -0.126220314
C  C65  1  0.38040000  0.25540000  0.42755000  1.0 -0.126220314
C  C66  1  0.12500000  0.38040000  0.92755000  1.0 -0.126220314
C  C67  1  0.61960000  0.87500000  0.57245000  1.0 -0.126220314
C  C68  1  0.87500000  0.25540000  0.07245000  1.0 -0.126220314
C  C69  1  0.25540000  0.38040000  0.57245000  1.0 -0.126220314
C  C70  1  0.38040000  0.12500000  0.07245000  1.0 -0.126220314
C  C71  1  0.12500000  0.74460000  0.57245000  1.0 -0.126220314
C  C72  1  0.74460000  0.61960000  0.07245000  1.0 -0.126220314
C  C73  1  0.25540000  0.87500000  0.57245000  1.0 -0.126220314
C  C74  1  0.38040000  0.25540000  0.07245000  1.0 -0.126220314
C  C75  1  0.12500000  0.38040000  0.57245000  1.0 -0.126220314
C  C76  1  0.74460000  0.12500000  0.07245000  1.0 -0.126220314
C  C77  1  0.61960000  0.74460000  0.57245000  1.0 -0.126220314
C  C78  1  0.87500000  0.61960000  0.07245000  1.0 -0.126220314
C  C79  1  0.38040000  0.12500000  0.42755000  1.0 -0.126220314
C  C80  1  0.12500000  0.74460000  0.92755000  1.0 -0.126220314
C  C81  1  0.74460000  0.61960000  0.42755000  1.0 -0.126220314
C  C82  1  0.61960000  0.87500000  0.92755000  1.0 -0.126220314
C  C83  1  0.87500000  0.25540000  0.42755000  1.0 -0.126220314
C  C84  1  0.25540000  0.38040000  0.92755000  1.0 -0.126220314
C  C85  1  0.82200000  0.17800000  0.41240000  1.0 0.0713896928
C  C86  1  0.64400000  0.82200000  0.91240000  1.0 0.0713896928
C  C87  1  0.82200000  0.64400000  0.41240000  1.0 0.0713896928
C  C88  1  0.17800000  0.82200000  0.91240000  1.0 0.0713896928
C  C89  1  0.35600000  0.17800000  0.41240000  1.0 0.0713896928
C  C90  1  0.17800000  0.35600000  0.91240000  1.0 0.0713896928
C  C91  1  0.64400000  0.82200000  0.58760000  1.0 0.0713896928
C  C92  1  0.82200000  0.17800000  0.08760000  1.0 0.0713896928
C  C93  1  0.17800000  0.35600000  0.58760000  1.0 0.0713896928
C  C94  1  0.35600000  0.17800000  0.08760000  1.0 0.0713896928
C  C95  1  0.17800000  0.82200000  0.58760000  1.0 0.0713896928
C  C96  1  0.82200000  0.64400000  0.08760000  1.0 0.0713896928
C  C97  1  0.84600000  0.15400000  0.38200000  1.0 0.0713896928
C  C98  1  0.69200000  0.84600000  0.88200000  1.0 0.0756670167
C  C99  1  0.84600000  0.69200000  0.38200000  1.0 0.0756670167
C  C100  1  0.15400000  0.84600000  0.88200000  1.0 0.0756670167
C  C101  1  0.30800000  0.15400000  0.38200000  1.0 0.0713896928
C  C102  1  0.15400000  0.30800000  0.88200000  1.0 0.0756670167
C  C103  1  0.69200000  0.84600000  0.61800000  1.0 0.0756670167
C  C104  1  0.84600000  0.15400000  0.11800000  1.0 0.0713896928
C  C105  1  0.15400000  0.30800000  0.61800000  1.0 0.0756670167
C  C106  1  0.30800000  0.15400000  0.11800000  1.0 0.0713896928
C  C107  1  0.15400000  0.84600000  0.61800000  1.0 0.0756670167
C  C108  1  0.84600000  0.69200000  0.11800000  1.0 0.0756670167
C  C109  1  0.91680000  0.19730000  0.36940000  1.0 -0.1544854532
C  C110  1  0.71950000  0.91680000  0.86940000  1.0 -0.1544854532
C  C111  1  0.80270000  0.71950000  0.36940000  1.0 -0.1544854532
C  C112  1  0.08320000  0.80270000  0.86940000  1.0 -0.1551726456
C  C113  1  0.28050000  0.08320000  0.36940000  1.0 -0.1544854532
C  C114  1  0.19730000  0.28050000  0.86940000  1.0 -0.1544854532
C  C115  1  0.71950000  0.80270000  0.63060000  1.0 -0.1544854532
C  C116  1  0.80270000  0.08320000  0.13060000  1.0 -0.1544854532
C  C117  1  0.08320000  0.28050000  0.63060000  1.0 -0.1544854532
C  C118  1  0.28050000  0.19730000  0.13060000  1.0 -0.1544854532
C  C119  1  0.19730000  0.91680000  0.63060000  1.0 -0.1551726456
C  C120  1  0.91680000  0.71950000  0.13060000  1.0 -0.1544854532
C  C121  1  0.08320000  0.80270000  0.63060000  1.0 -0.1551726456
C  C122  1  0.28050000  0.08320000  0.13060000  1.0 -0.1544854532
C  C123  1  0.19730000  0.28050000  0.63060000  1.0 -0.1544854532
C  C124  1  0.91680000  0.19730000  0.13060000  1.0 -0.1544854532
C  C125  1  0.71950000  0.91680000  0.63060000  1.0 -0.1544854532
C  C126  1  0.80270000  0.71950000  0.13060000  1.0 -0.1544854532
C  C127  1  0.28050000  0.19730000  0.36940000  1.0 -0.1544854532
C  C128  1  0.19730000  0.91680000  0.86940000  1.0 -0.1551726456
C  C129  1  0.91680000  0.71950000  0.36940000  1.0 -0.1544854532
C  C130  1  0.71950000  0.80270000  0.86940000  1.0 -0.1544854532
C  C131  1  0.80270000  0.08320000  0.36940000  1.0 -0.1544854532
C  C132  1  0.08320000  0.28050000  0.86940000  1.0 -0.1544854532
C  C133  1  0.93950000  0.17310000  0.33720000  1.0 -0.0623904855
C  C134  1  0.76640000  0.93950000  0.83720000  1.0 -0.0623904855
C  C135  1  0.82690000  0.76640000  0.33720000  1.0 -0.0623904855
C  C136  1  0.06050000  0.82690000  0.83720000  1.0 -0.0623904855
C  C137  1  0.23360000  0.06050000  0.33720000  1.0 -0.0623904855
C  C138  1  0.17310000  0.23360000  0.83720000  1.0 -0.0623904855
C  C139  1  0.76640000  0.82690000  0.66280000  1.0 -0.0623904855
C  C140  1  0.82690000  0.06050000  0.16280000  1.0 -0.0623904855
C  C141  1  0.06050000  0.23360000  0.66280000  1.0 -0.0623904855
C  C142  1  0.23360000  0.17310000  0.16280000  1.0 -0.0623904855
C  C143  1  0.17310000  0.93950000  0.66280000  1.0 -0.0623904855
C  C144  1  0.93950000  0.76640000  0.16280000  1.0 -0.0623904855
C  C145  1  0.06050000  0.82690000  0.66280000  1.0 -0.0623904855
C  C146  1  0.23360000  0.06050000  0.16280000  1.0 -0.0623904855
C  C147  1  0.17310000  0.23360000  0.66280000  1.0 -0.0623904855
C  C148  1  0.93950000  0.17310000  0.16280000  1.0 -0.0623904855
C  C149  1  0.76640000  0.93950000  0.66280000  1.0 -0.0623904855
C  C150  1  0.82690000  0.76640000  0.16280000  1.0 -0.0623904855
C  C151  1  0.23360000  0.17310000  0.33720000  1.0 -0.0623904855
C  C152  1  0.17310000  0.93950000  0.83720000  1.0 -0.0623904855
C  C153  1  0.93950000  0.76640000  0.33720000  1.0 -0.0623904855
C  C154  1  0.76640000  0.82690000  0.83720000  1.0 -0.0623904855
C  C155  1  0.82690000  0.06050000  0.33720000  1.0 -0.0623904855
C  C156  1  0.06050000  0.23360000  0.83720000  1.0 -0.0623904855
C  C157  1  0.89610000  0.10390000  0.32400000  1.0 -0.047227749
C  C158  1  0.79220000  0.89610000  0.82400000  1.0 -0.047227749
C  C159  1  0.89610000  0.79220000  0.32400000  1.0 -0.047227749
C  C160  1  0.10390000  0.89610000  0.82400000  1.0 -0.047227749
C  C161  1  0.20780000  0.10390000  0.32400000  1.0 -0.047227749
C  C162  1  0.10390000  0.20780000  0.82400000  1.0 -0.047227749
C  C163  1  0.79220000  0.89610000  0.67600000  1.0 -0.047227749
C  C164  1  0.89610000  0.10390000  0.17600000  1.0 -0.047227749
C  C165  1  0.10390000  0.20780000  0.67600000  1.0 -0.047227749
C  C166  1  0.20780000  0.10390000  0.17600000  1.0 -0.047227749
C  C167  1  0.10390000  0.89610000  0.67600000  1.0 -0.047227749
C  C168  1  0.89610000  0.79220000  0.17600000  1.0 -0.047227749
C  C169  1  0.92320000  0.07680000  0.29570000  1.0 0.5000687345
C  C170  1  0.84640000  0.92320000  0.79570000  1.0 0.5000687345
C  C171  1  0.92320000  0.84640000  0.29570000  1.0 0.5000687345
C  C172  1  0.07680000  0.92320000  0.79570000  1.0 0.5000687345
C  C173  1  0.15360000  0.07680000  0.29570000  1.0 0.5000687345
C  C174  1  0.07680000  0.15360000  0.79570000  1.0 0.5000687345
C  C175  1  0.84640000  0.92320000  0.70430000  1.0 0.5000687345
C  C176  1  0.92320000  0.07680000  0.20430000  1.0 0.5000687345
C  C177  1  0.07680000  0.15360000  0.70430000  1.0 0.5000687345
C  C178  1  0.15360000  0.07680000  0.20430000  1.0 0.5000687345
C  C179  1  0.07680000  0.92320000  0.70430000  1.0 0.5000687345
C  C180  1  0.92320000  0.84640000  0.20430000  1.0 0.5000687345
O  O1  1  0.62820000  0.10970000  0.50233000  1.0 -0.5201985424
O  O2  1  0.51850000  0.62820000  0.00233000  1.0 -0.5201985424
O  O3  1  0.89030000  0.51850000  0.50233000  1.0 -0.5201985424
O  O4  1  0.37180000  0.89030000  0.00233000  1.0 -0.5201985424
O  O5  1  0.48150000  0.37180000  0.50233000  1.0 -0.5201985424
O  O6  1  0.10970000  0.48150000  0.00233000  1.0 -0.5201985424
O  O7  1  0.51850000  0.89030000  0.49767000  1.0 -0.5201985424
O  O8  1  0.89030000  0.37180000  0.99767000  1.0 -0.5201985424
O  O9  1  0.37180000  0.48150000  0.49767000  1.0 -0.5201985424
O  O10  1  0.48150000  0.10970000  0.99767000  1.0 -0.5201985424
O  O11  1  0.10970000  0.62820000  0.49767000  1.0 -0.5201985424
O  O12  1  0.62820000  0.51850000  0.99767000  1.0 -0.5201985424
O  O13  1  0.37180000  0.89030000  0.49767000  1.0 -0.5201985424
O  O14  1  0.48150000  0.37180000  0.99767000  1.0 -0.5201985424
O  O15  1  0.10970000  0.48150000  0.49767000  1.0 -0.5201985424
O  O16  1  0.62820000  0.10970000  0.99767000  1.0 -0.5201985424
O  O17  1  0.51850000  0.62820000  0.49767000  1.0 -0.5201985424
O  O18  1  0.89030000  0.51850000  0.99767000  1.0 -0.5201985424
O  O19  1  0.48150000  0.10970000  0.50233000  1.0 -0.5201985424
O  O20  1  0.10970000  0.62820000  0.00233000  1.0 -0.5201985424
O  O21  1  0.62820000  0.51850000  0.50233000  1.0 -0.5201985424
O  O22  1  0.51850000  0.89030000  0.00233000  1.0 -0.5201985424
O  O23  1  0.89030000  0.37180000  0.50233000  1.0 -0.5201985424
O  O24  1  0.37180000  0.48150000  0.00233000  1.0 -0.5201985424
O  O25  1  0.87780000  0.00950000  0.28475000  1.0 -0.4060361679
O  O26  1  0.86830000  0.87780000  0.78475000  1.0 -0.4060361679
O  O27  1  0.99050000  0.86830000  0.28475000  1.0 -0.4060361679
O  O28  1  0.12220000  0.99050000  0.78475000  1.0 -0.4060361679
O  O29  1  0.13170000  0.12220000  0.28475000  1.0 -0.4060361679
O  O30  1  0.00950000  0.13170000  0.78475000  1.0 -0.4060361679
O  O31  1  0.86830000  0.99050000  0.71525000  1.0 -0.4060361679
O  O32  1  0.99050000  0.12220000  0.21525000  1.0 -0.4060361679
O  O33  1  0.12220000  0.13170000  0.71525000  1.0 -0.4060361679
O  O34  1  0.13170000  0.00950000  0.21525000  1.0 -0.4060361679
O  O35  1  0.00950000  0.87780000  0.71525000  1.0 -0.4060361679
O  O36  1  0.87780000  0.86830000  0.21525000  1.0 -0.4060361679
O  O37  1  0.12220000  0.99050000  0.71525000  1.0 -0.4060361679
O  O38  1  0.13170000  0.12220000  0.21525000  1.0 -0.4060361679
O  O39  1  0.00950000  0.13170000  0.71525000  1.0 -0.4060361679
O  O40  1  0.87780000  0.00950000  0.21525000  1.0 -0.4060361679
O  O41  1  0.86830000  0.87780000  0.71525000  1.0 -0.4060361679
O  O42  1  0.99050000  0.86830000  0.21525000  1.0 -0.4060361679
O  O43  1  0.13170000  0.00950000  0.28475000  1.0 -0.4060361679
O  O44  1  0.00950000  0.87780000  0.78475000  1.0 -0.4060361679
O  O45  1  0.87780000  0.86830000  0.28475000  1.0 -0.4060361679
O  O46  1  0.86830000  0.99050000  0.78475000  1.0 -0.4060361679
O  O47  1  0.99050000  0.12220000  0.28475000  1.0 -0.4060361679
O  O48  1  0.12220000  0.13170000  0.78475000  1.0 -0.4060361679
O  O49  1  0.57145000  0.14290000  0.56660000  1.0 -0.1162858377
O  O50  1  0.42855000  0.57145000  0.06660000  1.0 -0.1094320256
O  O51  1  0.85710000  0.42855000  0.56660000  1.0 -0.1094320256
O  O52  1  0.42855000  0.85710000  0.06660000  1.0 -0.1094320256
O  O53  1  0.57145000  0.42855000  0.56660000  1.0 -0.1094320256
O  O54  1  0.14290000  0.57145000  0.06660000  1.0 -0.1094320256
O  O55  1  0.42855000  0.85710000  0.43340000  1.0 -0.1046899106
O  O56  1  0.85710000  0.42855000  0.93340000  1.0 -0.1094320256
O  O57  1  0.42855000  0.57145000  0.43340000  1.0 -0.1094320256
O  O58  1  0.57145000  0.14290000  0.93340000  1.0 -0.1094320256
O  O59  1  0.14290000  0.57145000  0.43340000  1.0 -0.1094320256
O  O60  1  0.57145000  0.42855000  0.93340000  1.0 -0.1094320256
O  O61  1  0.58850000  0.02640000  0.45668000  1.0 -0.5201985424
O  O62  1  0.56210000  0.58850000  0.95668000  1.0 -0.5201985424
O  O63  1  0.97360000  0.56210000  0.45668000  1.0 -0.5201985424
O  O64  1  0.41150000  0.97360000  0.95668000  1.0 -0.5252091582
O  O65  1  0.43790000  0.41150000  0.45668000  1.0 -0.5201985424
O  O66  1  0.02640000  0.43790000  0.95668000  1.0 -0.5252091582
O  O67  1  0.56210000  0.97360000  0.54332000  1.0 -0.5252091582
O  O68  1  0.97360000  0.41150000  0.04332000  1.0 -0.5201985424
O  O69  1  0.41150000  0.43790000  0.54332000  1.0 -0.5252091582
O  O70  1  0.43790000  0.02640000  0.04332000  1.0 -0.5201985424
O  O71  1  0.02640000  0.58850000  0.54332000  1.0 -0.5252091582
O  O72  1  0.58850000  0.56210000  0.04332000  1.0 -0.5201985424
O  O73  1  0.41150000  0.97360000  0.54332000  1.0 -0.5252091582
O  O74  1  0.43790000  0.41150000  0.04332000  1.0 -0.5201985424
O  O75  1  0.02640000  0.43790000  0.54332000  1.0 -0.5252091582
O  O76  1  0.58850000  0.02640000  0.04332000  1.0 -0.5201985424
O  O77  1  0.56210000  0.58850000  0.54332000  1.0 -0.5201985424
O  O78  1  0.97360000  0.56210000  0.04332000  1.0 -0.5201985424
O  O79  1  0.43790000  0.02640000  0.45668000  1.0 -0.5201985424
O  O80  1  0.02640000  0.58850000  0.95668000  1.0 -0.5252091582
O  O81  1  0.58850000  0.56210000  0.45668000  1.0 -0.5201985424
O  O82  1  0.56210000  0.97360000  0.95668000  1.0 -0.5252091582
O  O83  1  0.97360000  0.41150000  0.45668000  1.0 -0.5201985424
O  O84  1  0.41150000  0.43790000  0.95668000  1.0 -0.5252091582
