# DDEC6 charges by PACMAN v1.1 (https://github.com/mtap-research/PACMAN-charge/)
data_ULEGOH_ASR_pacman
_symmetry_space_group_name_H-M   'P 1'
_cell_length_a   29.04430000
_cell_length_b   29.04430000
_cell_length_c   29.04430000
_cell_angle_alpha   109.47100000
_cell_angle_beta   109.47100000
_cell_angle_gamma   109.47100000
_symmetry_Int_Tables_number   1
_chemical_formula_structural   CuH15C14NO3
_chemical_formula_sum   'Cu48 H720 C672 N48 O144'
_cell_volume   18860.98626142
_cell_formula_units_Z   48
loop_
 _symmetry_equiv_pos_site_id
 _symmetry_equiv_pos_as_xyz
  1  'x, y, z'
loop_
 _atom_site_type_symbol
 _atom_site_label
 _atom_site_symmetry_multiplicity
 _atom_site_fract_x
 _atom_site_fract_y
 _atom_site_fract_z
 _atom_site_occupancy
 _atom_site_charge
Cu  Cu1  1  0.01536000  0.92054000  0.22222000  1.0 0.7660865851
Cu  Cu2  1  0.22222000  0.01536000  0.92054000  1.0 0.7660865851
Cu  Cu3  1  0.92054000  0.22222000  0.01536000  1.0 0.7660865851
Cu  Cu4  1  0.70686000  0.30168000  0.22222000  1.0 0.7660865851
Cu  Cu5  1  0.79314000  0.01536000  0.59482000  1.0 0.7660865851
Cu  Cu6  1  0.92054000  0.19832000  0.90518000  1.0 0.7660865851
Cu  Cu7  1  0.19832000  0.90518000  0.92054000  1.0 0.7660865851
Cu  Cu8  1  0.01536000  0.59482000  0.79314000  1.0 0.7660865851
Cu  Cu9  1  0.30168000  0.22222000  0.70686000  1.0 0.7660865851
Cu  Cu10  1  0.59482000  0.79314000  0.01536000  1.0 0.7660865851
Cu  Cu11  1  0.90518000  0.92054000  0.19832000  1.0 0.7660865851
Cu  Cu12  1  0.22222000  0.70686000  0.30168000  1.0 0.7660865851
Cu  Cu13  1  0.57946000  0.48464000  0.27778000  1.0 0.7660865851
Cu  Cu14  1  0.48464000  0.27778000  0.57946000  1.0 0.7660865851
Cu  Cu15  1  0.27778000  0.57946000  0.48464000  1.0 0.7660865851
Cu  Cu16  1  0.80168000  0.20686000  0.72222000  1.0 0.7660865851
Cu  Cu17  1  0.69832000  0.42054000  0.40518000  1.0 0.7660865851
Cu  Cu18  1  0.51536000  0.29314000  0.09482000  1.0 0.7660865851
Cu  Cu19  1  0.72222000  0.80168000  0.20686000  1.0 0.7660865851
Cu  Cu20  1  0.40518000  0.69832000  0.42054000  1.0 0.7660865851
Cu  Cu21  1  0.09482000  0.51536000  0.29314000  1.0 0.7660865851
Cu  Cu22  1  0.20686000  0.72222000  0.80168000  1.0 0.7660865851
Cu  Cu23  1  0.42054000  0.40518000  0.69832000  1.0 0.7660865851
Cu  Cu24  1  0.29314000  0.09482000  0.51536000  1.0 0.7660865851
Cu  Cu25  1  0.42054000  0.51536000  0.72222000  1.0 0.7660865851
Cu  Cu26  1  0.51536000  0.72222000  0.42054000  1.0 0.7660865851
Cu  Cu27  1  0.72222000  0.42054000  0.51536000  1.0 0.7660865851
Cu  Cu28  1  0.98464000  0.07946000  0.77778000  1.0 0.7660865851
Cu  Cu29  1  0.77778000  0.98464000  0.07946000  1.0 0.7660865851
Cu  Cu30  1  0.07946000  0.77778000  0.98464000  1.0 0.7660865851
Cu  Cu31  1  0.29314000  0.69832000  0.77778000  1.0 0.7660865851
Cu  Cu32  1  0.20686000  0.98464000  0.40518000  1.0 0.7660865851
Cu  Cu33  1  0.07946000  0.80168000  0.09482000  1.0 0.7660865851
Cu  Cu34  1  0.80168000  0.09482000  0.07946000  1.0 0.7660865851
Cu  Cu35  1  0.98464000  0.40518000  0.20686000  1.0 0.7660865851
Cu  Cu36  1  0.69832000  0.77778000  0.29314000  1.0 0.7660865851
Cu  Cu37  1  0.40518000  0.20686000  0.98464000  1.0 0.7660865851
Cu  Cu38  1  0.09482000  0.07946000  0.80168000  1.0 0.7660865851
Cu  Cu39  1  0.77778000  0.29314000  0.69832000  1.0 0.7660865851
Cu  Cu40  1  0.19832000  0.79314000  0.27778000  1.0 0.7660865851
Cu  Cu41  1  0.30168000  0.57946000  0.59482000  1.0 0.7660865851
Cu  Cu42  1  0.48464000  0.70686000  0.90518000  1.0 0.7660865851
Cu  Cu43  1  0.27778000  0.19832000  0.79314000  1.0 0.7660865851
Cu  Cu44  1  0.59482000  0.30168000  0.57946000  1.0 0.7660865851
Cu  Cu45  1  0.90518000  0.48464000  0.70686000  1.0 0.7660865851
Cu  Cu46  1  0.79314000  0.27778000  0.19832000  1.0 0.7660865851
Cu  Cu47  1  0.57946000  0.59482000  0.30168000  1.0 0.7660865851
Cu  Cu48  1  0.70686000  0.90518000  0.48464000  1.0 0.7660865851
H  H1  1  0.86200000  0.83260000  0.07440000  1.0 0.1370583604
H  H2  1  0.07440000  0.86200000  0.83260000  1.0 0.1370583604
H  H3  1  0.83260000  0.07440000  0.86200000  1.0 0.1370583604
H  H4  1  0.71240000  0.24180000  0.07440000  1.0 0.1370583604
H  H5  1  0.78760000  0.86200000  0.52940000  1.0 0.1370583604
H  H6  1  0.83260000  0.25820000  0.97060000  1.0 0.1370583604
H  H7  1  0.25820000  0.97060000  0.83260000  1.0 0.1370583604
H  H8  1  0.86200000  0.52940000  0.78760000  1.0 0.1370583604
H  H9  1  0.24180000  0.07440000  0.71240000  1.0 0.1370583604
H  H10  1  0.52940000  0.78760000  0.86200000  1.0 0.1370583604
H  H11  1  0.97060000  0.83260000  0.25820000  1.0 0.1370583604
H  H12  1  0.07440000  0.71240000  0.24180000  1.0 0.1370583604
H  H13  1  0.66740000  0.63800000  0.42560000  1.0 0.1370583604
H  H14  1  0.63800000  0.42560000  0.66740000  1.0 0.1370583604
H  H15  1  0.42560000  0.66740000  0.63800000  1.0 0.1370583604
H  H16  1  0.74180000  0.21240000  0.57440000  1.0 0.1370583604
H  H17  1  0.75820000  0.33260000  0.47060000  1.0 0.1370583604
H  H18  1  0.36200000  0.28760000  0.02940000  1.0 0.1370583604
H  H19  1  0.57440000  0.74180000  0.21240000  1.0 0.1370583604
H  H20  1  0.47060000  0.75820000  0.33260000  1.0 0.1370583604
H  H21  1  0.02940000  0.36200000  0.28760000  1.0 0.1370583604
H  H22  1  0.21240000  0.57440000  0.74180000  1.0 0.1370583604
H  H23  1  0.33260000  0.47060000  0.75820000  1.0 0.1370583604
H  H24  1  0.28760000  0.02940000  0.36200000  1.0 0.1370583604
H  H25  1  0.33260000  0.36200000  0.57440000  1.0 0.1370583604
H  H26  1  0.36200000  0.57440000  0.33260000  1.0 0.1370583604
H  H27  1  0.57440000  0.33260000  0.36200000  1.0 0.1370583604
H  H28  1  0.13800000  0.16740000  0.92560000  1.0 0.1370583604
H  H29  1  0.92560000  0.13800000  0.16740000  1.0 0.1370583604
H  H30  1  0.16740000  0.92560000  0.13800000  1.0 0.1370583604
H  H31  1  0.28760000  0.75820000  0.92560000  1.0 0.1370583604
H  H32  1  0.21240000  0.13800000  0.47060000  1.0 0.1370583604
H  H33  1  0.16740000  0.74180000  0.02940000  1.0 0.1370583604
H  H34  1  0.74180000  0.02940000  0.16740000  1.0 0.1370583604
H  H35  1  0.13800000  0.47060000  0.21240000  1.0 0.1370583604
H  H36  1  0.75820000  0.92560000  0.28760000  1.0 0.1370583604
H  H37  1  0.47060000  0.21240000  0.13800000  1.0 0.1370583604
H  H38  1  0.02940000  0.16740000  0.74180000  1.0 0.1370583604
H  H39  1  0.92560000  0.28760000  0.75820000  1.0 0.1370583604
H  H40  1  0.25820000  0.78760000  0.42560000  1.0 0.1370583604
H  H41  1  0.24180000  0.66740000  0.52940000  1.0 0.1370583604
H  H42  1  0.63800000  0.71240000  0.97060000  1.0 0.1370583604
H  H43  1  0.42560000  0.25820000  0.78760000  1.0 0.1370583604
H  H44  1  0.52940000  0.24180000  0.66740000  1.0 0.1370583604
H  H45  1  0.97060000  0.63800000  0.71240000  1.0 0.1370583604
H  H46  1  0.78760000  0.42560000  0.25820000  1.0 0.1370583604
H  H47  1  0.66740000  0.52940000  0.24180000  1.0 0.1370583604
H  H48  1  0.71240000  0.97060000  0.63800000  1.0 0.1370583604
H  H49  1  0.84930000  0.79030000  0.98480000  1.0 0.0996097012
H  H50  1  0.98480000  0.84930000  0.79030000  1.0 0.0996097012
H  H51  1  0.79030000  0.98480000  0.84930000  1.0 0.0996097012
H  H52  1  0.63550000  0.19450000  0.98480000  1.0 0.0996097012
H  H53  1  0.86450000  0.84930000  0.55900000  1.0 0.0996097012
H  H54  1  0.79030000  0.30550000  0.94100000  1.0 0.0996097012
H  H55  1  0.30550000  0.94100000  0.79030000  1.0 0.0996097012
H  H56  1  0.84930000  0.55900000  0.86450000  1.0 0.0996097012
H  H57  1  0.19450000  0.98480000  0.63550000  1.0 0.0996097012
H  H58  1  0.55900000  0.86450000  0.84930000  1.0 0.0996097012
H  H59  1  0.94100000  0.79030000  0.30550000  1.0 0.0996097012
H  H60  1  0.98480000  0.63550000  0.19450000  1.0 0.0996097012
H  H61  1  0.70970000  0.65070000  0.51520000  1.0 0.0996097012
H  H62  1  0.65070000  0.51520000  0.70970000  1.0 0.0996097012
H  H63  1  0.51520000  0.70970000  0.65070000  1.0 0.0996097012
H  H64  1  0.69450000  0.13550000  0.48480000  1.0 0.0996097012
H  H65  1  0.80550000  0.29030000  0.44100000  1.0 0.0996097012
H  H66  1  0.34930000  0.36450000  0.05900000  1.0 0.0996097012
H  H67  1  0.48480000  0.69450000  0.13550000  1.0 0.0996097012
H  H68  1  0.44100000  0.80550000  0.29030000  1.0 0.0996097012
H  H69  1  0.05900000  0.34930000  0.36450000  1.0 0.0996097012
H  H70  1  0.13550000  0.48480000  0.69450000  1.0 0.0996097012
H  H71  1  0.29030000  0.44100000  0.80550000  1.0 0.0996097012
H  H72  1  0.36450000  0.05900000  0.34930000  1.0 0.0996097012
H  H73  1  0.29030000  0.34930000  0.48480000  1.0 0.0996097012
H  H74  1  0.34930000  0.48480000  0.29030000  1.0 0.0996097012
H  H75  1  0.48480000  0.29030000  0.34930000  1.0 0.0996097012
H  H76  1  0.15070000  0.20970000  0.01520000  1.0 0.0996097012
H  H77  1  0.01520000  0.15070000  0.20970000  1.0 0.0996097012
H  H78  1  0.20970000  0.01520000  0.15070000  1.0 0.0996097012
H  H79  1  0.36450000  0.80550000  0.01520000  1.0 0.0996097012
H  H80  1  0.13550000  0.15070000  0.44100000  1.0 0.0996097012
H  H81  1  0.20970000  0.69450000  0.05900000  1.0 0.0996097012
H  H82  1  0.69450000  0.05900000  0.20970000  1.0 0.0996097012
H  H83  1  0.15070000  0.44100000  0.13550000  1.0 0.0996097012
H  H84  1  0.80550000  0.01520000  0.36450000  1.0 0.0996097012
H  H85  1  0.44100000  0.13550000  0.15070000  1.0 0.0996097012
H  H86  1  0.05900000  0.20970000  0.69450000  1.0 0.0996097012
H  H87  1  0.01520000  0.36450000  0.80550000  1.0 0.0996097012
H  H88  1  0.30550000  0.86450000  0.51520000  1.0 0.0996097012
H  H89  1  0.19450000  0.70970000  0.55900000  1.0 0.0996097012
H  H90  1  0.65070000  0.63550000  0.94100000  1.0 0.0996097012
H  H91  1  0.51520000  0.30550000  0.86450000  1.0 0.0996097012
H  H92  1  0.55900000  0.19450000  0.70970000  1.0 0.0996097012
H  H93  1  0.94100000  0.65070000  0.63550000  1.0 0.0996097012
H  H94  1  0.86450000  0.51520000  0.30550000  1.0 0.0996097012
H  H95  1  0.70970000  0.55900000  0.19450000  1.0 0.0996097012
H  H96  1  0.63550000  0.94100000  0.65070000  1.0 0.0996097012
H  H97  1  0.92350000  0.82380000  0.96850000  1.0 0.1118575725
H  H98  1  0.96850000  0.92350000  0.82380000  1.0 0.1118575725
H  H99  1  0.82380000  0.96850000  0.92350000  1.0 0.1118575725
H  H100  1  0.54500000  0.14470000  0.96850000  1.0 0.1118575725
H  H101  1  0.95500000  0.92350000  0.59970000  1.0 0.1118575725
H  H102  1  0.82380000  0.35530000  0.90030000  1.0 0.1118575725
H  H103  1  0.35530000  0.90030000  0.82380000  1.0 0.1118575725
H  H104  1  0.92350000  0.59970000  0.95500000  1.0 0.1118575725
H  H105  1  0.14470000  0.96850000  0.54500000  1.0 0.1118575725
H  H106  1  0.59970000  0.95500000  0.92350000  1.0 0.1118575725
H  H107  1  0.90030000  0.82380000  0.35530000  1.0 0.1118575725
H  H108  1  0.96850000  0.54500000  0.14470000  1.0 0.1118575725
H  H109  1  0.67620000  0.57650000  0.53150000  1.0 0.1118575725
H  H110  1  0.57650000  0.53150000  0.67620000  1.0 0.1118575725
H  H111  1  0.53150000  0.67620000  0.57650000  1.0 0.1118575725
H  H112  1  0.64470000  0.04500000  0.46850000  1.0 0.1118575725
H  H113  1  0.85530000  0.32380000  0.40030000  1.0 0.1118575725
H  H114  1  0.42350000  0.45500000  0.09970000  1.0 0.1118575725
H  H115  1  0.46850000  0.64470000  0.04500000  1.0 0.1118575725
H  H116  1  0.40030000  0.85530000  0.32380000  1.0 0.1118575725
H  H117  1  0.09970000  0.42350000  0.45500000  1.0 0.1118575725
H  H118  1  0.04500000  0.46850000  0.64470000  1.0 0.1118575725
H  H119  1  0.32380000  0.40030000  0.85530000  1.0 0.1118575725
H  H120  1  0.45500000  0.09970000  0.42350000  1.0 0.1118575725
H  H121  1  0.32380000  0.42350000  0.46850000  1.0 0.1118575725
H  H122  1  0.42350000  0.46850000  0.32380000  1.0 0.1118575725
H  H123  1  0.46850000  0.32380000  0.42350000  1.0 0.1118575725
H  H124  1  0.07650000  0.17620000  0.03150000  1.0 0.1118575725
H  H125  1  0.03150000  0.07650000  0.17620000  1.0 0.1118575725
H  H126  1  0.17620000  0.03150000  0.07650000  1.0 0.1118575725
H  H127  1  0.45500000  0.85530000  0.03150000  1.0 0.1118575725
H  H128  1  0.04500000  0.07650000  0.40030000  1.0 0.1118575725
H  H129  1  0.17620000  0.64470000  0.09970000  1.0 0.1118575725
H  H130  1  0.64470000  0.09970000  0.17620000  1.0 0.1118575725
H  H131  1  0.07650000  0.40030000  0.04500000  1.0 0.1118575725
H  H132  1  0.85530000  0.03150000  0.45500000  1.0 0.1118575725
H  H133  1  0.40030000  0.04500000  0.07650000  1.0 0.1118575725
H  H134  1  0.09970000  0.17620000  0.64470000  1.0 0.1118575725
H  H135  1  0.03150000  0.45500000  0.85530000  1.0 0.1118575725
H  H136  1  0.35530000  0.95500000  0.53150000  1.0 0.1118575725
H  H137  1  0.14470000  0.67620000  0.59970000  1.0 0.1118575725
H  H138  1  0.57650000  0.54500000  0.90030000  1.0 0.1118575725
H  H139  1  0.53150000  0.35530000  0.95500000  1.0 0.1118575725
H  H140  1  0.59970000  0.14470000  0.67620000  1.0 0.1118575725
H  H141  1  0.90030000  0.57650000  0.54500000  1.0 0.1118575725
H  H142  1  0.95500000  0.53150000  0.35530000  1.0 0.1118575725
H  H143  1  0.67620000  0.59970000  0.14470000  1.0 0.1118575725
H  H144  1  0.54500000  0.90030000  0.57650000  1.0 0.1118575725
H  H145  1  0.01060000  0.89980000  0.04260000  1.0 0.1118575725
H  H146  1  0.04260000  0.01060000  0.89980000  1.0 0.1118575725
H  H147  1  0.89980000  0.04260000  0.01060000  1.0 0.1118575725
H  H148  1  0.53200000  0.14280000  0.04260000  1.0 0.1118575725
H  H149  1  0.96800000  0.01060000  0.61080000  1.0 0.1118575725
H  H150  1  0.89980000  0.35720000  0.88920000  1.0 0.1118575725
H  H151  1  0.35720000  0.88920000  0.89980000  1.0 0.1118575725
H  H152  1  0.01060000  0.61080000  0.96800000  1.0 0.1118575725
H  H153  1  0.14280000  0.04260000  0.53200000  1.0 0.1118575725
H  H154  1  0.61080000  0.96800000  0.01060000  1.0 0.1118575725
H  H155  1  0.88920000  0.89980000  0.35720000  1.0 0.1118575725
H  H156  1  0.04260000  0.53200000  0.14280000  1.0 0.1118575725
H  H157  1  0.60020000  0.48940000  0.45740000  1.0 0.1118575725
H  H158  1  0.48940000  0.45740000  0.60020000  1.0 0.1118575725
H  H159  1  0.45740000  0.60020000  0.48940000  1.0 0.1118575725
H  H160  1  0.64280000  0.03200000  0.54260000  1.0 0.1118575725
H  H161  1  0.85720000  0.39980000  0.38920000  1.0 0.1118575725
H  H162  1  0.51060000  0.46800000  0.11080000  1.0 0.1118575725
H  H163  1  0.54260000  0.64280000  0.03200000  1.0 0.1118575725
H  H164  1  0.38920000  0.85720000  0.39980000  1.0 0.1118575725
H  H165  1  0.11080000  0.51060000  0.46800000  1.0 0.1118575725
H  H166  1  0.03200000  0.54260000  0.64280000  1.0 0.1118575725
H  H167  1  0.39980000  0.38920000  0.85720000  1.0 0.1118575725
H  H168  1  0.46800000  0.11080000  0.51060000  1.0 0.1118575725
H  H169  1  0.39980000  0.51060000  0.54260000  1.0 0.1118575725
H  H170  1  0.51060000  0.54260000  0.39980000  1.0 0.1118575725
H  H171  1  0.54260000  0.39980000  0.51060000  1.0 0.1118575725
H  H172  1  0.98940000  0.10020000  0.95740000  1.0 0.1118575725
H  H173  1  0.95740000  0.98940000  0.10020000  1.0 0.1118575725
H  H174  1  0.10020000  0.95740000  0.98940000  1.0 0.1118575725
H  H175  1  0.46800000  0.85720000  0.95740000  1.0 0.1118575725
H  H176  1  0.03200000  0.98940000  0.38920000  1.0 0.1118575725
H  H177  1  0.10020000  0.64280000  0.11080000  1.0 0.1118575725
H  H178  1  0.64280000  0.11080000  0.10020000  1.0 0.1118575725
H  H179  1  0.98940000  0.38920000  0.03200000  1.0 0.1118575725
H  H180  1  0.85720000  0.95740000  0.46800000  1.0 0.1118575725
H  H181  1  0.38920000  0.03200000  0.98940000  1.0 0.1118575725
H  H182  1  0.11080000  0.10020000  0.64280000  1.0 0.1118575725
H  H183  1  0.95740000  0.46800000  0.85720000  1.0 0.1118575725
H  H184  1  0.35720000  0.96800000  0.45740000  1.0 0.1118575725
H  H185  1  0.14280000  0.60020000  0.61080000  1.0 0.1118575725
H  H186  1  0.48940000  0.53200000  0.88920000  1.0 0.1118575725
H  H187  1  0.45740000  0.35720000  0.96800000  1.0 0.1118575725
H  H188  1  0.61080000  0.14280000  0.60020000  1.0 0.1118575725
H  H189  1  0.88920000  0.48940000  0.53200000  1.0 0.1118575725
H  H190  1  0.96800000  0.45740000  0.35720000  1.0 0.1118575725
H  H191  1  0.60020000  0.61080000  0.14280000  1.0 0.1118575725
H  H192  1  0.53200000  0.88920000  0.48940000  1.0 0.1118575725
H  H193  1  0.07150000  0.97240000  0.13790000  1.0 0.1118575725
H  H194  1  0.13790000  0.07150000  0.97240000  1.0 0.1118575725
H  H195  1  0.97240000  0.13790000  0.07150000  1.0 0.1118575725
H  H196  1  0.56640000  0.16550000  0.13790000  1.0 0.1118575725
H  H197  1  0.93360000  0.07150000  0.59910000  1.0 0.1118575725
H  H198  1  0.97240000  0.33450000  0.90090000  1.0 0.1118575725
H  H199  1  0.33450000  0.90090000  0.97240000  1.0 0.1118575725
H  H200  1  0.07150000  0.59910000  0.93360000  1.0 0.1118575725
H  H201  1  0.16550000  0.13790000  0.56640000  1.0 0.1118575725
H  H202  1  0.59910000  0.93360000  0.07150000  1.0 0.1118575725
H  H203  1  0.90090000  0.97240000  0.33450000  1.0 0.1118575725
H  H204  1  0.13790000  0.56640000  0.16550000  1.0 0.1118575725
H  H205  1  0.52760000  0.42850000  0.36210000  1.0 0.1118575725
H  H206  1  0.42850000  0.36210000  0.52760000  1.0 0.1118575725
H  H207  1  0.36210000  0.52760000  0.42850000  1.0 0.1118575725
H  H208  1  0.66550000  0.06640000  0.63790000  1.0 0.1118575725
H  H209  1  0.83450000  0.47240000  0.40090000  1.0 0.1118575725
H  H210  1  0.57150000  0.43360000  0.09910000  1.0 0.1118575725
H  H211  1  0.63790000  0.66550000  0.06640000  1.0 0.1118575725
H  H212  1  0.40090000  0.83450000  0.47240000  1.0 0.1118575725
H  H213  1  0.09910000  0.57150000  0.43360000  1.0 0.1118575725
H  H214  1  0.06640000  0.63790000  0.66550000  1.0 0.1118575725
H  H215  1  0.47240000  0.40090000  0.83450000  1.0 0.1118575725
H  H216  1  0.43360000  0.09910000  0.57150000  1.0 0.1118575725
H  H217  1  0.47240000  0.57150000  0.63790000  1.0 0.1118575725
H  H218  1  0.57150000  0.63790000  0.47240000  1.0 0.1118575725
H  H219  1  0.63790000  0.47240000  0.57150000  1.0 0.1118575725
H  H220  1  0.92850000  0.02760000  0.86210000  1.0 0.1118575725
H  H221  1  0.86210000  0.92850000  0.02760000  1.0 0.1118575725
H  H222  1  0.02760000  0.86210000  0.92850000  1.0 0.1118575725
H  H223  1  0.43360000  0.83450000  0.86210000  1.0 0.1118575725
H  H224  1  0.06640000  0.92850000  0.40090000  1.0 0.1118575725
H  H225  1  0.02760000  0.66550000  0.09910000  1.0 0.1118575725
H  H226  1  0.66550000  0.09910000  0.02760000  1.0 0.1118575725
H  H227  1  0.92850000  0.40090000  0.06640000  1.0 0.1118575725
H  H228  1  0.83450000  0.86210000  0.43360000  1.0 0.1118575725
H  H229  1  0.40090000  0.06640000  0.92850000  1.0 0.1118575725
H  H230  1  0.09910000  0.02760000  0.66550000  1.0 0.1118575725
H  H231  1  0.86210000  0.43360000  0.83450000  1.0 0.1118575725
H  H232  1  0.33450000  0.93360000  0.36210000  1.0 0.1118575725
H  H233  1  0.16550000  0.52760000  0.59910000  1.0 0.1118575725
H  H234  1  0.42850000  0.56640000  0.90090000  1.0 0.1118575725
H  H235  1  0.36210000  0.33450000  0.93360000  1.0 0.1118575725
H  H236  1  0.59910000  0.16550000  0.52760000  1.0 0.1118575725
H  H237  1  0.90090000  0.42850000  0.56640000  1.0 0.1118575725
H  H238  1  0.93360000  0.36210000  0.33450000  1.0 0.1118575725
H  H239  1  0.52760000  0.59910000  0.16550000  1.0 0.1118575725
H  H240  1  0.56640000  0.90090000  0.42850000  1.0 0.1118575725
H  H241  1  0.03940000  0.99530000  0.16550000  1.0 0.0996097012
H  H242  1  0.16550000  0.03940000  0.99530000  1.0 0.0996097012
H  H243  1  0.99530000  0.16550000  0.03940000  1.0 0.0996097012
H  H244  1  0.62610000  0.17020000  0.16550000  1.0 0.0996097012
H  H245  1  0.87390000  0.03940000  0.54410000  1.0 0.0996097012
H  H246  1  0.99530000  0.32980000  0.95590000  1.0 0.0996097012
H  H247  1  0.32980000  0.95590000  0.99530000  1.0 0.0996097012
H  H248  1  0.03940000  0.54410000  0.87390000  1.0 0.0996097012
H  H249  1  0.17020000  0.16550000  0.62610000  1.0 0.0996097012
H  H250  1  0.54410000  0.87390000  0.03940000  1.0 0.0996097012
H  H251  1  0.95590000  0.99530000  0.32980000  1.0 0.0996097012
H  H252  1  0.16550000  0.62610000  0.17020000  1.0 0.0996097012
H  H253  1  0.50470000  0.46060000  0.33450000  1.0 0.0996097012
H  H254  1  0.46060000  0.33450000  0.50470000  1.0 0.0996097012
H  H255  1  0.33450000  0.50470000  0.46060000  1.0 0.0996097012
H  H256  1  0.67020000  0.12610000  0.66550000  1.0 0.0996097012
H  H257  1  0.82980000  0.49530000  0.45590000  1.0 0.0996097012
H  H258  1  0.53940000  0.37390000  0.04410000  1.0 0.0996097012
H  H259  1  0.66550000  0.67020000  0.12610000  1.0 0.0996097012
H  H260  1  0.45590000  0.82980000  0.49530000  1.0 0.0996097012
H  H261  1  0.04410000  0.53940000  0.37390000  1.0 0.0996097012
H  H262  1  0.12610000  0.66550000  0.67020000  1.0 0.0996097012
H  H263  1  0.49530000  0.45590000  0.82980000  1.0 0.0996097012
H  H264  1  0.37390000  0.04410000  0.53940000  1.0 0.0996097012
H  H265  1  0.49530000  0.53940000  0.66550000  1.0 0.0996097012
H  H266  1  0.53940000  0.66550000  0.49530000  1.0 0.0996097012
H  H267  1  0.66550000  0.49530000  0.53940000  1.0 0.0996097012
H  H268  1  0.96060000  0.00470000  0.83450000  1.0 0.0996097012
H  H269  1  0.83450000  0.96060000  0.00470000  1.0 0.0996097012
H  H270  1  0.00470000  0.83450000  0.96060000  1.0 0.0996097012
H  H271  1  0.37390000  0.82980000  0.83450000  1.0 0.0996097012
H  H272  1  0.12610000  0.96060000  0.45590000  1.0 0.0996097012
H  H273  1  0.00470000  0.67020000  0.04410000  1.0 0.0996097012
H  H274  1  0.67020000  0.04410000  0.00470000  1.0 0.0996097012
H  H275  1  0.96060000  0.45590000  0.12610000  1.0 0.0996097012
H  H276  1  0.82980000  0.83450000  0.37390000  1.0 0.0996097012
H  H277  1  0.45590000  0.12610000  0.96060000  1.0 0.0996097012
H  H278  1  0.04410000  0.00470000  0.67020000  1.0 0.0996097012
H  H279  1  0.83450000  0.37390000  0.82980000  1.0 0.0996097012
H  H280  1  0.32980000  0.87390000  0.33450000  1.0 0.0996097012
H  H281  1  0.17020000  0.50470000  0.54410000  1.0 0.0996097012
H  H282  1  0.46060000  0.62610000  0.95590000  1.0 0.0996097012
H  H283  1  0.33450000  0.32980000  0.87390000  1.0 0.0996097012
H  H284  1  0.54410000  0.17020000  0.50470000  1.0 0.0996097012
H  H285  1  0.95590000  0.46060000  0.62610000  1.0 0.0996097012
H  H286  1  0.87390000  0.33450000  0.32980000  1.0 0.0996097012
H  H287  1  0.50470000  0.54410000  0.17020000  1.0 0.0996097012
H  H288  1  0.62610000  0.95590000  0.46060000  1.0 0.0996097012
H  H289  1  0.07610000  0.92770000  0.18660000  1.0 0.2607331231
H  H290  1  0.18660000  0.07610000  0.92770000  1.0 0.2607331231
H  H291  1  0.92770000  0.18660000  0.07610000  1.0 0.2607331231
H  H292  1  0.61050000  0.25890000  0.18660000  1.0 0.2607331231
H  H293  1  0.88950000  0.07610000  0.64840000  1.0 0.2607331231
H  H294  1  0.92770000  0.24110000  0.85160000  1.0 0.2607331231
H  H295  1  0.24110000  0.85160000  0.92770000  1.0 0.2607331231
H  H296  1  0.07610000  0.64840000  0.88950000  1.0 0.2607331231
H  H297  1  0.25890000  0.18660000  0.61050000  1.0 0.2607331231
H  H298  1  0.64840000  0.88950000  0.07610000  1.0 0.2607331231
H  H299  1  0.85160000  0.92770000  0.24110000  1.0 0.2607331231
H  H300  1  0.18660000  0.61050000  0.25890000  1.0 0.2607331231
H  H301  1  0.57230000  0.42390000  0.31340000  1.0 0.2607331231
H  H302  1  0.42390000  0.31340000  0.57230000  1.0 0.2607331231
H  H303  1  0.31340000  0.57230000  0.42390000  1.0 0.2607331231
H  H304  1  0.75890000  0.11050000  0.68660000  1.0 0.2607331231
H  H305  1  0.74110000  0.42770000  0.35160000  1.0 0.2607331231
H  H306  1  0.57610000  0.38950000  0.14840000  1.0 0.2607331231
H  H307  1  0.68660000  0.75890000  0.11050000  1.0 0.2607331231
H  H308  1  0.35160000  0.74110000  0.42770000  1.0 0.2607331231
H  H309  1  0.14840000  0.57610000  0.38950000  1.0 0.2607331231
H  H310  1  0.11050000  0.68660000  0.75890000  1.0 0.2607331231
H  H311  1  0.42770000  0.35160000  0.74110000  1.0 0.2607331231
H  H312  1  0.38950000  0.14840000  0.57610000  1.0 0.2607331231
H  H313  1  0.42770000  0.57610000  0.68660000  1.0 0.2607331231
H  H314  1  0.57610000  0.68660000  0.42770000  1.0 0.2607331231
H  H315  1  0.68660000  0.42770000  0.57610000  1.0 0.2607331231
H  H316  1  0.92390000  0.07230000  0.81340000  1.0 0.2607331231
H  H317  1  0.81340000  0.92390000  0.07230000  1.0 0.2607331231
H  H318  1  0.07230000  0.81340000  0.92390000  1.0 0.2607331231
H  H319  1  0.38950000  0.74110000  0.81340000  1.0 0.2607331231
H  H320  1  0.11050000  0.92390000  0.35160000  1.0 0.2607331231
H  H321  1  0.07230000  0.75890000  0.14840000  1.0 0.2607331231
H  H322  1  0.75890000  0.14840000  0.07230000  1.0 0.2607331231
H  H323  1  0.92390000  0.35160000  0.11050000  1.0 0.2607331231
H  H324  1  0.74110000  0.81340000  0.38950000  1.0 0.2607331231
H  H325  1  0.35160000  0.11050000  0.92390000  1.0 0.2607331231
H  H326  1  0.14840000  0.07230000  0.75890000  1.0 0.2607331231
H  H327  1  0.81340000  0.38950000  0.74110000  1.0 0.2607331231
H  H328  1  0.24110000  0.88950000  0.31340000  1.0 0.2607331231
H  H329  1  0.25890000  0.57230000  0.64840000  1.0 0.2607331231
H  H330  1  0.42390000  0.61050000  0.85160000  1.0 0.2607331231
H  H331  1  0.31340000  0.24110000  0.88950000  1.0 0.2607331231
H  H332  1  0.64840000  0.25890000  0.57230000  1.0 0.2607331231
H  H333  1  0.85160000  0.42390000  0.61050000  1.0 0.2607331231
H  H334  1  0.88950000  0.31340000  0.24110000  1.0 0.2607331231
H  H335  1  0.57230000  0.64840000  0.25890000  1.0 0.2607331231
H  H336  1  0.61050000  0.85160000  0.42390000  1.0 0.2607331231
H  H337  1  0.19650000  0.00580000  0.25630000  1.0 0.1271676154
H  H338  1  0.25630000  0.19650000  0.00580000  1.0 0.1271676154
H  H339  1  0.00580000  0.25630000  0.19650000  1.0 0.1271676154
H  H340  1  0.55980000  0.25050000  0.25630000  1.0 0.1271676154
H  H341  1  0.94020000  0.19650000  0.69070000  1.0 0.1271676154
H  H342  1  0.00580000  0.24950000  0.80930000  1.0 0.1271676154
H  H343  1  0.24950000  0.80930000  0.00580000  1.0 0.1271676154
H  H344  1  0.19650000  0.69070000  0.94020000  1.0 0.1271676154
H  H345  1  0.25050000  0.25630000  0.55980000  1.0 0.1271676154
H  H346  1  0.69070000  0.94020000  0.19650000  1.0 0.1271676154
H  H347  1  0.80930000  0.00580000  0.24950000  1.0 0.1271676154
H  H348  1  0.25630000  0.55980000  0.25050000  1.0 0.1271676154
H  H349  1  0.49420000  0.30350000  0.24370000  1.0 0.1271676154
H  H350  1  0.30350000  0.24370000  0.49420000  1.0 0.1271676154
H  H351  1  0.24370000  0.49420000  0.30350000  1.0 0.1271676154
H  H352  1  0.75050000  0.05980000  0.75630000  1.0 0.1271676154
H  H353  1  0.74950000  0.50580000  0.30930000  1.0 0.1271676154
H  H354  1  0.69650000  0.44020000  0.19070000  1.0 0.1271676154
H  H355  1  0.75630000  0.75050000  0.05980000  1.0 0.1271676154
H  H356  1  0.30930000  0.74950000  0.50580000  1.0 0.1271676154
H  H357  1  0.19070000  0.69650000  0.44020000  1.0 0.1271676154
H  H358  1  0.05980000  0.75630000  0.75050000  1.0 0.1271676154
H  H359  1  0.50580000  0.30930000  0.74950000  1.0 0.1271676154
H  H360  1  0.44020000  0.19070000  0.69650000  1.0 0.1271676154
H  H361  1  0.50580000  0.69650000  0.75630000  1.0 0.1271676154
H  H362  1  0.69650000  0.75630000  0.50580000  1.0 0.1271676154
H  H363  1  0.75630000  0.50580000  0.69650000  1.0 0.1271676154
H  H364  1  0.80350000  0.99420000  0.74370000  1.0 0.1271676154
H  H365  1  0.74370000  0.80350000  0.99420000  1.0 0.1271676154
H  H366  1  0.99420000  0.74370000  0.80350000  1.0 0.1271676154
H  H367  1  0.44020000  0.74950000  0.74370000  1.0 0.1271676154
H  H368  1  0.05980000  0.80350000  0.30930000  1.0 0.1271676154
H  H369  1  0.99420000  0.75050000  0.19070000  1.0 0.1271676154
H  H370  1  0.75050000  0.19070000  0.99420000  1.0 0.1271676154
H  H371  1  0.80350000  0.30930000  0.05980000  1.0 0.1271676154
H  H372  1  0.74950000  0.74370000  0.44020000  1.0 0.1271676154
H  H373  1  0.30930000  0.05980000  0.80350000  1.0 0.1271676154
H  H374  1  0.19070000  0.99420000  0.75050000  1.0 0.1271676154
H  H375  1  0.74370000  0.44020000  0.74950000  1.0 0.1271676154
H  H376  1  0.24950000  0.94020000  0.24370000  1.0 0.1271676154
H  H377  1  0.25050000  0.49420000  0.69070000  1.0 0.1271676154
H  H378  1  0.30350000  0.55980000  0.80930000  1.0 0.1271676154
H  H379  1  0.24370000  0.24950000  0.94020000  1.0 0.1271676154
H  H380  1  0.69070000  0.25050000  0.49420000  1.0 0.1271676154
H  H381  1  0.80930000  0.30350000  0.55980000  1.0 0.1271676154
H  H382  1  0.94020000  0.24370000  0.24950000  1.0 0.1271676154
H  H383  1  0.49420000  0.69070000  0.25050000  1.0 0.1271676154
H  H384  1  0.55980000  0.80930000  0.30350000  1.0 0.1271676154
H  H385  1  0.16100000  0.01010000  0.20430000  1.0 0.0996097012
H  H386  1  0.20430000  0.16100000  0.01010000  1.0 0.0996097012
H  H387  1  0.01010000  0.20430000  0.16100000  1.0 0.0996097012
H  H388  1  0.54330000  0.19420000  0.20430000  1.0 0.0996097012
H  H389  1  0.95670000  0.16100000  0.65090000  1.0 0.0996097012
H  H390  1  0.01010000  0.30580000  0.84910000  1.0 0.0996097012
H  H391  1  0.30580000  0.84910000  0.01010000  1.0 0.0996097012
H  H392  1  0.16100000  0.65090000  0.95670000  1.0 0.0996097012
H  H393  1  0.19420000  0.20430000  0.54330000  1.0 0.0996097012
H  H394  1  0.65090000  0.95670000  0.16100000  1.0 0.0996097012
H  H395  1  0.84910000  0.01010000  0.30580000  1.0 0.0996097012
H  H396  1  0.20430000  0.54330000  0.19420000  1.0 0.0996097012
H  H397  1  0.48990000  0.33900000  0.29570000  1.0 0.0996097012
H  H398  1  0.33900000  0.29570000  0.48990000  1.0 0.0996097012
H  H399  1  0.29570000  0.48990000  0.33900000  1.0 0.0996097012
H  H400  1  0.69420000  0.04330000  0.70430000  1.0 0.0996097012
H  H401  1  0.80580000  0.51010000  0.34910000  1.0 0.0996097012
H  H402  1  0.66100000  0.45670000  0.15090000  1.0 0.0996097012
H  H403  1  0.70430000  0.69420000  0.04330000  1.0 0.0996097012
H  H404  1  0.34910000  0.80580000  0.51010000  1.0 0.0996097012
H  H405  1  0.15090000  0.66100000  0.45670000  1.0 0.0996097012
H  H406  1  0.04330000  0.70430000  0.69420000  1.0 0.0996097012
H  H407  1  0.51010000  0.34910000  0.80580000  1.0 0.0996097012
H  H408  1  0.45670000  0.15090000  0.66100000  1.0 0.0996097012
H  H409  1  0.51010000  0.66100000  0.70430000  1.0 0.0996097012
H  H410  1  0.66100000  0.70430000  0.51010000  1.0 0.0996097012
H  H411  1  0.70430000  0.51010000  0.66100000  1.0 0.0996097012
H  H412  1  0.83900000  0.98990000  0.79570000  1.0 0.0996097012
H  H413  1  0.79570000  0.83900000  0.98990000  1.0 0.0996097012
H  H414  1  0.98990000  0.79570000  0.83900000  1.0 0.0996097012
H  H415  1  0.45670000  0.80580000  0.79570000  1.0 0.0996097012
H  H416  1  0.04330000  0.83900000  0.34910000  1.0 0.0996097012
H  H417  1  0.98990000  0.69420000  0.15090000  1.0 0.0996097012
H  H418  1  0.69420000  0.15090000  0.98990000  1.0 0.0996097012
H  H419  1  0.83900000  0.34910000  0.04330000  1.0 0.0996097012
H  H420  1  0.80580000  0.79570000  0.45670000  1.0 0.0996097012
H  H421  1  0.34910000  0.04330000  0.83900000  1.0 0.0996097012
H  H422  1  0.15090000  0.98990000  0.69420000  1.0 0.0996097012
H  H423  1  0.79570000  0.45670000  0.80580000  1.0 0.0996097012
H  H424  1  0.30580000  0.95670000  0.29570000  1.0 0.0996097012
H  H425  1  0.19420000  0.48990000  0.65090000  1.0 0.0996097012
H  H426  1  0.33900000  0.54330000  0.84910000  1.0 0.0996097012
H  H427  1  0.29570000  0.30580000  0.95670000  1.0 0.0996097012
H  H428  1  0.65090000  0.19420000  0.48990000  1.0 0.0996097012
H  H429  1  0.84910000  0.33900000  0.54330000  1.0 0.0996097012
H  H430  1  0.95670000  0.29570000  0.30580000  1.0 0.0996097012
H  H431  1  0.48990000  0.65090000  0.19420000  1.0 0.0996097012
H  H432  1  0.54330000  0.84910000  0.33900000  1.0 0.0996097012
H  H433  1  0.22800000  0.10230000  0.26630000  1.0 0.078585393
H  H434  1  0.26630000  0.22800000  0.10230000  1.0 0.078585393
H  H435  1  0.10230000  0.26630000  0.22800000  1.0 0.078585393
H  H436  1  0.53830000  0.16400000  0.26630000  1.0 0.078585393
H  H437  1  0.96170000  0.22800000  0.62570000  1.0 0.078585393
H  H438  1  0.10230000  0.33600000  0.87430000  1.0 0.078585393
H  H439  1  0.33600000  0.87430000  0.10230000  1.0 0.078585393
H  H440  1  0.22800000  0.62570000  0.96170000  1.0 0.078585393
H  H441  1  0.16400000  0.26630000  0.53830000  1.0 0.078585393
H  H442  1  0.62570000  0.96170000  0.22800000  1.0 0.078585393
H  H443  1  0.87430000  0.10230000  0.33600000  1.0 0.078585393
H  H444  1  0.26630000  0.53830000  0.16400000  1.0 0.078585393
H  H445  1  0.39770000  0.27200000  0.23370000  1.0 0.078585393
H  H446  1  0.27200000  0.23370000  0.39770000  1.0 0.078585393
H  H447  1  0.23370000  0.39770000  0.27200000  1.0 0.078585393
H  H448  1  0.66400000  0.03830000  0.76630000  1.0 0.078585393
H  H449  1  0.83600000  0.60230000  0.37430000  1.0 0.078585393
H  H450  1  0.72800000  0.46170000  0.12570000  1.0 0.078585393
H  H451  1  0.76630000  0.66400000  0.03830000  1.0 0.078585393
H  H452  1  0.37430000  0.83600000  0.60230000  1.0 0.078585393
H  H453  1  0.12570000  0.72800000  0.46170000  1.0 0.078585393
H  H454  1  0.03830000  0.76630000  0.66400000  1.0 0.078585393
H  H455  1  0.60230000  0.37430000  0.83600000  1.0 0.078585393
H  H456  1  0.46170000  0.12570000  0.72800000  1.0 0.078585393
H  H457  1  0.60230000  0.72800000  0.76630000  1.0 0.078585393
H  H458  1  0.72800000  0.76630000  0.60230000  1.0 0.078585393
H  H459  1  0.76630000  0.60230000  0.72800000  1.0 0.078585393
H  H460  1  0.77200000  0.89770000  0.73370000  1.0 0.078585393
H  H461  1  0.73370000  0.77200000  0.89770000  1.0 0.078585393
H  H462  1  0.89770000  0.73370000  0.77200000  1.0 0.078585393
H  H463  1  0.46170000  0.83600000  0.73370000  1.0 0.078585393
H  H464  1  0.03830000  0.77200000  0.37430000  1.0 0.078585393
H  H465  1  0.89770000  0.66400000  0.12570000  1.0 0.078585393
H  H466  1  0.66400000  0.12570000  0.89770000  1.0 0.078585393
H  H467  1  0.77200000  0.37430000  0.03830000  1.0 0.078585393
H  H468  1  0.83600000  0.73370000  0.46170000  1.0 0.078585393
H  H469  1  0.37430000  0.03830000  0.77200000  1.0 0.078585393
H  H470  1  0.12570000  0.89770000  0.66400000  1.0 0.078585393
H  H471  1  0.73370000  0.46170000  0.83600000  1.0 0.078585393
H  H472  1  0.33600000  0.96170000  0.23370000  1.0 0.078585393
H  H473  1  0.16400000  0.39770000  0.62570000  1.0 0.078585393
H  H474  1  0.27200000  0.53830000  0.87430000  1.0 0.078585393
H  H475  1  0.23370000  0.33600000  0.96170000  1.0 0.078585393
H  H476  1  0.62570000  0.16400000  0.39770000  1.0 0.078585393
H  H477  1  0.87430000  0.27200000  0.53830000  1.0 0.078585393
H  H478  1  0.96170000  0.23370000  0.33600000  1.0 0.078585393
H  H479  1  0.39770000  0.62570000  0.16400000  1.0 0.078585393
H  H480  1  0.53830000  0.87430000  0.27200000  1.0 0.078585393
H  H481  1  0.22820000  0.09680000  0.31940000  1.0 0.0922867218
H  H482  1  0.31940000  0.22820000  0.09680000  1.0 0.0922867218
H  H483  1  0.09680000  0.31940000  0.22820000  1.0 0.0922867218
H  H484  1  0.59120000  0.22260000  0.31940000  1.0 0.0922867218
H  H485  1  0.90880000  0.22820000  0.63140000  1.0 0.0922867218
H  H486  1  0.09680000  0.27740000  0.86860000  1.0 0.0922867218
H  H487  1  0.27740000  0.86860000  0.09680000  1.0 0.0922867218
H  H488  1  0.22820000  0.63140000  0.90880000  1.0 0.0922867218
H  H489  1  0.22260000  0.31940000  0.59120000  1.0 0.0922867218
H  H490  1  0.63140000  0.90880000  0.22820000  1.0 0.0922867218
H  H491  1  0.86860000  0.09680000  0.27740000  1.0 0.0922867218
H  H492  1  0.31940000  0.59120000  0.22260000  1.0 0.0922867218
H  H493  1  0.40320000  0.27180000  0.18060000  1.0 0.0922867218
H  H494  1  0.27180000  0.18060000  0.40320000  1.0 0.0922867218
H  H495  1  0.18060000  0.40320000  0.27180000  1.0 0.0922867218
H  H496  1  0.72260000  0.09120000  0.81940000  1.0 0.0922867218
H  H497  1  0.77740000  0.59680000  0.36860000  1.0 0.0922867218
H  H498  1  0.72820000  0.40880000  0.13140000  1.0 0.0922867218
H  H499  1  0.81940000  0.72260000  0.09120000  1.0 0.0922867218
H  H500  1  0.36860000  0.77740000  0.59680000  1.0 0.0922867218
H  H501  1  0.13140000  0.72820000  0.40880000  1.0 0.0922867218
H  H502  1  0.09120000  0.81940000  0.72260000  1.0 0.0922867218
H  H503  1  0.59680000  0.36860000  0.77740000  1.0 0.0922867218
H  H504  1  0.40880000  0.13140000  0.72820000  1.0 0.0922867218
H  H505  1  0.59680000  0.72820000  0.81940000  1.0 0.0922867218
H  H506  1  0.72820000  0.81940000  0.59680000  1.0 0.0922867218
H  H507  1  0.81940000  0.59680000  0.72820000  1.0 0.0922867218
H  H508  1  0.77180000  0.90320000  0.68060000  1.0 0.0922867218
H  H509  1  0.68060000  0.77180000  0.90320000  1.0 0.0922867218
H  H510  1  0.90320000  0.68060000  0.77180000  1.0 0.0922867218
H  H511  1  0.40880000  0.77740000  0.68060000  1.0 0.0922867218
H  H512  1  0.09120000  0.77180000  0.36860000  1.0 0.0922867218
H  H513  1  0.90320000  0.72260000  0.13140000  1.0 0.0922867218
H  H514  1  0.72260000  0.13140000  0.90320000  1.0 0.0922867218
H  H515  1  0.77180000  0.36860000  0.09120000  1.0 0.0922867218
H  H516  1  0.77740000  0.68060000  0.40880000  1.0 0.0922867218
H  H517  1  0.36860000  0.09120000  0.77180000  1.0 0.0922867218
H  H518  1  0.13140000  0.90320000  0.72260000  1.0 0.0922867218
H  H519  1  0.68060000  0.40880000  0.77740000  1.0 0.0922867218
H  H520  1  0.27740000  0.90880000  0.18060000  1.0 0.0922867218
H  H521  1  0.22260000  0.40320000  0.63140000  1.0 0.0922867218
H  H522  1  0.27180000  0.59120000  0.86860000  1.0 0.0922867218
H  H523  1  0.18060000  0.27740000  0.90880000  1.0 0.0922867218
H  H524  1  0.63140000  0.22260000  0.40320000  1.0 0.0922867218
H  H525  1  0.86860000  0.27180000  0.59120000  1.0 0.0922867218
H  H526  1  0.90880000  0.18060000  0.27740000  1.0 0.0922867218
H  H527  1  0.40320000  0.63140000  0.22260000  1.0 0.0922867218
H  H528  1  0.59120000  0.86860000  0.27180000  1.0 0.0922867218
H  H529  1  0.16850000  0.13520000  0.30030000  1.0 0.0656603491
H  H530  1  0.30030000  0.16850000  0.13520000  1.0 0.0656603491
H  H531  1  0.13520000  0.30030000  0.16850000  1.0 0.0656603491
H  H532  1  0.63180000  0.16510000  0.30030000  1.0 0.0656603491
H  H533  1  0.86820000  0.16850000  0.53330000  1.0 0.0656603491
H  H534  1  0.13520000  0.33490000  0.96670000  1.0 0.0656603491
H  H535  1  0.33490000  0.96670000  0.13520000  1.0 0.0656603491
H  H536  1  0.16850000  0.53330000  0.86820000  1.0 0.0656603491
H  H537  1  0.16510000  0.30030000  0.63180000  1.0 0.0656603491
H  H538  1  0.53330000  0.86820000  0.16850000  1.0 0.0656603491
H  H539  1  0.96670000  0.13520000  0.33490000  1.0 0.0656603491
H  H540  1  0.30030000  0.63180000  0.16510000  1.0 0.0656603491
H  H541  1  0.36480000  0.33150000  0.19970000  1.0 0.0656603491
H  H542  1  0.33150000  0.19970000  0.36480000  1.0 0.0656603491
H  H543  1  0.19970000  0.36480000  0.33150000  1.0 0.0656603491
H  H544  1  0.66510000  0.13180000  0.80030000  1.0 0.0656603491
H  H545  1  0.83490000  0.63520000  0.46670000  1.0 0.0656603491
H  H546  1  0.66850000  0.36820000  0.03330000  1.0 0.0656603491
H  H547  1  0.80030000  0.66510000  0.13180000  1.0 0.0656603491
H  H548  1  0.46670000  0.83490000  0.63520000  1.0 0.0656603491
H  H549  1  0.03330000  0.66850000  0.36820000  1.0 0.0656603491
H  H550  1  0.13180000  0.80030000  0.66510000  1.0 0.0656603491
H  H551  1  0.63520000  0.46670000  0.83490000  1.0 0.0656603491
H  H552  1  0.36820000  0.03330000  0.66850000  1.0 0.0656603491
H  H553  1  0.63520000  0.66850000  0.80030000  1.0 0.0656603491
H  H554  1  0.66850000  0.80030000  0.63520000  1.0 0.0656603491
H  H555  1  0.80030000  0.63520000  0.66850000  1.0 0.0656603491
H  H556  1  0.83150000  0.86480000  0.69970000  1.0 0.0656603491
H  H557  1  0.69970000  0.83150000  0.86480000  1.0 0.0656603491
H  H558  1  0.86480000  0.69970000  0.83150000  1.0 0.0656603491
H  H559  1  0.36820000  0.83490000  0.69970000  1.0 0.0656603491
H  H560  1  0.13180000  0.83150000  0.46670000  1.0 0.0656603491
H  H561  1  0.86480000  0.66510000  0.03330000  1.0 0.0656603491
H  H562  1  0.66510000  0.03330000  0.86480000  1.0 0.0656603491
H  H563  1  0.83150000  0.46670000  0.13180000  1.0 0.0656603491
H  H564  1  0.83490000  0.69970000  0.36820000  1.0 0.0656603491
H  H565  1  0.46670000  0.13180000  0.83150000  1.0 0.0656603491
H  H566  1  0.03330000  0.86480000  0.66510000  1.0 0.0656603491
H  H567  1  0.69970000  0.36820000  0.83490000  1.0 0.0656603491
H  H568  1  0.33490000  0.86820000  0.19970000  1.0 0.0656603491
H  H569  1  0.16510000  0.36480000  0.53330000  1.0 0.0656603491
H  H570  1  0.33150000  0.63180000  0.96670000  1.0 0.0656603491
H  H571  1  0.19970000  0.33490000  0.86820000  1.0 0.0656603491
H  H572  1  0.53330000  0.16510000  0.36480000  1.0 0.0656603491
H  H573  1  0.96670000  0.33150000  0.63180000  1.0 0.0656603491
H  H574  1  0.86820000  0.19970000  0.33490000  1.0 0.0656603491
H  H575  1  0.36480000  0.53330000  0.16510000  1.0 0.0656603491
H  H576  1  0.63180000  0.96670000  0.33150000  1.0 0.0656603491
H  H577  1  0.13760000  0.09370000  0.23410000  1.0 0.0996097012
H  H578  1  0.23410000  0.13760000  0.09370000  1.0 0.0996097012
H  H579  1  0.09370000  0.23410000  0.13760000  1.0 0.0996097012
H  H580  1  0.59650000  0.14040000  0.23410000  1.0 0.0996097012
H  H581  1  0.90350000  0.13760000  0.54390000  1.0 0.0996097012
H  H582  1  0.09370000  0.35960000  0.95610000  1.0 0.0996097012
H  H583  1  0.35960000  0.95610000  0.09370000  1.0 0.0996097012
H  H584  1  0.13760000  0.54390000  0.90350000  1.0 0.0996097012
H  H585  1  0.14040000  0.23410000  0.59650000  1.0 0.0996097012
H  H586  1  0.54390000  0.90350000  0.13760000  1.0 0.0996097012
H  H587  1  0.95610000  0.09370000  0.35960000  1.0 0.0996097012
H  H588  1  0.23410000  0.59650000  0.14040000  1.0 0.0996097012
H  H589  1  0.40630000  0.36240000  0.26590000  1.0 0.0996097012
H  H590  1  0.36240000  0.26590000  0.40630000  1.0 0.0996097012
H  H591  1  0.26590000  0.40630000  0.36240000  1.0 0.0996097012
H  H592  1  0.64040000  0.09650000  0.73410000  1.0 0.0996097012
H  H593  1  0.85960000  0.59370000  0.45610000  1.0 0.0996097012
H  H594  1  0.63760000  0.40350000  0.04390000  1.0 0.0996097012
H  H595  1  0.73410000  0.64040000  0.09650000  1.0 0.0996097012
H  H596  1  0.45610000  0.85960000  0.59370000  1.0 0.0996097012
H  H597  1  0.04390000  0.63760000  0.40350000  1.0 0.0996097012
H  H598  1  0.09650000  0.73410000  0.64040000  1.0 0.0996097012
H  H599  1  0.59370000  0.45610000  0.85960000  1.0 0.0996097012
H  H600  1  0.40350000  0.04390000  0.63760000  1.0 0.0996097012
H  H601  1  0.59370000  0.63760000  0.73410000  1.0 0.0996097012
H  H602  1  0.63760000  0.73410000  0.59370000  1.0 0.0996097012
H  H603  1  0.73410000  0.59370000  0.63760000  1.0 0.0996097012
H  H604  1  0.86240000  0.90630000  0.76590000  1.0 0.0996097012
H  H605  1  0.76590000  0.86240000  0.90630000  1.0 0.0996097012
H  H606  1  0.90630000  0.76590000  0.86240000  1.0 0.0996097012
H  H607  1  0.40350000  0.85960000  0.76590000  1.0 0.0996097012
H  H608  1  0.09650000  0.86240000  0.45610000  1.0 0.0996097012
H  H609  1  0.90630000  0.64040000  0.04390000  1.0 0.0996097012
H  H610  1  0.64040000  0.04390000  0.90630000  1.0 0.0996097012
H  H611  1  0.86240000  0.45610000  0.09650000  1.0 0.0996097012
H  H612  1  0.85960000  0.76590000  0.40350000  1.0 0.0996097012
H  H613  1  0.45610000  0.09650000  0.86240000  1.0 0.0996097012
H  H614  1  0.04390000  0.90630000  0.64040000  1.0 0.0996097012
H  H615  1  0.76590000  0.40350000  0.85960000  1.0 0.0996097012
H  H616  1  0.35960000  0.90350000  0.26590000  1.0 0.0996097012
H  H617  1  0.14040000  0.40630000  0.54390000  1.0 0.0996097012
H  H618  1  0.36240000  0.59650000  0.95610000  1.0 0.0996097012
H  H619  1  0.26590000  0.35960000  0.90350000  1.0 0.0996097012
H  H620  1  0.54390000  0.14040000  0.40630000  1.0 0.0996097012
H  H621  1  0.95610000  0.36240000  0.59650000  1.0 0.0996097012
H  H622  1  0.90350000  0.26590000  0.35960000  1.0 0.0996097012
H  H623  1  0.40630000  0.54390000  0.14040000  1.0 0.0996097012
H  H624  1  0.59650000  0.95610000  0.36240000  1.0 0.0996097012
H  H625  1  0.07580000  0.04400000  0.25420000  1.0 0.0922867218
H  H626  1  0.25420000  0.07580000  0.04400000  1.0 0.0922867218
H  H627  1  0.04400000  0.25420000  0.07580000  1.0 0.0922867218
H  H628  1  0.67840000  0.21020000  0.25420000  1.0 0.0922867218
H  H629  1  0.82160000  0.07580000  0.53180000  1.0 0.0922867218
H  H630  1  0.04400000  0.28980000  0.96820000  1.0 0.0922867218
H  H631  1  0.28980000  0.96820000  0.04400000  1.0 0.0922867218
H  H632  1  0.07580000  0.53180000  0.82160000  1.0 0.0922867218
H  H633  1  0.21020000  0.25420000  0.67840000  1.0 0.0922867218
H  H634  1  0.53180000  0.82160000  0.07580000  1.0 0.0922867218
H  H635  1  0.96820000  0.04400000  0.28980000  1.0 0.0922867218
H  H636  1  0.25420000  0.67840000  0.21020000  1.0 0.0922867218
H  H637  1  0.45600000  0.42420000  0.24580000  1.0 0.0922867218
H  H638  1  0.42420000  0.24580000  0.45600000  1.0 0.0922867218
H  H639  1  0.24580000  0.45600000  0.42420000  1.0 0.0922867218
H  H640  1  0.71020000  0.17840000  0.75420000  1.0 0.0922867218
H  H641  1  0.78980000  0.54400000  0.46820000  1.0 0.0922867218
H  H642  1  0.57580000  0.32160000  0.03180000  1.0 0.0922867218
H  H643  1  0.75420000  0.71020000  0.17840000  1.0 0.0922867218
H  H644  1  0.46820000  0.78980000  0.54400000  1.0 0.0922867218
H  H645  1  0.03180000  0.57580000  0.32160000  1.0 0.0922867218
H  H646  1  0.17840000  0.75420000  0.71020000  1.0 0.0922867218
H  H647  1  0.54400000  0.46820000  0.78980000  1.0 0.0922867218
H  H648  1  0.32160000  0.03180000  0.57580000  1.0 0.0922867218
H  H649  1  0.54400000  0.57580000  0.75420000  1.0 0.0922867218
H  H650  1  0.57580000  0.75420000  0.54400000  1.0 0.0922867218
H  H651  1  0.75420000  0.54400000  0.57580000  1.0 0.0922867218
H  H652  1  0.92420000  0.95600000  0.74580000  1.0 0.0922867218
H  H653  1  0.74580000  0.92420000  0.95600000  1.0 0.0922867218
H  H654  1  0.95600000  0.74580000  0.92420000  1.0 0.0922867218
H  H655  1  0.32160000  0.78980000  0.74580000  1.0 0.0922867218
H  H656  1  0.17840000  0.92420000  0.46820000  1.0 0.0922867218
H  H657  1  0.95600000  0.71020000  0.03180000  1.0 0.0922867218
H  H658  1  0.71020000  0.03180000  0.95600000  1.0 0.0922867218
H  H659  1  0.92420000  0.46820000  0.17840000  1.0 0.0922867218
H  H660  1  0.78980000  0.74580000  0.32160000  1.0 0.0922867218
H  H661  1  0.46820000  0.17840000  0.92420000  1.0 0.0922867218
H  H662  1  0.03180000  0.95600000  0.71020000  1.0 0.0922867218
H  H663  1  0.74580000  0.32160000  0.78980000  1.0 0.0922867218
H  H664  1  0.28980000  0.82160000  0.24580000  1.0 0.0922867218
H  H665  1  0.21020000  0.45600000  0.53180000  1.0 0.0922867218
H  H666  1  0.42420000  0.67840000  0.96820000  1.0 0.0922867218
H  H667  1  0.24580000  0.28980000  0.82160000  1.0 0.0922867218
H  H668  1  0.53180000  0.21020000  0.45600000  1.0 0.0922867218
H  H669  1  0.96820000  0.42420000  0.67840000  1.0 0.0922867218
H  H670  1  0.82160000  0.24580000  0.28980000  1.0 0.0922867218
H  H671  1  0.45600000  0.53180000  0.21020000  1.0 0.0922867218
H  H672  1  0.67840000  0.96820000  0.42420000  1.0 0.0922867218
H  H673  1  0.12450000  0.06550000  0.31540000  1.0 0.1153372393
H  H674  1  0.31540000  0.12450000  0.06550000  1.0 0.1153372393
H  H675  1  0.06550000  0.31540000  0.12450000  1.0 0.1153372393
H  H676  1  0.69090000  0.24990000  0.31540000  1.0 0.1153372393
H  H677  1  0.80910000  0.12450000  0.55900000  1.0 0.1153372393
H  H678  1  0.06550000  0.25010000  0.94100000  1.0 0.1153372393
H  H679  1  0.25010000  0.94100000  0.06550000  1.0 0.1153372393
H  H680  1  0.12450000  0.55900000  0.80910000  1.0 0.1153372393
H  H681  1  0.24990000  0.31540000  0.69090000  1.0 0.1153372393
H  H682  1  0.55900000  0.80910000  0.12450000  1.0 0.1153372393
H  H683  1  0.94100000  0.06550000  0.25010000  1.0 0.1153372393
H  H684  1  0.31540000  0.69090000  0.24990000  1.0 0.1153372393
H  H685  1  0.43450000  0.37550000  0.18460000  1.0 0.1153372393
H  H686  1  0.37550000  0.18460000  0.43450000  1.0 0.1153372393
H  H687  1  0.18460000  0.43450000  0.37550000  1.0 0.1153372393
H  H688  1  0.74990000  0.19090000  0.81540000  1.0 0.1153372393
H  H689  1  0.75010000  0.56550000  0.44100000  1.0 0.1153372393
H  H690  1  0.62450000  0.30910000  0.05900000  1.0 0.1153372393
H  H691  1  0.81540000  0.74990000  0.19090000  1.0 0.1153372393
H  H692  1  0.44100000  0.75010000  0.56550000  1.0 0.1153372393
H  H693  1  0.05900000  0.62450000  0.30910000  1.0 0.1153372393
H  H694  1  0.19090000  0.81540000  0.74990000  1.0 0.1153372393
H  H695  1  0.56550000  0.44100000  0.75010000  1.0 0.1153372393
H  H696  1  0.30910000  0.05900000  0.62450000  1.0 0.1153372393
H  H697  1  0.56550000  0.62450000  0.81540000  1.0 0.1153372393
H  H698  1  0.62450000  0.81540000  0.56550000  1.0 0.1153372393
H  H699  1  0.81540000  0.56550000  0.62450000  1.0 0.1153372393
H  H700  1  0.87550000  0.93450000  0.68460000  1.0 0.1153372393
H  H701  1  0.68460000  0.87550000  0.93450000  1.0 0.1153372393
H  H702  1  0.93450000  0.68460000  0.87550000  1.0 0.1153372393
H  H703  1  0.30910000  0.75010000  0.68460000  1.0 0.1153372393
H  H704  1  0.19090000  0.87550000  0.44100000  1.0 0.1153372393
H  H705  1  0.93450000  0.74990000  0.05900000  1.0 0.1153372393
H  H706  1  0.74990000  0.05900000  0.93450000  1.0 0.1153372393
H  H707  1  0.87550000  0.44100000  0.19090000  1.0 0.1153372393
H  H708  1  0.75010000  0.68460000  0.30910000  1.0 0.1153372393
H  H709  1  0.44100000  0.19090000  0.87550000  1.0 0.1153372393
H  H710  1  0.05900000  0.93450000  0.74990000  1.0 0.1153372393
H  H711  1  0.68460000  0.30910000  0.75010000  1.0 0.1153372393
H  H712  1  0.25010000  0.80910000  0.18460000  1.0 0.1153372393
H  H713  1  0.24990000  0.43450000  0.55900000  1.0 0.1153372393
H  H714  1  0.37550000  0.69090000  0.94100000  1.0 0.1153372393
H  H715  1  0.18460000  0.25010000  0.80910000  1.0 0.1153372393
H  H716  1  0.55900000  0.24990000  0.43450000  1.0 0.1153372393
H  H717  1  0.94100000  0.37550000  0.69090000  1.0 0.1153372393
H  H718  1  0.80910000  0.18460000  0.25010000  1.0 0.1153372393
H  H719  1  0.43450000  0.55900000  0.24990000  1.0 0.1153372393
H  H720  1  0.69090000  0.94100000  0.37550000  1.0 0.1153372393
C  C1  1  0.94414000  0.89171000  0.11221000  1.0 0.2607331231
C  C2  1  0.11221000  0.94414000  0.89171000  1.0 0.2607331231
C  C3  1  0.89171000  0.11221000  0.94414000  1.0 0.2607331231
C  C4  1  0.66807000  0.22050000  0.11221000  1.0 0.2607331231
C  C5  1  0.83193000  0.94414000  0.55243000  1.0 0.2607331231
C  C6  1  0.89171000  0.27950000  0.94757000  1.0 0.2607331231
C  C7  1  0.27950000  0.94757000  0.89171000  1.0 0.2607331231
C  C8  1  0.94414000  0.55243000  0.83193000  1.0 0.2607331231
C  C9  1  0.22050000  0.11221000  0.66807000  1.0 0.2607331231
C  C10  1  0.55243000  0.83193000  0.94414000  1.0 0.2607331231
C  C11  1  0.94757000  0.89171000  0.27950000  1.0 0.2607331231
C  C12  1  0.11221000  0.66807000  0.22050000  1.0 0.2607331231
C  C13  1  0.60829000  0.55586000  0.38779000  1.0 0.2607331231
C  C14  1  0.55586000  0.38779000  0.60829000  1.0 0.2607331231
C  C15  1  0.38779000  0.60829000  0.55586000  1.0 0.2607331231
C  C16  1  0.72050000  0.16807000  0.61221000  1.0 0.2607331231
C  C17  1  0.77950000  0.39171000  0.44757000  1.0 0.2607331231
C  C18  1  0.44414000  0.33193000  0.05243000  1.0 0.2607331231
C  C19  1  0.61221000  0.72050000  0.16807000  1.0 0.2607331231
C  C20  1  0.44757000  0.77950000  0.39171000  1.0 0.2607331231
C  C21  1  0.05243000  0.44414000  0.33193000  1.0 0.2607331231
C  C22  1  0.16807000  0.61221000  0.72050000  1.0 0.2607331231
C  C23  1  0.39171000  0.44757000  0.77950000  1.0 0.2607331231
C  C24  1  0.33193000  0.05243000  0.44414000  1.0 0.2607331231
C  C25  1  0.39171000  0.44414000  0.61221000  1.0 0.2607331231
C  C26  1  0.44414000  0.61221000  0.39171000  1.0 0.2607331231
C  C27  1  0.61221000  0.39171000  0.44414000  1.0 0.2607331231
C  C28  1  0.05586000  0.10829000  0.88779000  1.0 0.2607331231
C  C29  1  0.88779000  0.05586000  0.10829000  1.0 0.2607331231
C  C30  1  0.10829000  0.88779000  0.05586000  1.0 0.2607331231
C  C31  1  0.33193000  0.77950000  0.88779000  1.0 0.2607331231
C  C32  1  0.16807000  0.05586000  0.44757000  1.0 0.2607331231
C  C33  1  0.10829000  0.72050000  0.05243000  1.0 0.2607331231
C  C34  1  0.72050000  0.05243000  0.10829000  1.0 0.2607331231
C  C35  1  0.05586000  0.44757000  0.16807000  1.0 0.2607331231
C  C36  1  0.77950000  0.88779000  0.33193000  1.0 0.2607331231
C  C37  1  0.44757000  0.16807000  0.05586000  1.0 0.2607331231
C  C38  1  0.05243000  0.10829000  0.72050000  1.0 0.2607331231
C  C39  1  0.88779000  0.33193000  0.77950000  1.0 0.2607331231
C  C40  1  0.27950000  0.83193000  0.38779000  1.0 0.2607331231
C  C41  1  0.22050000  0.60829000  0.55243000  1.0 0.2607331231
C  C42  1  0.55586000  0.66807000  0.94757000  1.0 0.2607331231
C  C43  1  0.38779000  0.27950000  0.83193000  1.0 0.2607331231
C  C44  1  0.55243000  0.22050000  0.60829000  1.0 0.2607331231
C  C45  1  0.94757000  0.55586000  0.66807000  1.0 0.2607331231
C  C46  1  0.83193000  0.38779000  0.27950000  1.0 0.2607331231
C  C47  1  0.60829000  0.55243000  0.22050000  1.0 0.2607331231
C  C48  1  0.66807000  0.94757000  0.55586000  1.0 0.2607331231
C  C49  1  0.89203000  0.84618000  0.06793000  1.0 -0.235138136
C  C50  1  0.06793000  0.89203000  0.84618000  1.0 -0.235138136
C  C51  1  0.84618000  0.06793000  0.89203000  1.0 -0.2345358066
C  C52  1  0.67590000  0.22175000  0.06793000  1.0 -0.235138136
C  C53  1  0.82410000  0.89203000  0.54585000  1.0 -0.235138136
C  C54  1  0.84618000  0.27825000  0.95415000  1.0 -0.235138136
C  C55  1  0.27825000  0.95415000  0.84618000  1.0 -0.235138136
C  C56  1  0.89203000  0.54585000  0.82410000  1.0 -0.235138136
C  C57  1  0.22175000  0.06793000  0.67590000  1.0 -0.235138136
C  C58  1  0.54585000  0.82410000  0.89203000  1.0 -0.235138136
C  C59  1  0.95415000  0.84618000  0.27825000  1.0 -0.235138136
C  C60  1  0.06793000  0.67590000  0.22175000  1.0 -0.235138136
C  C61  1  0.65382000  0.60797000  0.43207000  1.0 -0.235138136
C  C62  1  0.60797000  0.43207000  0.65382000  1.0 -0.235138136
C  C63  1  0.43207000  0.65382000  0.60797000  1.0 -0.235138136
C  C64  1  0.72175000  0.17590000  0.56793000  1.0 -0.235138136
C  C65  1  0.77825000  0.34618000  0.45415000  1.0 -0.235138136
C  C66  1  0.39203000  0.32410000  0.04585000  1.0 -0.2345358066
C  C67  1  0.56793000  0.72175000  0.17590000  1.0 -0.235138136
C  C68  1  0.45415000  0.77825000  0.34618000  1.0 -0.235138136
C  C69  1  0.04585000  0.39203000  0.32410000  1.0 -0.235138136
C  C70  1  0.17590000  0.56793000  0.72175000  1.0 -0.235138136
C  C71  1  0.34618000  0.45415000  0.77825000  1.0 -0.235138136
C  C72  1  0.32410000  0.04585000  0.39203000  1.0 -0.235138136
C  C73  1  0.34618000  0.39203000  0.56793000  1.0 -0.235138136
C  C74  1  0.39203000  0.56793000  0.34618000  1.0 -0.235138136
C  C75  1  0.56793000  0.34618000  0.39203000  1.0 -0.235138136
C  C76  1  0.10797000  0.15382000  0.93207000  1.0 -0.235138136
C  C77  1  0.93207000  0.10797000  0.15382000  1.0 -0.235138136
C  C78  1  0.15382000  0.93207000  0.10797000  1.0 -0.235138136
C  C79  1  0.32410000  0.77825000  0.93207000  1.0 -0.235138136
C  C80  1  0.17590000  0.10797000  0.45415000  1.0 -0.235138136
C  C81  1  0.15382000  0.72175000  0.04585000  1.0 -0.235138136
C  C82  1  0.72175000  0.04585000  0.15382000  1.0 -0.235138136
C  C83  1  0.10797000  0.45415000  0.17590000  1.0 -0.235138136
C  C84  1  0.77825000  0.93207000  0.32410000  1.0 -0.235138136
C  C85  1  0.45415000  0.17590000  0.10797000  1.0 -0.235138136
C  C86  1  0.04585000  0.15382000  0.72175000  1.0 -0.235138136
C  C87  1  0.93207000  0.32410000  0.77825000  1.0 -0.235138136
C  C88  1  0.27825000  0.82410000  0.43207000  1.0 -0.235138136
C  C89  1  0.22175000  0.65382000  0.54585000  1.0 -0.235138136
C  C90  1  0.60797000  0.67590000  0.95415000  1.0 -0.235138136
C  C91  1  0.43207000  0.27825000  0.82410000  1.0 -0.235138136
C  C92  1  0.54585000  0.22175000  0.65382000  1.0 -0.235138136
C  C93  1  0.95415000  0.60797000  0.67590000  1.0 -0.235138136
C  C94  1  0.82410000  0.43207000  0.27825000  1.0 -0.235138136
C  C95  1  0.65382000  0.54585000  0.22175000  1.0 -0.235138136
C  C96  1  0.67590000  0.95415000  0.60797000  1.0 -0.2345358066
C  C97  1  0.88458000  0.82112000  0.01476000  1.0 -0.1017937506
C  C98  1  0.01476000  0.88458000  0.82112000  1.0 -0.1017937506
C  C99  1  0.82112000  0.01476000  0.88458000  1.0 -0.1017937506
C  C100  1  0.63018000  0.19364000  0.01476000  1.0 -0.1017937506
C  C101  1  0.86982000  0.88458000  0.56346000  1.0 -0.1017937506
C  C102  1  0.82112000  0.30636000  0.93654000  1.0 -0.1017937506
C  C103  1  0.30636000  0.93654000  0.82112000  1.0 -0.1017937506
C  C104  1  0.88458000  0.56346000  0.86982000  1.0 -0.1017937506
C  C105  1  0.19364000  0.01476000  0.63018000  1.0 -0.1017937506
C  C106  1  0.56346000  0.86982000  0.88458000  1.0 -0.1017937506
C  C107  1  0.93654000  0.82112000  0.30636000  1.0 -0.1017937506
C  C108  1  0.01476000  0.63018000  0.19364000  1.0 -0.1017937506
C  C109  1  0.67888000  0.61542000  0.48524000  1.0 -0.1017937506
C  C110  1  0.61542000  0.48524000  0.67888000  1.0 -0.1017937506
C  C111  1  0.48524000  0.67888000  0.61542000  1.0 -0.1017937506
C  C112  1  0.69364000  0.13018000  0.51476000  1.0 -0.1017937506
C  C113  1  0.80636000  0.32112000  0.43654000  1.0 -0.1017937506
C  C114  1  0.38458000  0.36982000  0.06346000  1.0 -0.1017937506
C  C115  1  0.51476000  0.69364000  0.13018000  1.0 -0.1017937506
C  C116  1  0.43654000  0.80636000  0.32112000  1.0 -0.1017937506
C  C117  1  0.06346000  0.38458000  0.36982000  1.0 -0.1017937506
C  C118  1  0.13018000  0.51476000  0.69364000  1.0 -0.1017937506
C  C119  1  0.32112000  0.43654000  0.80636000  1.0 -0.1017937506
C  C120  1  0.36982000  0.06346000  0.38458000  1.0 -0.1017937506
C  C121  1  0.32112000  0.38458000  0.51476000  1.0 -0.1017937506
C  C122  1  0.38458000  0.51476000  0.32112000  1.0 -0.1017937506
C  C123  1  0.51476000  0.32112000  0.38458000  1.0 -0.1017937506
C  C124  1  0.11542000  0.17888000  0.98524000  1.0 -0.1017937506
C  C125  1  0.98524000  0.11542000  0.17888000  1.0 -0.1017937506
C  C126  1  0.17888000  0.98524000  0.11542000  1.0 -0.1017937506
C  C127  1  0.36982000  0.80636000  0.98524000  1.0 -0.1017937506
C  C128  1  0.13018000  0.11542000  0.43654000  1.0 -0.1017937506
C  C129  1  0.17888000  0.69364000  0.06346000  1.0 -0.1017937506
C  C130  1  0.69364000  0.06346000  0.17888000  1.0 -0.1017937506
C  C131  1  0.11542000  0.43654000  0.13018000  1.0 -0.1017937506
C  C132  1  0.80636000  0.98524000  0.36982000  1.0 -0.1017937506
C  C133  1  0.43654000  0.13018000  0.11542000  1.0 -0.1017937506
C  C134  1  0.06346000  0.17888000  0.69364000  1.0 -0.1017937506
C  C135  1  0.98524000  0.36982000  0.80636000  1.0 -0.1017937506
C  C136  1  0.30636000  0.86982000  0.48524000  1.0 -0.1017937506
C  C137  1  0.19364000  0.67888000  0.56346000  1.0 -0.1017937506
C  C138  1  0.61542000  0.63018000  0.93654000  1.0 -0.1017937506
C  C139  1  0.48524000  0.30636000  0.86982000  1.0 -0.1017937506
C  C140  1  0.56346000  0.19364000  0.67888000  1.0 -0.1017937506
C  C141  1  0.93654000  0.61542000  0.63018000  1.0 -0.1017937506
C  C142  1  0.86982000  0.48524000  0.30636000  1.0 -0.1017937506
C  C143  1  0.67888000  0.56346000  0.19364000  1.0 -0.1017937506
C  C144  1  0.63018000  0.93654000  0.61542000  1.0 -0.1017937506
C  C145  1  0.92874000  0.84102000  0.00504000  1.0 -0.1294485701
C  C146  1  0.00504000  0.92874000  0.84102000  1.0 -0.1294485701
C  C147  1  0.84102000  0.00504000  0.92874000  1.0 -0.1294485701
C  C148  1  0.57630000  0.16402000  0.00504000  1.0 -0.1294485701
C  C149  1  0.92370000  0.92874000  0.58772000  1.0 -0.1294485701
C  C150  1  0.84102000  0.33598000  0.91228000  1.0 -0.1294485701
C  C151  1  0.33598000  0.91228000  0.84102000  1.0 -0.1294485701
C  C152  1  0.92874000  0.58772000  0.92370000  1.0 -0.1294485701
C  C153  1  0.16402000  0.00504000  0.57630000  1.0 -0.1294485701
C  C154  1  0.58772000  0.92370000  0.92874000  1.0 -0.1294485701
C  C155  1  0.91228000  0.84102000  0.33598000  1.0 -0.1294485701
C  C156  1  0.00504000  0.57630000  0.16402000  1.0 -0.1294485701
C  C157  1  0.65898000  0.57126000  0.49496000  1.0 -0.1294485701
C  C158  1  0.57126000  0.49496000  0.65898000  1.0 -0.1294485701
C  C159  1  0.49496000  0.65898000  0.57126000  1.0 -0.1294485701
C  C160  1  0.66402000  0.07630000  0.50504000  1.0 -0.1294485701
C  C161  1  0.83598000  0.34102000  0.41228000  1.0 -0.1294485701
C  C162  1  0.42874000  0.42370000  0.08772000  1.0 -0.1294485701
C  C163  1  0.50504000  0.66402000  0.07630000  1.0 -0.1294485701
C  C164  1  0.41228000  0.83598000  0.34102000  1.0 -0.1294485701
C  C165  1  0.08772000  0.42874000  0.42370000  1.0 -0.1294485701
C  C166  1  0.07630000  0.50504000  0.66402000  1.0 -0.1294485701
C  C167  1  0.34102000  0.41228000  0.83598000  1.0 -0.1294485701
C  C168  1  0.42370000  0.08772000  0.42874000  1.0 -0.1294485701
C  C169  1  0.34102000  0.42874000  0.50504000  1.0 -0.1294485701
C  C170  1  0.42874000  0.50504000  0.34102000  1.0 -0.1294485701
C  C171  1  0.50504000  0.34102000  0.42874000  1.0 -0.1294485701
C  C172  1  0.07126000  0.15898000  0.99496000  1.0 -0.1294485701
C  C173  1  0.99496000  0.07126000  0.15898000  1.0 -0.1294485701
C  C174  1  0.15898000  0.99496000  0.07126000  1.0 -0.1294485701
C  C175  1  0.42370000  0.83598000  0.99496000  1.0 -0.1294485701
C  C176  1  0.07630000  0.07126000  0.41228000  1.0 -0.1294485701
C  C177  1  0.15898000  0.66402000  0.08772000  1.0 -0.1294485701
C  C178  1  0.66402000  0.08772000  0.15898000  1.0 -0.1294485701
C  C179  1  0.07126000  0.41228000  0.07630000  1.0 -0.1294485701
C  C180  1  0.83598000  0.99496000  0.42370000  1.0 -0.1294485701
C  C181  1  0.41228000  0.07630000  0.07126000  1.0 -0.1294485701
C  C182  1  0.08772000  0.15898000  0.66402000  1.0 -0.1294485701
C  C183  1  0.99496000  0.42370000  0.83598000  1.0 -0.1294485701
C  C184  1  0.33598000  0.92370000  0.49496000  1.0 -0.1294485701
C  C185  1  0.16402000  0.65898000  0.58772000  1.0 -0.1294485701
C  C186  1  0.57126000  0.57630000  0.91228000  1.0 -0.1294485701
C  C187  1  0.49496000  0.33598000  0.92370000  1.0 -0.1294485701
C  C188  1  0.58772000  0.16402000  0.65898000  1.0 -0.1294485701
C  C189  1  0.91228000  0.57126000  0.57630000  1.0 -0.1294485701
C  C190  1  0.92370000  0.49496000  0.33598000  1.0 -0.1294485701
C  C191  1  0.65898000  0.58772000  0.16402000  1.0 -0.1294485701
C  C192  1  0.57630000  0.91228000  0.57126000  1.0 -0.1294485701
C  C193  1  0.98072000  0.88643000  0.04931000  1.0 -0.141422984
C  C194  1  0.04931000  0.98072000  0.88643000  1.0 -0.141422984
C  C195  1  0.88643000  0.04931000  0.98072000  1.0 -0.141422984
C  C196  1  0.56859000  0.16288000  0.04931000  1.0 -0.141422984
C  C197  1  0.93141000  0.98072000  0.59429000  1.0 -0.141422984
C  C198  1  0.88643000  0.33712000  0.90571000  1.0 -0.141422984
C  C199  1  0.33712000  0.90571000  0.88643000  1.0 -0.141422984
C  C200  1  0.98072000  0.59429000  0.93141000  1.0 -0.141422984
C  C201  1  0.16288000  0.04931000  0.56859000  1.0 -0.141422984
C  C202  1  0.59429000  0.93141000  0.98072000  1.0 -0.141422984
C  C203  1  0.90571000  0.88643000  0.33712000  1.0 -0.141422984
C  C204  1  0.04931000  0.56859000  0.16288000  1.0 -0.141422984
C  C205  1  0.61357000  0.51928000  0.45069000  1.0 -0.141422984
C  C206  1  0.51928000  0.45069000  0.61357000  1.0 -0.141422984
C  C207  1  0.45069000  0.61357000  0.51928000  1.0 -0.141422984
C  C208  1  0.66288000  0.06859000  0.54931000  1.0 -0.141422984
C  C209  1  0.83712000  0.38643000  0.40571000  1.0 -0.141422984
C  C210  1  0.48072000  0.43141000  0.09429000  1.0 -0.141422984
C  C211  1  0.54931000  0.66288000  0.06859000  1.0 -0.141422984
C  C212  1  0.40571000  0.83712000  0.38643000  1.0 -0.141422984
C  C213  1  0.09429000  0.48072000  0.43141000  1.0 -0.141422984
C  C214  1  0.06859000  0.54931000  0.66288000  1.0 -0.141422984
C  C215  1  0.38643000  0.40571000  0.83712000  1.0 -0.141422984
C  C216  1  0.43141000  0.09429000  0.48072000  1.0 -0.141422984
C  C217  1  0.38643000  0.48072000  0.54931000  1.0 -0.141422984
C  C218  1  0.48072000  0.54931000  0.38643000  1.0 -0.141422984
C  C219  1  0.54931000  0.38643000  0.48072000  1.0 -0.141422984
C  C220  1  0.01928000  0.11357000  0.95069000  1.0 -0.141422984
C  C221  1  0.95069000  0.01928000  0.11357000  1.0 -0.141422984
C  C222  1  0.11357000  0.95069000  0.01928000  1.0 -0.141422984
C  C223  1  0.43141000  0.83712000  0.95069000  1.0 -0.141422984
C  C224  1  0.06859000  0.01928000  0.40571000  1.0 -0.141422984
C  C225  1  0.11357000  0.66288000  0.09429000  1.0 -0.141422984
C  C226  1  0.66288000  0.09429000  0.11357000  1.0 -0.141422984
C  C227  1  0.01928000  0.40571000  0.06859000  1.0 -0.141422984
C  C228  1  0.83712000  0.95069000  0.43141000  1.0 -0.141422984
C  C229  1  0.40571000  0.06859000  0.01928000  1.0 -0.141422984
C  C230  1  0.09429000  0.11357000  0.66288000  1.0 -0.141422984
C  C231  1  0.95069000  0.43141000  0.83712000  1.0 -0.141422984
C  C232  1  0.33712000  0.93141000  0.45069000  1.0 -0.141422984
C  C233  1  0.16288000  0.61357000  0.59429000  1.0 -0.141422984
C  C234  1  0.51928000  0.56859000  0.90571000  1.0 -0.141422984
C  C235  1  0.45069000  0.33712000  0.93141000  1.0 -0.141422984
C  C236  1  0.59429000  0.16288000  0.61357000  1.0 -0.141422984
C  C237  1  0.90571000  0.51928000  0.56859000  1.0 -0.141422984
C  C238  1  0.93141000  0.45069000  0.33712000  1.0 -0.141422984
C  C239  1  0.61357000  0.59429000  0.16288000  1.0 -0.141422984
C  C240  1  0.56859000  0.90571000  0.51928000  1.0 -0.141422984
C  C241  1  0.98927000  0.91226000  0.10301000  1.0 -0.011641917
C  C242  1  0.10301000  0.98927000  0.91226000  1.0 -0.011641917
C  C243  1  0.91226000  0.10301000  0.98927000  1.0 -0.011641917
C  C244  1  0.61374000  0.19075000  0.10301000  1.0 -0.011641917
C  C245  1  0.88626000  0.98927000  0.57701000  1.0 -0.011641917
C  C246  1  0.91226000  0.30925000  0.92299000  1.0 -0.011641917
C  C247  1  0.30925000  0.92299000  0.91226000  1.0 -0.011641917
C  C248  1  0.98927000  0.57701000  0.88626000  1.0 -0.011641917
C  C249  1  0.19075000  0.10301000  0.61374000  1.0 -0.011641917
C  C250  1  0.57701000  0.88626000  0.98927000  1.0 -0.011641917
C  C251  1  0.92299000  0.91226000  0.30925000  1.0 -0.011641917
C  C252  1  0.10301000  0.61374000  0.19075000  1.0 -0.011641917
C  C253  1  0.58774000  0.51073000  0.39699000  1.0 -0.011641917
C  C254  1  0.51073000  0.39699000  0.58774000  1.0 -0.011641917
C  C255  1  0.39699000  0.58774000  0.51073000  1.0 -0.011641917
C  C256  1  0.69075000  0.11374000  0.60301000  1.0 -0.011641917
C  C257  1  0.80925000  0.41226000  0.42299000  1.0 -0.011641917
C  C258  1  0.48927000  0.38626000  0.07701000  1.0 -0.011641917
C  C259  1  0.60301000  0.69075000  0.11374000  1.0 -0.011641917
C  C260  1  0.42299000  0.80925000  0.41226000  1.0 -0.011641917
C  C261  1  0.07701000  0.48927000  0.38626000  1.0 -0.011641917
C  C262  1  0.11374000  0.60301000  0.69075000  1.0 -0.011641917
C  C263  1  0.41226000  0.42299000  0.80925000  1.0 -0.011641917
C  C264  1  0.38626000  0.07701000  0.48927000  1.0 -0.011641917
C  C265  1  0.41226000  0.48927000  0.60301000  1.0 -0.011641917
C  C266  1  0.48927000  0.60301000  0.41226000  1.0 -0.011641917
C  C267  1  0.60301000  0.41226000  0.48927000  1.0 -0.011641917
C  C268  1  0.01073000  0.08774000  0.89699000  1.0 -0.011641917
C  C269  1  0.89699000  0.01073000  0.08774000  1.0 -0.011641917
C  C270  1  0.08774000  0.89699000  0.01073000  1.0 -0.011641917
C  C271  1  0.38626000  0.80925000  0.89699000  1.0 -0.011641917
C  C272  1  0.11374000  0.01073000  0.42299000  1.0 -0.011641917
C  C273  1  0.08774000  0.69075000  0.07701000  1.0 -0.011641917
C  C274  1  0.69075000  0.07701000  0.08774000  1.0 -0.011641917
C  C275  1  0.01073000  0.42299000  0.11374000  1.0 -0.011641917
C  C276  1  0.80925000  0.89699000  0.38626000  1.0 -0.011641917
C  C277  1  0.42299000  0.11374000  0.01073000  1.0 -0.011641917
C  C278  1  0.07701000  0.08774000  0.69075000  1.0 -0.011641917
C  C279  1  0.89699000  0.38626000  0.80925000  1.0 -0.011641917
C  C280  1  0.30925000  0.88626000  0.39699000  1.0 -0.011641917
C  C281  1  0.19075000  0.58774000  0.57701000  1.0 -0.011641917
C  C282  1  0.51073000  0.61374000  0.92299000  1.0 -0.011641917
C  C283  1  0.39699000  0.30925000  0.88626000  1.0 -0.011641917
C  C284  1  0.57701000  0.19075000  0.58774000  1.0 -0.011641917
C  C285  1  0.92299000  0.51073000  0.61374000  1.0 -0.011641917
C  C286  1  0.88626000  0.39699000  0.30925000  1.0 -0.011641917
C  C287  1  0.58774000  0.57701000  0.19075000  1.0 -0.011641917
C  C288  1  0.61374000  0.92299000  0.51073000  1.0 -0.011641917
C  C289  1  0.04479000  0.96290000  0.15131000  1.0 -0.1294485701
C  C290  1  0.15131000  0.04479000  0.96290000  1.0 -0.1294485701
C  C291  1  0.96290000  0.15131000  0.04479000  1.0 -0.1294485701
C  C292  1  0.60652000  0.18841000  0.15131000  1.0 -0.1294485701
C  C293  1  0.89348000  0.04479000  0.58189000  1.0 -0.1294485701
C  C294  1  0.96290000  0.31159000  0.91811000  1.0 -0.1294485701
C  C295  1  0.31159000  0.91811000  0.96290000  1.0 -0.1294485701
C  C296  1  0.04479000  0.58189000  0.89348000  1.0 -0.1294485701
C  C297  1  0.18841000  0.15131000  0.60652000  1.0 -0.1294485701
C  C298  1  0.58189000  0.89348000  0.04479000  1.0 -0.1294485701
C  C299  1  0.91811000  0.96290000  0.31159000  1.0 -0.1294485701
C  C300  1  0.15131000  0.60652000  0.18841000  1.0 -0.1294485701
C  C301  1  0.53710000  0.45521000  0.34869000  1.0 -0.1294485701
C  C302  1  0.45521000  0.34869000  0.53710000  1.0 -0.1294485701
C  C303  1  0.34869000  0.53710000  0.45521000  1.0 -0.1294485701
C  C304  1  0.68841000  0.10652000  0.65131000  1.0 -0.1294485701
C  C305  1  0.81159000  0.46290000  0.41811000  1.0 -0.1294485701
C  C306  1  0.54479000  0.39348000  0.08189000  1.0 -0.1294485701
C  C307  1  0.65131000  0.68841000  0.10652000  1.0 -0.1294485701
C  C308  1  0.41811000  0.81159000  0.46290000  1.0 -0.1294485701
C  C309  1  0.08189000  0.54479000  0.39348000  1.0 -0.1294485701
C  C310  1  0.10652000  0.65131000  0.68841000  1.0 -0.1294485701
C  C311  1  0.46290000  0.41811000  0.81159000  1.0 -0.1294485701
C  C312  1  0.39348000  0.08189000  0.54479000  1.0 -0.1294485701
C  C313  1  0.46290000  0.54479000  0.65131000  1.0 -0.1294485701
C  C314  1  0.54479000  0.65131000  0.46290000  1.0 -0.1294485701
C  C315  1  0.65131000  0.46290000  0.54479000  1.0 -0.1294485701
C  C316  1  0.95521000  0.03710000  0.84869000  1.0 -0.1294485701
C  C317  1  0.84869000  0.95521000  0.03710000  1.0 -0.1294485701
C  C318  1  0.03710000  0.84869000  0.95521000  1.0 -0.1294485701
C  C319  1  0.39348000  0.81159000  0.84869000  1.0 -0.1294485701
C  C320  1  0.10652000  0.95521000  0.41811000  1.0 -0.1294485701
C  C321  1  0.03710000  0.68841000  0.08189000  1.0 -0.1294485701
C  C322  1  0.68841000  0.08189000  0.03710000  1.0 -0.1294485701
C  C323  1  0.95521000  0.41811000  0.10652000  1.0 -0.1294485701
C  C324  1  0.81159000  0.84869000  0.39348000  1.0 -0.1294485701
C  C325  1  0.41811000  0.10652000  0.95521000  1.0 -0.1294485701
C  C326  1  0.08189000  0.03710000  0.68841000  1.0 -0.1294485701
C  C327  1  0.84869000  0.39348000  0.81159000  1.0 -0.1294485701
C  C328  1  0.31159000  0.89348000  0.34869000  1.0 -0.1294485701
C  C329  1  0.18841000  0.53710000  0.58189000  1.0 -0.1294485701
C  C330  1  0.45521000  0.60652000  0.91811000  1.0 -0.1294485701
C  C331  1  0.34869000  0.31159000  0.89348000  1.0 -0.1294485701
C  C332  1  0.58189000  0.18841000  0.53710000  1.0 -0.1294485701
C  C333  1  0.91811000  0.45521000  0.60652000  1.0 -0.1294485701
C  C334  1  0.89348000  0.34869000  0.31159000  1.0 -0.1294485701
C  C335  1  0.53710000  0.58189000  0.18841000  1.0 -0.1294485701
C  C336  1  0.60652000  0.91811000  0.45521000  1.0 -0.1294485701
C  C337  1  0.12105000  0.00001000  0.25116000  1.0 0.0996097012
C  C338  1  0.25116000  0.12105000  0.00001000  1.0 0.0996097012
C  C339  1  0.00001000  0.25116000  0.12105000  1.0 0.0996097012
C  C340  1  0.63011000  0.25115000  0.25116000  1.0 0.0996097012
C  C341  1  0.86989000  0.12105000  0.62104000  1.0 0.0996097012
C  C342  1  0.00001000  0.24885000  0.87896000  1.0 0.0996097012
C  C343  1  0.24885000  0.87896000  0.00001000  1.0 0.0996097012
C  C344  1  0.12105000  0.62104000  0.86989000  1.0 0.0996097012
C  C345  1  0.25115000  0.25116000  0.63011000  1.0 0.0996097012
C  C346  1  0.62104000  0.86989000  0.12105000  1.0 0.0996097012
C  C347  1  0.87896000  0.00001000  0.24885000  1.0 0.0996097012
C  C348  1  0.25116000  0.63011000  0.25115000  1.0 0.0996097012
C  C349  1  0.49999000  0.37895000  0.24884000  1.0 0.0996097012
C  C350  1  0.37895000  0.24884000  0.49999000  1.0 0.0996097012
C  C351  1  0.24884000  0.49999000  0.37895000  1.0 0.0996097012
C  C352  1  0.75115000  0.13011000  0.75116000  1.0 0.0996097012
C  C353  1  0.74885000  0.50001000  0.37896000  1.0 0.0996097012
C  C354  1  0.62105000  0.36989000  0.12104000  1.0 0.0996097012
C  C355  1  0.75116000  0.75115000  0.13011000  1.0 0.0996097012
C  C356  1  0.37896000  0.74885000  0.50001000  1.0 0.0996097012
C  C357  1  0.12104000  0.62105000  0.36989000  1.0 0.0996097012
C  C358  1  0.13011000  0.75116000  0.75115000  1.0 0.0996097012
C  C359  1  0.50001000  0.37896000  0.74885000  1.0 0.0996097012
C  C360  1  0.36989000  0.12104000  0.62105000  1.0 0.0996097012
C  C361  1  0.50001000  0.62105000  0.75116000  1.0 0.0996097012
C  C362  1  0.62105000  0.75116000  0.50001000  1.0 0.0996097012
C  C363  1  0.75116000  0.50001000  0.62105000  1.0 0.0996097012
C  C364  1  0.87895000  0.99999000  0.74884000  1.0 0.0996097012
C  C365  1  0.74884000  0.87895000  0.99999000  1.0 0.0996097012
C  C366  1  0.99999000  0.74884000  0.87895000  1.0 0.0996097012
C  C367  1  0.36989000  0.74885000  0.74884000  1.0 0.0996097012
C  C368  1  0.13011000  0.87895000  0.37896000  1.0 0.0996097012
C  C369  1  0.99999000  0.75115000  0.12104000  1.0 0.0996097012
C  C370  1  0.75115000  0.12104000  0.99999000  1.0 0.0996097012
C  C371  1  0.87895000  0.37896000  0.13011000  1.0 0.0996097012
C  C372  1  0.74885000  0.74884000  0.36989000  1.0 0.0996097012
C  C373  1  0.37896000  0.13011000  0.87895000  1.0 0.0996097012
C  C374  1  0.12104000  0.99999000  0.75115000  1.0 0.0996097012
C  C375  1  0.74884000  0.36989000  0.74885000  1.0 0.0996097012
C  C376  1  0.24885000  0.86989000  0.24884000  1.0 0.0996097012
C  C377  1  0.25115000  0.49999000  0.62104000  1.0 0.0996097012
C  C378  1  0.37895000  0.63011000  0.87896000  1.0 0.0996097012
C  C379  1  0.24884000  0.24885000  0.86989000  1.0 0.0996097012
C  C380  1  0.62104000  0.25115000  0.49999000  1.0 0.0996097012
C  C381  1  0.87896000  0.37895000  0.63011000  1.0 0.0996097012
C  C382  1  0.86989000  0.24884000  0.24885000  1.0 0.0996097012
C  C383  1  0.49999000  0.62104000  0.25115000  1.0 0.0996097012
C  C384  1  0.63011000  0.87896000  0.37895000  1.0 0.0996097012
C  C385  1  0.17276000  0.02136000  0.24396000  1.0 -0.2792394864
C  C386  1  0.24396000  0.17276000  0.02136000  1.0 -0.2792394864
C  C387  1  0.02136000  0.24396000  0.17276000  1.0 -0.2792394864
C  C388  1  0.57120000  0.22260000  0.24396000  1.0 -0.2792394864
C  C389  1  0.92880000  0.17276000  0.65140000  1.0 -0.2792394864
C  C390  1  0.02136000  0.27740000  0.84860000  1.0 -0.2792394864
C  C391  1  0.27740000  0.84860000  0.02136000  1.0 -0.2792394864
C  C392  1  0.17276000  0.65140000  0.92880000  1.0 -0.2792394864
C  C393  1  0.22260000  0.24396000  0.57120000  1.0 -0.2792394864
C  C394  1  0.65140000  0.92880000  0.17276000  1.0 -0.2792394864
C  C395  1  0.84860000  0.02136000  0.27740000  1.0 -0.2792394864
C  C396  1  0.24396000  0.57120000  0.22260000  1.0 -0.2792394864
C  C397  1  0.47864000  0.32724000  0.25604000  1.0 -0.2792394864
C  C398  1  0.32724000  0.25604000  0.47864000  1.0 -0.2792394864
C  C399  1  0.25604000  0.47864000  0.32724000  1.0 -0.2792394864
C  C400  1  0.72260000  0.07120000  0.74396000  1.0 -0.2792394864
C  C401  1  0.77740000  0.52136000  0.34860000  1.0 -0.2792394864
C  C402  1  0.67276000  0.42880000  0.15140000  1.0 -0.2792394864
C  C403  1  0.74396000  0.72260000  0.07120000  1.0 -0.2792394864
C  C404  1  0.34860000  0.77740000  0.52136000  1.0 -0.2792394864
C  C405  1  0.15140000  0.67276000  0.42880000  1.0 -0.2792394864
C  C406  1  0.07120000  0.74396000  0.72260000  1.0 -0.2792394864
C  C407  1  0.52136000  0.34860000  0.77740000  1.0 -0.2792394864
C  C408  1  0.42880000  0.15140000  0.67276000  1.0 -0.2792394864
C  C409  1  0.52136000  0.67276000  0.74396000  1.0 -0.2792394864
C  C410  1  0.67276000  0.74396000  0.52136000  1.0 -0.2792394864
C  C411  1  0.74396000  0.52136000  0.67276000  1.0 -0.2792394864
C  C412  1  0.82724000  0.97864000  0.75604000  1.0 -0.2792394864
C  C413  1  0.75604000  0.82724000  0.97864000  1.0 -0.2792394864
C  C414  1  0.97864000  0.75604000  0.82724000  1.0 -0.2792394864
C  C415  1  0.42880000  0.77740000  0.75604000  1.0 -0.2792394864
C  C416  1  0.07120000  0.82724000  0.34860000  1.0 -0.2792394864
C  C417  1  0.97864000  0.72260000  0.15140000  1.0 -0.2792394864
C  C418  1  0.72260000  0.15140000  0.97864000  1.0 -0.2792394864
C  C419  1  0.82724000  0.34860000  0.07120000  1.0 -0.2792394864
C  C420  1  0.77740000  0.75604000  0.42880000  1.0 -0.2792394864
C  C421  1  0.34860000  0.07120000  0.82724000  1.0 -0.2792394864
C  C422  1  0.15140000  0.97864000  0.72260000  1.0 -0.2792394864
C  C423  1  0.75604000  0.42880000  0.77740000  1.0 -0.2792394864
C  C424  1  0.27740000  0.92880000  0.25604000  1.0 -0.2792394864
C  C425  1  0.22260000  0.47864000  0.65140000  1.0 -0.2792394864
C  C426  1  0.32724000  0.57120000  0.84860000  1.0 -0.2792394864
C  C427  1  0.25604000  0.27740000  0.92880000  1.0 -0.2792394864
C  C428  1  0.65140000  0.22260000  0.47864000  1.0 -0.2792394864
C  C429  1  0.84860000  0.32724000  0.57120000  1.0 -0.2792394864
C  C430  1  0.92880000  0.25604000  0.27740000  1.0 -0.2792394864
C  C431  1  0.47864000  0.65140000  0.22260000  1.0 -0.2792394864
C  C432  1  0.57120000  0.84860000  0.32724000  1.0 -0.2792394864
C  C433  1  0.20450000  0.08440000  0.27970000  1.0 -0.0820214985
C  C434  1  0.27970000  0.20450000  0.08440000  1.0 -0.0820214985
C  C435  1  0.08440000  0.27970000  0.20450000  1.0 -0.0820214985
C  C436  1  0.57520000  0.19530000  0.27970000  1.0 -0.0820214985
C  C437  1  0.92480000  0.20450000  0.62010000  1.0 -0.0820214985
C  C438  1  0.08440000  0.30470000  0.87990000  1.0 -0.0820214985
C  C439  1  0.30470000  0.87990000  0.08440000  1.0 -0.0820214985
C  C440  1  0.20450000  0.62010000  0.92480000  1.0 -0.0820214985
C  C441  1  0.19530000  0.27970000  0.57520000  1.0 -0.0820214985
C  C442  1  0.62010000  0.92480000  0.20450000  1.0 -0.0820214985
C  C443  1  0.87990000  0.08440000  0.30470000  1.0 -0.0820214985
C  C444  1  0.27970000  0.57520000  0.19530000  1.0 -0.0820214985
C  C445  1  0.41560000  0.29550000  0.22030000  1.0 -0.0820214985
C  C446  1  0.29550000  0.22030000  0.41560000  1.0 -0.0820214985
C  C447  1  0.22030000  0.41560000  0.29550000  1.0 -0.0820214985
C  C448  1  0.69530000  0.07520000  0.77970000  1.0 -0.0820214985
C  C449  1  0.80470000  0.58440000  0.37990000  1.0 -0.0820214985
C  C450  1  0.70450000  0.42480000  0.12010000  1.0 -0.0820214985
C  C451  1  0.77970000  0.69530000  0.07520000  1.0 -0.0820214985
C  C452  1  0.37990000  0.80470000  0.58440000  1.0 -0.0820214985
C  C453  1  0.12010000  0.70450000  0.42480000  1.0 -0.0820214985
C  C454  1  0.07520000  0.77970000  0.69530000  1.0 -0.0820214985
C  C455  1  0.58440000  0.37990000  0.80470000  1.0 -0.0820214985
C  C456  1  0.42480000  0.12010000  0.70450000  1.0 -0.0820214985
C  C457  1  0.58440000  0.70450000  0.77970000  1.0 -0.0820214985
C  C458  1  0.70450000  0.77970000  0.58440000  1.0 -0.0820214985
C  C459  1  0.77970000  0.58440000  0.70450000  1.0 -0.0820214985
C  C460  1  0.79550000  0.91560000  0.72030000  1.0 -0.0820214985
C  C461  1  0.72030000  0.79550000  0.91560000  1.0 -0.0820214985
C  C462  1  0.91560000  0.72030000  0.79550000  1.0 -0.0820214985
C  C463  1  0.42480000  0.80470000  0.72030000  1.0 -0.0820214985
C  C464  1  0.07520000  0.79550000  0.37990000  1.0 -0.0820214985
C  C465  1  0.91560000  0.69530000  0.12010000  1.0 -0.0820214985
C  C466  1  0.69530000  0.12010000  0.91560000  1.0 -0.0820214985
C  C467  1  0.79550000  0.37990000  0.07520000  1.0 -0.0820214985
C  C468  1  0.80470000  0.72030000  0.42480000  1.0 -0.0820214985
C  C469  1  0.37990000  0.07520000  0.79550000  1.0 -0.0820214985
C  C470  1  0.12010000  0.91560000  0.69530000  1.0 -0.0820214985
C  C471  1  0.72030000  0.42480000  0.80470000  1.0 -0.0820214985
C  C472  1  0.30470000  0.92480000  0.22030000  1.0 -0.0820214985
C  C473  1  0.19530000  0.41560000  0.62010000  1.0 -0.0820214985
C  C474  1  0.29550000  0.57520000  0.87990000  1.0 -0.0820214985
C  C475  1  0.22030000  0.30470000  0.92480000  1.0 -0.0820214985
C  C476  1  0.62010000  0.19530000  0.41560000  1.0 -0.0820214985
C  C477  1  0.87990000  0.29550000  0.57520000  1.0 -0.0820214985
C  C478  1  0.92480000  0.22030000  0.30470000  1.0 -0.0820214985
C  C479  1  0.41560000  0.62010000  0.19530000  1.0 -0.0820214985
C  C480  1  0.57520000  0.87990000  0.29550000  1.0 -0.0820214985
C  C481  1  0.15520000  0.09720000  0.27120000  1.0 -0.0852683897
C  C482  1  0.27120000  0.15520000  0.09720000  1.0 -0.0852683897
C  C483  1  0.09720000  0.27120000  0.15520000  1.0 -0.0852683897
C  C484  1  0.61600000  0.17400000  0.27120000  1.0 -0.0852683897
C  C485  1  0.88400000  0.15520000  0.55800000  1.0 -0.0852683897
C  C486  1  0.09720000  0.32600000  0.94200000  1.0 -0.0852683897
C  C487  1  0.32600000  0.94200000  0.09720000  1.0 -0.0852683897
C  C488  1  0.15520000  0.55800000  0.88400000  1.0 -0.0852683897
C  C489  1  0.17400000  0.27120000  0.61600000  1.0 -0.0852683897
C  C490  1  0.55800000  0.88400000  0.15520000  1.0 -0.0852683897
C  C491  1  0.94200000  0.09720000  0.32600000  1.0 -0.0852683897
C  C492  1  0.27120000  0.61600000  0.17400000  1.0 -0.0852683897
C  C493  1  0.40280000  0.34480000  0.22880000  1.0 -0.0852683897
C  C494  1  0.34480000  0.22880000  0.40280000  1.0 -0.0852683897
C  C495  1  0.22880000  0.40280000  0.34480000  1.0 -0.0852683897
C  C496  1  0.67400000  0.11600000  0.77120000  1.0 -0.0852683897
C  C497  1  0.82600000  0.59720000  0.44200000  1.0 -0.0852683897
C  C498  1  0.65520000  0.38400000  0.05800000  1.0 -0.0852683897
C  C499  1  0.77120000  0.67400000  0.11600000  1.0 -0.0852683897
C  C500  1  0.44200000  0.82600000  0.59720000  1.0 -0.0852683897
C  C501  1  0.05800000  0.65520000  0.38400000  1.0 -0.0852683897
C  C502  1  0.11600000  0.77120000  0.67400000  1.0 -0.0852683897
C  C503  1  0.59720000  0.44200000  0.82600000  1.0 -0.0852683897
C  C504  1  0.38400000  0.05800000  0.65520000  1.0 -0.0852683897
C  C505  1  0.59720000  0.65520000  0.77120000  1.0 -0.0852683897
C  C506  1  0.65520000  0.77120000  0.59720000  1.0 -0.0852683897
C  C507  1  0.77120000  0.59720000  0.65520000  1.0 -0.0820214985
C  C508  1  0.84480000  0.90280000  0.72880000  1.0 -0.0852683897
C  C509  1  0.72880000  0.84480000  0.90280000  1.0 -0.0852683897
C  C510  1  0.90280000  0.72880000  0.84480000  1.0 -0.0852683897
C  C511  1  0.38400000  0.82600000  0.72880000  1.0 -0.0852683897
C  C512  1  0.11600000  0.84480000  0.44200000  1.0 -0.0852683897
C  C513  1  0.90280000  0.67400000  0.05800000  1.0 -0.0820214985
C  C514  1  0.67400000  0.05800000  0.90280000  1.0 -0.0852683897
C  C515  1  0.84480000  0.44200000  0.11600000  1.0 -0.0852683897
C  C516  1  0.82600000  0.72880000  0.38400000  1.0 -0.0852683897
C  C517  1  0.44200000  0.11600000  0.84480000  1.0 -0.0852683897
C  C518  1  0.05800000  0.90280000  0.67400000  1.0 -0.0852683897
C  C519  1  0.72880000  0.38400000  0.82600000  1.0 -0.0852683897
C  C520  1  0.32600000  0.88400000  0.22880000  1.0 -0.0852683897
C  C521  1  0.17400000  0.40280000  0.55800000  1.0 -0.0852683897
C  C522  1  0.34480000  0.61600000  0.94200000  1.0 -0.0852683897
C  C523  1  0.22880000  0.32600000  0.88400000  1.0 -0.0852683897
C  C524  1  0.55800000  0.17400000  0.40280000  1.0 -0.0852683897
C  C525  1  0.94200000  0.34480000  0.61600000  1.0 -0.0852683897
C  C526  1  0.88400000  0.22880000  0.32600000  1.0 -0.0852683897
C  C527  1  0.40280000  0.55800000  0.17400000  1.0 -0.0852683897
C  C528  1  0.61600000  0.94200000  0.34480000  1.0 -0.0852683897
C  C529  1  0.11464000  0.05274000  0.27596000  1.0 -0.1606103741
C  C530  1  0.27596000  0.11464000  0.05274000  1.0 -0.1606103741
C  C531  1  0.05274000  0.27596000  0.11464000  1.0 -0.1606103741
C  C532  1  0.66132000  0.22322000  0.27596000  1.0 -0.1606103741
C  C533  1  0.83868000  0.11464000  0.56190000  1.0 -0.1606103741
C  C534  1  0.05274000  0.27678000  0.93810000  1.0 -0.1606103741
C  C535  1  0.27678000  0.93810000  0.05274000  1.0 -0.1606103741
C  C536  1  0.11464000  0.56190000  0.83868000  1.0 -0.1606103741
C  C537  1  0.22322000  0.27596000  0.66132000  1.0 -0.1606103741
C  C538  1  0.56190000  0.83868000  0.11464000  1.0 -0.1606103741
C  C539  1  0.93810000  0.05274000  0.27678000  1.0 -0.1606103741
C  C540  1  0.27596000  0.66132000  0.22322000  1.0 -0.1606103741
C  C541  1  0.44726000  0.38536000  0.22404000  1.0 -0.1606103741
C  C542  1  0.38536000  0.22404000  0.44726000  1.0 -0.1606103741
C  C543  1  0.22404000  0.44726000  0.38536000  1.0 -0.1606103741
C  C544  1  0.72322000  0.16132000  0.77596000  1.0 -0.1606103741
C  C545  1  0.77678000  0.55274000  0.43810000  1.0 -0.1606103741
C  C546  1  0.61464000  0.33868000  0.06190000  1.0 -0.1606103741
C  C547  1  0.77596000  0.72322000  0.16132000  1.0 -0.1606103741
C  C548  1  0.43810000  0.77678000  0.55274000  1.0 -0.1606103741
C  C549  1  0.06190000  0.61464000  0.33868000  1.0 -0.1606103741
C  C550  1  0.16132000  0.77596000  0.72322000  1.0 -0.1606103741
C  C551  1  0.55274000  0.43810000  0.77678000  1.0 -0.1606103741
C  C552  1  0.33868000  0.06190000  0.61464000  1.0 -0.1606103741
C  C553  1  0.55274000  0.61464000  0.77596000  1.0 -0.1606103741
C  C554  1  0.61464000  0.77596000  0.55274000  1.0 -0.1606103741
C  C555  1  0.77596000  0.55274000  0.61464000  1.0 -0.1606103741
C  C556  1  0.88536000  0.94726000  0.72404000  1.0 -0.1606103741
C  C557  1  0.72404000  0.88536000  0.94726000  1.0 -0.1606103741
C  C558  1  0.94726000  0.72404000  0.88536000  1.0 -0.1606103741
C  C559  1  0.33868000  0.77678000  0.72404000  1.0 -0.1606103741
C  C560  1  0.16132000  0.88536000  0.43810000  1.0 -0.1606103741
C  C561  1  0.94726000  0.72322000  0.06190000  1.0 -0.1606103741
C  C562  1  0.72322000  0.06190000  0.94726000  1.0 -0.1606103741
C  C563  1  0.88536000  0.43810000  0.16132000  1.0 -0.1606103741
C  C564  1  0.77678000  0.72404000  0.33868000  1.0 -0.1606103741
C  C565  1  0.43810000  0.16132000  0.88536000  1.0 -0.1606103741
C  C566  1  0.06190000  0.94726000  0.72322000  1.0 -0.1606103741
C  C567  1  0.72404000  0.33868000  0.77678000  1.0 -0.1606103741
C  C568  1  0.27678000  0.83868000  0.22404000  1.0 -0.1606103741
C  C569  1  0.22322000  0.44726000  0.56190000  1.0 -0.1606103741
C  C570  1  0.38536000  0.66132000  0.93810000  1.0 -0.1606103741
C  C571  1  0.22404000  0.27678000  0.83868000  1.0 -0.1606103741
C  C572  1  0.56190000  0.22322000  0.44726000  1.0 -0.1606103741
C  C573  1  0.93810000  0.38536000  0.66132000  1.0 -0.1606103741
C  C574  1  0.83868000  0.22404000  0.27678000  1.0 -0.1606103741
C  C575  1  0.44726000  0.56190000  0.22322000  1.0 -0.1606103741
C  C576  1  0.66132000  0.93810000  0.38536000  1.0 -0.1606103741
C  C577  1  0.12953000  0.97993000  0.29426000  1.0 0.5179575153
C  C578  1  0.29426000  0.12953000  0.97993000  1.0 0.5179575153
C  C579  1  0.97993000  0.29426000  0.12953000  1.0 0.5179575153
C  C580  1  0.66473000  0.31433000  0.29426000  1.0 0.5179575153
C  C581  1  0.83527000  0.12953000  0.64960000  1.0 0.5179575153
C  C582  1  0.97993000  0.18567000  0.85040000  1.0 0.5179575153
C  C583  1  0.18567000  0.85040000  0.97993000  1.0 0.5179575153
C  C584  1  0.12953000  0.64960000  0.83527000  1.0 0.5179575153
C  C585  1  0.31433000  0.29426000  0.66473000  1.0 0.5179575153
C  C586  1  0.64960000  0.83527000  0.12953000  1.0 0.5179575153
C  C587  1  0.85040000  0.97993000  0.18567000  1.0 0.5179575153
C  C588  1  0.29426000  0.66473000  0.31433000  1.0 0.5179575153
C  C589  1  0.52007000  0.37047000  0.20574000  1.0 0.5179575153
C  C590  1  0.37047000  0.20574000  0.52007000  1.0 0.5179575153
C  C591  1  0.20574000  0.52007000  0.37047000  1.0 0.5179575153
C  C592  1  0.81433000  0.16473000  0.79426000  1.0 0.5179575153
C  C593  1  0.68567000  0.47993000  0.35040000  1.0 0.5179575153
C  C594  1  0.62953000  0.33527000  0.14960000  1.0 0.5179575153
C  C595  1  0.79426000  0.81433000  0.16473000  1.0 0.5179575153
C  C596  1  0.35040000  0.68567000  0.47993000  1.0 0.5179575153
C  C597  1  0.14960000  0.62953000  0.33527000  1.0 0.5179575153
C  C598  1  0.16473000  0.79426000  0.81433000  1.0 0.5179575153
C  C599  1  0.47993000  0.35040000  0.68567000  1.0 0.5179575153
C  C600  1  0.33527000  0.14960000  0.62953000  1.0 0.5179575153
C  C601  1  0.47993000  0.62953000  0.79426000  1.0 0.5179575153
C  C602  1  0.62953000  0.79426000  0.47993000  1.0 0.5179575153
C  C603  1  0.79426000  0.47993000  0.62953000  1.0 0.5179575153
C  C604  1  0.87047000  0.02007000  0.70574000  1.0 0.5179575153
C  C605  1  0.70574000  0.87047000  0.02007000  1.0 0.5179575153
C  C606  1  0.02007000  0.70574000  0.87047000  1.0 0.5179575153
C  C607  1  0.33527000  0.68567000  0.70574000  1.0 0.5179575153
C  C608  1  0.16473000  0.87047000  0.35040000  1.0 0.5179575153
C  C609  1  0.02007000  0.81433000  0.14960000  1.0 0.5179575153
C  C610  1  0.81433000  0.14960000  0.02007000  1.0 0.5179575153
C  C611  1  0.87047000  0.35040000  0.16473000  1.0 0.5179575153
C  C612  1  0.68567000  0.70574000  0.33527000  1.0 0.5179575153
C  C613  1  0.35040000  0.16473000  0.87047000  1.0 0.5179575153
C  C614  1  0.14960000  0.02007000  0.81433000  1.0 0.5179575153
C  C615  1  0.70574000  0.33527000  0.68567000  1.0 0.5179575153
C  C616  1  0.18567000  0.83527000  0.20574000  1.0 0.5179575153
C  C617  1  0.31433000  0.52007000  0.64960000  1.0 0.5179575153
C  C618  1  0.37047000  0.66473000  0.85040000  1.0 0.5179575153
C  C619  1  0.20574000  0.18567000  0.83527000  1.0 0.5179575153
C  C620  1  0.64960000  0.31433000  0.52007000  1.0 0.5179575153
C  C621  1  0.85040000  0.37047000  0.66473000  1.0 0.5179575153
C  C622  1  0.83527000  0.20574000  0.18567000  1.0 0.5179575153
C  C623  1  0.52007000  0.64960000  0.31433000  1.0 0.5179575153
C  C624  1  0.66473000  0.85040000  0.37047000  1.0 0.5179575153
C  C625  1  0.17610000  0.10190000  0.31360000  1.0 -0.0614202801
C  C626  1  0.31360000  0.17610000  0.10190000  1.0 -0.0614202801
C  C627  1  0.10190000  0.31360000  0.17610000  1.0 -0.0614202801
C  C628  1  0.63750000  0.21170000  0.31360000  1.0 -0.0614202801
C  C629  1  0.86250000  0.17610000  0.57420000  1.0 -0.0614202801
C  C630  1  0.10190000  0.28830000  0.92580000  1.0 -0.0614202801
C  C631  1  0.28830000  0.92580000  0.10190000  1.0 -0.0614202801
C  C632  1  0.17610000  0.57420000  0.86250000  1.0 -0.0614202801
C  C633  1  0.21170000  0.31360000  0.63750000  1.0 -0.0614202801
C  C634  1  0.57420000  0.86250000  0.17610000  1.0 -0.0614202801
C  C635  1  0.92580000  0.10190000  0.28830000  1.0 -0.0614202801
C  C636  1  0.31360000  0.63750000  0.21170000  1.0 -0.0614202801
C  C637  1  0.39810000  0.32390000  0.18640000  1.0 -0.0614202801
C  C638  1  0.32390000  0.18640000  0.39810000  1.0 -0.0614202801
C  C639  1  0.18640000  0.39810000  0.32390000  1.0 -0.0614202801
C  C640  1  0.71170000  0.13750000  0.81360000  1.0 -0.0614202801
C  C641  1  0.78830000  0.60190000  0.42580000  1.0 -0.0614202801
C  C642  1  0.67610000  0.36250000  0.07420000  1.0 -0.0614202801
C  C643  1  0.81360000  0.71170000  0.13750000  1.0 -0.0614202801
C  C644  1  0.42580000  0.78830000  0.60190000  1.0 -0.0614202801
C  C645  1  0.07420000  0.67610000  0.36250000  1.0 -0.0614202801
C  C646  1  0.13750000  0.81360000  0.71170000  1.0 -0.0614202801
C  C647  1  0.60190000  0.42580000  0.78830000  1.0 -0.0614202801
C  C648  1  0.36250000  0.07420000  0.67610000  1.0 -0.0614202801
C  C649  1  0.60190000  0.67610000  0.81360000  1.0 -0.0614202801
C  C650  1  0.67610000  0.81360000  0.60190000  1.0 -0.0614202801
C  C651  1  0.81360000  0.60190000  0.67610000  1.0 -0.0614202801
C  C652  1  0.82390000  0.89810000  0.68640000  1.0 -0.0614202801
C  C653  1  0.68640000  0.82390000  0.89810000  1.0 -0.0614202801
C  C654  1  0.89810000  0.68640000  0.82390000  1.0 -0.0614202801
C  C655  1  0.36250000  0.78830000  0.68640000  1.0 -0.0614202801
C  C656  1  0.13750000  0.82390000  0.42580000  1.0 -0.0614202801
C  C657  1  0.89810000  0.71170000  0.07420000  1.0 -0.0614202801
C  C658  1  0.71170000  0.07420000  0.89810000  1.0 -0.0614202801
C  C659  1  0.82390000  0.42580000  0.13750000  1.0 -0.0614202801
C  C660  1  0.78830000  0.68640000  0.36250000  1.0 -0.0614202801
C  C661  1  0.42580000  0.13750000  0.82390000  1.0 -0.0614202801
C  C662  1  0.07420000  0.89810000  0.71170000  1.0 -0.0614202801
C  C663  1  0.68640000  0.36250000  0.78830000  1.0 -0.0614202801
C  C664  1  0.28830000  0.86250000  0.18640000  1.0 -0.0614202801
C  C665  1  0.21170000  0.39810000  0.57420000  1.0 -0.0614202801
C  C666  1  0.32390000  0.63750000  0.92580000  1.0 -0.0614202801
C  C667  1  0.18640000  0.28830000  0.86250000  1.0 -0.0614202801
C  C668  1  0.57420000  0.21170000  0.39810000  1.0 -0.0614202801
C  C669  1  0.92580000  0.32390000  0.63750000  1.0 -0.0614202801
C  C670  1  0.86250000  0.18640000  0.28830000  1.0 -0.0614202801
C  C671  1  0.39810000  0.57420000  0.21170000  1.0 -0.0614202801
C  C672  1  0.63750000  0.92580000  0.32390000  1.0 -0.0614202801
N  N1  1  0.06874000  0.95222000  0.19804000  1.0 -0.3650909061
N  N2  1  0.19804000  0.06874000  0.95222000  1.0 -0.3650909061
N  N3  1  0.95222000  0.19804000  0.06874000  1.0 -0.3650909061
N  N4  1  0.62930000  0.24582000  0.19804000  1.0 -0.364075192
N  N5  1  0.87070000  0.06874000  0.61652000  1.0 -0.3650909061
N  N6  1  0.95222000  0.25418000  0.88348000  1.0 -0.3650909061
N  N7  1  0.25418000  0.88348000  0.95222000  1.0 -0.364075192
N  N8  1  0.06874000  0.61652000  0.87070000  1.0 -0.3650909061
N  N9  1  0.24582000  0.19804000  0.62930000  1.0 -0.3650909061
N  N10  1  0.61652000  0.87070000  0.06874000  1.0 -0.3650909061
N  N11  1  0.88348000  0.95222000  0.25418000  1.0 -0.3650909061
N  N12  1  0.19804000  0.62930000  0.24582000  1.0 -0.3650909061
N  N13  1  0.54778000  0.43126000  0.30196000  1.0 -0.364075192
N  N14  1  0.43126000  0.30196000  0.54778000  1.0 -0.3650909061
N  N15  1  0.30196000  0.54778000  0.43126000  1.0 -0.3650909061
N  N16  1  0.74582000  0.12930000  0.69804000  1.0 -0.3650909061
N  N17  1  0.75418000  0.45222000  0.38348000  1.0 -0.364075192
N  N18  1  0.56874000  0.37070000  0.11652000  1.0 -0.3650909061
N  N19  1  0.69804000  0.74582000  0.12930000  1.0 -0.3650909061
N  N20  1  0.38348000  0.75418000  0.45222000  1.0 -0.3650909061
N  N21  1  0.11652000  0.56874000  0.37070000  1.0 -0.3650909061
N  N22  1  0.12930000  0.69804000  0.74582000  1.0 -0.3650909061
N  N23  1  0.45222000  0.38348000  0.75418000  1.0 -0.3650909061
N  N24  1  0.37070000  0.11652000  0.56874000  1.0 -0.3650909061
N  N25  1  0.45222000  0.56874000  0.69804000  1.0 -0.3650909061
N  N26  1  0.56874000  0.69804000  0.45222000  1.0 -0.364075192
N  N27  1  0.69804000  0.45222000  0.56874000  1.0 -0.3650909061
N  N28  1  0.93126000  0.04778000  0.80196000  1.0 -0.3650909061
N  N29  1  0.80196000  0.93126000  0.04778000  1.0 -0.364075192
N  N30  1  0.04778000  0.80196000  0.93126000  1.0 -0.3650909061
N  N31  1  0.37070000  0.75418000  0.80196000  1.0 -0.3650909061
N  N32  1  0.12930000  0.93126000  0.38348000  1.0 -0.3650909061
N  N33  1  0.04778000  0.74582000  0.11652000  1.0 -0.3650909061
N  N34  1  0.74582000  0.11652000  0.04778000  1.0 -0.3650909061
N  N35  1  0.93126000  0.38348000  0.12930000  1.0 -0.3650909061
N  N36  1  0.75418000  0.80196000  0.37070000  1.0 -0.364075192
N  N37  1  0.38348000  0.12930000  0.93126000  1.0 -0.3650909061
N  N38  1  0.11652000  0.04778000  0.74582000  1.0 -0.364075192
N  N39  1  0.80196000  0.37070000  0.75418000  1.0 -0.3650909061
N  N40  1  0.25418000  0.87070000  0.30196000  1.0 -0.3650909061
N  N41  1  0.24582000  0.54778000  0.61652000  1.0 -0.3650909061
N  N42  1  0.43126000  0.62930000  0.88348000  1.0 -0.3650909061
N  N43  1  0.30196000  0.25418000  0.87070000  1.0 -0.3650909061
N  N44  1  0.61652000  0.24582000  0.54778000  1.0 -0.3650909061
N  N45  1  0.88348000  0.43126000  0.62930000  1.0 -0.3650909061
N  N46  1  0.87070000  0.30196000  0.25418000  1.0 -0.364075192
N  N47  1  0.54778000  0.61652000  0.24582000  1.0 -0.364075192
N  N48  1  0.62930000  0.88348000  0.43126000  1.0 -0.3650909061
O  O1  1  0.95285000  0.91670000  0.16483000  1.0 -0.5275060268
O  O2  1  0.16483000  0.95285000  0.91670000  1.0 -0.5275060268
O  O3  1  0.91670000  0.16483000  0.95285000  1.0 -0.5275060268
O  O4  1  0.71198000  0.24813000  0.16483000  1.0 -0.5275060268
O  O5  1  0.78802000  0.95285000  0.53615000  1.0 -0.5275060268
O  O6  1  0.91670000  0.25187000  0.96385000  1.0 -0.5275060268
O  O7  1  0.25187000  0.96385000  0.91670000  1.0 -0.5275060268
O  O8  1  0.95285000  0.53615000  0.78802000  1.0 -0.5275060268
O  O9  1  0.24813000  0.16483000  0.71198000  1.0 -0.5275060268
O  O10  1  0.53615000  0.78802000  0.95285000  1.0 -0.5275060268
O  O11  1  0.96385000  0.91670000  0.25187000  1.0 -0.5275060268
O  O12  1  0.16483000  0.71198000  0.24813000  1.0 -0.5275060268
O  O13  1  0.58330000  0.54715000  0.33517000  1.0 -0.5275060268
O  O14  1  0.54715000  0.33517000  0.58330000  1.0 -0.5275060268
O  O15  1  0.33517000  0.58330000  0.54715000  1.0 -0.5275060268
O  O16  1  0.74813000  0.21198000  0.66483000  1.0 -0.5275060268
O  O17  1  0.75187000  0.41670000  0.46385000  1.0 -0.5275060268
O  O18  1  0.45285000  0.28802000  0.03615000  1.0 -0.5275060268
O  O19  1  0.66483000  0.74813000  0.21198000  1.0 -0.5275060268
O  O20  1  0.46385000  0.75187000  0.41670000  1.0 -0.5275060268
O  O21  1  0.03615000  0.45285000  0.28802000  1.0 -0.5275060268
O  O22  1  0.21198000  0.66483000  0.74813000  1.0 -0.5275060268
O  O23  1  0.41670000  0.46385000  0.75187000  1.0 -0.5275060268
O  O24  1  0.28802000  0.03615000  0.45285000  1.0 -0.5275060268
O  O25  1  0.41670000  0.45285000  0.66483000  1.0 -0.5275060268
O  O26  1  0.45285000  0.66483000  0.41670000  1.0 -0.5275060268
O  O27  1  0.66483000  0.41670000  0.45285000  1.0 -0.5275060268
O  O28  1  0.04715000  0.08330000  0.83517000  1.0 -0.5275060268
O  O29  1  0.83517000  0.04715000  0.08330000  1.0 -0.5275060268
O  O30  1  0.08330000  0.83517000  0.04715000  1.0 -0.5275060268
O  O31  1  0.28802000  0.75187000  0.83517000  1.0 -0.5275060268
O  O32  1  0.21198000  0.04715000  0.46385000  1.0 -0.5275060268
O  O33  1  0.08330000  0.74813000  0.03615000  1.0 -0.5275060268
O  O34  1  0.74813000  0.03615000  0.08330000  1.0 -0.5275060268
O  O35  1  0.04715000  0.46385000  0.21198000  1.0 -0.5275060268
O  O36  1  0.75187000  0.83517000  0.28802000  1.0 -0.5275060268
O  O37  1  0.46385000  0.21198000  0.04715000  1.0 -0.519012287
O  O38  1  0.03615000  0.08330000  0.74813000  1.0 -0.5275060268
O  O39  1  0.83517000  0.28802000  0.75187000  1.0 -0.5275060268
O  O40  1  0.25187000  0.78802000  0.33517000  1.0 -0.5275060268
O  O41  1  0.24813000  0.58330000  0.53615000  1.0 -0.5275060268
O  O42  1  0.54715000  0.71198000  0.96385000  1.0 -0.5275060268
O  O43  1  0.33517000  0.25187000  0.78802000  1.0 -0.5275060268
O  O44  1  0.53615000  0.24813000  0.58330000  1.0 -0.5275060268
O  O45  1  0.96385000  0.54715000  0.71198000  1.0 -0.5275060268
O  O46  1  0.78802000  0.33517000  0.25187000  1.0 -0.5275060268
O  O47  1  0.58330000  0.53615000  0.24813000  1.0 -0.5275060268
O  O48  1  0.71198000  0.96385000  0.54715000  1.0 -0.5275060268
O  O49  1  0.08444000  0.94346000  0.28786000  1.0 -0.519012287
O  O50  1  0.28786000  0.08444000  0.94346000  1.0 -0.519012287
O  O51  1  0.94346000  0.28786000  0.08444000  1.0 -0.519012287
O  O52  1  0.70342000  0.34440000  0.28786000  1.0 -0.519012287
O  O53  1  0.79658000  0.08444000  0.64098000  1.0 -0.519012287
O  O54  1  0.94346000  0.15560000  0.85902000  1.0 -0.519012287
O  O55  1  0.15560000  0.85902000  0.94346000  1.0 -0.519012287
O  O56  1  0.08444000  0.64098000  0.79658000  1.0 -0.519012287
O  O57  1  0.34440000  0.28786000  0.70342000  1.0 -0.519012287
O  O58  1  0.64098000  0.79658000  0.08444000  1.0 -0.519012287
O  O59  1  0.85902000  0.94346000  0.15560000  1.0 -0.519012287
O  O60  1  0.28786000  0.70342000  0.34440000  1.0 -0.519012287
O  O61  1  0.55654000  0.41556000  0.21214000  1.0 -0.519012287
O  O62  1  0.41556000  0.21214000  0.55654000  1.0 -0.519012287
O  O63  1  0.21214000  0.55654000  0.41556000  1.0 -0.519012287
O  O64  1  0.84440000  0.20342000  0.78786000  1.0 -0.519012287
O  O65  1  0.65560000  0.44346000  0.35902000  1.0 -0.519012287
O  O66  1  0.58444000  0.29658000  0.14098000  1.0 -0.519012287
O  O67  1  0.78786000  0.84440000  0.20342000  1.0 -0.519012287
O  O68  1  0.35902000  0.65560000  0.44346000  1.0 -0.519012287
O  O69  1  0.14098000  0.58444000  0.29658000  1.0 -0.519012287
O  O70  1  0.20342000  0.78786000  0.84440000  1.0 -0.519012287
O  O71  1  0.44346000  0.35902000  0.65560000  1.0 -0.519012287
O  O72  1  0.29658000  0.14098000  0.58444000  1.0 -0.519012287
O  O73  1  0.44346000  0.58444000  0.78786000  1.0 -0.519012287
O  O74  1  0.58444000  0.78786000  0.44346000  1.0 -0.519012287
O  O75  1  0.78786000  0.44346000  0.58444000  1.0 -0.519012287
O  O76  1  0.91556000  0.05654000  0.71214000  1.0 -0.519012287
O  O77  1  0.71214000  0.91556000  0.05654000  1.0 -0.519012287
O  O78  1  0.05654000  0.71214000  0.91556000  1.0 -0.519012287
O  O79  1  0.29658000  0.65560000  0.71214000  1.0 -0.519012287
O  O80  1  0.20342000  0.91556000  0.35902000  1.0 -0.519012287
O  O81  1  0.05654000  0.84440000  0.14098000  1.0 -0.519012287
O  O82  1  0.84440000  0.14098000  0.05654000  1.0 -0.519012287
O  O83  1  0.91556000  0.35902000  0.20342000  1.0 -0.519012287
O  O84  1  0.65560000  0.71214000  0.29658000  1.0 -0.519012287
O  O85  1  0.35902000  0.20342000  0.91556000  1.0 -0.519012287
O  O86  1  0.14098000  0.05654000  0.84440000  1.0 -0.519012287
O  O87  1  0.71214000  0.29658000  0.65560000  1.0 -0.519012287
O  O88  1  0.15560000  0.79658000  0.21214000  1.0 -0.519012287
O  O89  1  0.34440000  0.55654000  0.64098000  1.0 -0.519012287
O  O90  1  0.41556000  0.70342000  0.85902000  1.0 -0.519012287
O  O91  1  0.21214000  0.15560000  0.79658000  1.0 -0.519012287
O  O92  1  0.64098000  0.34440000  0.55654000  1.0 -0.519012287
O  O93  1  0.85902000  0.41556000  0.70342000  1.0 -0.519012287
O  O94  1  0.79658000  0.21214000  0.15560000  1.0 -0.519012287
O  O95  1  0.55654000  0.64098000  0.34440000  1.0 -0.519012287
O  O96  1  0.70342000  0.85902000  0.41556000  1.0 -0.519012287
O  O97  1  0.17757000  0.00054000  0.33291000  1.0 -0.519012287
O  O98  1  0.33291000  0.17757000  0.00054000  1.0 -0.519012287
O  O99  1  0.00054000  0.33291000  0.17757000  1.0 -0.519012287
O  O100  1  0.65534000  0.33237000  0.33291000  1.0 -0.519012287
O  O101  1  0.84466000  0.17757000  0.67703000  1.0 -0.519012287
O  O102  1  0.00054000  0.16763000  0.82297000  1.0 -0.519012287
O  O103  1  0.16763000  0.82297000  0.00054000  1.0 -0.519012287
O  O104  1  0.17757000  0.67703000  0.84466000  1.0 -0.519012287
O  O105  1  0.33237000  0.33291000  0.65534000  1.0 -0.519012287
O  O106  1  0.67703000  0.84466000  0.17757000  1.0 -0.519012287
O  O107  1  0.82297000  0.00054000  0.16763000  1.0 -0.519012287
O  O108  1  0.33291000  0.65534000  0.33237000  1.0 -0.519012287
O  O109  1  0.49946000  0.32243000  0.16709000  1.0 -0.519012287
O  O110  1  0.32243000  0.16709000  0.49946000  1.0 -0.519012287
O  O111  1  0.16709000  0.49946000  0.32243000  1.0 -0.519012287
O  O112  1  0.83237000  0.15534000  0.83291000  1.0 -0.519012287
O  O113  1  0.66763000  0.50054000  0.32297000  1.0 -0.519012287
O  O114  1  0.67757000  0.34466000  0.17703000  1.0 -0.519012287
O  O115  1  0.83291000  0.83237000  0.15534000  1.0 -0.519012287
O  O116  1  0.32297000  0.66763000  0.50054000  1.0 -0.519012287
O  O117  1  0.17703000  0.67757000  0.34466000  1.0 -0.519012287
O  O118  1  0.15534000  0.83291000  0.83237000  1.0 -0.519012287
O  O119  1  0.50054000  0.32297000  0.66763000  1.0 -0.519012287
O  O120  1  0.34466000  0.17703000  0.67757000  1.0 -0.519012287
O  O121  1  0.50054000  0.67757000  0.83291000  1.0 -0.519012287
O  O122  1  0.67757000  0.83291000  0.50054000  1.0 -0.519012287
O  O123  1  0.83291000  0.50054000  0.67757000  1.0 -0.519012287
O  O124  1  0.82243000  0.99946000  0.66709000  1.0 -0.519012287
O  O125  1  0.66709000  0.82243000  0.99946000  1.0 -0.519012287
O  O126  1  0.99946000  0.66709000  0.82243000  1.0 -0.519012287
O  O127  1  0.34466000  0.66763000  0.66709000  1.0 -0.519012287
O  O128  1  0.15534000  0.82243000  0.32297000  1.0 -0.519012287
O  O129  1  0.99946000  0.83237000  0.17703000  1.0 -0.519012287
O  O130  1  0.83237000  0.17703000  0.99946000  1.0 -0.519012287
O  O131  1  0.82243000  0.32297000  0.15534000  1.0 -0.519012287
O  O132  1  0.66763000  0.66709000  0.34466000  1.0 -0.519012287
O  O133  1  0.32297000  0.15534000  0.82243000  1.0 -0.519012287
O  O134  1  0.17703000  0.99946000  0.83237000  1.0 -0.519012287
O  O135  1  0.66709000  0.34466000  0.66763000  1.0 -0.519012287
O  O136  1  0.16763000  0.84466000  0.16709000  1.0 -0.519012287
O  O137  1  0.33237000  0.49946000  0.67703000  1.0 -0.519012287
O  O138  1  0.32243000  0.65534000  0.82297000  1.0 -0.519012287
O  O139  1  0.16709000  0.16763000  0.84466000  1.0 -0.519012287
O  O140  1  0.67703000  0.33237000  0.49946000  1.0 -0.519012287
O  O141  1  0.82297000  0.32243000  0.65534000  1.0 -0.519012287
O  O142  1  0.84466000  0.16709000  0.16763000  1.0 -0.519012287
O  O143  1  0.49946000  0.67703000  0.33237000  1.0 -0.519012287
O  O144  1  0.65534000  0.82297000  0.32243000  1.0 -0.519012287
