# DDEC6 charges by PACMAN v1.1 (https://github.com/mtap-research/PACMAN-charge/)
data_ULILEI_FSR_pacman
_symmetry_space_group_name_H-M   'P 1'
_cell_length_a   10.58120000
_cell_length_b   22.76850000
_cell_length_c   28.63760000
_cell_angle_alpha   90.00000000
_cell_angle_beta   90.00000000
_cell_angle_gamma   90.00000000
_symmetry_Int_Tables_number   1
_chemical_formula_structural   CdH26C32(N8O)2
_chemical_formula_sum   'Cd8 H208 C256 N128 O16'
_cell_volume   6899.31481168
_cell_formula_units_Z   8
loop_
 _symmetry_equiv_pos_site_id
 _symmetry_equiv_pos_as_xyz
  1  'x, y, z'
loop_
 _atom_site_type_symbol
 _atom_site_label
 _atom_site_symmetry_multiplicity
 _atom_site_fract_x
 _atom_site_fract_y
 _atom_site_fract_z
 _atom_site_occupancy
 _atom_site_charge
Cd  Cd1  1  0.14397000  0.43100000  0.00371000  1.0 0.6939791366
Cd  Cd2  1  0.85603000  0.43100000  0.49629000  1.0 0.6939791366
Cd  Cd3  1  0.85603000  0.06900000  0.50371000  1.0 0.6939791366
Cd  Cd4  1  0.14397000  0.06900000  0.99629000  1.0 0.6939791366
Cd  Cd5  1  0.85603000  0.56900000  0.99629000  1.0 0.6939791366
Cd  Cd6  1  0.14397000  0.56900000  0.50371000  1.0 0.6939791366
Cd  Cd7  1  0.14397000  0.93100000  0.49629000  1.0 0.6939791366
Cd  Cd8  1  0.85603000  0.93100000  0.00371000  1.0 0.6939791366
H  H1  1  0.27260000  0.49130000  0.67220000  1.0 0.1265635465
H  H2  1  0.72740000  0.49130000  0.82780000  1.0 0.1265635465
H  H3  1  0.72740000  0.00870000  0.17220000  1.0 0.1265635465
H  H4  1  0.27260000  0.00870000  0.32780000  1.0 0.1265635465
H  H5  1  0.72740000  0.50870000  0.32780000  1.0 0.1265635465
H  H6  1  0.27260000  0.50870000  0.17220000  1.0 0.1265635465
H  H7  1  0.27260000  0.99130000  0.82780000  1.0 0.1265635465
H  H8  1  0.72740000  0.99130000  0.67220000  1.0 0.1265635465
H  H9  1  0.35220000  0.46140000  0.74340000  1.0 0.1456374786
H  H10  1  0.64780000  0.46140000  0.75660000  1.0 0.1456374786
H  H11  1  0.64780000  0.03860000  0.24340000  1.0 0.1456374786
H  H12  1  0.35220000  0.03860000  0.25660000  1.0 0.1456374786
H  H13  1  0.64780000  0.53860000  0.25660000  1.0 0.1456374786
H  H14  1  0.35220000  0.53860000  0.24340000  1.0 0.1456374786
H  H15  1  0.35220000  0.96140000  0.75660000  1.0 0.1456374786
H  H16  1  0.64780000  0.96140000  0.74340000  1.0 0.1456374786
H  H17  1  0.15660000  0.31180000  0.73380000  1.0 0.140082034
H  H18  1  0.84340000  0.31180000  0.76620000  1.0 0.140082034
H  H19  1  0.84340000  0.18820000  0.23380000  1.0 0.140082034
H  H20  1  0.15660000  0.18820000  0.26620000  1.0 0.140082034
H  H21  1  0.84340000  0.68820000  0.26620000  1.0 0.140082034
H  H22  1  0.15660000  0.68820000  0.23380000  1.0 0.140082034
H  H23  1  0.15660000  0.81180000  0.76620000  1.0 0.140082034
H  H24  1  0.84340000  0.81180000  0.73380000  1.0 0.140082034
H  H25  1  0.07910000  0.34170000  0.66270000  1.0 0.1187875438
H  H26  1  0.92090000  0.34170000  0.83730000  1.0 0.1187875438
H  H27  1  0.92090000  0.15830000  0.16270000  1.0 0.1187875438
H  H28  1  0.07910000  0.15830000  0.33730000  1.0 0.1187875438
H  H29  1  0.92090000  0.65830000  0.33730000  1.0 0.1187875438
H  H30  1  0.07910000  0.65830000  0.16270000  1.0 0.1187875438
H  H31  1  0.07910000  0.84170000  0.83730000  1.0 0.1187875438
H  H32  1  0.92090000  0.84170000  0.66270000  1.0 0.1187875438
H  H33  1  0.51180000  0.38460000  0.83450000  1.0 0.140082034
H  H34  1  0.48820000  0.38460000  0.66550000  1.0 0.140082034
H  H35  1  0.48820000  0.11540000  0.33450000  1.0 0.140082034
H  H36  1  0.51180000  0.11540000  0.16550000  1.0 0.140082034
H  H37  1  0.48820000  0.61540000  0.16550000  1.0 0.140082034
H  H38  1  0.51180000  0.61540000  0.33450000  1.0 0.140082034
H  H39  1  0.51180000  0.88460000  0.66550000  1.0 0.140082034
H  H40  1  0.48820000  0.88460000  0.83450000  1.0 0.140082034
H  H41  1  0.53300000  0.44390000  0.89990000  1.0 0.1187875438
H  H42  1  0.46700000  0.44390000  0.60010000  1.0 0.1187875438
H  H43  1  0.46700000  0.05610000  0.39990000  1.0 0.1187875438
H  H44  1  0.53300000  0.05610000  0.10010000  1.0 0.1187875438
H  H45  1  0.46700000  0.55610000  0.10010000  1.0 0.1187875438
H  H46  1  0.53300000  0.55610000  0.39990000  1.0 0.1187875438
H  H47  1  0.53300000  0.94390000  0.60010000  1.0 0.1187875438
H  H48  1  0.46700000  0.94390000  0.89990000  1.0 0.1187875438
H  H49  1  0.16650000  0.48980000  0.88900000  1.0 0.1187875438
H  H50  1  0.83350000  0.48980000  0.61100000  1.0 0.1187875438
H  H51  1  0.83350000  0.01020000  0.38900000  1.0 0.1187875438
H  H52  1  0.16650000  0.01020000  0.11100000  1.0 0.1187875438
H  H53  1  0.83350000  0.51020000  0.11100000  1.0 0.1187875438
H  H54  1  0.16650000  0.51020000  0.38900000  1.0 0.1187875438
H  H55  1  0.16650000  0.98980000  0.61100000  1.0 0.1187875438
H  H56  1  0.83350000  0.98980000  0.88900000  1.0 0.1187875438
H  H57  1  0.14780000  0.43030000  0.82310000  1.0 0.140082034
H  H58  1  0.85220000  0.43030000  0.67690000  1.0 0.140082034
H  H59  1  0.85220000  0.06970000  0.32310000  1.0 0.140082034
H  H60  1  0.14780000  0.06970000  0.17690000  1.0 0.140082034
H  H61  1  0.85220000  0.56970000  0.17690000  1.0 0.140082034
H  H62  1  0.14780000  0.56970000  0.32310000  1.0 0.140082034
H  H63  1  0.14780000  0.93030000  0.67690000  1.0 0.140082034
H  H64  1  0.85220000  0.93030000  0.82310000  1.0 0.140082034
H  H65  1  0.86670000  0.36240000  0.01490000  1.0 0.1265635465
H  H66  1  0.13330000  0.36240000  0.48510000  1.0 0.1265635465
H  H67  1  0.13330000  0.13760000  0.51490000  1.0 0.1265635465
H  H68  1  0.86670000  0.13760000  0.98510000  1.0 0.1265635465
H  H69  1  0.13330000  0.63760000  0.98510000  1.0 0.1265635465
H  H70  1  0.86670000  0.63760000  0.51490000  1.0 0.1265635465
H  H71  1  0.86670000  0.86240000  0.48510000  1.0 0.1265635465
H  H72  1  0.13330000  0.86240000  0.01490000  1.0 0.1265635465
H  H73  1  0.13630000  0.34400000  0.10800000  1.0 0.1014518893
H  H74  1  0.86370000  0.34400000  0.39200000  1.0 0.1066398539
H  H75  1  0.86370000  0.15600000  0.60800000  1.0 0.1066398539
H  H76  1  0.13630000  0.15600000  0.89200000  1.0 0.1066398539
H  H77  1  0.86370000  0.65600000  0.89200000  1.0 0.1066398539
H  H78  1  0.13630000  0.65600000  0.60800000  1.0 0.1014518893
H  H79  1  0.13630000  0.84400000  0.39200000  1.0 0.1014518893
H  H80  1  0.86370000  0.84400000  0.10800000  1.0 0.1066398539
H  H81  1  0.96610000  0.27650000  0.12910000  1.0 0.1066398539
H  H82  1  0.03390000  0.27650000  0.37090000  1.0 0.1066398539
H  H83  1  0.03390000  0.22350000  0.62910000  1.0 0.1066398539
H  H84  1  0.96610000  0.22350000  0.87090000  1.0 0.1066398539
H  H85  1  0.03390000  0.72350000  0.87090000  1.0 0.1066398539
H  H86  1  0.96610000  0.72350000  0.62910000  1.0 0.1066398539
H  H87  1  0.96610000  0.77650000  0.37090000  1.0 0.1066398539
H  H88  1  0.03390000  0.77650000  0.12910000  1.0 0.1066398539
H  H89  1  0.81100000  0.19660000  0.06230000  1.0 0.1187875438
H  H90  1  0.18900000  0.19660000  0.43770000  1.0 0.1187875438
H  H91  1  0.18900000  0.30340000  0.56230000  1.0 0.1187875438
H  H92  1  0.81100000  0.30340000  0.93770000  1.0 0.1187875438
H  H93  1  0.18900000  0.80340000  0.93770000  1.0 0.1187875438
H  H94  1  0.81100000  0.80340000  0.56230000  1.0 0.1187875438
H  H95  1  0.81100000  0.69660000  0.43770000  1.0 0.1187875438
H  H96  1  0.18900000  0.69660000  0.06230000  1.0 0.1187875438
H  H97  1  0.61190000  0.15390000  0.05980000  1.0 0.1187875438
H  H98  1  0.38810000  0.15390000  0.44020000  1.0 0.1187875438
H  H99  1  0.38810000  0.34610000  0.55980000  1.0 0.1187875438
H  H100  1  0.61190000  0.34610000  0.94020000  1.0 0.1187875438
H  H101  1  0.38810000  0.84610000  0.94020000  1.0 0.1187875438
H  H102  1  0.61190000  0.84610000  0.55980000  1.0 0.1187875438
H  H103  1  0.61190000  0.65390000  0.44020000  1.0 0.1187875438
H  H104  1  0.38810000  0.65390000  0.05980000  1.0 0.1187875438
H  H105  1  0.45100000  0.31310000  0.07290000  1.0 0.1265635465
H  H106  1  0.54900000  0.31310000  0.42710000  1.0 0.1265635465
H  H107  1  0.54900000  0.18690000  0.57290000  1.0 0.1265635465
H  H108  1  0.45100000  0.18690000  0.92710000  1.0 0.1265635465
H  H109  1  0.54900000  0.68690000  0.92710000  1.0 0.1265635465
H  H110  1  0.45100000  0.68690000  0.57290000  1.0 0.1265635465
H  H111  1  0.45100000  0.81310000  0.42710000  1.0 0.1265635465
H  H112  1  0.54900000  0.81310000  0.07290000  1.0 0.1265635465
H  H113  1  0.65060000  0.35530000  0.07640000  1.0 0.1265635465
H  H114  1  0.34940000  0.35530000  0.42360000  1.0 0.1265635465
H  H115  1  0.34940000  0.14470000  0.57640000  1.0 0.1265635465
H  H116  1  0.65060000  0.14470000  0.92360000  1.0 0.1265635465
H  H117  1  0.34940000  0.64470000  0.92360000  1.0 0.1265635465
H  H118  1  0.65060000  0.64470000  0.57640000  1.0 0.1265635465
H  H119  1  0.65060000  0.85530000  0.42360000  1.0 0.1265635465
H  H120  1  0.34940000  0.85530000  0.07640000  1.0 0.1265635465
H  H121  1  0.29860000  0.23670000  0.11900000  1.0 0.1066398539
H  H122  1  0.70140000  0.23670000  0.38100000  1.0 0.1066398539
H  H123  1  0.70140000  0.26330000  0.61900000  1.0 0.1066398539
H  H124  1  0.29860000  0.26330000  0.88100000  1.0 0.1066398539
H  H125  1  0.70140000  0.76330000  0.88100000  1.0 0.1066398539
H  H126  1  0.29860000  0.76330000  0.61900000  1.0 0.1066398539
H  H127  1  0.29860000  0.73670000  0.38100000  1.0 0.1066398539
H  H128  1  0.70140000  0.73670000  0.11900000  1.0 0.1066398539
H  H129  1  0.13050000  0.16960000  0.09490000  1.0 0.0799277998
H  H130  1  0.86950000  0.16960000  0.40510000  1.0 0.0799277998
H  H131  1  0.86950000  0.33040000  0.59490000  1.0 0.0799277998
H  H132  1  0.13050000  0.33040000  0.90510000  1.0 0.0799277998
H  H133  1  0.86950000  0.83040000  0.90510000  1.0 0.0799277998
H  H134  1  0.13050000  0.83040000  0.59490000  1.0 0.0799277998
H  H135  1  0.13050000  0.66960000  0.40510000  1.0 0.0799277998
H  H136  1  0.86950000  0.66960000  0.09490000  1.0 0.0799277998
H  H137  1  0.41370000  0.14640000  0.00820000  1.0 0.1187875438
H  H138  1  0.58630000  0.14640000  0.49180000  1.0 0.1187875438
H  H139  1  0.58630000  0.35360000  0.50820000  1.0 0.1187875438
H  H140  1  0.41370000  0.35360000  0.99180000  1.0 0.1187875438
H  H141  1  0.58630000  0.85360000  0.99180000  1.0 0.1187875438
H  H142  1  0.41370000  0.85360000  0.50820000  1.0 0.1187875438
H  H143  1  0.41370000  0.64640000  0.49180000  1.0 0.1187875438
H  H144  1  0.58630000  0.64640000  0.00820000  1.0 0.1187875438
H  H145  1  0.27860000  0.43960000  0.08810000  1.0 0.3030107691
H  H146  1  0.72140000  0.43960000  0.41190000  1.0 0.3030107691
H  H147  1  0.72140000  0.06040000  0.58810000  1.0 0.3030107691
H  H148  1  0.27860000  0.06040000  0.91190000  1.0 0.3030107691
H  H149  1  0.72140000  0.56040000  0.91190000  1.0 0.3030107691
H  H150  1  0.27860000  0.56040000  0.58810000  1.0 0.3030107691
H  H151  1  0.27860000  0.93960000  0.41190000  1.0 0.3030107691
H  H152  1  0.72140000  0.93960000  0.08810000  1.0 0.3030107691
H  H153  1  0.36930000  0.42790000  0.05580000  1.0 0.2897005379
H  H154  1  0.63070000  0.42790000  0.44420000  1.0 0.2897005379
H  H155  1  0.63070000  0.07210000  0.55580000  1.0 0.2897005379
H  H156  1  0.36930000  0.07210000  0.94420000  1.0 0.2897005379
H  H157  1  0.63070000  0.57210000  0.94420000  1.0 0.2897005379
H  H158  1  0.36930000  0.57210000  0.55580000  1.0 0.2897005379
H  H159  1  0.36930000  0.92790000  0.44420000  1.0 0.2897005379
H  H160  1  0.63070000  0.92790000  0.05580000  1.0 0.2897005379
H  H161  1  0.98990000  0.24000000  0.08840000  1.0 0.0901182998
H  H162  1  0.01010000  0.24000000  0.41160000  1.0 0.0901182998
H  H163  1  0.01010000  0.26000000  0.58840000  1.0 0.0901182998
H  H164  1  0.98990000  0.26000000  0.91160000  1.0 0.0901182998
H  H165  1  0.01010000  0.76000000  0.91160000  1.0 0.0901182998
H  H166  1  0.98990000  0.76000000  0.58840000  1.0 0.0901182998
H  H167  1  0.98990000  0.74000000  0.41160000  1.0 0.0901182998
H  H168  1  0.01010000  0.74000000  0.08840000  1.0 0.0901182998
H  H169  1  0.16300000  0.30240000  0.06170000  1.0 0.0901182998
H  H170  1  0.83700000  0.30240000  0.43830000  1.0 0.0901182998
H  H171  1  0.83700000  0.19760000  0.56170000  1.0 0.0901182998
H  H172  1  0.16300000  0.19760000  0.93830000  1.0 0.0901182998
H  H173  1  0.83700000  0.69760000  0.93830000  1.0 0.0901182998
H  H174  1  0.16300000  0.69760000  0.56170000  1.0 0.0901182998
H  H175  1  0.16300000  0.80240000  0.43830000  1.0 0.0901182998
H  H176  1  0.83700000  0.80240000  0.06170000  1.0 0.0901182998
H  H177  1  0.84490000  0.38420000  0.03380000  1.0 0.1265635465
H  H178  1  0.15510000  0.38420000  0.46620000  1.0 0.1265635465
H  H179  1  0.15510000  0.11580000  0.53380000  1.0 0.1265635465
H  H180  1  0.84490000  0.11580000  0.96620000  1.0 0.1265635465
H  H181  1  0.15510000  0.61580000  0.96620000  1.0 0.1265635465
H  H182  1  0.84490000  0.61580000  0.53380000  1.0 0.1265635465
H  H183  1  0.84490000  0.88420000  0.46620000  1.0 0.1265635465
H  H184  1  0.15510000  0.88420000  0.03380000  1.0 0.1265635465
H  H185  1  0.24840000  0.26170000  0.08560000  1.0 0.0533117316
H  H186  1  0.75160000  0.26170000  0.41440000  1.0 0.0533117316
H  H187  1  0.75160000  0.23830000  0.58560000  1.0 0.0533117316
H  H188  1  0.24840000  0.23830000  0.91440000  1.0 0.0533117316
H  H189  1  0.75160000  0.73830000  0.91440000  1.0 0.0533117316
H  H190  1  0.24840000  0.73830000  0.58560000  1.0 0.0533117316
H  H191  1  0.24840000  0.76170000  0.41440000  1.0 0.0533117316
H  H192  1  0.75160000  0.76170000  0.08560000  1.0 0.0533117316
H  H193  1  0.08590000  0.19600000  0.05530000  1.0 0.0799277998
H  H194  1  0.91410000  0.19600000  0.44470000  1.0 0.0799277998
H  H195  1  0.91410000  0.30400000  0.55530000  1.0 0.0799277998
H  H196  1  0.08590000  0.30400000  0.94470000  1.0 0.0799277998
H  H197  1  0.91410000  0.80400000  0.94470000  1.0 0.0799277998
H  H198  1  0.08590000  0.80400000  0.55530000  1.0 0.0799277998
H  H199  1  0.08590000  0.69600000  0.44470000  1.0 0.0799277998
H  H200  1  0.91410000  0.69600000  0.05530000  1.0 0.0799277998
H  H201  1  0.41590000  0.12770000  0.02350000  1.0 0.1187875438
H  H202  1  0.58410000  0.12770000  0.47650000  1.0 0.1187875438
H  H203  1  0.58410000  0.37230000  0.52350000  1.0 0.1187875438
H  H204  1  0.41590000  0.37230000  0.97650000  1.0 0.1187875438
H  H205  1  0.58410000  0.87230000  0.97650000  1.0 0.1187875438
H  H206  1  0.41590000  0.87230000  0.52350000  1.0 0.1187875438
H  H207  1  0.41590000  0.62770000  0.47650000  1.0 0.1187875438
H  H208  1  0.58410000  0.62770000  0.02350000  1.0 0.1187875438
C  C1  1  0.11760000  0.43960000  0.61471000  1.0 0.2379598952
C  C2  1  0.88240000  0.43960000  0.88529000  1.0 0.2379598952
C  C3  1  0.88240000  0.06040000  0.11471000  1.0 0.2379598952
C  C4  1  0.11760000  0.06040000  0.38529000  1.0 0.2379598952
C  C5  1  0.88240000  0.56040000  0.38529000  1.0 0.2379598952
C  C6  1  0.11760000  0.56040000  0.11471000  1.0 0.2379598952
C  C7  1  0.11760000  0.93960000  0.88529000  1.0 0.2379598952
C  C8  1  0.88240000  0.93960000  0.61471000  1.0 0.2379598952
C  C9  1  0.16890000  0.41940000  0.65977000  1.0 0.0237290793
C  C10  1  0.83110000  0.41940000  0.84023000  1.0 0.0237290793
C  C11  1  0.83110000  0.08060000  0.15977000  1.0 0.0237290793
C  C12  1  0.16890000  0.08060000  0.34023000  1.0 0.0237290793
C  C13  1  0.83110000  0.58060000  0.34023000  1.0 0.0237290793
C  C14  1  0.16890000  0.58060000  0.15977000  1.0 0.0237290793
C  C15  1  0.16890000  0.91940000  0.84023000  1.0 0.0237290793
C  C16  1  0.83110000  0.91940000  0.65977000  1.0 0.0237290793
C  C17  1  0.24980000  0.45490000  0.68433000  1.0 -0.0983115398
C  C18  1  0.75020000  0.45490000  0.81567000  1.0 -0.0983115398
C  C19  1  0.75020000  0.04510000  0.18433000  1.0 -0.0983115398
C  C20  1  0.24980000  0.04510000  0.31567000  1.0 -0.0983115398
C  C21  1  0.75020000  0.54510000  0.31567000  1.0 -0.0983115398
C  C22  1  0.24980000  0.54510000  0.18433000  1.0 -0.0983115398
C  C23  1  0.24980000  0.95490000  0.81567000  1.0 -0.0983115398
C  C24  1  0.75020000  0.95490000  0.68433000  1.0 -0.0983115398
C  C25  1  0.29760000  0.43700000  0.72693000  1.0 -0.2033777467
C  C26  1  0.70240000  0.43700000  0.77307000  1.0 -0.2033777467
C  C27  1  0.70240000  0.06300000  0.22693000  1.0 -0.2033777467
C  C28  1  0.29760000  0.06300000  0.27307000  1.0 -0.2093494842
C  C29  1  0.70240000  0.56300000  0.27307000  1.0 -0.2033777467
C  C30  1  0.29760000  0.56300000  0.22693000  1.0 -0.2033777467
C  C31  1  0.29760000  0.93700000  0.77307000  1.0 -0.2033777467
C  C32  1  0.70240000  0.93700000  0.72693000  1.0 -0.2033777467
C  C33  1  0.26460000  0.38290000  0.74523000  1.0 0.2521475925
C  C34  1  0.73540000  0.38290000  0.75477000  1.0 0.2521475925
C  C35  1  0.73540000  0.11710000  0.24523000  1.0 0.2521475925
C  C36  1  0.26460000  0.11710000  0.25477000  1.0 0.2521475925
C  C37  1  0.73540000  0.61710000  0.25477000  1.0 0.2521475925
C  C38  1  0.26460000  0.61710000  0.24523000  1.0 0.2521475925
C  C39  1  0.26460000  0.88290000  0.75477000  1.0 0.2521475925
C  C40  1  0.73540000  0.88290000  0.74523000  1.0 0.2521475925
C  C41  1  0.18140000  0.34770000  0.72130000  1.0 -0.2033777467
C  C42  1  0.81860000  0.34770000  0.77870000  1.0 -0.2033777467
C  C43  1  0.81860000  0.15230000  0.22130000  1.0 -0.2033777467
C  C44  1  0.18140000  0.15230000  0.27870000  1.0 -0.2033777467
C  C45  1  0.81860000  0.65230000  0.27870000  1.0 -0.2033777467
C  C46  1  0.18140000  0.65230000  0.22130000  1.0 -0.2033777467
C  C47  1  0.18140000  0.84770000  0.77870000  1.0 -0.2033777467
C  C48  1  0.81860000  0.84770000  0.72130000  1.0 -0.2033777467
C  C49  1  0.13480000  0.36590000  0.67890000  1.0 -0.1400902421
C  C50  1  0.86520000  0.36590000  0.82110000  1.0 -0.1400902421
C  C51  1  0.86520000  0.13410000  0.17890000  1.0 -0.1400902421
C  C52  1  0.13480000  0.13410000  0.32110000  1.0 -0.1400902421
C  C53  1  0.86520000  0.63410000  0.32110000  1.0 -0.1400902421
C  C54  1  0.13480000  0.63410000  0.17890000  1.0 -0.1400902421
C  C55  1  0.13480000  0.86590000  0.82110000  1.0 -0.1400902421
C  C56  1  0.86520000  0.86590000  0.67890000  1.0 -0.1400902421
C  C57  1  0.32780000  0.40170000  0.82390000  1.0 0.214881787
C  C58  1  0.67220000  0.40170000  0.67610000  1.0 0.214881787
C  C59  1  0.67220000  0.09830000  0.32390000  1.0 0.214881787
C  C60  1  0.32780000  0.09830000  0.17610000  1.0 0.214881787
C  C61  1  0.67220000  0.59830000  0.17610000  1.0 0.214881787
C  C62  1  0.32780000  0.59830000  0.32390000  1.0 0.214881787
C  C63  1  0.32780000  0.90170000  0.67610000  1.0 0.214881787
C  C64  1  0.67220000  0.90170000  0.82390000  1.0 0.214881787
C  C65  1  0.44290000  0.40560000  0.84576000  1.0 -0.2093494842
C  C66  1  0.55710000  0.40560000  0.65424000  1.0 -0.2093494842
C  C67  1  0.55710000  0.09440000  0.34576000  1.0 -0.2093494842
C  C68  1  0.44290000  0.09440000  0.15424000  1.0 -0.2093494842
C  C69  1  0.55710000  0.59440000  0.15424000  1.0 -0.2093494842
C  C70  1  0.44290000  0.59440000  0.34576000  1.0 -0.2093494842
C  C71  1  0.44290000  0.90560000  0.65424000  1.0 -0.2093494842
C  C72  1  0.55710000  0.90560000  0.84576000  1.0 -0.2093494842
C  C73  1  0.45560000  0.44109000  0.88468000  1.0 -0.1400902421
C  C74  1  0.54440000  0.44109000  0.61532000  1.0 -0.1400902421
C  C75  1  0.54440000  0.05891000  0.38468000  1.0 -0.1400902421
C  C76  1  0.45560000  0.05891000  0.11532000  1.0 -0.1400902421
C  C77  1  0.54440000  0.55891000  0.11532000  1.0 -0.1400902421
C  C78  1  0.45560000  0.55891000  0.38468000  1.0 -0.1400902421
C  C79  1  0.45560000  0.94109000  0.61532000  1.0 -0.1400902421
C  C80  1  0.54440000  0.94109000  0.88468000  1.0 -0.1400902421
C  C81  1  0.35090000  0.47283000  0.90109000  1.0 0.0079153147
C  C82  1  0.64910000  0.47283000  0.59891000  1.0 0.0079153147
C  C83  1  0.64910000  0.02717000  0.40109000  1.0 0.0079153147
C  C84  1  0.35090000  0.02717000  0.09891000  1.0 0.0079153147
C  C85  1  0.64910000  0.52717000  0.09891000  1.0 0.0079153147
C  C86  1  0.35090000  0.52717000  0.40109000  1.0 0.0079153147
C  C87  1  0.35090000  0.97283000  0.59891000  1.0 0.0079153147
C  C88  1  0.64910000  0.97283000  0.90109000  1.0 0.0079153147
C  C89  1  0.23590000  0.46870000  0.87821000  1.0 -0.1400902421
C  C90  1  0.76410000  0.46870000  0.62179000  1.0 -0.1400902421
C  C91  1  0.76410000  0.03130000  0.37821000  1.0 -0.1400902421
C  C92  1  0.23590000  0.03130000  0.12179000  1.0 -0.1400902421
C  C93  1  0.76410000  0.53130000  0.12179000  1.0 -0.1400902421
C  C94  1  0.23590000  0.53130000  0.37821000  1.0 -0.1400902421
C  C95  1  0.23590000  0.96870000  0.62179000  1.0 -0.1400902421
C  C96  1  0.76410000  0.96870000  0.87821000  1.0 -0.1400902421
C  C97  1  0.22440000  0.43290000  0.83893000  1.0 -0.215127444
C  C98  1  0.77560000  0.43290000  0.66107000  1.0 -0.215127444
C  C99  1  0.77560000  0.06710000  0.33893000  1.0 -0.215127444
C  C100  1  0.22440000  0.06710000  0.16107000  1.0 -0.215127444
C  C101  1  0.77560000  0.56710000  0.16107000  1.0 -0.215127444
C  C102  1  0.22440000  0.56710000  0.33893000  1.0 -0.215127444
C  C103  1  0.22440000  0.93290000  0.66107000  1.0 -0.215127444
C  C104  1  0.77560000  0.93290000  0.83893000  1.0 -0.215127444
C  C105  1  0.36060000  0.50809000  0.94411000  1.0 0.2312819883
C  C106  1  0.63940000  0.50809000  0.55589000  1.0 0.2312819883
C  C107  1  0.63940000  0.99191000  0.44411000  1.0 0.2312819883
C  C108  1  0.36060000  0.99191000  0.05589000  1.0 0.2312819883
C  C109  1  0.63940000  0.49191000  0.05589000  1.0 0.2312819883
C  C110  1  0.36060000  0.49191000  0.44411000  1.0 0.2312819883
C  C111  1  0.36060000  0.00809000  0.55589000  1.0 0.2312819883
C  C112  1  0.63940000  0.00809000  0.94411000  1.0 0.2312819883
C  C113  1  0.91150000  0.35070000  0.04130000  1.0 0.0027407314
C  C114  1  0.08850000  0.35070000  0.45870000  1.0 0.0027407314
C  C115  1  0.08850000  0.14930000  0.54130000  1.0 0.0027407314
C  C116  1  0.91150000  0.14930000  0.95870000  1.0 0.0027407314
C  C117  1  0.08850000  0.64930000  0.95870000  1.0 0.0027407314
C  C118  1  0.91150000  0.64930000  0.54130000  1.0 0.0027407314
C  C119  1  0.91150000  0.85070000  0.45870000  1.0 0.0027407314
C  C120  1  0.08850000  0.85070000  0.04130000  1.0 0.0027407314
C  C121  1  0.06000000  0.33990000  0.09210000  1.0 -0.0617219854
C  C122  1  0.94000000  0.33990000  0.40790000  1.0 -0.0617219854
C  C123  1  0.94000000  0.16010000  0.59210000  1.0 -0.0617219854
C  C124  1  0.06000000  0.16010000  0.90790000  1.0 -0.0617219854
C  C125  1  0.94000000  0.66010000  0.90790000  1.0 -0.0617219854
C  C126  1  0.06000000  0.66010000  0.59210000  1.0 -0.0617219854
C  C127  1  0.06000000  0.83990000  0.40790000  1.0 -0.0617219854
C  C128  1  0.94000000  0.83990000  0.09210000  1.0 -0.0617219854
C  C129  1  0.96570000  0.30280000  0.10420000  1.0 -0.0303481228
C  C130  1  0.03430000  0.30280000  0.39580000  1.0 -0.0303481228
C  C131  1  0.03430000  0.19720000  0.60420000  1.0 -0.0303481228
C  C132  1  0.96570000  0.19720000  0.89580000  1.0 -0.0303481228
C  C133  1  0.03430000  0.69720000  0.89580000  1.0 -0.0303481228
C  C134  1  0.96570000  0.69720000  0.60420000  1.0 -0.0303481228
C  C135  1  0.96570000  0.80280000  0.39580000  1.0 -0.0303481228
C  C136  1  0.03430000  0.80280000  0.10420000  1.0 -0.0303481228
C  C137  1  0.74880000  0.28063000  0.06894000  1.0 0.140082034
C  C138  1  0.25120000  0.28063000  0.43106000  1.0 0.140082034
C  C139  1  0.25120000  0.21937000  0.56894000  1.0 0.140082034
C  C140  1  0.74880000  0.21937000  0.93106000  1.0 0.140082034
C  C141  1  0.25120000  0.71937000  0.93106000  1.0 0.140082034
C  C142  1  0.74880000  0.71937000  0.56894000  1.0 0.140082034
C  C143  1  0.74880000  0.78063000  0.43106000  1.0 0.140082034
C  C144  1  0.25120000  0.78063000  0.06894000  1.0 0.140082034
C  C145  1  0.73880000  0.21978000  0.06422000  1.0 -0.3057185449
C  C146  1  0.26120000  0.21978000  0.43578000  1.0 -0.3057185449
C  C147  1  0.26120000  0.28022000  0.56422000  1.0 -0.3057185449
C  C148  1  0.73880000  0.28022000  0.93578000  1.0 -0.3057185449
C  C149  1  0.26120000  0.78022000  0.93578000  1.0 -0.3057185449
C  C150  1  0.73880000  0.78022000  0.56422000  1.0 -0.3057185449
C  C151  1  0.73880000  0.71978000  0.43578000  1.0 -0.3057185449
C  C152  1  0.26120000  0.71978000  0.06422000  1.0 -0.3057185449
C  C153  1  0.62010000  0.19439000  0.06249000  1.0 -0.2975937724
C  C154  1  0.37990000  0.19439000  0.43751000  1.0 -0.2975937724
C  C155  1  0.37990000  0.30561000  0.56249000  1.0 -0.2975937724
C  C156  1  0.62010000  0.30561000  0.93751000  1.0 -0.2975937724
C  C157  1  0.37990000  0.80561000  0.93751000  1.0 -0.2975937724
C  C158  1  0.62010000  0.80561000  0.56249000  1.0 -0.2975937724
C  C159  1  0.62010000  0.69439000  0.43751000  1.0 -0.2975937724
C  C160  1  0.37990000  0.69439000  0.06249000  1.0 -0.2975937724
C  C161  1  0.51430000  0.22946000  0.06479000  1.0 0.140082034
C  C162  1  0.48570000  0.22946000  0.43521000  1.0 0.140082034
C  C163  1  0.48570000  0.27054000  0.56479000  1.0 0.140082034
C  C164  1  0.51430000  0.27054000  0.93521000  1.0 0.140082034
C  C165  1  0.48570000  0.77054000  0.93521000  1.0 0.140082034
C  C166  1  0.51430000  0.77054000  0.56479000  1.0 0.140082034
C  C167  1  0.51430000  0.72946000  0.43521000  1.0 0.140082034
C  C168  1  0.48570000  0.72946000  0.06479000  1.0 0.140082034
C  C169  1  0.52320000  0.28998000  0.07050000  1.0 -0.2832883352
C  C170  1  0.47680000  0.28998000  0.42950000  1.0 -0.2832883352
C  C171  1  0.47680000  0.21002000  0.57050000  1.0 -0.2832883352
C  C172  1  0.52320000  0.21002000  0.92950000  1.0 -0.2832883352
C  C173  1  0.47680000  0.71002000  0.92950000  1.0 -0.2832883352
C  C174  1  0.52320000  0.71002000  0.57050000  1.0 -0.2832883352
C  C175  1  0.52320000  0.78998000  0.42950000  1.0 -0.2832883352
C  C176  1  0.47680000  0.78998000  0.07050000  1.0 -0.2832883352
C  C177  1  0.64240000  0.31490000  0.07254000  1.0 -0.2033777467
C  C178  1  0.35760000  0.31490000  0.42746000  1.0 -0.2033777467
C  C179  1  0.35760000  0.18510000  0.57254000  1.0 -0.2033777467
C  C180  1  0.64240000  0.18510000  0.92746000  1.0 -0.2033777467
C  C181  1  0.35760000  0.68510000  0.92746000  1.0 -0.2033777467
C  C182  1  0.64240000  0.68510000  0.57254000  1.0 -0.2033777467
C  C183  1  0.64240000  0.81490000  0.42746000  1.0 -0.2033777467
C  C184  1  0.35760000  0.81490000  0.07254000  1.0 -0.2033777467
C  C185  1  0.30170000  0.21010000  0.09440000  1.0 -0.0303481228
C  C186  1  0.69830000  0.21010000  0.40560000  1.0 -0.0303481228
C  C187  1  0.69830000  0.28990000  0.59440000  1.0 -0.0303481228
C  C188  1  0.30170000  0.28990000  0.90560000  1.0 -0.0303481228
C  C189  1  0.69830000  0.78990000  0.90560000  1.0 -0.0303481228
C  C190  1  0.30170000  0.78990000  0.59440000  1.0 -0.0303481228
C  C191  1  0.30170000  0.71010000  0.40560000  1.0 -0.0303481228
C  C192  1  0.69830000  0.71010000  0.09440000  1.0 -0.0303481228
C  C193  1  0.20910000  0.17290000  0.08060000  1.0 -0.0105341875
C  C194  1  0.79090000  0.17290000  0.41940000  1.0 -0.0105341875
C  C195  1  0.79090000  0.32710000  0.58060000  1.0 -0.0105341875
C  C196  1  0.20910000  0.32710000  0.91940000  1.0 -0.0105341875
C  C197  1  0.79090000  0.82710000  0.91940000  1.0 -0.0105341875
C  C198  1  0.20910000  0.82710000  0.58060000  1.0 -0.0105341875
C  C199  1  0.20910000  0.67290000  0.41940000  1.0 -0.0105341875
C  C200  1  0.79090000  0.67290000  0.08060000  1.0 -0.0105341875
C  C201  1  0.36450000  0.15950000  0.03300000  1.0 -0.0105341875
C  C202  1  0.63550000  0.15950000  0.46700000  1.0 -0.0105341875
C  C203  1  0.63550000  0.34050000  0.53300000  1.0 -0.0105341875
C  C204  1  0.36450000  0.34050000  0.96700000  1.0 -0.0105341875
C  C205  1  0.63550000  0.84050000  0.96700000  1.0 -0.0105341875
C  C206  1  0.36450000  0.84050000  0.53300000  1.0 -0.0105341875
C  C207  1  0.36450000  0.65950000  0.46700000  1.0 -0.0105341875
C  C208  1  0.63550000  0.65950000  0.03300000  1.0 -0.0105341875
C  C209  1  0.98190000  0.27520000  0.07220000  1.0 -0.0617219854
C  C210  1  0.01810000  0.27520000  0.42780000  1.0 -0.0617219854
C  C211  1  0.01810000  0.22480000  0.57220000  1.0 -0.0617219854
C  C212  1  0.98190000  0.22480000  0.92780000  1.0 -0.0617219854
C  C213  1  0.01810000  0.72480000  0.92780000  1.0 -0.0617219854
C  C214  1  0.98190000  0.72480000  0.57220000  1.0 -0.0617219854
C  C215  1  0.98190000  0.77520000  0.42780000  1.0 -0.0617219854
C  C216  1  0.01810000  0.77520000  0.07220000  1.0 -0.0617219854
C  C217  1  0.07740000  0.31010000  0.05770000  1.0 -0.0724478961
C  C218  1  0.92260000  0.31010000  0.44230000  1.0 -0.0724478961
C  C219  1  0.92260000  0.18990000  0.55770000  1.0 -0.0724478961
C  C220  1  0.07740000  0.18990000  0.94230000  1.0 -0.0724478961
C  C221  1  0.92260000  0.68990000  0.94230000  1.0 -0.0724478961
C  C222  1  0.07740000  0.68990000  0.55770000  1.0 -0.0724478961
C  C223  1  0.07740000  0.81010000  0.44230000  1.0 -0.0724478961
C  C224  1  0.92260000  0.81010000  0.05770000  1.0 -0.0724478961
C  C225  1  0.90220000  0.35470000  0.04130000  1.0 -0.0617219854
C  C226  1  0.09780000  0.35470000  0.45870000  1.0 -0.0617219854
C  C227  1  0.09780000  0.14530000  0.54130000  1.0 -0.0617219854
C  C228  1  0.90220000  0.14530000  0.95870000  1.0 -0.0617219854
C  C229  1  0.09780000  0.64530000  0.95870000  1.0 -0.0617219854
C  C230  1  0.90220000  0.64530000  0.54130000  1.0 -0.0617219854
C  C231  1  0.90220000  0.85470000  0.45870000  1.0 -0.0617219854
C  C232  1  0.09780000  0.85470000  0.04130000  1.0 -0.0617219854
C  C233  1  0.26200000  0.22810000  0.06790000  1.0 -0.0380198844
C  C234  1  0.73800000  0.22810000  0.43210000  1.0 -0.0380198844
C  C235  1  0.73800000  0.27190000  0.56790000  1.0 -0.0380198844
C  C236  1  0.26200000  0.27190000  0.93210000  1.0 -0.0380198844
C  C237  1  0.73800000  0.77190000  0.93210000  1.0 -0.0380198844
C  C238  1  0.26200000  0.77190000  0.56790000  1.0 -0.0380198844
C  C239  1  0.26200000  0.72810000  0.43210000  1.0 -0.0380198844
C  C240  1  0.73800000  0.72810000  0.06790000  1.0 -0.0380198844
C  C241  1  0.17250000  0.19120000  0.05140000  1.0 -0.0617219854
C  C242  1  0.82750000  0.19120000  0.44860000  1.0 -0.0617219854
C  C243  1  0.82750000  0.30880000  0.55140000  1.0 -0.0617219854
C  C244  1  0.17250000  0.30880000  0.94860000  1.0 -0.0617219854
C  C245  1  0.82750000  0.80880000  0.94860000  1.0 -0.0617219854
C  C246  1  0.17250000  0.80880000  0.55140000  1.0 -0.0617219854
C  C247  1  0.17250000  0.69120000  0.44860000  1.0 -0.0617219854
C  C248  1  0.82750000  0.69120000  0.05140000  1.0 -0.0617219854
C  C249  1  0.35400000  0.15410000  0.03290000  1.0 0.0079153147
C  C250  1  0.64600000  0.15410000  0.46710000  1.0 0.0079153147
C  C251  1  0.64600000  0.34590000  0.53290000  1.0 0.0027407314
C  C252  1  0.35400000  0.34590000  0.96710000  1.0 0.0079153147
C  C253  1  0.64600000  0.84590000  0.96710000  1.0 0.0027407314
C  C254  1  0.35400000  0.84590000  0.53290000  1.0 0.0027407314
C  C255  1  0.35400000  0.65410000  0.46710000  1.0 0.0027407314
C  C256  1  0.64600000  0.65410000  0.03290000  1.0 0.0027407314
N  N1  1  0.02610000  0.37030000  0.05330000  1.0 0.0799277998
N  N2  1  0.97390000  0.37030000  0.44670000  1.0 0.0799277998
N  N3  1  0.97390000  0.12970000  0.55330000  1.0 0.0799277998
N  N4  1  0.02610000  0.12970000  0.94670000  1.0 0.0799277998
N  N5  1  0.97390000  0.62970000  0.94670000  1.0 0.0799277998
N  N6  1  0.02610000  0.62970000  0.55330000  1.0 0.0799277998
N  N7  1  0.02610000  0.87030000  0.44670000  1.0 0.0799277998
N  N8  1  0.97390000  0.87030000  0.05330000  1.0 0.0799277998
N  N9  1  0.87050000  0.31120000  0.07340000  1.0 0.1265635465
N  N10  1  0.12950000  0.31120000  0.42660000  1.0 0.1265635465
N  N11  1  0.12950000  0.18880000  0.57340000  1.0 0.1265635465
N  N12  1  0.87050000  0.18880000  0.92660000  1.0 0.1265635465
N  N13  1  0.12950000  0.68880000  0.92660000  1.0 0.1265635465
N  N14  1  0.87050000  0.68880000  0.57340000  1.0 0.1265635465
N  N15  1  0.87050000  0.81120000  0.42660000  1.0 0.1265635465
N  N16  1  0.12950000  0.81120000  0.07340000  1.0 0.1265635465
N  N17  1  0.40090000  0.20050000  0.06470000  1.0 0.1014518893
N  N18  1  0.59910000  0.20050000  0.43530000  1.0 0.1014518893
N  N19  1  0.59910000  0.29950000  0.56470000  1.0 0.1014518893
N  N20  1  0.40090000  0.29950000  0.93530000  1.0 0.1014518893
N  N21  1  0.59910000  0.79950000  0.93530000  1.0 0.1014518893
N  N22  1  0.40090000  0.79950000  0.56470000  1.0 0.1014518893
N  N23  1  0.40090000  0.70050000  0.43530000  1.0 0.1014518893
N  N24  1  0.59910000  0.70050000  0.06470000  1.0 0.1014518893
N  N25  1  0.24740000  0.14090000  0.04260000  1.0 0.0799277998
N  N26  1  0.75260000  0.14090000  0.45740000  1.0 0.0799277998
N  N27  1  0.75260000  0.35910000  0.54260000  1.0 0.0799277998
N  N28  1  0.24740000  0.35910000  0.95740000  1.0 0.0799277998
N  N29  1  0.75260000  0.85910000  0.95740000  1.0 0.0799277998
N  N30  1  0.24740000  0.85910000  0.54260000  1.0 0.0799277998
N  N31  1  0.24740000  0.64090000  0.45740000  1.0 0.0799277998
N  N32  1  0.75260000  0.64090000  0.04260000  1.0 0.0799277998
N  N33  1  0.13330000  0.49440000  0.59881000  1.0 -0.2904619858
N  N34  1  0.86670000  0.49440000  0.90119000  1.0 -0.2904619858
N  N35  1  0.86670000  0.00560000  0.09881000  1.0 -0.2904619858
N  N36  1  0.13330000  0.00560000  0.40119000  1.0 -0.2904619858
N  N37  1  0.86670000  0.50560000  0.40119000  1.0 -0.2904619858
N  N38  1  0.13330000  0.50560000  0.09881000  1.0 -0.2904619858
N  N39  1  0.13330000  0.99440000  0.90119000  1.0 -0.2904619858
N  N40  1  0.86670000  0.99440000  0.59881000  1.0 -0.2904619858
N  N41  1  0.07080000  0.49537000  0.55727000  1.0 -0.1400902421
N  N42  1  0.92920000  0.49537000  0.94273000  1.0 -0.1400902421
N  N43  1  0.92920000  0.00463000  0.05727000  1.0 -0.1400902421
N  N44  1  0.07080000  0.00463000  0.44273000  1.0 -0.1400902421
N  N45  1  0.92920000  0.50463000  0.44273000  1.0 -0.1400902421
N  N46  1  0.07080000  0.50463000  0.05727000  1.0 -0.1400902421
N  N47  1  0.07080000  0.99537000  0.94273000  1.0 -0.1400902421
N  N48  1  0.92920000  0.99537000  0.55727000  1.0 -0.1400902421
N  N49  1  0.02090000  0.44303000  0.54983000  1.0 -0.1580042787
N  N50  1  0.97910000  0.44303000  0.95017000  1.0 -0.1580042787
N  N51  1  0.97910000  0.05697000  0.04983000  1.0 -0.1546917633
N  N52  1  0.02090000  0.05697000  0.45017000  1.0 -0.1546917633
N  N53  1  0.97910000  0.55697000  0.45017000  1.0 -0.1580042787
N  N54  1  0.02090000  0.55697000  0.04983000  1.0 -0.1580042787
N  N55  1  0.02090000  0.94303000  0.95017000  1.0 -0.1580042787
N  N56  1  0.97910000  0.94303000  0.54983000  1.0 -0.1580042787
N  N57  1  0.04930000  0.40642000  0.58535000  1.0 -0.3645210937
N  N58  1  0.95070000  0.40642000  0.91465000  1.0 -0.3645210937
N  N59  1  0.95070000  0.09358000  0.08535000  1.0 -0.3645210937
N  N60  1  0.04930000  0.09358000  0.41465000  1.0 -0.3645210937
N  N61  1  0.95070000  0.59358000  0.41465000  1.0 -0.3645210937
N  N62  1  0.04930000  0.59358000  0.08535000  1.0 -0.3645210937
N  N63  1  0.04930000  0.90642000  0.91465000  1.0 -0.3645210937
N  N64  1  0.95070000  0.90642000  0.58535000  1.0 -0.3645210937
N  N65  1  0.45190000  0.54643000  0.95343000  1.0 -0.2832883352
N  N66  1  0.54810000  0.54643000  0.54657000  1.0 -0.2832883352
N  N67  1  0.54810000  0.95357000  0.45343000  1.0 -0.2904619858
N  N68  1  0.45190000  0.95357000  0.04657000  1.0 -0.2904619858
N  N69  1  0.54810000  0.45357000  0.04657000  1.0 -0.2832883352
N  N70  1  0.45190000  0.45357000  0.45343000  1.0 -0.2832883352
N  N71  1  0.45190000  0.04643000  0.54657000  1.0 -0.2832883352
N  N72  1  0.54810000  0.04643000  0.95343000  1.0 -0.2832883352
N  N73  1  0.42160000  0.56911000  0.99630000  1.0 -0.1546917633
N  N74  1  0.57840000  0.56911000  0.50370000  1.0 -0.1546917633
N  N75  1  0.57840000  0.93089000  0.49630000  1.0 -0.1546917633
N  N76  1  0.42160000  0.93089000  0.00370000  1.0 -0.1546917633
N  N77  1  0.57840000  0.43089000  0.00370000  1.0 -0.1546917633
N  N78  1  0.42160000  0.43089000  0.49630000  1.0 -0.1546917633
N  N79  1  0.42160000  0.06911000  0.50370000  1.0 -0.1546917633
N  N80  1  0.57840000  0.06911000  0.99630000  1.0 -0.1546917633
N  N81  1  0.31650000  0.54555000  0.01106000  1.0 -0.0889398568
N  N82  1  0.68350000  0.54555000  0.48894000  1.0 -0.0889398568
N  N83  1  0.68350000  0.95445000  0.51106000  1.0 -0.0889398568
N  N84  1  0.31650000  0.95445000  0.98894000  1.0 -0.0889398568
N  N85  1  0.68350000  0.45445000  0.98894000  1.0 -0.0889398568
N  N86  1  0.31650000  0.45445000  0.51106000  1.0 -0.0889398568
N  N87  1  0.31650000  0.04555000  0.48894000  1.0 -0.0889398568
N  N88  1  0.68350000  0.04555000  0.01106000  1.0 -0.0889398568
N  N89  1  0.27600000  0.50595000  0.97889000  1.0 -0.3347785697
N  N90  1  0.72400000  0.50595000  0.52111000  1.0 -0.3347785697
N  N91  1  0.72400000  0.99405000  0.47889000  1.0 -0.3347785697
N  N92  1  0.27600000  0.99405000  0.02111000  1.0 -0.3347785697
N  N93  1  0.72400000  0.49405000  0.02111000  1.0 -0.3347785697
N  N94  1  0.27600000  0.49405000  0.47889000  1.0 -0.3347785697
N  N95  1  0.27600000  0.00595000  0.52111000  1.0 -0.3347785697
N  N96  1  0.72400000  0.00595000  0.97889000  1.0 -0.3347785697
N  N97  1  0.87220000  0.30120000  0.05880000  1.0 0.0901182998
N  N98  1  0.12780000  0.30120000  0.44120000  1.0 0.0901182998
N  N99  1  0.12780000  0.19880000  0.55880000  1.0 0.0901182998
N  N100  1  0.87220000  0.19880000  0.94120000  1.0 0.0901182998
N  N101  1  0.12780000  0.69880000  0.94120000  1.0 0.0901182998
N  N102  1  0.87220000  0.69880000  0.55880000  1.0 0.0901182998
N  N103  1  0.87220000  0.80120000  0.44120000  1.0 0.0901182998
N  N104  1  0.12780000  0.80120000  0.05880000  1.0 0.0901182998
N  N105  1  0.02830000  0.35800000  0.03650000  1.0 -0.0510485736
N  N106  1  0.97170000  0.35800000  0.46350000  1.0 -0.0510485736
N  N107  1  0.97170000  0.14200000  0.53650000  1.0 -0.0510485736
N  N108  1  0.02830000  0.14200000  0.96350000  1.0 -0.0510485736
N  N109  1  0.97170000  0.64200000  0.96350000  1.0 -0.0510485736
N  N110  1  0.02830000  0.64200000  0.53650000  1.0 -0.0510485736
N  N111  1  0.02830000  0.85800000  0.46350000  1.0 -0.0510485736
N  N112  1  0.97170000  0.85800000  0.03650000  1.0 -0.0510485736
N  N113  1  0.37650000  0.20680000  0.05360000  1.0 0.0799277998
N  N114  1  0.62350000  0.20680000  0.44640000  1.0 0.0799277998
N  N115  1  0.62350000  0.29320000  0.55360000  1.0 0.0799277998
N  N116  1  0.37650000  0.29320000  0.94640000  1.0 0.0799277998
N  N117  1  0.62350000  0.79320000  0.94640000  1.0 0.0799277998
N  N118  1  0.37650000  0.79320000  0.55360000  1.0 0.0799277998
N  N119  1  0.37650000  0.70680000  0.44640000  1.0 0.0799277998
N  N120  1  0.62350000  0.70680000  0.05360000  1.0 0.0799277998
N  N121  1  0.22850000  0.14600000  0.02820000  1.0 -0.1580042787
N  N122  1  0.77150000  0.14600000  0.47180000  1.0 -0.1580042787
N  N123  1  0.77150000  0.35400000  0.52820000  1.0 -0.1580042787
N  N124  1  0.22850000  0.35400000  0.97180000  1.0 -0.1580042787
N  N125  1  0.77150000  0.85400000  0.97180000  1.0 -0.1580042787
N  N126  1  0.22850000  0.85400000  0.52820000  1.0 -0.1580042787
N  N127  1  0.22850000  0.64600000  0.47180000  1.0 -0.1580042787
N  N128  1  0.77150000  0.64600000  0.02820000  1.0 -0.1580042787
O  O1  1  0.29940000  0.41566000  0.06663000  1.0 -0.6765337215
O  O2  1  0.70060000  0.41566000  0.43337000  1.0 -0.6765337215
O  O3  1  0.70060000  0.08434000  0.56663000  1.0 -0.6765337215
O  O4  1  0.29940000  0.08434000  0.93337000  1.0 -0.6765337215
O  O5  1  0.70060000  0.58434000  0.93337000  1.0 -0.6765337215
O  O6  1  0.29940000  0.58434000  0.56663000  1.0 -0.6765337215
O  O7  1  0.29940000  0.91566000  0.43337000  1.0 -0.6765337215
O  O8  1  0.70060000  0.91566000  0.06663000  1.0 -0.6765337215
O  O9  1  0.31590000  0.36160000  0.78628000  1.0 -0.2607134805
O  O10  1  0.68410000  0.36160000  0.71372000  1.0 -0.2607134805
O  O11  1  0.68410000  0.13840000  0.28628000  1.0 -0.2607134805
O  O12  1  0.31590000  0.13840000  0.21372000  1.0 -0.2607134805
O  O13  1  0.68410000  0.63840000  0.21372000  1.0 -0.2607134805
O  O14  1  0.31590000  0.63840000  0.28628000  1.0 -0.2607134805
O  O15  1  0.31590000  0.86160000  0.71372000  1.0 -0.2607134805
O  O16  1  0.68410000  0.86160000  0.78628000  1.0 -0.2607134805
