# DDEC6 charges by PACMAN v1.1 (https://github.com/mtap-research/PACMAN-charge/)
data_ULOKOX_FSR_pacman
_symmetry_space_group_name_H-M   'P 1'
_cell_length_a   18.88690000
_cell_length_b   18.88690000
_cell_length_c   30.94110000
_cell_angle_alpha   79.42540000
_cell_angle_beta   100.57500000
_cell_angle_gamma   133.67100000
_symmetry_Int_Tables_number   1
_chemical_formula_structural   Zn3H24C36I7N12
_chemical_formula_sum   'Zn12 H96 C144 I28 N48'
_cell_volume   7822.69366997
_cell_formula_units_Z   4
loop_
 _symmetry_equiv_pos_site_id
 _symmetry_equiv_pos_as_xyz
  1  'x, y, z'
loop_
 _atom_site_type_symbol
 _atom_site_label
 _atom_site_symmetry_multiplicity
 _atom_site_fract_x
 _atom_site_fract_y
 _atom_site_fract_z
 _atom_site_occupancy
 _atom_site_charge
Zn  Zn1  1  0.45833000  0.29177000  0.59389000  1.0 0.4614514216
Zn  Zn2  1  0.70823000  0.54167000  0.09389000  1.0 0.4614514216
Zn  Zn3  1  0.77574000  0.02974000  0.94147000  1.0 0.4614514216
Zn  Zn4  1  0.97026000  0.22426000  0.44147000  1.0 0.4614514216
Zn  Zn5  1  0.32095000  0.96863000  0.77502000  1.0 0.3685552084
Zn  Zn6  1  0.03137000  0.67905000  0.27502000  1.0 0.3685552084
Zn  Zn7  1  0.29177000  0.45833000  0.90611000  1.0 0.4614514216
Zn  Zn8  1  0.54167000  0.70823000  0.40611000  1.0 0.4614514216
Zn  Zn9  1  0.02974000  0.77574000  0.55853000  1.0 0.4614514216
Zn  Zn10  1  0.22426000  0.97026000  0.05853000  1.0 0.4614514216
Zn  Zn11  1  0.96863000  0.32095000  0.72498000  1.0 0.3685552084
Zn  Zn12  1  0.67905000  0.03137000  0.22498000  1.0 0.3685552084
H  H1  1  0.62900000  0.22740000  0.71530000  1.0 0.1294553408
H  H2  1  0.77260000  0.37100000  0.21530000  1.0 0.1294553408
H  H3  1  0.36560000  0.34940000  0.02070000  1.0 0.1374435764
H  H4  1  0.65060000  0.63440000  0.52070000  1.0 0.1374435764
H  H5  1  0.68160000  0.04940000  0.85580000  1.0 0.102262253
H  H6  1  0.95060000  0.31840000  0.35580000  1.0 0.102262253
H  H7  1  0.70320000  0.16780000  0.80700000  1.0 0.1294553408
H  H8  1  0.83220000  0.29680000  0.30700000  1.0 0.1294553408
H  H9  1  0.10550000  0.15210000  0.00480000  1.0 0.1374435764
H  H10  1  0.84790000  0.89450000  0.50480000  1.0 0.1374435764
H  H11  1  0.51530000  0.19050000  0.65790000  1.0 0.0916305418
H  H12  1  0.80950000  0.48470000  0.15790000  1.0 0.0916305418
H  H13  1  0.97520000  0.67300000  0.73360000  1.0 0.1374435764
H  H14  1  0.32700000  0.02480000  0.23360000  1.0 0.1374435764
H  H15  1  0.50480000  0.46640000  0.06410000  1.0 0.102262253
H  H16  1  0.53360000  0.49520000  0.56410000  1.0 0.102262253
H  H17  1  0.09650000  0.61410000  0.83420000  1.0 0.1374435764
H  H18  1  0.38590000  0.90350000  0.33420000  1.0 0.1374435764
H  H19  1  0.23790000  0.77850000  0.82990000  1.0 0.1069265235
H  H20  1  0.22150000  0.76210000  0.32990000  1.0 0.1069265235
H  H21  1  0.11950000  0.83450000  0.73190000  1.0 0.0802108539
H  H22  1  0.16550000  0.88050000  0.23190000  1.0 0.0802108539
H  H23  1  0.94570000  0.37230000  0.88000000  1.0 0.1294553408
H  H24  1  0.62770000  0.05430000  0.38000000  1.0 0.1294553408
H  H25  1  0.95500000  0.10280000  0.00540000  1.0 0.102262253
H  H26  1  0.89720000  0.04500000  0.50540000  1.0 0.102262253
H  H27  1  0.51670000  0.30210000  0.98000000  1.0 0.1374435764
H  H28  1  0.69790000  0.48330000  0.48000000  1.0 0.1374435764
H  H29  1  0.76440000  0.51000000  0.68980000  1.0 0.1294553408
H  H30  1  0.49000000  0.23560000  0.18980000  1.0 0.1294553408
H  H31  1  0.40890000  0.13430000  0.91000000  1.0 0.1294553408
H  H32  1  0.86570000  0.59110000  0.41000000  1.0 0.1294553408
H  H33  1  0.65050000  0.41650000  0.02430000  1.0 0.1069265235
H  H34  1  0.58350000  0.34950000  0.52430000  1.0 0.1069265235
H  H35  1  0.16340000  0.04660000  0.83940000  1.0 0.1294553408
H  H36  1  0.95340000  0.83660000  0.33940000  1.0 0.1294553408
H  H37  1  0.91240000  0.24460000  0.92910000  1.0 0.102262253
H  H38  1  0.75540000  0.08760000  0.42910000  1.0 0.102262253
H  H39  1  0.64340000  0.46400000  0.63470000  1.0 0.102262253
H  H40  1  0.53600000  0.35660000  0.13470000  1.0 0.102262253
H  H41  1  0.18800000  0.98960000  0.79070000  1.0 0.0916305418
H  H42  1  0.01040000  0.81200000  0.29070000  1.0 0.0916305418
H  H43  1  0.42220000  0.06820000  0.85980000  1.0 0.102262253
H  H44  1  0.93180000  0.57780000  0.35980000  1.0 0.102262253
H  H45  1  0.89150000  0.04170000  0.88410000  1.0 0.1069265235
H  H46  1  0.95830000  0.10850000  0.38410000  1.0 0.1069265235
H  H47  1  0.03310000  0.07670000  0.88170000  1.0 0.1374435764
H  H48  1  0.92330000  0.96690000  0.38170000  1.0 0.1374435764
H  H49  1  0.22740000  0.62900000  0.78470000  1.0 0.1294553408
H  H50  1  0.37100000  0.77260000  0.28470000  1.0 0.1294553408
H  H51  1  0.34940000  0.36560000  0.47930000  1.0 0.1374435764
H  H52  1  0.63440000  0.65060000  0.97930000  1.0 0.1374435764
H  H53  1  0.04940000  0.68160000  0.64420000  1.0 0.102262253
H  H54  1  0.31840000  0.95060000  0.14420000  1.0 0.102262253
H  H55  1  0.16780000  0.70320000  0.69300000  1.0 0.1294553408
H  H56  1  0.29680000  0.83220000  0.19300000  1.0 0.1294553408
H  H57  1  0.15210000  0.10550000  0.49520000  1.0 0.1374435764
H  H58  1  0.89450000  0.84790000  0.99520000  1.0 0.1374435764
H  H59  1  0.19050000  0.51530000  0.84210000  1.0 0.0916305418
H  H60  1  0.48470000  0.80950000  0.34210000  1.0 0.0916305418
H  H61  1  0.67300000  0.97520000  0.76640000  1.0 0.1374435764
H  H62  1  0.02480000  0.32700000  0.26640000  1.0 0.1374435764
H  H63  1  0.46640000  0.50480000  0.43590000  1.0 0.102262253
H  H64  1  0.49520000  0.53360000  0.93590000  1.0 0.102262253
H  H65  1  0.61410000  0.09650000  0.66580000  1.0 0.1374435764
H  H66  1  0.90350000  0.38590000  0.16580000  1.0 0.1374435764
H  H67  1  0.77850000  0.23790000  0.67010000  1.0 0.1069265235
H  H68  1  0.76210000  0.22150000  0.17010000  1.0 0.1069265235
H  H69  1  0.83450000  0.11950000  0.76810000  1.0 0.0802108539
H  H70  1  0.88050000  0.16550000  0.26810000  1.0 0.0802108539
H  H71  1  0.37230000  0.94570000  0.62000000  1.0 0.1294553408
H  H72  1  0.05430000  0.62770000  0.12000000  1.0 0.1294553408
H  H73  1  0.10280000  0.95500000  0.49460000  1.0 0.102262253
H  H74  1  0.04500000  0.89720000  0.99460000  1.0 0.102262253
H  H75  1  0.30210000  0.51670000  0.52000000  1.0 0.1374435764
H  H76  1  0.48330000  0.69790000  0.02000000  1.0 0.1374435764
H  H77  1  0.51000000  0.76440000  0.81020000  1.0 0.1294553408
H  H78  1  0.23560000  0.49000000  0.31020000  1.0 0.1294553408
H  H79  1  0.13430000  0.40890000  0.59000000  1.0 0.1294553408
H  H80  1  0.59110000  0.86570000  0.09000000  1.0 0.1294553408
H  H81  1  0.41650000  0.65050000  0.47570000  1.0 0.1069265235
H  H82  1  0.34950000  0.58350000  0.97570000  1.0 0.1069265235
H  H83  1  0.04660000  0.16340000  0.66060000  1.0 0.1294553408
H  H84  1  0.83660000  0.95340000  0.16060000  1.0 0.1294553408
H  H85  1  0.24460000  0.91240000  0.57090000  1.0 0.102262253
H  H86  1  0.08760000  0.75540000  0.07090000  1.0 0.102262253
H  H87  1  0.46400000  0.64340000  0.86530000  1.0 0.102262253
H  H88  1  0.35660000  0.53600000  0.36530000  1.0 0.102262253
H  H89  1  0.98960000  0.18800000  0.70930000  1.0 0.0916305418
H  H90  1  0.81200000  0.01040000  0.20930000  1.0 0.0916305418
H  H91  1  0.06820000  0.42220000  0.64020000  1.0 0.102262253
H  H92  1  0.57780000  0.93180000  0.14020000  1.0 0.102262253
H  H93  1  0.04170000  0.89150000  0.61590000  1.0 0.1069265235
H  H94  1  0.10850000  0.95830000  0.11590000  1.0 0.1069265235
H  H95  1  0.07670000  0.03310000  0.61830000  1.0 0.1374435764
H  H96  1  0.96690000  0.92330000  0.11830000  1.0 0.1374435764
C  C1  1  0.78330000  0.40330000  0.74760000  1.0 0.3618547014
C  C2  1  0.59670000  0.21670000  0.24760000  1.0 0.3618547014
C  C3  1  0.70770000  0.37330000  0.71050000  1.0 0.0618512041
C  C4  1  0.62670000  0.29230000  0.21050000  1.0 0.0618512041
C  C5  1  0.92660000  0.51940000  0.78320000  1.0 0.3618547014
C  C6  1  0.48060000  0.07340000  0.28320000  1.0 0.3618547014
C  C7  1  0.18070000  0.14730000  0.94310000  1.0 0.3685552084
C  C8  1  0.85270000  0.81930000  0.44310000  1.0 0.3685552084
C  C9  1  0.42690000  0.31250000  0.99560000  1.0 0.0618512041
C  C10  1  0.68750000  0.57310000  0.49560000  1.0 0.0618512041
C  C11  1  0.82560000  0.28320000  0.83800000  1.0 0.0444454487
C  C12  1  0.71680000  0.17440000  0.33800000  1.0 0.0444454487
C  C13  1  0.01920000  0.62540000  0.78410000  1.0 0.0618512041
C  C14  1  0.37460000  0.98080000  0.28410000  1.0 0.0618512041
C  C15  1  0.08580000  0.11940000  0.94390000  1.0 0.0537151574
C  C16  1  0.88060000  0.91420000  0.44390000  1.0 0.0537151574
C  C17  1  0.63310000  0.27690000  0.69940000  1.0 -0.1590187247
C  C18  1  0.72310000  0.36690000  0.19940000  1.0 -0.1590187247
C  C19  1  0.33910000  0.23850000  0.96680000  1.0 0.3685552084
C  C20  1  0.76150000  0.66090000  0.46680000  1.0 0.3685552084
C  C21  1  0.42290000  0.36230000  0.02100000  1.0 -0.1490386541
C  C22  1  0.63770000  0.57710000  0.52100000  1.0 -0.1490386541
C  C23  1  0.27450000  0.14130000  0.91160000  1.0 0.3618547014
C  C24  1  0.85870000  0.72550000  0.41160000  1.0 0.3618547014
C  C25  1  0.83950000  0.36090000  0.80680000  1.0 0.3618547014
C  C26  1  0.63910000  0.16050000  0.30680000  1.0 0.3618547014
C  C27  1  0.73530000  0.11490000  0.86080000  1.0 0.0710910666
C  C28  1  0.88510000  0.26470000  0.36080000  1.0 0.0710910666
C  C29  1  0.74780000  0.18580000  0.83150000  1.0 -0.1490386541
C  C30  1  0.81420000  0.25220000  0.33150000  1.0 -0.1490386541
C  C31  1  0.06160000  0.12760000  0.97980000  1.0 -0.1490386541
C  C32  1  0.87240000  0.93840000  0.47980000  1.0 -0.1490386541
C  C33  1  0.56550000  0.25550000  0.66480000  1.0 0.0618512041
C  C34  1  0.74450000  0.43450000  0.16480000  1.0 0.0618512041
C  C35  1  0.02790000  0.69250000  0.75380000  1.0 -0.1490386541
C  C36  1  0.30750000  0.97210000  0.25380000  1.0 -0.1490386541
C  C37  1  0.50660000  0.43200000  0.04720000  1.0 0.0710910666
C  C38  1  0.56800000  0.49340000  0.54720000  1.0 0.0710910666
C  C39  1  0.09920000  0.65780000  0.81300000  1.0 -0.1590187247
C  C40  1  0.34220000  0.90080000  0.31300000  1.0 -0.1590187247
C  C41  1  0.18410000  0.75670000  0.81010000  1.0 0.0710910666
C  C42  1  0.24330000  0.81590000  0.31010000  1.0 0.0710910666
C  C43  1  0.11520000  0.78980000  0.75290000  1.0 0.0618512041
C  C44  1  0.21020000  0.88480000  0.25290000  1.0 0.0618512041
C  C45  1  0.89080000  0.30720000  0.87460000  1.0 -0.1590187247
C  C46  1  0.69280000  0.10920000  0.37460000  1.0 -0.1590187247
C  C47  1  0.97140000  0.09940000  0.97980000  1.0 0.0802108539
C  C48  1  0.90060000  0.02860000  0.47980000  1.0 0.0802108539
C  C49  1  0.28530000  0.10110000  0.88000000  1.0 0.0618512041
C  C50  1  0.89890000  0.71470000  0.38000000  1.0 0.0618512041
C  C51  1  0.51250000  0.33450000  0.99730000  1.0 -0.144099594
C  C52  1  0.66550000  0.48750000  0.49730000  1.0 -0.144099594
C  C53  1  0.71310000  0.44410000  0.68470000  1.0 -0.1490386541
C  C54  1  0.55590000  0.28690000  0.18470000  1.0 -0.1490386541
C  C55  1  0.36270000  0.10510000  0.88600000  1.0 -0.1338945077
C  C56  1  0.89490000  0.63730000  0.38600000  1.0 -0.1338945077
C  C57  1  0.59290000  0.40310000  0.02380000  1.0 0.0802108539
C  C58  1  0.59690000  0.40710000  0.52380000  1.0 0.0802108539
C  C59  1  0.21810000  0.05390000  0.84400000  1.0 -0.1490386541
C  C60  1  0.94610000  0.78190000  0.34400000  1.0 -0.1490386541
C  C61  1  0.87100000  0.22940000  0.90350000  1.0 0.0916305418
C  C62  1  0.77060000  0.12900000  0.40350000  1.0 0.0916305418
C  C63  1  0.64080000  0.41580000  0.65090000  1.0 0.0916305418
C  C64  1  0.58420000  0.35920000  0.15090000  1.0 0.0916305418
C  C65  1  0.23220000  0.01800000  0.81530000  1.0 0.0710910666
C  C66  1  0.98200000  0.76780000  0.31530000  1.0 0.0710910666
C  C67  1  0.37000000  0.06480000  0.85570000  1.0 0.0802108539
C  C68  1  0.93520000  0.63000000  0.35570000  1.0 0.0802108539
C  C69  1  0.93450000  0.06250000  0.90940000  1.0 0.0710910666
C  C70  1  0.93750000  0.06550000  0.40940000  1.0 0.0710910666
C  C71  1  0.02010000  0.08470000  0.90710000  1.0 -0.1490386541
C  C72  1  0.91530000  0.97990000  0.40710000  1.0 -0.1490386541
C  C73  1  0.40330000  0.78330000  0.75240000  1.0 0.3618547014
C  C74  1  0.21670000  0.59670000  0.25240000  1.0 0.3618547014
C  C75  1  0.37330000  0.70770000  0.78950000  1.0 0.0618512041
C  C76  1  0.29230000  0.62670000  0.28950000  1.0 0.0618512041
C  C77  1  0.51940000  0.92660000  0.71680000  1.0 0.3618547014
C  C78  1  0.07340000  0.48060000  0.21680000  1.0 0.3618547014
C  C79  1  0.14730000  0.18070000  0.55690000  1.0 0.3685552084
C  C80  1  0.81930000  0.85270000  0.05690000  1.0 0.3685552084
C  C81  1  0.31250000  0.42690000  0.50440000  1.0 0.0618512041
C  C82  1  0.57310000  0.68750000  0.00440000  1.0 0.0618512041
C  C83  1  0.28320000  0.82560000  0.66200000  1.0 0.0444454487
C  C84  1  0.17440000  0.71680000  0.16200000  1.0 0.0444454487
C  C85  1  0.62540000  0.01920000  0.71590000  1.0 0.0618512041
C  C86  1  0.98080000  0.37460000  0.21590000  1.0 0.0618512041
C  C87  1  0.11940000  0.08580000  0.55610000  1.0 0.0537151574
C  C88  1  0.91420000  0.88060000  0.05610000  1.0 0.0537151574
C  C89  1  0.27690000  0.63310000  0.80060000  1.0 -0.1590187247
C  C90  1  0.36690000  0.72310000  0.30060000  1.0 -0.1590187247
C  C91  1  0.23850000  0.33910000  0.53320000  1.0 0.3685552084
C  C92  1  0.66090000  0.76150000  0.03320000  1.0 0.3685552084
C  C93  1  0.36230000  0.42290000  0.47900000  1.0 -0.1490386541
C  C94  1  0.57710000  0.63770000  0.97900000  1.0 -0.1490386541
C  C95  1  0.14130000  0.27450000  0.58840000  1.0 0.3618547014
C  C96  1  0.72550000  0.85870000  0.08840000  1.0 0.3618547014
C  C97  1  0.36090000  0.83950000  0.69320000  1.0 0.3618547014
C  C98  1  0.16050000  0.63910000  0.19320000  1.0 0.3618547014
C  C99  1  0.11490000  0.73530000  0.63920000  1.0 0.0710910666
C  C100  1  0.26470000  0.88510000  0.13920000  1.0 0.0710910666
C  C101  1  0.18580000  0.74780000  0.66850000  1.0 -0.1490386541
C  C102  1  0.25220000  0.81420000  0.16850000  1.0 -0.1490386541
C  C103  1  0.12760000  0.06160000  0.52020000  1.0 -0.1490386541
C  C104  1  0.93840000  0.87240000  0.02020000  1.0 -0.1490386541
C  C105  1  0.25550000  0.56550000  0.83520000  1.0 0.0618512041
C  C106  1  0.43450000  0.74450000  0.33520000  1.0 0.0618512041
C  C107  1  0.69250000  0.02790000  0.74620000  1.0 -0.1490386541
C  C108  1  0.97210000  0.30750000  0.24620000  1.0 -0.1490386541
C  C109  1  0.43200000  0.50660000  0.45280000  1.0 0.0710910666
C  C110  1  0.49340000  0.56800000  0.95280000  1.0 0.0710910666
C  C111  1  0.65780000  0.09920000  0.68700000  1.0 -0.1590187247
C  C112  1  0.90080000  0.34220000  0.18700000  1.0 -0.1590187247
C  C113  1  0.75670000  0.18410000  0.68990000  1.0 0.0710910666
C  C114  1  0.81590000  0.24330000  0.18990000  1.0 0.0710910666
C  C115  1  0.78980000  0.11520000  0.74710000  1.0 0.0618512041
C  C116  1  0.88480000  0.21020000  0.24710000  1.0 0.0618512041
C  C117  1  0.30720000  0.89080000  0.62540000  1.0 -0.1590187247
C  C118  1  0.10920000  0.69280000  0.12540000  1.0 -0.1590187247
C  C119  1  0.09940000  0.97140000  0.52020000  1.0 0.0802108539
C  C120  1  0.02860000  0.90060000  0.02020000  1.0 0.0802108539
C  C121  1  0.10110000  0.28530000  0.62000000  1.0 0.0618512041
C  C122  1  0.71470000  0.89890000  0.12000000  1.0 0.0618512041
C  C123  1  0.33450000  0.51250000  0.50270000  1.0 -0.144099594
C  C124  1  0.48750000  0.66550000  0.00270000  1.0 -0.144099594
C  C125  1  0.44410000  0.71310000  0.81530000  1.0 -0.1490386541
C  C126  1  0.28690000  0.55590000  0.31530000  1.0 -0.1490386541
C  C127  1  0.10510000  0.36270000  0.61400000  1.0 -0.1338945077
C  C128  1  0.63730000  0.89490000  0.11400000  1.0 -0.1338945077
C  C129  1  0.40310000  0.59290000  0.47620000  1.0 0.0802108539
C  C130  1  0.40710000  0.59690000  0.97620000  1.0 0.0802108539
C  C131  1  0.05390000  0.21810000  0.65600000  1.0 -0.1490386541
C  C132  1  0.78190000  0.94610000  0.15600000  1.0 -0.1490386541
C  C133  1  0.22940000  0.87100000  0.59650000  1.0 0.0916305418
C  C134  1  0.12900000  0.77060000  0.09650000  1.0 0.0916305418
C  C135  1  0.41580000  0.64080000  0.84910000  1.0 0.0916305418
C  C136  1  0.35920000  0.58420000  0.34910000  1.0 0.0916305418
C  C137  1  0.01800000  0.23220000  0.68470000  1.0 0.0710910666
C  C138  1  0.76780000  0.98200000  0.18470000  1.0 0.0710910666
C  C139  1  0.06480000  0.37000000  0.64430000  1.0 0.0802108539
C  C140  1  0.63000000  0.93520000  0.14430000  1.0 0.0802108539
C  C141  1  0.06250000  0.93450000  0.59060000  1.0 0.0710910666
C  C142  1  0.06550000  0.93750000  0.09060000  1.0 0.0710910666
C  C143  1  0.08470000  0.02010000  0.59290000  1.0 -0.1490386541
C  C144  1  0.97990000  0.91530000  0.09290000  1.0 -0.1490386541
I  I1  1  0.37470000  0.32176000  0.63313000  1.0 -0.4395135716
I  I2  1  0.67824000  0.62530000  0.13313000  1.0 -0.4465068092
I  I3  1  0.38111000  0.14007000  0.55817000  1.0 -0.4576362864
I  I4  1  0.85993000  0.61889000  0.05817000  1.0 -0.4576362864
I  I5  1  0.64902000  0.86968000  0.90476000  1.0 -0.4576362864
I  I6  1  0.13032000  0.35098000  0.40476000  1.0 -0.4576362864
I  I7  1  0.76098000  0.05870000  0.01464000  1.0 -0.4465068092
I  I8  1  0.94130000  0.23902000  0.51464000  1.0 -0.4465068092
I  I9  1  0.46623000  0.98601000  0.80380000  1.0 -0.4395135716
I  I10  1  0.01399000  0.53377000  0.30380000  1.0 -0.4395135716
I  I11  1  0.32270000  0.03610000  0.70201000  1.0 -0.0005666669
I  I12  1  0.96390000  0.67730000  0.20201000  1.0 0.0004199716
I  I13  1  0.29399000  0.03781000  0.69622000  1.0 0.0337714768
I  I14  1  0.96219000  0.70601000  0.19622000  1.0 0.0337714768
I  I15  1  0.32176000  0.37470000  0.86687000  1.0 -0.4465068092
I  I16  1  0.62530000  0.67824000  0.36687000  1.0 -0.4465068092
I  I17  1  0.14007000  0.38111000  0.94183000  1.0 -0.4576362864
I  I18  1  0.61889000  0.85993000  0.44183000  1.0 -0.4576362864
I  I19  1  0.86968000  0.64902000  0.59524000  1.0 -0.4576362864
I  I20  1  0.35098000  0.13032000  0.09524000  1.0 -0.4576362864
I  I21  1  0.05870000  0.76098000  0.48536000  1.0 -0.4465068092
I  I22  1  0.23902000  0.94130000  0.98536000  1.0 -0.4465068092
I  I23  1  0.98601000  0.46623000  0.69620000  1.0 -0.4395135716
I  I24  1  0.53377000  0.01399000  0.19620000  1.0 -0.4395135716
I  I25  1  0.03610000  0.32270000  0.79799000  1.0 -0.0005666669
I  I26  1  0.67730000  0.96390000  0.29799000  1.0 0.0004199716
I  I27  1  0.03781000  0.29399000  0.80378000  1.0 0.0337714768
I  I28  1  0.70601000  0.96219000  0.30378000  1.0 0.0337714768
N  N1  1  0.77090000  0.33010000  0.77330000  1.0 -0.398574257
N  N2  1  0.66990000  0.22910000  0.27330000  1.0 -0.398574257
N  N3  1  0.85810000  0.49750000  0.75130000  1.0 -0.3929259226
N  N4  1  0.50250000  0.14190000  0.25130000  1.0 -0.3929259226
N  N5  1  0.92220000  0.45620000  0.81240000  1.0 -0.398574257
N  N6  1  0.54380000  0.07780000  0.31240000  1.0 -0.398574257
N  N7  1  0.56870000  0.32430000  0.64060000  1.0 -0.1777644613
N  N8  1  0.67570000  0.43130000  0.14060000  1.0 -0.1777644613
N  N9  1  0.19250000  0.82210000  0.78030000  1.0 -0.1777644613
N  N10  1  0.17790000  0.80750000  0.28030000  1.0 -0.1777644613
N  N11  1  0.18610000  0.11050000  0.91220000  1.0 -0.398574257
N  N12  1  0.88950000  0.81390000  0.41220000  1.0 -0.398574257
N  N13  1  0.35370000  0.20550000  0.93790000  1.0 -0.398574257
N  N14  1  0.79450000  0.64630000  0.43790000  1.0 -0.398574257
N  N15  1  0.79730000  0.13630000  0.89640000  1.0 -0.195332487
N  N16  1  0.86370000  0.20270000  0.39640000  1.0 -0.195332487
N  N17  1  0.25330000  0.20910000  0.97180000  1.0 -0.398574257
N  N18  1  0.79090000  0.74670000  0.47180000  1.0 -0.398574257
N  N19  1  0.58960000  0.45100000  0.04870000  1.0 -0.195332487
N  N20  1  0.54900000  0.41040000  0.54870000  1.0 -0.1915294291
N  N21  1  0.30520000  0.02180000  0.82100000  1.0 -0.1915294291
N  N22  1  0.97820000  0.69480000  0.32100000  1.0 -0.1915294291
N  N23  1  0.90800000  0.06800000  0.94440000  1.0 -0.1915294291
N  N24  1  0.93200000  0.09200000  0.44440000  1.0 -0.1915294291
N  N25  1  0.33010000  0.77090000  0.72670000  1.0 -0.398574257
N  N26  1  0.22910000  0.66990000  0.22670000  1.0 -0.398574257
N  N27  1  0.49750000  0.85810000  0.74870000  1.0 -0.3929259226
N  N28  1  0.14190000  0.50250000  0.24870000  1.0 -0.3929259226
N  N29  1  0.45620000  0.92220000  0.68760000  1.0 -0.398574257
N  N30  1  0.07780000  0.54380000  0.18760000  1.0 -0.398574257
N  N31  1  0.32430000  0.56870000  0.85940000  1.0 -0.1777644613
N  N32  1  0.43130000  0.67570000  0.35940000  1.0 -0.1777644613
N  N33  1  0.82210000  0.19250000  0.71970000  1.0 -0.1777644613
N  N34  1  0.80750000  0.17790000  0.21970000  1.0 -0.1777644613
N  N35  1  0.11050000  0.18610000  0.58780000  1.0 -0.398574257
N  N36  1  0.81390000  0.88950000  0.08780000  1.0 -0.398574257
N  N37  1  0.20550000  0.35370000  0.56210000  1.0 -0.398574257
N  N38  1  0.64630000  0.79450000  0.06210000  1.0 -0.398574257
N  N39  1  0.13630000  0.79730000  0.60360000  1.0 -0.195332487
N  N40  1  0.20270000  0.86370000  0.10360000  1.0 -0.195332487
N  N41  1  0.20910000  0.25330000  0.52820000  1.0 -0.398574257
N  N42  1  0.74670000  0.79090000  0.02820000  1.0 -0.398574257
N  N43  1  0.45100000  0.58960000  0.45130000  1.0 -0.1915294291
N  N44  1  0.41040000  0.54900000  0.95130000  1.0 -0.195332487
N  N45  1  0.02180000  0.30520000  0.67900000  1.0 -0.1915294291
N  N46  1  0.69480000  0.97820000  0.17900000  1.0 -0.1915294291
N  N47  1  0.06800000  0.90800000  0.55560000  1.0 -0.1915294291
N  N48  1  0.09200000  0.93200000  0.05560000  1.0 -0.1915294291
