# DDEC6 charges by PACMAN v1.1 (https://github.com/mtap-research/PACMAN-charge/)
data_UMALUQ_ion_pacman
_symmetry_space_group_name_H-M   'P 1'
_cell_length_a   20.62360000
_cell_length_b   20.62360000
_cell_length_c   16.06750000
_cell_angle_alpha   84.98170000
_cell_angle_beta   95.01830000
_cell_angle_gamma   124.25200000
_symmetry_Int_Tables_number   1
_chemical_formula_structural   Ag4Sn4B44H92(C4N)9
_chemical_formula_sum   'Ag8 Sn8 B88 H184 C72 N18'
_cell_volume   5621.08504178
_cell_formula_units_Z   2
loop_
 _symmetry_equiv_pos_site_id
 _symmetry_equiv_pos_as_xyz
  1  'x, y, z'
loop_
 _atom_site_type_symbol
 _atom_site_label
 _atom_site_symmetry_multiplicity
 _atom_site_fract_x
 _atom_site_fract_y
 _atom_site_fract_z
 _atom_site_occupancy
 _atom_site_charge
Ag  Ag1  1  0.65998000  0.34002000  0.87169000  1.0 0.1109694937
Ag  Ag2  1  0.34002000  0.65998000  0.12831000  1.0 0.1109694937
Ag  Ag3  1  0.59470000  0.40530000  0.71842000  1.0 -0.1513206681
Ag  Ag4  1  0.40530000  0.59470000  0.28158000  1.0 -0.14075718
Ag  Ag5  1  0.73158000  0.41562000  0.70294000  1.0 -0.1513206681
Ag  Ag6  1  0.41562000  0.73158000  0.29706000  1.0 -0.1513206681
Ag  Ag7  1  0.26842000  0.58438000  0.29706000  1.0 -0.1513206681
Ag  Ag8  1  0.58438000  0.26842000  0.70294000  1.0 -0.1513206681
Sn  Sn1  1  0.74318000  0.53222000  0.79070000  1.0 -0.1217693858
Sn  Sn2  1  0.53222000  0.74318000  0.20930000  1.0 -0.1280624017
Sn  Sn3  1  0.25682000  0.46778000  0.20930000  1.0 -0.1280624017
Sn  Sn4  1  0.46778000  0.25682000  0.79070000  1.0 -0.1280624017
Sn  Sn5  1  0.72522000  0.27478000  0.72628000  1.0 -0.0982248964
Sn  Sn6  1  0.27478000  0.72522000  0.27372000  1.0 -0.0982248964
Sn  Sn7  1  0.62229000  0.37771000  0.55573000  1.0 -0.1643600285
Sn  Sn8  1  0.37771000  0.62229000  0.44427000  1.0 -0.1694325961
B  B1  1  0.72180000  0.59500000  0.88780000  1.0 -0.1808308125
B  B2  1  0.59500000  0.72180000  0.11220000  1.0 -0.1808308125
B  B3  1  0.27820000  0.40500000  0.11220000  1.0 -0.1808308125
B  B4  1  0.40500000  0.27820000  0.88780000  1.0 -0.1808308125
B  B5  1  0.80000000  0.57800000  0.92380000  1.0 -0.1694325961
B  B6  1  0.57800000  0.80000000  0.07620000  1.0 -0.1808308125
B  B7  1  0.20000000  0.42200000  0.07620000  1.0 -0.1694325961
B  B8  1  0.42200000  0.20000000  0.92380000  1.0 -0.1694325961
B  B9  1  0.87240000  0.61920000  0.83980000  1.0 -0.1694325961
B  B10  1  0.61920000  0.87240000  0.16020000  1.0 -0.1694325961
B  B11  1  0.12760000  0.38080000  0.16020000  1.0 -0.1694325961
B  B12  1  0.38080000  0.12760000  0.83980000  1.0 -0.1643600285
B  B13  1  0.83940000  0.66260000  0.75360000  1.0 -0.1217693858
B  B14  1  0.66260000  0.83940000  0.24640000  1.0 -0.1217693858
B  B15  1  0.16060000  0.33740000  0.24640000  1.0 -0.1217693858
B  B16  1  0.33740000  0.16060000  0.75360000  1.0 -0.1217693858
B  B17  1  0.79990000  0.65730000  0.95790000  1.0 -0.1808308125
B  B18  1  0.65730000  0.79990000  0.04210000  1.0 -0.1808308125
B  B19  1  0.20010000  0.34270000  0.04210000  1.0 -0.1808308125
B  B20  1  0.34270000  0.20010000  0.95790000  1.0 -0.1808308125
B  B21  1  0.74520000  0.64700000  0.78230000  1.0 -0.1694325961
B  B22  1  0.64700000  0.74520000  0.21770000  1.0 -0.1694325961
B  B23  1  0.25480000  0.35300000  0.21770000  1.0 -0.1694325961
B  B24  1  0.35300000  0.25480000  0.78230000  1.0 -0.1694325961
B  B25  1  0.88800000  0.67080000  0.92900000  1.0 -0.1694325961
B  B26  1  0.67080000  0.88800000  0.07100000  1.0 -0.1694325961
B  B27  1  0.11200000  0.32920000  0.07100000  1.0 -0.1694325961
B  B28  1  0.32920000  0.11200000  0.92900000  1.0 -0.1694325961
B  B29  1  0.76710000  0.69710000  0.87530000  1.0 -0.1694325961
B  B30  1  0.69710000  0.76710000  0.12470000  1.0 -0.1694325961
B  B31  1  0.23290000  0.30290000  0.12470000  1.0 -0.1694325961
B  B32  1  0.30290000  0.23290000  0.87530000  1.0 -0.1694325961
B  B33  1  0.91190000  0.72030000  0.82880000  1.0 -0.1280624017
B  B34  1  0.72030000  0.91190000  0.17120000  1.0 -0.1280624017
B  B35  1  0.08810000  0.27970000  0.17120000  1.0 -0.1280624017
B  B36  1  0.27970000  0.08810000  0.82880000  1.0 -0.1217693858
B  B37  1  0.86930000  0.74470000  0.90320000  1.0 -0.1280624017
B  B38  1  0.74470000  0.86930000  0.09680000  1.0 -0.1280624017
B  B39  1  0.13070000  0.25530000  0.09680000  1.0 -0.1280624017
B  B40  1  0.25530000  0.13070000  0.90320000  1.0 -0.1280624017
B  B41  1  0.81770000  0.27850000  0.64960000  1.0 -0.1513206681
B  B42  1  0.27850000  0.81770000  0.35040000  1.0 -0.1513206681
B  B43  1  0.18230000  0.72150000  0.35040000  1.0 -0.1513206681
B  B44  1  0.72150000  0.18230000  0.64960000  1.0 -0.1513206681
B  B45  1  0.85220000  0.30740000  0.76070000  1.0 -0.1694325961
B  B46  1  0.30740000  0.85220000  0.23930000  1.0 -0.1694325961
B  B47  1  0.14780000  0.69260000  0.23930000  1.0 -0.1694325961
B  B48  1  0.69260000  0.14780000  0.76070000  1.0 -0.1694325961
B  B49  1  0.77480000  0.22520000  0.83130000  1.0 -0.1808308125
B  B50  1  0.22520000  0.77480000  0.16870000  1.0 -0.1808308125
B  B51  1  0.83680000  0.73740000  0.79780000  1.0 -0.1217693858
B  B52  1  0.73740000  0.83680000  0.20220000  1.0 -0.1217693858
B  B53  1  0.16320000  0.26260000  0.20220000  1.0 -0.1217693858
B  B54  1  0.26260000  0.16320000  0.79780000  1.0 -0.1217693858
B  B55  1  0.70130000  0.39570000  0.44880000  1.0 -0.1513206681
B  B56  1  0.39570000  0.70130000  0.55120000  1.0 -0.1513206681
B  B57  1  0.29870000  0.60430000  0.55120000  1.0 -0.1513206681
B  B58  1  0.60430000  0.29870000  0.44880000  1.0 -0.1513206681
B  B59  1  0.57370000  0.42630000  0.45060000  1.0 -0.1513206681
B  B60  1  0.42630000  0.57370000  0.54940000  1.0 -0.1513206681
B  B61  1  0.81030000  0.18970000  0.63990000  1.0 -0.14075718
B  B62  1  0.18970000  0.81030000  0.36010000  1.0 -0.14075718
B  B63  1  0.88600000  0.26240000  0.70540000  1.0 -0.1280624017
B  B64  1  0.26240000  0.88600000  0.29460000  1.0 -0.1280624017
B  B65  1  0.11400000  0.73760000  0.29460000  1.0 -0.1280624017
B  B66  1  0.73760000  0.11400000  0.70540000  1.0 -0.1280624017
B  B67  1  0.68240000  0.47460000  0.44990000  1.0 -0.1694325961
B  B68  1  0.47460000  0.68240000  0.55010000  1.0 -0.1694325961
B  B69  1  0.31760000  0.52540000  0.55010000  1.0 -0.1694325961
B  B70  1  0.52540000  0.31760000  0.44990000  1.0 -0.1694325961
B  B71  1  0.62470000  0.46750000  0.35820000  1.0 -0.1513206681
B  B72  1  0.46750000  0.62470000  0.64180000  1.0 -0.1513206681
B  B73  1  0.37530000  0.53250000  0.64180000  1.0 -0.1513206681
B  B74  1  0.53250000  0.37530000  0.35820000  1.0 -0.1513206681
B  B75  1  0.86040000  0.23020000  0.81150000  1.0 -0.1808308125
B  B76  1  0.23020000  0.86040000  0.18850000  1.0 -0.1808308125
B  B77  1  0.13960000  0.76980000  0.18850000  1.0 -0.1808308125
B  B78  1  0.76980000  0.13960000  0.81150000  1.0 -0.1808308125
B  B79  1  0.65340000  0.34660000  0.35530000  1.0 -0.1643600285
B  B80  1  0.34660000  0.65340000  0.64470000  1.0 -0.1643600285
B  B81  1  0.83770000  0.16230000  0.73600000  1.0 -0.14075718
B  B82  1  0.16230000  0.83770000  0.26400000  1.0 -0.14075718
B  B83  1  0.60960000  0.39040000  0.29980000  1.0 -0.1280624017
B  B84  1  0.39040000  0.60960000  0.70020000  1.0 -0.1280624017
B  B85  1  0.70040000  0.45080000  0.35650000  1.0 -0.1513206681
B  B86  1  0.45080000  0.70040000  0.64350000  1.0 -0.1513206681
B  B87  1  0.29960000  0.54920000  0.64350000  1.0 -0.1513206681
B  B88  1  0.54920000  0.29960000  0.35650000  1.0 -0.1513206681
H  H1  1  0.66610000  0.54290000  0.06170000  1.0 0.2802432197
H  H2  1  0.54290000  0.66610000  0.93830000  1.0 0.2802432197
H  H3  1  0.33390000  0.45710000  0.93830000  1.0 0.2802432197
H  H4  1  0.45710000  0.33390000  0.06170000  1.0 0.2802432197
H  H5  1  0.62170000  0.58630000  0.15690000  1.0 0.3010529144
H  H6  1  0.58630000  0.62170000  0.84310000  1.0 0.3010529144
H  H7  1  0.37830000  0.41370000  0.84310000  1.0 0.3010529144
H  H8  1  0.41370000  0.37830000  0.15690000  1.0 0.3010529144
H  H9  1  0.66140000  0.55640000  0.90880000  1.0 0.0290607791
H  H10  1  0.55640000  0.66140000  0.09120000  1.0 0.0290607791
H  H11  1  0.33860000  0.44360000  0.09120000  1.0 0.0290607791
H  H12  1  0.44360000  0.33860000  0.90880000  1.0 0.0290607791
H  H13  1  0.61342000  0.05322000  0.92790000  1.0 0.228752227
H  H14  1  0.05322000  0.61342000  0.07210000  1.0 0.228752227
H  H15  1  0.38658000  0.94678000  0.07210000  1.0 0.228752227
H  H16  1  0.94678000  0.38658000  0.92790000  1.0 0.228752227
H  H17  1  0.78980000  0.52920000  0.96750000  1.0 0.0091180943
H  H18  1  0.52920000  0.78980000  0.03250000  1.0 0.0091180943
H  H19  1  0.21020000  0.47080000  0.03250000  1.0 0.0091180943
H  H20  1  0.47080000  0.21020000  0.96750000  1.0 0.0091180943
H  H21  1  0.44660000  0.07260000  0.01070000  1.0 0.2491568309
H  H22  1  0.07260000  0.44660000  0.98930000  1.0 0.2491568309
H  H23  1  0.55340000  0.92740000  0.98930000  1.0 0.2491568309
H  H24  1  0.92740000  0.55340000  0.01070000  1.0 0.2491568309
H  H25  1  0.91620000  0.53640000  0.44830000  1.0 0.2607118703
H  H26  1  0.53640000  0.91620000  0.55170000  1.0 0.2607118703
H  H27  1  0.08380000  0.46360000  0.55170000  1.0 0.2607118703
H  H28  1  0.46360000  0.08380000  0.44830000  1.0 0.2607118703
H  H29  1  0.90820000  0.59660000  0.82990000  1.0 0.0091180943
H  H30  1  0.59660000  0.90820000  0.17010000  1.0 0.0091180943
H  H31  1  0.09180000  0.40340000  0.17010000  1.0 0.0091180943
H  H32  1  0.40340000  0.09180000  0.82990000  1.0 0.0091180943
H  H33  1  0.85470000  0.66810000  0.68830000  1.0 -0.0379294425
H  H34  1  0.66810000  0.85470000  0.31170000  1.0 -0.0379294425
H  H35  1  0.14530000  0.33190000  0.31170000  1.0 -0.0379294425
H  H36  1  0.33190000  0.14530000  0.68830000  1.0 -0.0379294425
H  H37  1  0.99000000  0.44880000  0.63640000  1.0 0.2491568309
H  H38  1  0.44880000  0.99000000  0.36360000  1.0 0.2491568309
H  H39  1  0.01000000  0.55120000  0.36360000  1.0 0.2491568309
H  H40  1  0.55120000  0.01000000  0.63640000  1.0 0.2491568309
H  H41  1  0.78870000  0.65750000  0.02350000  1.0 0.0202630685
H  H42  1  0.65750000  0.78870000  0.97650000  1.0 0.0202630685
H  H43  1  0.21130000  0.34250000  0.97650000  1.0 0.0202630685
H  H44  1  0.34250000  0.21130000  0.02350000  1.0 0.0202630685
H  H45  1  0.70070000  0.64230000  0.73550000  1.0 0.0290607791
H  H46  1  0.64230000  0.70070000  0.26450000  1.0 0.0290607791
H  H47  1  0.29930000  0.35770000  0.26450000  1.0 0.0290607791
H  H48  1  0.35770000  0.29930000  0.73550000  1.0 0.0290607791
H  H49  1  0.93400000  0.67980000  0.97610000  1.0 0.0290607791
H  H50  1  0.67980000  0.93400000  0.02390000  1.0 0.0290607791
H  H51  1  0.06600000  0.32020000  0.02390000  1.0 0.0290607791
H  H52  1  0.32020000  0.06600000  0.97610000  1.0 0.0290607791
H  H53  1  0.73420000  0.72240000  0.88700000  1.0 0.0446372569
H  H54  1  0.72240000  0.73420000  0.11300000  1.0 0.0446372569
H  H55  1  0.26580000  0.27760000  0.11300000  1.0 0.0446372569
H  H56  1  0.27760000  0.26580000  0.88700000  1.0 0.0446372569
H  H57  1  0.97290000  0.76110000  0.81020000  1.0 -0.0692860074
H  H58  1  0.76110000  0.97290000  0.18980000  1.0 -0.0692860074
H  H59  1  0.02710000  0.23890000  0.18980000  1.0 -0.0692860074
H  H60  1  0.23890000  0.02710000  0.81020000  1.0 -0.0692860074
H  H61  1  0.90320000  0.80160000  0.93310000  1.0 -0.0221425513
H  H62  1  0.80160000  0.90320000  0.06690000  1.0 -0.0221425513
H  H63  1  0.09680000  0.19840000  0.06690000  1.0 -0.0221425513
H  H64  1  0.19840000  0.09680000  0.93310000  1.0 -0.0221425513
H  H65  1  0.83510000  0.32190000  0.59680000  1.0 0.0585767889
H  H66  1  0.32190000  0.83510000  0.40320000  1.0 0.0585767889
H  H67  1  0.16490000  0.67810000  0.40320000  1.0 0.0585767889
H  H68  1  0.67810000  0.16490000  0.59680000  1.0 0.0585767889
H  H69  1  0.89150000  0.36890000  0.77830000  1.0 0.0290607791
H  H70  1  0.36890000  0.89150000  0.22170000  1.0 0.0290607791
H  H71  1  0.10850000  0.63110000  0.22170000  1.0 0.0290607791
H  H72  1  0.63110000  0.10850000  0.77830000  1.0 0.0290607791
H  H73  1  0.76500000  0.23500000  0.89390000  1.0 0.0290607791
H  H74  1  0.23500000  0.76500000  0.10610000  1.0 0.0290607791
H  H75  1  0.84950000  0.78990000  0.75970000  1.0 -0.0692860074
H  H76  1  0.78990000  0.84950000  0.24030000  1.0 -0.0692860074
H  H77  1  0.15050000  0.21010000  0.24030000  1.0 -0.0692860074
H  H78  1  0.21010000  0.15050000  0.75970000  1.0 -0.0692860074
H  H79  1  0.75570000  0.40210000  0.47440000  1.0 0.0091180943
H  H80  1  0.40210000  0.75570000  0.52560000  1.0 0.0091180943
H  H81  1  0.24430000  0.59790000  0.52560000  1.0 0.0091180943
H  H82  1  0.59790000  0.24430000  0.47440000  1.0 0.0091180943
H  H83  1  0.54730000  0.45270000  0.47810000  1.0 -0.0276618689
H  H84  1  0.45270000  0.54730000  0.52190000  1.0 -0.0276618689
H  H85  1  0.82260000  0.17740000  0.58010000  1.0 -0.0091057166
H  H86  1  0.17740000  0.82260000  0.41990000  1.0 -0.0091057166
H  H87  1  0.94760000  0.29780000  0.68810000  1.0 -0.0276618689
H  H88  1  0.29780000  0.94760000  0.31190000  1.0 -0.0221425513
H  H89  1  0.05240000  0.70220000  0.31190000  1.0 -0.0221425513
H  H90  1  0.70220000  0.05240000  0.68810000  1.0 -0.0276618689
H  H91  1  0.72560000  0.53180000  0.47680000  1.0 -0.0613458755
H  H92  1  0.53180000  0.72560000  0.52320000  1.0 -0.0613458755
H  H93  1  0.27440000  0.46820000  0.52320000  1.0 -0.0613458755
H  H94  1  0.46820000  0.27440000  0.47680000  1.0 -0.0613458755
H  H95  1  0.63090000  0.52070000  0.32800000  1.0 -0.0276618689
H  H96  1  0.52070000  0.63090000  0.67200000  1.0 -0.0276618689
H  H97  1  0.36910000  0.47930000  0.67200000  1.0 -0.0276618689
H  H98  1  0.47930000  0.36910000  0.32800000  1.0 -0.0276618689
H  H99  1  0.90470000  0.24410000  0.86270000  1.0 0.0482072423
H  H100  1  0.24410000  0.90470000  0.13730000  1.0 0.0482072423
H  H101  1  0.09530000  0.75590000  0.13730000  1.0 0.0482072423
H  H102  1  0.75590000  0.09530000  0.86270000  1.0 0.0482072423
H  H103  1  0.67850000  0.32150000  0.32240000  1.0 -0.0692860074
H  H104  1  0.32150000  0.67850000  0.67760000  1.0 -0.0692860074
H  H105  1  0.86790000  0.13210000  0.73770000  1.0 -0.0276618689
H  H106  1  0.13210000  0.86790000  0.26230000  1.0 -0.0276618689
H  H107  1  0.60650000  0.39350000  0.23100000  1.0 -0.0613458755
H  H108  1  0.39350000  0.60650000  0.76900000  1.0 -0.0613458755
H  H109  1  0.75550000  0.49330000  0.32540000  1.0 -0.0846596666
H  H110  1  0.49330000  0.75550000  0.67460000  1.0 -0.0846596666
H  H111  1  0.24450000  0.50670000  0.67460000  1.0 -0.0846596666
H  H112  1  0.50670000  0.24450000  0.32540000  1.0 -0.0846596666
H  H113  1  0.76600000  0.61860000  0.25370000  1.0 0.2110039882
H  H114  1  0.77490000  0.65930000  0.16450000  1.0 0.2020101063
H  H115  1  0.78880000  0.70520000  0.24410000  1.0 0.2110039882
H  H116  1  0.86030000  0.59150000  0.22030000  1.0 0.1914183471
H  H117  1  0.94310000  0.66150000  0.19150000  1.0 0.1914183471
H  H118  1  0.86840000  0.63360000  0.13200000  1.0 0.1914183471
H  H119  1  0.87250000  0.65170000  0.34490000  1.0 0.2110039882
H  H120  1  0.89600000  0.73860000  0.34130000  1.0 0.1757882752
H  H121  1  0.95770000  0.72090000  0.32170000  1.0 0.2110039882
H  H122  1  0.97290000  0.78490000  0.18110000  1.0 0.228752227
H  H123  1  0.91270000  0.80430000  0.20130000  1.0 0.2185826794
H  H124  1  0.89850000  0.75830000  0.12160000  1.0 0.2491568309
H  H125  1  0.61860000  0.76600000  0.74630000  1.0 0.2110039882
H  H126  1  0.65930000  0.77490000  0.83550000  1.0 0.2020101063
H  H127  1  0.70520000  0.78880000  0.75590000  1.0 0.2110039882
H  H128  1  0.59150000  0.86030000  0.77970000  1.0 0.1914183471
H  H129  1  0.66150000  0.94310000  0.80850000  1.0 0.1914183471
H  H130  1  0.63360000  0.86840000  0.86800000  1.0 0.1914183471
H  H131  1  0.65170000  0.87250000  0.65510000  1.0 0.2110039882
H  H132  1  0.73860000  0.89600000  0.65870000  1.0 0.1757882752
H  H133  1  0.72090000  0.95770000  0.67830000  1.0 0.2110039882
H  H134  1  0.78490000  0.97290000  0.81890000  1.0 0.228752227
H  H135  1  0.80430000  0.91270000  0.79870000  1.0 0.2185826794
H  H136  1  0.75830000  0.89850000  0.87840000  1.0 0.2491568309
H  H137  1  0.23400000  0.38140000  0.74630000  1.0 0.2110039882
H  H138  1  0.22510000  0.34070000  0.83550000  1.0 0.2020101063
H  H139  1  0.21120000  0.29480000  0.75590000  1.0 0.2110039882
H  H140  1  0.13970000  0.40850000  0.77970000  1.0 0.1914183471
H  H141  1  0.05690000  0.33850000  0.80850000  1.0 0.1914183471
H  H142  1  0.13160000  0.36640000  0.86800000  1.0 0.1914183471
H  H143  1  0.12750000  0.34830000  0.65510000  1.0 0.2020101063
H  H144  1  0.10400000  0.26140000  0.65870000  1.0 0.1757882752
H  H145  1  0.04230000  0.27910000  0.67830000  1.0 0.2110039882
H  H146  1  0.02710000  0.21510000  0.81890000  1.0 0.228752227
H  H147  1  0.08730000  0.19570000  0.79870000  1.0 0.2185826794
H  H148  1  0.10150000  0.24170000  0.87840000  1.0 0.2491568309
H  H149  1  0.38140000  0.23400000  0.25370000  1.0 0.2110039882
H  H150  1  0.34070000  0.22510000  0.16450000  1.0 0.2020101063
H  H151  1  0.29480000  0.21120000  0.24410000  1.0 0.2110039882
H  H152  1  0.40850000  0.13970000  0.22030000  1.0 0.1914183471
H  H153  1  0.33850000  0.05690000  0.19150000  1.0 0.1914183471
H  H154  1  0.36640000  0.13160000  0.13200000  1.0 0.1914183471
H  H155  1  0.34830000  0.12750000  0.34490000  1.0 0.2020101063
H  H156  1  0.26140000  0.10400000  0.34130000  1.0 0.1757882752
H  H157  1  0.27910000  0.04230000  0.32170000  1.0 0.2110039882
H  H158  1  0.21510000  0.02710000  0.18110000  1.0 0.228752227
H  H159  1  0.19570000  0.08730000  0.20130000  1.0 0.2185826794
H  H160  1  0.24170000  0.10150000  0.12160000  1.0 0.2491568309
H  H161  1  0.72490000  0.06670000  0.08060000  1.0 0.1914183471
H  H162  1  0.93330000  0.27510000  0.08060000  1.0 0.1914183471
H  H163  1  0.75060000  0.12260000  0.00000000  1.0 0.2020101063
H  H164  1  0.87740000  0.24940000  0.00000000  1.0 0.2020101063
H  H165  1  0.72850000  0.14470000  0.07880000  1.0 0.1605619259
H  H166  1  0.85530000  0.27150000  0.07880000  1.0 0.1605619259
H  H167  1  0.89440000  0.18720000  0.20610000  1.0 0.228752227
H  H168  1  0.81280000  0.10560000  0.20610000  1.0 0.2185826794
H  H169  1  0.81620000  0.18320000  0.20570000  1.0 0.1520767055
H  H170  1  0.84710000  0.07190000  0.08020000  1.0 0.228752227
H  H171  1  0.92810000  0.15290000  0.08020000  1.0 0.228752227
H  H172  1  0.87160000  0.12900000  0.00000000  1.0 0.2491568309
H  H173  1  0.06670000  0.72490000  0.91940000  1.0 0.1914183471
H  H174  1  0.27510000  0.93330000  0.91940000  1.0 0.1914183471
H  H175  1  0.12260000  0.75060000  0.00000000  1.0 0.2020101063
H  H176  1  0.24940000  0.87740000  0.00000000  1.0 0.2020101063
H  H177  1  0.14470000  0.72850000  0.92120000  1.0 0.1605619259
H  H178  1  0.27150000  0.85530000  0.92120000  1.0 0.1605619259
H  H179  1  0.18720000  0.89440000  0.79390000  1.0 0.228752227
H  H180  1  0.10560000  0.81280000  0.79390000  1.0 0.2185826794
H  H181  1  0.18320000  0.81620000  0.79430000  1.0 0.1520767055
H  H182  1  0.07190000  0.84710000  0.91980000  1.0 0.228752227
H  H183  1  0.15290000  0.92810000  0.91980000  1.0 0.228752227
H  H184  1  0.12900000  0.87160000  0.00000000  1.0 0.2491568309
C  C1  1  0.51400000  0.48600000  0.16480000  1.0 0.1757882752
C  C2  1  0.48600000  0.51400000  0.83520000  1.0 0.1757882752
C  C3  1  0.46210000  0.53790000  0.25810000  1.0 0.2110039882
C  C4  1  0.53790000  0.46210000  0.74190000  1.0 0.2110039882
C  C5  1  0.61560000  0.51040000  0.08100000  1.0 -0.0982248964
C  C6  1  0.51040000  0.61560000  0.91900000  1.0 -0.0982248964
C  C7  1  0.38440000  0.48960000  0.91900000  1.0 -0.0982248964
C  C8  1  0.48960000  0.38440000  0.08100000  1.0 -0.0982248964
C  C9  1  0.56510000  0.43490000  0.05400000  1.0 0.2185826794
C  C10  1  0.43490000  0.56510000  0.94600000  1.0 0.2185826794
C  C11  1  0.58920000  0.53580000  0.13740000  1.0 -0.0483608998
C  C12  1  0.53580000  0.58920000  0.86260000  1.0 -0.0483608998
C  C13  1  0.41080000  0.46420000  0.86260000  1.0 -0.0483608998
C  C14  1  0.46420000  0.41080000  0.13740000  1.0 -0.0483608998
C  C15  1  0.60300000  0.21420000  0.90400000  1.0 0.1109694937
C  C16  1  0.21420000  0.60300000  0.09600000  1.0 0.1109694937
C  C17  1  0.39700000  0.78580000  0.09600000  1.0 0.1109694937
C  C18  1  0.78580000  0.39700000  0.90400000  1.0 0.1109694937
C  C19  1  0.61370000  0.38630000  0.94920000  1.0 0.1163226358
C  C20  1  0.38630000  0.61370000  0.05080000  1.0 0.1163226358
C  C21  1  0.83960000  0.46960000  0.64010000  1.0 0.2434768222
C  C22  1  0.46960000  0.83960000  0.35990000  1.0 0.2434768222
C  C23  1  0.16040000  0.53040000  0.35990000  1.0 0.2434768222
C  C24  1  0.53040000  0.16040000  0.64010000  1.0 0.2434768222
C  C25  1  0.56790000  0.03130000  0.95700000  1.0 -0.0613458755
C  C26  1  0.03130000  0.56790000  0.04300000  1.0 -0.0613458755
C  C27  1  0.43210000  0.96870000  0.04300000  1.0 -0.0613458755
C  C28  1  0.96870000  0.43210000  0.95700000  1.0 -0.0613458755
C  C29  1  0.53490000  0.07330000  0.96450000  1.0 0.2110039882
C  C30  1  0.07330000  0.53490000  0.03550000  1.0 0.2185826794
C  C31  1  0.46510000  0.92670000  0.03550000  1.0 0.2185826794
C  C32  1  0.92670000  0.46510000  0.96450000  1.0 0.2110039882
C  C33  1  0.46760000  0.04320000  0.00680000  1.0 -0.0846596666
C  C34  1  0.04320000  0.46760000  0.99320000  1.0 -0.0890768054
C  C35  1  0.53240000  0.95680000  0.99320000  1.0 -0.0890768054
C  C36  1  0.95680000  0.53240000  0.00680000  1.0 -0.0846596666
C  C37  1  0.94480000  0.49140000  0.54850000  1.0 0.2185826794
C  C38  1  0.49140000  0.94480000  0.45150000  1.0 0.2185826794
C  C39  1  0.05520000  0.50860000  0.45150000  1.0 0.2185826794
C  C40  1  0.50860000  0.05520000  0.54850000  1.0 0.2185826794
C  C41  1  0.95000000  0.52180000  0.46870000  1.0 -0.0890768054
C  C42  1  0.52180000  0.95000000  0.53130000  1.0 -0.0890768054
C  C43  1  0.05000000  0.47820000  0.53130000  1.0 -0.0890768054
C  C44  1  0.47820000  0.05000000  0.46870000  1.0 -0.0890768054
C  C45  1  0.99420000  0.46920000  0.58170000  1.0 -0.0613458755
C  C46  1  0.46920000  0.99420000  0.41830000  1.0 -0.0613458755
C  C47  1  0.00580000  0.53080000  0.41830000  1.0 -0.0613458755
C  C48  1  0.53080000  0.00580000  0.58170000  1.0 -0.0613458755
C  C49  1  0.79480000  0.66740000  0.22150000  1.0 -0.358327916
C  C50  1  0.88810000  0.64090000  0.18920000  1.0 -0.3114150472
C  C51  1  0.90320000  0.70240000  0.31660000  1.0 -0.3005510179
C  C52  1  0.91840000  0.76620000  0.17870000  1.0 -0.3510109194
C  C53  1  0.66740000  0.79480000  0.77850000  1.0 -0.358327916
C  C54  1  0.64090000  0.88810000  0.81080000  1.0 -0.3114150472
C  C55  1  0.70240000  0.90320000  0.68340000  1.0 -0.3005510179
C  C56  1  0.76620000  0.91840000  0.82130000  1.0 -0.3510109194
C  C57  1  0.20520000  0.33260000  0.77850000  1.0 -0.358327916
C  C58  1  0.11190000  0.35910000  0.81080000  1.0 -0.3114150472
C  C59  1  0.09680000  0.29760000  0.68340000  1.0 -0.3005510179
C  C60  1  0.08160000  0.23380000  0.82130000  1.0 -0.3510109194
C  C61  1  0.33260000  0.20520000  0.22150000  1.0 -0.358327916
C  C62  1  0.35910000  0.11190000  0.18920000  1.0 -0.3114150472
C  C63  1  0.29760000  0.09680000  0.31660000  1.0 -0.3005510179
C  C64  1  0.23380000  0.08160000  0.17870000  1.0 -0.3510109194
C  C65  1  0.75250000  0.12050000  0.06000000  1.0 -0.2871763043
C  C66  1  0.87950000  0.24750000  0.06000000  1.0 -0.2871763043
C  C67  1  0.84050000  0.15950000  0.18600000  1.0 -0.3005510179
C  C68  1  0.87420000  0.12580000  0.06010000  1.0 -0.358327916
C  C69  1  0.12050000  0.75250000  0.94000000  1.0 -0.2871763043
C  C70  1  0.24750000  0.87950000  0.94000000  1.0 -0.2871763043
C  C71  1  0.15950000  0.84050000  0.81400000  1.0 -0.3005510179
C  C72  1  0.12580000  0.87420000  0.93990000  1.0 -0.358327916
N  N1  1  0.48640000  0.51360000  0.21960000  1.0 -0.1808308125
N  N2  1  0.51360000  0.48640000  0.78040000  1.0 -0.1808308125
N  N3  1  0.59250000  0.40750000  0.99640000  1.0 -0.0890768054
N  N4  1  0.40750000  0.59250000  0.00360000  1.0 -0.0890768054
N  N5  1  0.57299000  0.15061000  0.92890000  1.0 -0.0890768054
N  N6  1  0.15061000  0.57299000  0.07110000  1.0 -0.0890768054
N  N7  1  0.42701000  0.84939000  0.07110000  1.0 -0.0890768054
N  N8  1  0.84939000  0.42701000  0.92890000  1.0 -0.0890768054
N  N9  1  0.88790000  0.48190000  0.60010000  1.0 -0.2406209715
N  N10  1  0.48190000  0.88790000  0.39990000  1.0 -0.2406209715
N  N11  1  0.11210000  0.51810000  0.39990000  1.0 -0.2406209715
N  N12  1  0.51810000  0.11210000  0.60010000  1.0 -0.2406209715
N  N13  1  0.87670000  0.69590000  0.22510000  1.0 0.3058655254
N  N14  1  0.69590000  0.87670000  0.77490000  1.0 0.3010529144
N  N15  1  0.12330000  0.30410000  0.77490000  1.0 0.3010529144
N  N16  1  0.30410000  0.12330000  0.22510000  1.0 0.3010529144
N  N17  1  0.83660000  0.16340000  0.09240000  1.0 0.2802432197
N  N18  1  0.16340000  0.83660000  0.90760000  1.0 0.2802432197
