# DDEC6 charges by PACMAN v1.1 (https://github.com/mtap-research/PACMAN-charge/)
data_UMARAC_ASR_pacman
_symmetry_space_group_name_H-M   'P 1'
_cell_length_a   22.64670000
_cell_length_b   22.64670000
_cell_length_c   22.64670000
_cell_angle_alpha   90.00000000
_cell_angle_beta   90.00000000
_cell_angle_gamma   90.00000000
_symmetry_Int_Tables_number   1
_chemical_formula_structural   CdCu6H66C54(N6O)6
_chemical_formula_sum   'Cd4 Cu24 H264 C216 N144 O24'
_cell_volume   11614.88144219
_cell_formula_units_Z   4
loop_
 _symmetry_equiv_pos_site_id
 _symmetry_equiv_pos_as_xyz
  1  'x, y, z'
loop_
 _atom_site_type_symbol
 _atom_site_label
 _atom_site_symmetry_multiplicity
 _atom_site_fract_x
 _atom_site_fract_y
 _atom_site_fract_z
 _atom_site_occupancy
 _atom_site_charge
Cd  Cd1  1  0.00000000  0.00000000  0.50000000  1.0 0.6982265553
Cd  Cd2  1  0.50000000  0.00000000  0.00000000  1.0 0.6982265553
Cd  Cd3  1  0.50000000  0.50000000  0.50000000  1.0 0.6982265553
Cd  Cd4  1  0.00000000  0.50000000  0.00000000  1.0 0.6982265553
Cu  Cu1  1  0.09624000  0.59746000  0.50213000  1.0 0.7762955269
Cu  Cu2  1  0.40376000  0.40254000  0.00213000  1.0 0.7762955269
Cu  Cu3  1  0.59624000  0.90254000  0.49787000  1.0 0.7762955269
Cu  Cu4  1  0.90376000  0.09746000  0.99787000  1.0 0.7762955269
Cu  Cu5  1  0.50213000  0.09624000  0.59746000  1.0 0.7762955269
Cu  Cu6  1  0.59746000  0.50213000  0.09624000  1.0 0.7762955269
Cu  Cu7  1  0.99787000  0.90376000  0.09746000  1.0 0.7762955269
Cu  Cu8  1  0.40254000  0.00213000  0.40376000  1.0 0.7762955269
Cu  Cu9  1  0.00213000  0.40376000  0.40254000  1.0 0.7762955269
Cu  Cu10  1  0.90254000  0.49787000  0.59624000  1.0 0.7762955269
Cu  Cu11  1  0.49787000  0.59624000  0.90254000  1.0 0.7762955269
Cu  Cu12  1  0.09746000  0.99787000  0.90376000  1.0 0.7762955269
Cu  Cu13  1  0.90376000  0.40254000  0.49787000  1.0 0.7762955269
Cu  Cu14  1  0.59624000  0.59746000  0.99787000  1.0 0.7762955269
Cu  Cu15  1  0.40376000  0.09746000  0.50213000  1.0 0.7762955269
Cu  Cu16  1  0.09624000  0.90254000  0.00213000  1.0 0.7762955269
Cu  Cu17  1  0.49787000  0.90376000  0.40254000  1.0 0.7762955269
Cu  Cu18  1  0.40254000  0.49787000  0.90376000  1.0 0.7762955269
Cu  Cu19  1  0.00213000  0.09624000  0.90254000  1.0 0.7762955269
Cu  Cu20  1  0.59746000  0.99787000  0.59624000  1.0 0.7762955269
Cu  Cu21  1  0.99787000  0.59624000  0.59746000  1.0 0.7762955269
Cu  Cu22  1  0.09746000  0.50213000  0.40376000  1.0 0.7762955269
Cu  Cu23  1  0.50213000  0.40376000  0.09746000  1.0 0.7762955269
Cu  Cu24  1  0.90254000  0.00213000  0.09624000  1.0 0.7762955269
H  H1  1  0.09670000  0.94000000  0.09980000  1.0 0.3932698807
H  H2  1  0.40330000  0.06000000  0.59980000  1.0 0.3932698807
H  H3  1  0.59670000  0.56000000  0.90020000  1.0 0.3932698807
H  H4  1  0.90330000  0.44000000  0.40020000  1.0 0.3932698807
H  H5  1  0.09980000  0.09670000  0.94000000  1.0 0.3932698807
H  H6  1  0.94000000  0.09980000  0.09670000  1.0 0.3932698807
H  H7  1  0.40020000  0.90330000  0.44000000  1.0 0.3932698807
H  H8  1  0.06000000  0.59980000  0.40330000  1.0 0.3932698807
H  H9  1  0.59980000  0.40330000  0.06000000  1.0 0.3932698807
H  H10  1  0.56000000  0.90020000  0.59670000  1.0 0.3932698807
H  H11  1  0.90020000  0.59670000  0.56000000  1.0 0.3932698807
H  H12  1  0.44000000  0.40020000  0.90330000  1.0 0.3932698807
H  H13  1  0.90330000  0.06000000  0.90020000  1.0 0.3932698807
H  H14  1  0.59670000  0.94000000  0.40020000  1.0 0.3932698807
H  H15  1  0.40330000  0.44000000  0.09980000  1.0 0.3932698807
H  H16  1  0.09670000  0.56000000  0.59980000  1.0 0.3932698807
H  H17  1  0.90020000  0.90330000  0.06000000  1.0 0.3932698807
H  H18  1  0.06000000  0.90020000  0.90330000  1.0 0.3932698807
H  H19  1  0.59980000  0.09670000  0.56000000  1.0 0.3932698807
H  H20  1  0.94000000  0.40020000  0.59670000  1.0 0.3932698807
H  H21  1  0.40020000  0.59670000  0.94000000  1.0 0.3932698807
H  H22  1  0.44000000  0.09980000  0.40330000  1.0 0.3932698807
H  H23  1  0.09980000  0.40330000  0.44000000  1.0 0.3932698807
H  H24  1  0.56000000  0.59980000  0.09670000  1.0 0.3932698807
H  H25  1  0.08090000  0.70370000  0.39560000  1.0 0.1398383288
H  H26  1  0.41910000  0.29630000  0.89560000  1.0 0.1398383288
H  H27  1  0.58090000  0.79630000  0.60440000  1.0 0.1398383288
H  H28  1  0.91910000  0.20370000  0.10440000  1.0 0.1398383288
H  H29  1  0.39560000  0.08090000  0.70370000  1.0 0.1398383288
H  H30  1  0.70370000  0.39560000  0.08090000  1.0 0.1398383288
H  H31  1  0.10440000  0.91910000  0.20370000  1.0 0.1398383288
H  H32  1  0.29630000  0.89560000  0.41910000  1.0 0.1398383288
H  H33  1  0.89560000  0.41910000  0.29630000  1.0 0.1398383288
H  H34  1  0.79630000  0.60440000  0.58090000  1.0 0.1398383288
H  H35  1  0.60440000  0.58090000  0.79630000  1.0 0.1398383288
H  H36  1  0.20370000  0.10440000  0.91910000  1.0 0.1398383288
H  H37  1  0.91910000  0.29630000  0.60440000  1.0 0.1398383288
H  H38  1  0.58090000  0.70370000  0.10440000  1.0 0.1398383288
H  H39  1  0.41910000  0.20370000  0.39560000  1.0 0.1398383288
H  H40  1  0.08090000  0.79630000  0.89560000  1.0 0.1398383288
H  H41  1  0.60440000  0.91910000  0.29630000  1.0 0.1398383288
H  H42  1  0.29630000  0.60440000  0.91910000  1.0 0.1398383288
H  H43  1  0.89560000  0.08090000  0.79630000  1.0 0.1398383288
H  H44  1  0.70370000  0.10440000  0.58090000  1.0 0.1398383288
H  H45  1  0.10440000  0.58090000  0.70370000  1.0 0.1398383288
H  H46  1  0.20370000  0.39560000  0.41910000  1.0 0.1398383288
H  H47  1  0.39560000  0.41910000  0.20370000  1.0 0.1398383288
H  H48  1  0.79630000  0.89560000  0.08090000  1.0 0.1398383288
H  H49  1  0.07040000  0.77140000  0.40970000  1.0 0.1398383288
H  H50  1  0.42960000  0.22860000  0.90970000  1.0 0.1398383288
H  H51  1  0.57040000  0.72860000  0.59030000  1.0 0.1398383288
H  H52  1  0.92960000  0.27140000  0.09030000  1.0 0.1398383288
H  H53  1  0.40970000  0.07040000  0.77140000  1.0 0.1398383288
H  H54  1  0.77140000  0.40970000  0.07040000  1.0 0.1398383288
H  H55  1  0.09030000  0.92960000  0.27140000  1.0 0.1398383288
H  H56  1  0.22860000  0.90970000  0.42960000  1.0 0.1398383288
H  H57  1  0.90970000  0.42960000  0.22860000  1.0 0.1398383288
H  H58  1  0.72860000  0.59030000  0.57040000  1.0 0.1398383288
H  H59  1  0.59030000  0.57040000  0.72860000  1.0 0.1398383288
H  H60  1  0.27140000  0.09030000  0.92960000  1.0 0.1398383288
H  H61  1  0.92960000  0.22860000  0.59030000  1.0 0.1398383288
H  H62  1  0.57040000  0.77140000  0.09030000  1.0 0.1398383288
H  H63  1  0.42960000  0.27140000  0.40970000  1.0 0.1398383288
H  H64  1  0.07040000  0.72860000  0.90970000  1.0 0.1398383288
H  H65  1  0.59030000  0.92960000  0.22860000  1.0 0.1398383288
H  H66  1  0.22860000  0.59030000  0.92960000  1.0 0.1398383288
H  H67  1  0.90970000  0.07040000  0.72860000  1.0 0.1398383288
H  H68  1  0.77140000  0.09030000  0.57040000  1.0 0.1398383288
H  H69  1  0.09030000  0.57040000  0.77140000  1.0 0.1398383288
H  H70  1  0.27140000  0.40970000  0.42960000  1.0 0.1398383288
H  H71  1  0.40970000  0.42960000  0.27140000  1.0 0.1398383288
H  H72  1  0.72860000  0.90970000  0.07040000  1.0 0.1398383288
H  H73  1  0.12170000  0.73660000  0.44200000  1.0 0.1480460915
H  H74  1  0.37830000  0.26340000  0.94200000  1.0 0.1480460915
H  H75  1  0.62170000  0.76340000  0.55800000  1.0 0.1480460915
H  H76  1  0.87830000  0.23660000  0.05800000  1.0 0.1480460915
H  H77  1  0.44200000  0.12170000  0.73660000  1.0 0.1480460915
H  H78  1  0.73660000  0.44200000  0.12170000  1.0 0.1480460915
H  H79  1  0.05800000  0.87830000  0.23660000  1.0 0.1480460915
H  H80  1  0.26340000  0.94200000  0.37830000  1.0 0.1480460915
H  H81  1  0.94200000  0.37830000  0.26340000  1.0 0.1480460915
H  H82  1  0.76340000  0.55800000  0.62170000  1.0 0.1480460915
H  H83  1  0.55800000  0.62170000  0.76340000  1.0 0.1480460915
H  H84  1  0.23660000  0.05800000  0.87830000  1.0 0.1480460915
H  H85  1  0.87830000  0.26340000  0.55800000  1.0 0.1480460915
H  H86  1  0.62170000  0.73660000  0.05800000  1.0 0.1480460915
H  H87  1  0.37830000  0.23660000  0.44200000  1.0 0.1480460915
H  H88  1  0.12170000  0.76340000  0.94200000  1.0 0.1480460915
H  H89  1  0.55800000  0.87830000  0.26340000  1.0 0.1480460915
H  H90  1  0.26340000  0.55800000  0.87830000  1.0 0.1480460915
H  H91  1  0.94200000  0.12170000  0.76340000  1.0 0.1480460915
H  H92  1  0.73660000  0.05800000  0.62170000  1.0 0.1480460915
H  H93  1  0.05800000  0.62170000  0.73660000  1.0 0.1480460915
H  H94  1  0.23660000  0.44200000  0.37830000  1.0 0.1480460915
H  H95  1  0.44200000  0.37830000  0.23660000  1.0 0.1480460915
H  H96  1  0.76340000  0.94200000  0.12170000  1.0 0.1480460915
H  H97  1  0.92860000  0.72250000  0.62150000  1.0 0.1480460915
H  H98  1  0.57140000  0.27750000  0.12150000  1.0 0.1480460915
H  H99  1  0.42860000  0.77750000  0.37850000  1.0 0.1480460915
H  H100  1  0.07140000  0.22250000  0.87850000  1.0 0.1480460915
H  H101  1  0.62150000  0.92860000  0.72250000  1.0 0.1480460915
H  H102  1  0.72250000  0.62150000  0.92860000  1.0 0.1480460915
H  H103  1  0.87850000  0.07140000  0.22250000  1.0 0.1480460915
H  H104  1  0.27750000  0.12150000  0.57140000  1.0 0.1480460915
H  H105  1  0.12150000  0.57140000  0.27750000  1.0 0.1480460915
H  H106  1  0.77750000  0.37850000  0.42860000  1.0 0.1480460915
H  H107  1  0.37850000  0.42860000  0.77750000  1.0 0.1480460915
H  H108  1  0.22250000  0.87850000  0.07140000  1.0 0.1480460915
H  H109  1  0.07140000  0.27750000  0.37850000  1.0 0.1480460915
H  H110  1  0.42860000  0.72250000  0.87850000  1.0 0.1480460915
H  H111  1  0.57140000  0.22250000  0.62150000  1.0 0.1480460915
H  H112  1  0.92860000  0.77750000  0.12150000  1.0 0.1480460915
H  H113  1  0.37850000  0.07140000  0.27750000  1.0 0.1480460915
H  H114  1  0.27750000  0.37850000  0.07140000  1.0 0.1480460915
H  H115  1  0.12150000  0.92860000  0.77750000  1.0 0.1480460915
H  H116  1  0.72250000  0.87850000  0.42860000  1.0 0.1480460915
H  H117  1  0.87850000  0.42860000  0.72250000  1.0 0.1480460915
H  H118  1  0.22250000  0.62150000  0.57140000  1.0 0.1480460915
H  H119  1  0.62150000  0.57140000  0.22250000  1.0 0.1480460915
H  H120  1  0.77750000  0.12150000  0.92860000  1.0 0.1480460915
H  H121  1  0.90690000  0.77100000  0.57610000  1.0 0.1345527014
H  H122  1  0.59310000  0.22900000  0.07610000  1.0 0.1398383288
H  H123  1  0.40690000  0.72900000  0.42390000  1.0 0.1345527014
H  H124  1  0.09310000  0.27100000  0.92390000  1.0 0.1345527014
H  H125  1  0.57610000  0.90690000  0.77100000  1.0 0.1345527014
H  H126  1  0.77100000  0.57610000  0.90690000  1.0 0.1345527014
H  H127  1  0.92390000  0.09310000  0.27100000  1.0 0.1398383288
H  H128  1  0.22900000  0.07610000  0.59310000  1.0 0.1345527014
H  H129  1  0.07610000  0.59310000  0.22900000  1.0 0.1345527014
H  H130  1  0.72900000  0.42390000  0.40690000  1.0 0.1398383288
H  H131  1  0.42390000  0.40690000  0.72900000  1.0 0.1345527014
H  H132  1  0.27100000  0.92390000  0.09310000  1.0 0.1345527014
H  H133  1  0.09310000  0.22900000  0.42390000  1.0 0.1398383288
H  H134  1  0.40690000  0.77100000  0.92390000  1.0 0.1345527014
H  H135  1  0.59310000  0.27100000  0.57610000  1.0 0.1398383288
H  H136  1  0.90690000  0.72900000  0.07610000  1.0 0.1345527014
H  H137  1  0.42390000  0.09310000  0.22900000  1.0 0.1398383288
H  H138  1  0.22900000  0.42390000  0.09310000  1.0 0.1398383288
H  H139  1  0.07610000  0.90690000  0.72900000  1.0 0.1345527014
H  H140  1  0.77100000  0.92390000  0.40690000  1.0 0.1345527014
H  H141  1  0.92390000  0.40690000  0.77100000  1.0 0.1345527014
H  H142  1  0.27100000  0.57610000  0.59310000  1.0 0.1345527014
H  H143  1  0.57610000  0.59310000  0.27100000  1.0 0.1345527014
H  H144  1  0.72900000  0.07610000  0.90690000  1.0 0.1345527014
H  H145  1  0.88440000  0.70500000  0.57010000  1.0 0.1398383288
H  H146  1  0.61560000  0.29500000  0.07010000  1.0 0.1398383288
H  H147  1  0.38440000  0.79500000  0.42990000  1.0 0.1398383288
H  H148  1  0.11560000  0.20500000  0.92990000  1.0 0.1398383288
H  H149  1  0.57010000  0.88440000  0.70500000  1.0 0.1398383288
H  H150  1  0.70500000  0.57010000  0.88440000  1.0 0.1398383288
H  H151  1  0.92990000  0.11560000  0.20500000  1.0 0.1398383288
H  H152  1  0.29500000  0.07010000  0.61560000  1.0 0.1398383288
H  H153  1  0.07010000  0.61560000  0.29500000  1.0 0.1398383288
H  H154  1  0.79500000  0.42990000  0.38440000  1.0 0.1398383288
H  H155  1  0.42990000  0.38440000  0.79500000  1.0 0.1398383288
H  H156  1  0.20500000  0.92990000  0.11560000  1.0 0.1398383288
H  H157  1  0.11560000  0.29500000  0.42990000  1.0 0.1398383288
H  H158  1  0.38440000  0.70500000  0.92990000  1.0 0.1398383288
H  H159  1  0.61560000  0.20500000  0.57010000  1.0 0.1398383288
H  H160  1  0.88440000  0.79500000  0.07010000  1.0 0.1398383288
H  H161  1  0.42990000  0.11560000  0.29500000  1.0 0.1398383288
H  H162  1  0.29500000  0.42990000  0.11560000  1.0 0.1398383288
H  H163  1  0.07010000  0.88440000  0.79500000  1.0 0.1398383288
H  H164  1  0.70500000  0.92990000  0.38440000  1.0 0.1398383288
H  H165  1  0.92990000  0.38440000  0.70500000  1.0 0.1398383288
H  H166  1  0.20500000  0.57010000  0.61560000  1.0 0.1398383288
H  H167  1  0.57010000  0.61560000  0.20500000  1.0 0.1398383288
H  H168  1  0.79500000  0.07010000  0.88440000  1.0 0.1398383288
H  H169  1  0.04140000  0.85950000  0.51930000  1.0 0.0880201549
H  H170  1  0.45860000  0.14050000  0.01930000  1.0 0.0880201549
H  H171  1  0.54140000  0.64050000  0.48070000  1.0 0.0880201549
H  H172  1  0.95860000  0.35950000  0.98070000  1.0 0.0880201549
H  H173  1  0.51930000  0.04140000  0.85950000  1.0 0.0880201549
H  H174  1  0.85950000  0.51930000  0.04140000  1.0 0.0880201549
H  H175  1  0.98070000  0.95860000  0.35950000  1.0 0.0880201549
H  H176  1  0.14050000  0.01930000  0.45860000  1.0 0.0880201549
H  H177  1  0.01930000  0.45860000  0.14050000  1.0 0.0880201549
H  H178  1  0.64050000  0.48070000  0.54140000  1.0 0.0880201549
H  H179  1  0.48070000  0.54140000  0.64050000  1.0 0.0880201549
H  H180  1  0.35950000  0.98070000  0.95860000  1.0 0.0880201549
H  H181  1  0.95860000  0.14050000  0.48070000  1.0 0.0880201549
H  H182  1  0.54140000  0.85950000  0.98070000  1.0 0.0880201549
H  H183  1  0.45860000  0.35950000  0.51930000  1.0 0.0880201549
H  H184  1  0.04140000  0.64050000  0.01930000  1.0 0.0880201549
H  H185  1  0.48070000  0.95860000  0.14050000  1.0 0.0880201549
H  H186  1  0.14050000  0.48070000  0.95860000  1.0 0.0880201549
H  H187  1  0.01930000  0.04140000  0.64050000  1.0 0.0880201549
H  H188  1  0.85950000  0.98070000  0.54140000  1.0 0.0880201549
H  H189  1  0.98070000  0.54140000  0.85950000  1.0 0.0880201549
H  H190  1  0.35950000  0.51930000  0.45860000  1.0 0.0880201549
H  H191  1  0.51930000  0.45860000  0.35950000  1.0 0.0880201549
H  H192  1  0.64050000  0.01930000  0.04140000  1.0 0.0880201549
H  H193  1  0.90330000  0.79920000  0.43000000  1.0 0.0668031584
H  H194  1  0.59670000  0.20080000  0.93000000  1.0 0.0668031584
H  H195  1  0.40330000  0.70080000  0.57000000  1.0 0.0668031584
H  H196  1  0.09670000  0.29920000  0.07000000  1.0 0.0668031584
H  H197  1  0.43000000  0.90330000  0.79920000  1.0 0.0668031584
H  H198  1  0.79920000  0.43000000  0.90330000  1.0 0.0668031584
H  H199  1  0.07000000  0.09670000  0.29920000  1.0 0.0668031584
H  H200  1  0.20080000  0.93000000  0.59670000  1.0 0.0668031584
H  H201  1  0.93000000  0.59670000  0.20080000  1.0 0.0668031584
H  H202  1  0.70080000  0.57000000  0.40330000  1.0 0.0668031584
H  H203  1  0.57000000  0.40330000  0.70080000  1.0 0.0668031584
H  H204  1  0.29920000  0.07000000  0.09670000  1.0 0.0668031584
H  H205  1  0.09670000  0.20080000  0.57000000  1.0 0.0668031584
H  H206  1  0.40330000  0.79920000  0.07000000  1.0 0.0668031584
H  H207  1  0.59670000  0.29920000  0.43000000  1.0 0.0668031584
H  H208  1  0.90330000  0.70080000  0.93000000  1.0 0.0668031584
H  H209  1  0.57000000  0.09670000  0.20080000  1.0 0.0668031584
H  H210  1  0.20080000  0.57000000  0.09670000  1.0 0.0668031584
H  H211  1  0.93000000  0.90330000  0.70080000  1.0 0.0668031584
H  H212  1  0.79920000  0.07000000  0.40330000  1.0 0.0668031584
H  H213  1  0.07000000  0.40330000  0.79920000  1.0 0.0668031584
H  H214  1  0.29920000  0.43000000  0.59670000  1.0 0.0668031584
H  H215  1  0.43000000  0.59670000  0.29920000  1.0 0.0668031584
H  H216  1  0.70080000  0.93000000  0.90330000  1.0 0.0668031584
H  H217  1  0.04710000  0.00920000  0.63960000  1.0 0.0880201549
H  H218  1  0.45290000  0.99080000  0.13960000  1.0 0.0880201549
H  H219  1  0.54710000  0.49080000  0.36040000  1.0 0.0880201549
H  H220  1  0.95290000  0.50920000  0.86040000  1.0 0.0880201549
H  H221  1  0.63960000  0.04710000  0.00920000  1.0 0.0880201549
H  H222  1  0.00920000  0.63960000  0.04710000  1.0 0.0880201549
H  H223  1  0.86040000  0.95290000  0.50920000  1.0 0.0880201549
H  H224  1  0.99080000  0.13960000  0.45290000  1.0 0.0880201549
H  H225  1  0.13960000  0.45290000  0.99080000  1.0 0.0880201549
H  H226  1  0.49080000  0.36040000  0.54710000  1.0 0.0880201549
H  H227  1  0.36040000  0.54710000  0.49080000  1.0 0.0880201549
H  H228  1  0.50920000  0.86040000  0.95290000  1.0 0.0880201549
H  H229  1  0.95290000  0.99080000  0.36040000  1.0 0.0880201549
H  H230  1  0.54710000  0.00920000  0.86040000  1.0 0.0880201549
H  H231  1  0.45290000  0.50920000  0.63960000  1.0 0.0880201549
H  H232  1  0.04710000  0.49080000  0.13960000  1.0 0.0880201549
H  H233  1  0.36040000  0.95290000  0.99080000  1.0 0.0880201549
H  H234  1  0.99080000  0.36040000  0.95290000  1.0 0.0880201549
H  H235  1  0.13960000  0.04710000  0.49080000  1.0 0.0880201549
H  H236  1  0.00920000  0.86040000  0.54710000  1.0 0.0880201549
H  H237  1  0.86040000  0.54710000  0.00920000  1.0 0.0880201549
H  H238  1  0.50920000  0.63960000  0.45290000  1.0 0.0880201549
H  H239  1  0.63960000  0.45290000  0.50920000  1.0 0.0880201549
H  H240  1  0.49080000  0.13960000  0.04710000  1.0 0.0880201549
H  H241  1  0.89750000  0.94160000  0.70300000  1.0 0.0668031584
H  H242  1  0.60250000  0.05840000  0.20300000  1.0 0.0668031584
H  H243  1  0.39750000  0.55840000  0.29700000  1.0 0.0668031584
H  H244  1  0.10250000  0.44160000  0.79700000  1.0 0.0668031584
H  H245  1  0.70300000  0.89750000  0.94160000  1.0 0.0668031584
H  H246  1  0.94160000  0.70300000  0.89750000  1.0 0.0668031584
H  H247  1  0.79700000  0.10250000  0.44160000  1.0 0.0668031584
H  H248  1  0.05840000  0.20300000  0.60250000  1.0 0.0668031584
H  H249  1  0.20300000  0.60250000  0.05840000  1.0 0.0668031584
H  H250  1  0.55840000  0.29700000  0.39750000  1.0 0.0668031584
H  H251  1  0.29700000  0.39750000  0.55840000  1.0 0.0668031584
H  H252  1  0.44160000  0.79700000  0.10250000  1.0 0.0668031584
H  H253  1  0.10250000  0.05840000  0.29700000  1.0 0.0668031584
H  H254  1  0.39750000  0.94160000  0.79700000  1.0 0.0668031584
H  H255  1  0.60250000  0.44160000  0.70300000  1.0 0.0668031584
H  H256  1  0.89750000  0.55840000  0.20300000  1.0 0.0668031584
H  H257  1  0.29700000  0.10250000  0.05840000  1.0 0.0668031584
H  H258  1  0.05840000  0.29700000  0.10250000  1.0 0.0668031584
H  H259  1  0.20300000  0.89750000  0.55840000  1.0 0.0668031584
H  H260  1  0.94160000  0.79700000  0.39750000  1.0 0.0668031584
H  H261  1  0.79700000  0.39750000  0.94160000  1.0 0.0668031584
H  H262  1  0.44160000  0.70300000  0.60250000  1.0 0.0668031584
H  H263  1  0.70300000  0.60250000  0.44160000  1.0 0.0668031584
H  H264  1  0.55840000  0.20300000  0.89750000  1.0 0.0668031584
C  C1  1  0.08200000  0.73370000  0.42620000  1.0 -0.4889782676
C  C2  1  0.41800000  0.26630000  0.92620000  1.0 -0.4889782676
C  C3  1  0.58200000  0.76630000  0.57380000  1.0 -0.4889782676
C  C4  1  0.91800000  0.23370000  0.07380000  1.0 -0.4889782676
C  C5  1  0.42620000  0.08200000  0.73370000  1.0 -0.4889782676
C  C6  1  0.73370000  0.42620000  0.08200000  1.0 -0.4889782676
C  C7  1  0.07380000  0.91800000  0.23370000  1.0 -0.4889782676
C  C8  1  0.26630000  0.92620000  0.41800000  1.0 -0.4889782676
C  C9  1  0.92620000  0.41800000  0.26630000  1.0 -0.4889782676
C  C10  1  0.76630000  0.57380000  0.58200000  1.0 -0.4889782676
C  C11  1  0.57380000  0.58200000  0.76630000  1.0 -0.4889782676
C  C12  1  0.23370000  0.07380000  0.91800000  1.0 -0.4889782676
C  C13  1  0.91800000  0.26630000  0.57380000  1.0 -0.4889782676
C  C14  1  0.58200000  0.73370000  0.07380000  1.0 -0.4889782676
C  C15  1  0.41800000  0.23370000  0.42620000  1.0 -0.4889782676
C  C16  1  0.08200000  0.76630000  0.92620000  1.0 -0.4889782676
C  C17  1  0.57380000  0.91800000  0.26630000  1.0 -0.4889782676
C  C18  1  0.26630000  0.57380000  0.91800000  1.0 -0.4889782676
C  C19  1  0.92620000  0.08200000  0.76630000  1.0 -0.4889782676
C  C20  1  0.73370000  0.07380000  0.58200000  1.0 -0.4889782676
C  C21  1  0.07380000  0.58200000  0.73370000  1.0 -0.4889782676
C  C22  1  0.23370000  0.42620000  0.41800000  1.0 -0.4889782676
C  C23  1  0.42620000  0.41800000  0.23370000  1.0 -0.4889782676
C  C24  1  0.76630000  0.92620000  0.08200000  1.0 -0.4889782676
C  C25  1  0.04080000  0.71740000  0.47400000  1.0 0.1698329874
C  C26  1  0.45920000  0.28260000  0.97400000  1.0 0.1698329874
C  C27  1  0.54080000  0.78260000  0.52600000  1.0 0.1698329874
C  C28  1  0.95920000  0.21740000  0.02600000  1.0 0.1698329874
C  C29  1  0.47400000  0.04080000  0.71740000  1.0 0.1698329874
C  C30  1  0.71740000  0.47400000  0.04080000  1.0 0.1698329874
C  C31  1  0.02600000  0.95920000  0.21740000  1.0 0.1698329874
C  C32  1  0.28260000  0.97400000  0.45920000  1.0 0.1698329874
C  C33  1  0.97400000  0.45920000  0.28260000  1.0 0.1698329874
C  C34  1  0.78260000  0.52600000  0.54080000  1.0 0.1698329874
C  C35  1  0.52600000  0.54080000  0.78260000  1.0 0.1698329874
C  C36  1  0.21740000  0.02600000  0.95920000  1.0 0.1698329874
C  C37  1  0.95920000  0.28260000  0.52600000  1.0 0.1698329874
C  C38  1  0.54080000  0.71740000  0.02600000  1.0 0.1698329874
C  C39  1  0.45920000  0.21740000  0.47400000  1.0 0.1698329874
C  C40  1  0.04080000  0.78260000  0.97400000  1.0 0.1698329874
C  C41  1  0.52600000  0.95920000  0.28260000  1.0 0.1698329874
C  C42  1  0.28260000  0.52600000  0.95920000  1.0 0.1698329874
C  C43  1  0.97400000  0.04080000  0.78260000  1.0 0.1698329874
C  C44  1  0.71740000  0.02600000  0.54080000  1.0 0.1698329874
C  C45  1  0.02600000  0.54080000  0.71740000  1.0 0.1698329874
C  C46  1  0.21740000  0.47400000  0.45920000  1.0 0.1698329874
C  C47  1  0.47400000  0.45920000  0.21740000  1.0 0.1698329874
C  C48  1  0.78260000  0.97400000  0.04080000  1.0 0.1698329874
C  C49  1  0.99370000  0.74880000  0.49670000  1.0 -0.0913862372
C  C50  1  0.50630000  0.25120000  0.99670000  1.0 -0.0913862372
C  C51  1  0.49370000  0.75120000  0.50330000  1.0 -0.0913862372
C  C52  1  0.00630000  0.24880000  0.00330000  1.0 -0.0913862372
C  C53  1  0.49670000  0.99370000  0.74880000  1.0 -0.0913862372
C  C54  1  0.74880000  0.49670000  0.99370000  1.0 -0.0913862372
C  C55  1  0.00330000  0.00630000  0.24880000  1.0 -0.0913862372
C  C56  1  0.25120000  0.99670000  0.50630000  1.0 -0.0913862372
C  C57  1  0.99670000  0.50630000  0.25120000  1.0 -0.0913862372
C  C58  1  0.75120000  0.50330000  0.49370000  1.0 -0.0913862372
C  C59  1  0.50330000  0.49370000  0.75120000  1.0 -0.0913862372
C  C60  1  0.24880000  0.00330000  0.00630000  1.0 -0.0913862372
C  C61  1  0.00630000  0.25120000  0.50330000  1.0 -0.0913862372
C  C62  1  0.49370000  0.74880000  0.00330000  1.0 -0.0913862372
C  C63  1  0.50630000  0.24880000  0.49670000  1.0 -0.0913862372
C  C64  1  0.99370000  0.75120000  0.99670000  1.0 -0.0913862372
C  C65  1  0.50330000  0.00630000  0.25120000  1.0 -0.0913862372
C  C66  1  0.25120000  0.50330000  0.00630000  1.0 -0.0913862372
C  C67  1  0.99670000  0.99370000  0.75120000  1.0 -0.0913862372
C  C68  1  0.74880000  0.00330000  0.49370000  1.0 -0.0913862372
C  C69  1  0.00330000  0.49370000  0.74880000  1.0 -0.0913862372
C  C70  1  0.24880000  0.49670000  0.50630000  1.0 -0.0913862372
C  C71  1  0.49670000  0.50630000  0.24880000  1.0 -0.0913862372
C  C72  1  0.75120000  0.99670000  0.99370000  1.0 -0.0913862372
C  C73  1  0.96900000  0.71590000  0.54140000  1.0 0.1698329874
C  C74  1  0.53100000  0.28410000  0.04140000  1.0 0.1698329874
C  C75  1  0.46900000  0.78410000  0.45860000  1.0 0.1698329874
C  C76  1  0.03100000  0.21590000  0.95860000  1.0 0.1698329874
C  C77  1  0.54140000  0.96900000  0.71590000  1.0 0.1698329874
C  C78  1  0.71590000  0.54140000  0.96900000  1.0 0.1698329874
C  C79  1  0.95860000  0.03100000  0.21590000  1.0 0.1698329874
C  C80  1  0.28410000  0.04140000  0.53100000  1.0 0.1698329874
C  C81  1  0.04140000  0.53100000  0.28410000  1.0 0.1698329874
C  C82  1  0.78410000  0.45860000  0.46900000  1.0 0.1698329874
C  C83  1  0.45860000  0.46900000  0.78410000  1.0 0.1698329874
C  C84  1  0.21590000  0.95860000  0.03100000  1.0 0.1698329874
C  C85  1  0.03100000  0.28410000  0.45860000  1.0 0.1698329874
C  C86  1  0.46900000  0.71590000  0.95860000  1.0 0.1698329874
C  C87  1  0.53100000  0.21590000  0.54140000  1.0 0.1698329874
C  C88  1  0.96900000  0.78410000  0.04140000  1.0 0.1698329874
C  C89  1  0.45860000  0.03100000  0.28410000  1.0 0.1698329874
C  C90  1  0.28410000  0.45860000  0.03100000  1.0 0.1698329874
C  C91  1  0.04140000  0.96900000  0.78410000  1.0 0.1698329874
C  C92  1  0.71590000  0.95860000  0.46900000  1.0 0.1698329874
C  C93  1  0.95860000  0.46900000  0.71590000  1.0 0.1698329874
C  C94  1  0.21590000  0.54140000  0.53100000  1.0 0.1698329874
C  C95  1  0.54140000  0.53100000  0.21590000  1.0 0.1698329874
C  C96  1  0.78410000  0.04140000  0.96900000  1.0 0.1698329874
C  C97  1  0.91770000  0.72990000  0.58070000  1.0 -0.4889782676
C  C98  1  0.58230000  0.27010000  0.08070000  1.0 -0.4889782676
C  C99  1  0.41770000  0.77010000  0.41930000  1.0 -0.4889782676
C  C100  1  0.08230000  0.22990000  0.91930000  1.0 -0.4889782676
C  C101  1  0.58070000  0.91770000  0.72990000  1.0 -0.4889782676
C  C102  1  0.72990000  0.58070000  0.91770000  1.0 -0.4889782676
C  C103  1  0.91930000  0.08230000  0.22990000  1.0 -0.4889782676
C  C104  1  0.27010000  0.08070000  0.58230000  1.0 -0.4889782676
C  C105  1  0.08070000  0.58230000  0.27010000  1.0 -0.4889782676
C  C106  1  0.77010000  0.41930000  0.41770000  1.0 -0.4889782676
C  C107  1  0.41930000  0.41770000  0.77010000  1.0 -0.4889782676
C  C108  1  0.22990000  0.91930000  0.08230000  1.0 -0.4889782676
C  C109  1  0.08230000  0.27010000  0.41930000  1.0 -0.4889782676
C  C110  1  0.41770000  0.72990000  0.91930000  1.0 -0.4889782676
C  C111  1  0.58230000  0.22990000  0.58070000  1.0 -0.4889782676
C  C112  1  0.91770000  0.77010000  0.08070000  1.0 -0.4889782676
C  C113  1  0.41930000  0.08230000  0.27010000  1.0 -0.4889782676
C  C114  1  0.27010000  0.41930000  0.08230000  1.0 -0.4889782676
C  C115  1  0.08070000  0.91770000  0.77010000  1.0 -0.4889782676
C  C116  1  0.72990000  0.91930000  0.41770000  1.0 -0.4889782676
C  C117  1  0.91930000  0.41770000  0.72990000  1.0 -0.4889782676
C  C118  1  0.22990000  0.58070000  0.58230000  1.0 -0.4889782676
C  C119  1  0.58070000  0.58230000  0.22990000  1.0 -0.4889782676
C  C120  1  0.77010000  0.08070000  0.91770000  1.0 -0.4889782676
C  C121  1  0.00680000  0.85780000  0.49640000  1.0 -0.0272790245
C  C122  1  0.49320000  0.14220000  0.99640000  1.0 -0.0272790245
C  C123  1  0.50680000  0.64220000  0.50360000  1.0 -0.0272790245
C  C124  1  0.99320000  0.35780000  0.00360000  1.0 -0.0272790245
C  C125  1  0.49640000  0.00680000  0.85780000  1.0 -0.0272790245
C  C126  1  0.85780000  0.49640000  0.00680000  1.0 -0.0272790245
C  C127  1  0.00360000  0.99320000  0.35780000  1.0 -0.0272790245
C  C128  1  0.14220000  0.99640000  0.49320000  1.0 -0.0272790245
C  C129  1  0.99640000  0.49320000  0.14220000  1.0 -0.0272790245
C  C130  1  0.64220000  0.50360000  0.50680000  1.0 -0.0272790245
C  C131  1  0.50360000  0.50680000  0.64220000  1.0 -0.0272790245
C  C132  1  0.35780000  0.00360000  0.99320000  1.0 -0.0272790245
C  C133  1  0.99320000  0.14220000  0.50360000  1.0 -0.0272790245
C  C134  1  0.50680000  0.85780000  0.00360000  1.0 -0.0272790245
C  C135  1  0.49320000  0.35780000  0.49640000  1.0 -0.0272790245
C  C136  1  0.00680000  0.64220000  0.99640000  1.0 -0.0272790245
C  C137  1  0.50360000  0.99320000  0.14220000  1.0 -0.0272790245
C  C138  1  0.14220000  0.50360000  0.99320000  1.0 -0.0272790245
C  C139  1  0.99640000  0.00680000  0.64220000  1.0 -0.0272790245
C  C140  1  0.85780000  0.00360000  0.50680000  1.0 -0.0272790245
C  C141  1  0.00360000  0.50680000  0.85780000  1.0 -0.0272790245
C  C142  1  0.35780000  0.49640000  0.49320000  1.0 -0.0272790245
C  C143  1  0.49640000  0.49320000  0.35780000  1.0 -0.0272790245
C  C144  1  0.64220000  0.99640000  0.00680000  1.0 -0.0272790245
C  C145  1  0.93070000  0.82540000  0.44700000  1.0 0.0494662865
C  C146  1  0.56930000  0.17460000  0.94700000  1.0 0.0494662865
C  C147  1  0.43070000  0.67460000  0.55300000  1.0 0.0494662865
C  C148  1  0.06930000  0.32540000  0.05300000  1.0 0.0494662865
C  C149  1  0.44700000  0.93070000  0.82540000  1.0 0.0494662865
C  C150  1  0.82540000  0.44700000  0.93070000  1.0 0.0494662865
C  C151  1  0.05300000  0.06930000  0.32540000  1.0 0.0494662865
C  C152  1  0.17460000  0.94700000  0.56930000  1.0 0.0494662865
C  C153  1  0.94700000  0.56930000  0.17460000  1.0 0.0494662865
C  C154  1  0.67460000  0.55300000  0.43070000  1.0 0.0494662865
C  C155  1  0.55300000  0.43070000  0.67460000  1.0 0.0494662865
C  C156  1  0.32540000  0.05300000  0.06930000  1.0 0.0494662865
C  C157  1  0.06930000  0.17460000  0.55300000  1.0 0.0494662865
C  C158  1  0.43070000  0.82540000  0.05300000  1.0 0.0494662865
C  C159  1  0.56930000  0.32540000  0.44700000  1.0 0.0494662865
C  C160  1  0.93070000  0.67460000  0.94700000  1.0 0.0494662865
C  C161  1  0.55300000  0.06930000  0.17460000  1.0 0.0494662865
C  C162  1  0.17460000  0.55300000  0.06930000  1.0 0.0494662865
C  C163  1  0.94700000  0.93070000  0.67460000  1.0 0.0494662865
C  C164  1  0.82540000  0.05300000  0.43070000  1.0 0.0494662865
C  C165  1  0.05300000  0.43070000  0.82540000  1.0 0.0494662865
C  C166  1  0.32540000  0.44700000  0.56930000  1.0 0.0494662865
C  C167  1  0.44700000  0.56930000  0.32540000  1.0 0.0494662865
C  C168  1  0.67460000  0.94700000  0.93070000  1.0 0.0494662865
C  C169  1  0.00930000  0.99220000  0.64180000  1.0 -0.0389239981
C  C170  1  0.49070000  0.00780000  0.14180000  1.0 -0.0389239981
C  C171  1  0.50930000  0.50780000  0.35820000  1.0 -0.0389239981
C  C172  1  0.99070000  0.49220000  0.85820000  1.0 -0.0389239981
C  C173  1  0.64180000  0.00930000  0.99220000  1.0 -0.0389239981
C  C174  1  0.99220000  0.64180000  0.00930000  1.0 -0.0389239981
C  C175  1  0.85820000  0.99070000  0.49220000  1.0 -0.0389239981
C  C176  1  0.00780000  0.14180000  0.49070000  1.0 -0.0389239981
C  C177  1  0.14180000  0.49070000  0.00780000  1.0 -0.0389239981
C  C178  1  0.50780000  0.35820000  0.50930000  1.0 -0.0389239981
C  C179  1  0.35820000  0.50930000  0.50780000  1.0 -0.0389239981
C  C180  1  0.49220000  0.85820000  0.99070000  1.0 -0.0389239981
C  C181  1  0.99070000  0.00780000  0.35820000  1.0 -0.0389239981
C  C182  1  0.50930000  0.99220000  0.85820000  1.0 -0.0389239981
C  C183  1  0.49070000  0.49220000  0.64180000  1.0 -0.0389239981
C  C184  1  0.00930000  0.50780000  0.14180000  1.0 -0.0389239981
C  C185  1  0.35820000  0.99070000  0.00780000  1.0 -0.0389239981
C  C186  1  0.00780000  0.35820000  0.99070000  1.0 -0.0389239981
C  C187  1  0.14180000  0.00930000  0.50780000  1.0 -0.0389239981
C  C188  1  0.99220000  0.85820000  0.50930000  1.0 -0.0389239981
C  C189  1  0.85820000  0.50930000  0.99220000  1.0 -0.0389239981
C  C190  1  0.49220000  0.64180000  0.49070000  1.0 -0.0389239981
C  C191  1  0.64180000  0.49070000  0.49220000  1.0 -0.0389239981
C  C192  1  0.50780000  0.14180000  0.00930000  1.0 -0.0389239981
C  C193  1  0.92680000  0.95490000  0.67670000  1.0 0.0494662865
C  C194  1  0.57320000  0.04510000  0.17670000  1.0 0.0494662865
C  C195  1  0.42680000  0.54510000  0.32330000  1.0 0.0494662865
C  C196  1  0.07320000  0.45490000  0.82330000  1.0 0.0494662865
C  C197  1  0.67670000  0.92680000  0.95490000  1.0 0.0494662865
C  C198  1  0.95490000  0.67670000  0.92680000  1.0 0.0494662865
C  C199  1  0.82330000  0.07320000  0.45490000  1.0 0.0494662865
C  C200  1  0.04510000  0.17670000  0.57320000  1.0 0.0494662865
C  C201  1  0.17670000  0.57320000  0.04510000  1.0 0.0494662865
C  C202  1  0.54510000  0.32330000  0.42680000  1.0 0.0494662865
C  C203  1  0.32330000  0.42680000  0.54510000  1.0 0.0494662865
C  C204  1  0.45490000  0.82330000  0.07320000  1.0 0.0494662865
C  C205  1  0.07320000  0.04510000  0.32330000  1.0 0.0494662865
C  C206  1  0.42680000  0.95490000  0.82330000  1.0 0.0494662865
C  C207  1  0.57320000  0.45490000  0.67670000  1.0 0.0494662865
C  C208  1  0.92680000  0.54510000  0.17670000  1.0 0.0494662865
C  C209  1  0.32330000  0.07320000  0.04510000  1.0 0.0494662865
C  C210  1  0.04510000  0.32330000  0.07320000  1.0 0.0494662865
C  C211  1  0.17670000  0.92680000  0.54510000  1.0 0.0494662865
C  C212  1  0.95490000  0.82330000  0.42680000  1.0 0.0494662865
C  C213  1  0.82330000  0.42680000  0.95490000  1.0 0.0494662865
C  C214  1  0.45490000  0.67670000  0.57320000  1.0 0.0494662865
C  C215  1  0.67670000  0.57320000  0.45490000  1.0 0.0494662865
C  C216  1  0.54510000  0.17670000  0.92680000  1.0 0.0494662865
N  N1  1  0.04340000  0.66550000  0.50390000  1.0 -0.2700508395
N  N2  1  0.45660000  0.33450000  0.00390000  1.0 -0.2700508395
N  N3  1  0.54340000  0.83450000  0.49610000  1.0 -0.2700508395
N  N4  1  0.95660000  0.16550000  0.99610000  1.0 -0.2700508395
N  N5  1  0.50390000  0.04340000  0.66550000  1.0 -0.2700508395
N  N6  1  0.66550000  0.50390000  0.04340000  1.0 -0.2700508395
N  N7  1  0.99610000  0.95660000  0.16550000  1.0 -0.2700508395
N  N8  1  0.33450000  0.00390000  0.45660000  1.0 -0.2700508395
N  N9  1  0.00390000  0.45660000  0.33450000  1.0 -0.2700508395
N  N10  1  0.83450000  0.49610000  0.54340000  1.0 -0.2700508395
N  N11  1  0.49610000  0.54340000  0.83450000  1.0 -0.2700508395
N  N12  1  0.16550000  0.99610000  0.95660000  1.0 -0.2700508395
N  N13  1  0.95660000  0.33450000  0.49610000  1.0 -0.2700508395
N  N14  1  0.54340000  0.66550000  0.99610000  1.0 -0.2700508395
N  N15  1  0.45660000  0.16550000  0.50390000  1.0 -0.2700508395
N  N16  1  0.04340000  0.83450000  0.00390000  1.0 -0.2700508395
N  N17  1  0.49610000  0.95660000  0.33450000  1.0 -0.2700508395
N  N18  1  0.33450000  0.49610000  0.95660000  1.0 -0.2700508395
N  N19  1  0.00390000  0.04340000  0.83450000  1.0 -0.2700508395
N  N20  1  0.66550000  0.99610000  0.54340000  1.0 -0.2700508395
N  N21  1  0.99610000  0.54340000  0.66550000  1.0 -0.2700508395
N  N22  1  0.16550000  0.50390000  0.45660000  1.0 -0.2700508395
N  N23  1  0.50390000  0.45660000  0.16550000  1.0 -0.2700508395
N  N24  1  0.83450000  0.00390000  0.04340000  1.0 -0.2700508395
N  N25  1  0.99880000  0.66510000  0.54490000  1.0 -0.2566058576
N  N26  1  0.50120000  0.33490000  0.04490000  1.0 -0.2566058576
N  N27  1  0.49880000  0.83490000  0.45510000  1.0 -0.2566058576
N  N28  1  0.00120000  0.16510000  0.95510000  1.0 -0.2566058576
N  N29  1  0.54490000  0.99880000  0.66510000  1.0 -0.2566058576
N  N30  1  0.66510000  0.54490000  0.99880000  1.0 -0.2566058576
N  N31  1  0.95510000  0.00120000  0.16510000  1.0 -0.2566058576
N  N32  1  0.33490000  0.04490000  0.50120000  1.0 -0.2566058576
N  N33  1  0.04490000  0.50120000  0.33490000  1.0 -0.2566058576
N  N34  1  0.83490000  0.45510000  0.49880000  1.0 -0.2566058576
N  N35  1  0.45510000  0.49880000  0.83490000  1.0 -0.2566058576
N  N36  1  0.16510000  0.95510000  0.00120000  1.0 -0.2566058576
N  N37  1  0.00120000  0.33490000  0.45510000  1.0 -0.2566058576
N  N38  1  0.49880000  0.66510000  0.95510000  1.0 -0.2566058576
N  N39  1  0.50120000  0.16510000  0.54490000  1.0 -0.2566058576
N  N40  1  0.99880000  0.83490000  0.04490000  1.0 -0.2566058576
N  N41  1  0.45510000  0.00120000  0.33490000  1.0 -0.2566058576
N  N42  1  0.33490000  0.45510000  0.00120000  1.0 -0.2566058576
N  N43  1  0.04490000  0.99880000  0.83490000  1.0 -0.2566058576
N  N44  1  0.66510000  0.95510000  0.49880000  1.0 -0.2566058576
N  N45  1  0.95510000  0.49880000  0.66510000  1.0 -0.2566058576
N  N46  1  0.16510000  0.54490000  0.50120000  1.0 -0.2566058576
N  N47  1  0.54490000  0.50120000  0.16510000  1.0 -0.2566058576
N  N48  1  0.83490000  0.04490000  0.99880000  1.0 -0.2566058576
N  N49  1  0.97750000  0.90305000  0.47520000  1.0 -0.1913549878
N  N50  1  0.52250000  0.09695000  0.97520000  1.0 -0.1913549878
N  N51  1  0.47750000  0.59695000  0.52480000  1.0 -0.1913549878
N  N52  1  0.02250000  0.40305000  0.02480000  1.0 -0.1913549878
N  N53  1  0.47520000  0.97750000  0.90305000  1.0 -0.1913549878
N  N54  1  0.90305000  0.47520000  0.97750000  1.0 -0.1913549878
N  N55  1  0.02480000  0.02250000  0.40305000  1.0 -0.1913549878
N  N56  1  0.09695000  0.97520000  0.52250000  1.0 -0.1913549878
N  N57  1  0.97520000  0.52250000  0.09695000  1.0 -0.1913549878
N  N58  1  0.59695000  0.52480000  0.47750000  1.0 -0.1913549878
N  N59  1  0.52480000  0.47750000  0.59695000  1.0 -0.1913549878
N  N60  1  0.40305000  0.02480000  0.02250000  1.0 -0.1913549878
N  N61  1  0.02250000  0.09695000  0.52480000  1.0 -0.1913549878
N  N62  1  0.47750000  0.90305000  0.02480000  1.0 -0.1913549878
N  N63  1  0.52250000  0.40305000  0.47520000  1.0 -0.1913549878
N  N64  1  0.97750000  0.59695000  0.97520000  1.0 -0.1913549878
N  N65  1  0.52480000  0.02250000  0.09695000  1.0 -0.1913549878
N  N66  1  0.09695000  0.52480000  0.02250000  1.0 -0.1913549878
N  N67  1  0.97520000  0.97750000  0.59695000  1.0 -0.1913549878
N  N68  1  0.90305000  0.02480000  0.47750000  1.0 -0.1913549878
N  N69  1  0.02480000  0.47750000  0.90305000  1.0 -0.1913549878
N  N70  1  0.40305000  0.47520000  0.52250000  1.0 -0.1913549878
N  N71  1  0.47520000  0.52250000  0.40305000  1.0 -0.1913549878
N  N72  1  0.59695000  0.97520000  0.97750000  1.0 -0.1913549878
N  N73  1  0.97820000  0.80776000  0.47920000  1.0 0.0398688838
N  N74  1  0.52180000  0.19224000  0.97920000  1.0 0.0398688838
N  N75  1  0.47820000  0.69224000  0.52080000  1.0 0.0398688838
N  N76  1  0.02180000  0.30776000  0.02080000  1.0 0.0398688838
N  N77  1  0.47920000  0.97820000  0.80776000  1.0 0.0398688838
N  N78  1  0.80776000  0.47920000  0.97820000  1.0 0.0398688838
N  N79  1  0.02080000  0.02180000  0.30776000  1.0 0.0398688838
N  N80  1  0.19224000  0.97920000  0.52180000  1.0 0.0398688838
N  N81  1  0.97920000  0.52180000  0.19224000  1.0 0.0398688838
N  N82  1  0.69224000  0.52080000  0.47820000  1.0 0.0398688838
N  N83  1  0.52080000  0.47820000  0.69224000  1.0 0.0398688838
N  N84  1  0.30776000  0.02080000  0.02180000  1.0 0.0398688838
N  N85  1  0.02180000  0.19224000  0.52080000  1.0 0.0398688838
N  N86  1  0.47820000  0.80776000  0.02080000  1.0 0.0398688838
N  N87  1  0.52180000  0.30776000  0.47920000  1.0 0.0398688838
N  N88  1  0.97820000  0.69224000  0.97920000  1.0 0.0398688838
N  N89  1  0.52080000  0.02180000  0.19224000  1.0 0.0398688838
N  N90  1  0.19224000  0.52080000  0.02180000  1.0 0.0398688838
N  N91  1  0.97920000  0.97820000  0.69224000  1.0 0.0398688838
N  N92  1  0.80776000  0.02080000  0.47820000  1.0 0.0398688838
N  N93  1  0.02080000  0.47820000  0.80776000  1.0 0.0398688838
N  N94  1  0.30776000  0.47920000  0.52180000  1.0 0.0398688838
N  N95  1  0.47920000  0.52180000  0.30776000  1.0 0.0398688838
N  N96  1  0.69224000  0.97920000  0.97820000  1.0 0.0398688838
N  N97  1  0.92740000  0.88250000  0.44250000  1.0 -0.1415767676
N  N98  1  0.57260000  0.11750000  0.94250000  1.0 -0.1415767676
N  N99  1  0.42740000  0.61750000  0.55750000  1.0 -0.1415767676
N  N100  1  0.07260000  0.38250000  0.05750000  1.0 -0.1415767676
N  N101  1  0.44250000  0.92740000  0.88250000  1.0 -0.1415767676
N  N102  1  0.88250000  0.44250000  0.92740000  1.0 -0.1415767676
N  N103  1  0.05750000  0.07260000  0.38250000  1.0 -0.1415767676
N  N104  1  0.11750000  0.94250000  0.57260000  1.0 -0.1415767676
N  N105  1  0.94250000  0.57260000  0.11750000  1.0 -0.1415767676
N  N106  1  0.61750000  0.55750000  0.42740000  1.0 -0.1415767676
N  N107  1  0.55750000  0.42740000  0.61750000  1.0 -0.1415767676
N  N108  1  0.38250000  0.05750000  0.07260000  1.0 -0.1415767676
N  N109  1  0.07260000  0.11750000  0.55750000  1.0 -0.1415767676
N  N110  1  0.42740000  0.88250000  0.05750000  1.0 -0.1415767676
N  N111  1  0.57260000  0.38250000  0.44250000  1.0 -0.1415767676
N  N112  1  0.92740000  0.61750000  0.94250000  1.0 -0.1415767676
N  N113  1  0.55750000  0.07260000  0.11750000  1.0 -0.1415767676
N  N114  1  0.11750000  0.55750000  0.07260000  1.0 -0.1415767676
N  N115  1  0.94250000  0.92740000  0.61750000  1.0 -0.1415767676
N  N116  1  0.88250000  0.05750000  0.42740000  1.0 -0.1415767676
N  N117  1  0.05750000  0.42740000  0.88250000  1.0 -0.1415767676
N  N118  1  0.38250000  0.44250000  0.57260000  1.0 -0.1415767676
N  N119  1  0.44250000  0.57260000  0.38250000  1.0 -0.1415767676
N  N120  1  0.61750000  0.94250000  0.92740000  1.0 -0.1415767676
N  N121  1  0.92320000  0.95390000  0.61780000  1.0 -0.1415767676
N  N122  1  0.57680000  0.04610000  0.11780000  1.0 -0.1415767676
N  N123  1  0.42320000  0.54610000  0.38220000  1.0 -0.1415767676
N  N124  1  0.07680000  0.45390000  0.88220000  1.0 -0.1415767676
N  N125  1  0.61780000  0.92320000  0.95390000  1.0 -0.1415767676
N  N126  1  0.95390000  0.61780000  0.92320000  1.0 -0.1415767676
N  N127  1  0.88220000  0.07680000  0.45390000  1.0 -0.1415767676
N  N128  1  0.04610000  0.11780000  0.57680000  1.0 -0.1415767676
N  N129  1  0.11780000  0.57680000  0.04610000  1.0 -0.1415767676
N  N130  1  0.54610000  0.38220000  0.42320000  1.0 -0.1415767676
N  N131  1  0.38220000  0.42320000  0.54610000  1.0 -0.1415767676
N  N132  1  0.45390000  0.88220000  0.07680000  1.0 -0.1415767676
N  N133  1  0.07680000  0.04610000  0.38220000  1.0 -0.1415767676
N  N134  1  0.42320000  0.95390000  0.88220000  1.0 -0.1415767676
N  N135  1  0.57680000  0.45390000  0.61780000  1.0 -0.1415767676
N  N136  1  0.92320000  0.54610000  0.11780000  1.0 -0.1415767676
N  N137  1  0.38220000  0.07680000  0.04610000  1.0 -0.1415767676
N  N138  1  0.04610000  0.38220000  0.07680000  1.0 -0.1415767676
N  N139  1  0.11780000  0.92320000  0.54610000  1.0 -0.1415767676
N  N140  1  0.95390000  0.88220000  0.42320000  1.0 -0.1415767676
N  N141  1  0.88220000  0.42320000  0.95390000  1.0 -0.1415767676
N  N142  1  0.45390000  0.61780000  0.57680000  1.0 -0.1415767676
N  N143  1  0.61780000  0.57680000  0.45390000  1.0 -0.1415767676
N  N144  1  0.54610000  0.11780000  0.92320000  1.0 -0.1415767676
O  O1  1  0.08294000  0.90720000  0.08616000  1.0 -0.7890410556
O  O2  1  0.41706000  0.09280000  0.58616000  1.0 -0.7890410556
O  O3  1  0.58294000  0.59280000  0.91384000  1.0 -0.7890410556
O  O4  1  0.91706000  0.40720000  0.41384000  1.0 -0.7890410556
O  O5  1  0.08616000  0.08294000  0.90720000  1.0 -0.7890410556
O  O6  1  0.90720000  0.08616000  0.08294000  1.0 -0.7890410556
O  O7  1  0.41384000  0.91706000  0.40720000  1.0 -0.7890410556
O  O8  1  0.09280000  0.58616000  0.41706000  1.0 -0.7890410556
O  O9  1  0.58616000  0.41706000  0.09280000  1.0 -0.7890410556
O  O10  1  0.59280000  0.91384000  0.58294000  1.0 -0.7890410556
O  O11  1  0.91384000  0.58294000  0.59280000  1.0 -0.7890410556
O  O12  1  0.40720000  0.41384000  0.91706000  1.0 -0.7890410556
O  O13  1  0.91706000  0.09280000  0.91384000  1.0 -0.7890410556
O  O14  1  0.58294000  0.90720000  0.41384000  1.0 -0.7890410556
O  O15  1  0.41706000  0.40720000  0.08616000  1.0 -0.7890410556
O  O16  1  0.08294000  0.59280000  0.58616000  1.0 -0.7890410556
O  O17  1  0.91384000  0.91706000  0.09280000  1.0 -0.7890410556
O  O18  1  0.09280000  0.91384000  0.91706000  1.0 -0.7890410556
O  O19  1  0.58616000  0.08294000  0.59280000  1.0 -0.7890410556
O  O20  1  0.90720000  0.41384000  0.58294000  1.0 -0.7890410556
O  O21  1  0.41384000  0.58294000  0.90720000  1.0 -0.7890410556
O  O22  1  0.40720000  0.08616000  0.41706000  1.0 -0.7890410556
O  O23  1  0.08616000  0.41706000  0.40720000  1.0 -0.7890410556
O  O24  1  0.59280000  0.58616000  0.08294000  1.0 -0.7890410556
