# DDEC6 charges by PACMAN v1.1 (https://github.com/mtap-research/PACMAN-charge/)
data_UMEJUT_FSR_pacman
_symmetry_space_group_name_H-M   'P 1'
_cell_length_a   10.38000000
_cell_length_b   14.42700000
_cell_length_c   28.13000000
_cell_angle_alpha   90.00000000
_cell_angle_beta   90.00000000
_cell_angle_gamma   90.00000000
_symmetry_Int_Tables_number   1
_chemical_formula_structural   Zn2H12C11N15O4
_chemical_formula_sum   'Zn8 H48 C44 N60 O16'
_cell_volume   4212.53107380
_cell_formula_units_Z   4
loop_
 _symmetry_equiv_pos_site_id
 _symmetry_equiv_pos_as_xyz
  1  'x, y, z'
loop_
 _atom_site_type_symbol
 _atom_site_label
 _atom_site_symmetry_multiplicity
 _atom_site_fract_x
 _atom_site_fract_y
 _atom_site_fract_z
 _atom_site_occupancy
 _atom_site_charge
Zn  Zn1  1  0.56784000  0.03501000  0.19359000  1.0 0.744358542
Zn  Zn2  1  0.06784000  0.96499000  0.30641000  1.0 0.744358542
Zn  Zn3  1  0.43216000  0.53501000  0.80641000  1.0 0.744358542
Zn  Zn4  1  0.93216000  0.46499000  0.69359000  1.0 0.744358542
Zn  Zn5  1  0.43216000  0.96499000  0.80641000  1.0 0.744358542
Zn  Zn6  1  0.93216000  0.03501000  0.69359000  1.0 0.744358542
Zn  Zn7  1  0.56784000  0.46499000  0.19359000  1.0 0.744358542
Zn  Zn8  1  0.06784000  0.53501000  0.30641000  1.0 0.744358542
H  H1  1  0.36920000  0.19610000  0.16550000  1.0 0.3492290215
H  H2  1  0.86920000  0.80390000  0.33450000  1.0 0.3492290215
H  H3  1  0.63080000  0.69610000  0.83450000  1.0 0.3492290215
H  H4  1  0.13080000  0.30390000  0.66550000  1.0 0.3492290215
H  H5  1  0.63080000  0.80390000  0.83450000  1.0 0.3492290215
H  H6  1  0.13080000  0.19610000  0.66550000  1.0 0.3492290215
H  H7  1  0.36920000  0.30390000  0.16550000  1.0 0.3492290215
H  H8  1  0.86920000  0.69610000  0.33450000  1.0 0.3492290215
H  H9  1  0.27120000  0.98820000  0.16600000  1.0 0.3236199865
H  H10  1  0.77120000  0.01180000  0.33400000  1.0 0.3236199865
H  H11  1  0.72880000  0.48820000  0.83400000  1.0 0.3236199865
H  H12  1  0.22880000  0.51180000  0.66600000  1.0 0.3236199865
H  H13  1  0.72880000  0.01180000  0.83400000  1.0 0.3236199865
H  H14  1  0.22880000  0.98820000  0.66600000  1.0 0.3236199865
H  H15  1  0.27120000  0.51180000  0.16600000  1.0 0.3236199865
H  H16  1  0.77120000  0.48820000  0.33400000  1.0 0.3236199865
H  H17  1  0.14200000  0.97870000  0.19380000  1.0 0.3027090194
H  H18  1  0.64200000  0.02130000  0.30620000  1.0 0.3027090194
H  H19  1  0.85800000  0.47870000  0.80620000  1.0 0.3027090194
H  H20  1  0.35800000  0.52130000  0.69380000  1.0 0.3027090194
H  H21  1  0.85800000  0.02130000  0.80620000  1.0 0.3027090194
H  H22  1  0.35800000  0.97870000  0.69380000  1.0 0.3027090194
H  H23  1  0.14200000  0.52130000  0.19380000  1.0 0.3027090194
H  H24  1  0.64200000  0.47870000  0.30620000  1.0 0.3027090194
H  H25  1  0.31710000  0.06820000  0.03310000  1.0 0.1186227375
H  H26  1  0.81710000  0.93180000  0.46690000  1.0 0.1186227375
H  H27  1  0.68290000  0.56820000  0.96690000  1.0 0.1186227375
H  H28  1  0.18290000  0.43180000  0.53310000  1.0 0.1186227375
H  H29  1  0.68290000  0.93180000  0.96690000  1.0 0.1186227375
H  H30  1  0.18290000  0.06820000  0.53310000  1.0 0.1186227375
H  H31  1  0.31710000  0.43180000  0.03310000  1.0 0.1186227375
H  H32  1  0.81710000  0.56820000  0.46690000  1.0 0.1186227375
H  H33  1  0.65890000  0.93540000  0.05060000  1.0 0.1277585054
H  H34  1  0.15890000  0.06460000  0.44940000  1.0 0.1277585054
H  H35  1  0.34110000  0.43540000  0.94940000  1.0 0.1277585054
H  H36  1  0.84110000  0.56460000  0.55060000  1.0 0.1277585054
H  H37  1  0.34110000  0.06460000  0.94940000  1.0 0.1277585054
H  H38  1  0.84110000  0.93540000  0.55060000  1.0 0.1277585054
H  H39  1  0.65890000  0.56460000  0.05060000  1.0 0.1277585054
H  H40  1  0.15890000  0.43540000  0.44940000  1.0 0.1277585054
H  H41  1  0.37180000  0.30390000  0.16270000  1.0 0.3492290215
H  H42  1  0.87180000  0.69610000  0.33730000  1.0 0.3492290215
H  H43  1  0.62820000  0.80390000  0.83730000  1.0 0.3492290215
H  H44  1  0.12820000  0.19610000  0.66270000  1.0 0.3492290215
H  H45  1  0.62820000  0.69610000  0.83730000  1.0 0.3492290215
H  H46  1  0.12820000  0.30390000  0.66270000  1.0 0.3492290215
H  H47  1  0.37180000  0.19610000  0.16270000  1.0 0.3492290215
H  H48  1  0.87180000  0.80390000  0.33730000  1.0 0.3492290215
C  C1  1  0.47460000  0.02930000  0.10260000  1.0 0.5461211303
C  C2  1  0.97460000  0.97070000  0.39740000  1.0 0.5461211303
C  C3  1  0.52540000  0.52930000  0.89740000  1.0 0.5461211303
C  C4  1  0.02540000  0.47070000  0.60260000  1.0 0.5461211303
C  C5  1  0.52540000  0.97070000  0.89740000  1.0 0.5461211303
C  C6  1  0.02540000  0.02930000  0.60260000  1.0 0.5461211303
C  C7  1  0.47460000  0.47070000  0.10260000  1.0 0.5461211303
C  C8  1  0.97460000  0.52930000  0.39740000  1.0 0.5461211303
C  C9  1  0.53560000  0.25000000  0.18450000  1.0 0.4521897831
C  C10  1  0.03560000  0.75000000  0.31550000  1.0 0.4521897831
C  C11  1  0.46440000  0.75000000  0.81550000  1.0 0.4521897831
C  C12  1  0.96440000  0.25000000  0.68450000  1.0 0.4521897831
C  C13  1  0.29180000  0.00070000  0.23590000  1.0 0.4945017533
C  C14  1  0.79180000  0.99930000  0.26410000  1.0 0.4945017533
C  C15  1  0.70820000  0.50070000  0.76410000  1.0 0.4945017533
C  C16  1  0.20820000  0.49930000  0.73590000  1.0 0.4945017533
C  C17  1  0.70820000  0.99930000  0.76410000  1.0 0.4945017533
C  C18  1  0.20820000  0.00070000  0.73590000  1.0 0.4945017533
C  C19  1  0.29180000  0.49930000  0.23590000  1.0 0.4945017533
C  C20  1  0.79180000  0.50070000  0.26410000  1.0 0.4945017533
C  C21  1  0.48760000  0.01230000  0.04910000  1.0 -0.0217388626
C  C22  1  0.98760000  0.98770000  0.45090000  1.0 -0.0217388626
C  C23  1  0.51240000  0.51230000  0.95090000  1.0 -0.0217388626
C  C24  1  0.01240000  0.48770000  0.54910000  1.0 -0.0217388626
C  C25  1  0.51240000  0.98770000  0.95090000  1.0 -0.0217388626
C  C26  1  0.01240000  0.01230000  0.54910000  1.0 -0.0217388626
C  C27  1  0.48760000  0.48770000  0.04910000  1.0 -0.0217388626
C  C28  1  0.98760000  0.51230000  0.45090000  1.0 -0.0217388626
C  C29  1  0.39380000  0.04270000  0.01930000  1.0 -0.1085832579
C  C30  1  0.89380000  0.95730000  0.48070000  1.0 -0.1085832579
C  C31  1  0.60620000  0.54270000  0.98070000  1.0 -0.1085832579
C  C32  1  0.10620000  0.45730000  0.51930000  1.0 -0.1085832579
C  C33  1  0.60620000  0.95730000  0.98070000  1.0 -0.1085832579
C  C34  1  0.10620000  0.04270000  0.51930000  1.0 -0.1085832579
C  C35  1  0.39380000  0.45730000  0.01930000  1.0 -0.1085832579
C  C36  1  0.89380000  0.54270000  0.48070000  1.0 -0.1085832579
C  C37  1  0.59660000  0.96370000  0.03000000  1.0 -0.1085832579
C  C38  1  0.09660000  0.03630000  0.47000000  1.0 -0.1085832579
C  C39  1  0.40340000  0.46370000  0.97000000  1.0 -0.1085832579
C  C40  1  0.90340000  0.53630000  0.53000000  1.0 -0.1085832579
C  C41  1  0.40340000  0.03630000  0.97000000  1.0 -0.1085832579
C  C42  1  0.90340000  0.96370000  0.53000000  1.0 -0.1085832579
C  C43  1  0.59660000  0.53630000  0.03000000  1.0 -0.1085832579
C  C44  1  0.09660000  0.46370000  0.47000000  1.0 -0.1085832579
N  N1  1  0.59960000  0.17100000  0.19508000  1.0 -0.3763903728
N  N2  1  0.09960000  0.82900000  0.30492000  1.0 -0.3763903728
N  N3  1  0.40040000  0.67100000  0.80492000  1.0 -0.3763903728
N  N4  1  0.90040000  0.32900000  0.69508000  1.0 -0.3763903728
N  N5  1  0.40040000  0.82900000  0.80492000  1.0 -0.3763903728
N  N6  1  0.90040000  0.17100000  0.69508000  1.0 -0.3763903728
N  N7  1  0.59960000  0.32900000  0.19508000  1.0 -0.3763903728
N  N8  1  0.09960000  0.67100000  0.30492000  1.0 -0.3763903728
N  N9  1  0.41820000  0.01510000  0.23819000  1.0 -0.3561771898
N  N10  1  0.91820000  0.98490000  0.26181000  1.0 -0.3561771898
N  N11  1  0.58180000  0.51510000  0.76181000  1.0 -0.3561771898
N  N12  1  0.08180000  0.48490000  0.73819000  1.0 -0.3561771898
N  N13  1  0.58180000  0.98490000  0.76181000  1.0 -0.3561771898
N  N14  1  0.08180000  0.01510000  0.73819000  1.0 -0.3561771898
N  N15  1  0.41820000  0.48490000  0.23819000  1.0 -0.3561771898
N  N16  1  0.91820000  0.51510000  0.26181000  1.0 -0.3561771898
N  N17  1  0.23590000  0.00940000  0.27720000  1.0 -0.3489125012
N  N18  1  0.73590000  0.99060000  0.22280000  1.0 -0.3489125012
N  N19  1  0.76410000  0.50940000  0.72280000  1.0 -0.3489125012
N  N20  1  0.26410000  0.49060000  0.77720000  1.0 -0.3489125012
N  N21  1  0.76410000  0.99060000  0.72280000  1.0 -0.3489125012
N  N22  1  0.26410000  0.00940000  0.77720000  1.0 -0.3489125012
N  N23  1  0.23590000  0.49060000  0.27720000  1.0 -0.3489125012
N  N24  1  0.73590000  0.50940000  0.22280000  1.0 -0.3489125012
N  N25  1  0.72140000  0.20440000  0.21080000  1.0 -0.0823343005
N  N26  1  0.22140000  0.79560000  0.28920000  1.0 -0.0823343005
N  N27  1  0.27860000  0.70440000  0.78920000  1.0 -0.0823343005
N  N28  1  0.77860000  0.29560000  0.71080000  1.0 -0.0823343005
N  N29  1  0.27860000  0.79560000  0.78920000  1.0 -0.0823343005
N  N30  1  0.77860000  0.20440000  0.71080000  1.0 -0.0823343005
N  N31  1  0.72140000  0.29560000  0.21080000  1.0 -0.0823343005
N  N32  1  0.22140000  0.70440000  0.28920000  1.0 -0.0823343005
N  N33  1  0.44160000  0.02750000  0.28600000  1.0 -0.0823343005
N  N34  1  0.94160000  0.97250000  0.21400000  1.0 -0.0823343005
N  N35  1  0.55840000  0.52750000  0.71400000  1.0 -0.0823343005
N  N36  1  0.05840000  0.47250000  0.78600000  1.0 -0.0823343005
N  N37  1  0.55840000  0.97250000  0.71400000  1.0 -0.0823343005
N  N38  1  0.05840000  0.02750000  0.78600000  1.0 -0.0823343005
N  N39  1  0.44160000  0.47250000  0.28600000  1.0 -0.0823343005
N  N40  1  0.94160000  0.52750000  0.21400000  1.0 -0.0823343005
N  N41  1  0.41150000  0.25000000  0.16930000  1.0 -0.5588212801
N  N42  1  0.91150000  0.75000000  0.33070000  1.0 -0.5540316528
N  N43  1  0.58850000  0.75000000  0.83070000  1.0 -0.5540316528
N  N44  1  0.08850000  0.25000000  0.66930000  1.0 -0.5588212801
N  N45  1  0.22770000  0.98810000  0.19370000  1.0 -0.6309320828
N  N46  1  0.72770000  0.01190000  0.30630000  1.0 -0.6309320828
N  N47  1  0.77230000  0.48810000  0.80630000  1.0 -0.6309320828
N  N48  1  0.27230000  0.51190000  0.69370000  1.0 -0.6309320828
N  N49  1  0.77230000  0.01190000  0.80630000  1.0 -0.6309320828
N  N50  1  0.27230000  0.98810000  0.69370000  1.0 -0.6309320828
N  N51  1  0.22770000  0.51190000  0.19370000  1.0 -0.6309320828
N  N52  1  0.72770000  0.48810000  0.30630000  1.0 -0.6309320828
N  N53  1  0.33650000  0.02710000  0.30970000  1.0 -0.0704026897
N  N54  1  0.83650000  0.97290000  0.19030000  1.0 -0.0704026897
N  N55  1  0.66350000  0.52710000  0.69030000  1.0 -0.0704026897
N  N56  1  0.16350000  0.47290000  0.80970000  1.0 -0.0704026897
N  N57  1  0.66350000  0.97290000  0.69030000  1.0 -0.0704026897
N  N58  1  0.16350000  0.02710000  0.80970000  1.0 -0.0704026897
N  N59  1  0.33650000  0.47290000  0.30970000  1.0 -0.0704026897
N  N60  1  0.83650000  0.52710000  0.19030000  1.0 -0.0704026897
O  O1  1  0.56910000  0.98640000  0.12932000  1.0 -0.5588212801
O  O2  1  0.06910000  0.01360000  0.37068000  1.0 -0.5588212801
O  O3  1  0.43090000  0.48640000  0.87068000  1.0 -0.5588212801
O  O4  1  0.93090000  0.51360000  0.62932000  1.0 -0.5588212801
O  O5  1  0.43090000  0.01360000  0.87068000  1.0 -0.5588212801
O  O6  1  0.93090000  0.98640000  0.62932000  1.0 -0.5588212801
O  O7  1  0.56910000  0.51360000  0.12932000  1.0 -0.5588212801
O  O8  1  0.06910000  0.48640000  0.37068000  1.0 -0.5588212801
O  O9  1  0.38330000  0.07000000  0.11932000  1.0 -0.5588212801
O  O10  1  0.88330000  0.93000000  0.38068000  1.0 -0.5588212801
O  O11  1  0.61670000  0.57000000  0.88068000  1.0 -0.5588212801
O  O12  1  0.11670000  0.43000000  0.61932000  1.0 -0.5588212801
O  O13  1  0.61670000  0.93000000  0.88068000  1.0 -0.5588212801
O  O14  1  0.11670000  0.07000000  0.61932000  1.0 -0.5588212801
O  O15  1  0.38330000  0.43000000  0.11932000  1.0 -0.5588212801
O  O16  1  0.88330000  0.57000000  0.38068000  1.0 -0.5588212801
