# DDEC6 charges by PACMAN v1.1 (https://github.com/mtap-research/PACMAN-charge/)
data_UMEVUD_ASR_pacman
_symmetry_space_group_name_H-M   'P 1'
_cell_length_a   9.83650000
_cell_length_b   9.81500000
_cell_length_c   15.48600000
_cell_angle_alpha   90.00000000
_cell_angle_beta   105.99000000
_cell_angle_gamma   90.00000000
_symmetry_Int_Tables_number   1
_chemical_formula_structural   Zn2P3(HO4)3
_chemical_formula_sum   'Zn8 P12 H12 O48'
_cell_volume   1437.25397995
_cell_formula_units_Z   4
loop_
 _symmetry_equiv_pos_site_id
 _symmetry_equiv_pos_as_xyz
  1  'x, y, z'
loop_
 _atom_site_type_symbol
 _atom_site_label
 _atom_site_symmetry_multiplicity
 _atom_site_fract_x
 _atom_site_fract_y
 _atom_site_fract_z
 _atom_site_occupancy
 _atom_site_charge
Zn  Zn1  1  0.55160000  0.82055000  0.44762000  1.0 1.1130685337
Zn  Zn2  1  0.05160000  0.67945000  0.44762000  1.0 1.1130685337
Zn  Zn3  1  0.44840000  0.17945000  0.55238000  1.0 1.1130685337
Zn  Zn4  1  0.94840000  0.32055000  0.55238000  1.0 1.1130685337
Zn  Zn5  1  0.32175000  0.91515000  0.05431000  1.0 1.1419836112
Zn  Zn6  1  0.82175000  0.58485000  0.05431000  1.0 1.1419836112
Zn  Zn7  1  0.67825000  0.08485000  0.94569000  1.0 1.1419836112
Zn  Zn8  1  0.17825000  0.41515000  0.94569000  1.0 1.1419836112
P  P1  1  0.40192000  0.98200000  0.26622000  1.0 1.5187049039
P  P2  1  0.90192000  0.51800000  0.26622000  1.0 1.5187049039
P  P3  1  0.59808000  0.01800000  0.73378000  1.0 1.5187049039
P  P4  1  0.09808000  0.48200000  0.73378000  1.0 1.5187049039
P  P5  1  0.79161000  0.60487000  0.51601000  1.0 1.5504865773
P  P6  1  0.29161000  0.89513000  0.51601000  1.0 1.5504865773
P  P7  1  0.20839000  0.39513000  0.48399000  1.0 1.5504865773
P  P8  1  0.70839000  0.10487000  0.48399000  1.0 1.5504865773
P  P9  1  0.43868000  0.20922000  0.01469000  1.0 1.5187049039
P  P10  1  0.93868000  0.29078000  0.01469000  1.0 1.5187049039
P  P11  1  0.56132000  0.79078000  0.98531000  1.0 1.5187049039
P  P12  1  0.06132000  0.70922000  0.98531000  1.0 1.5187049039
H  H1  1  0.87000000  0.58800000  0.66200000  1.0 0.4276940949
H  H2  1  0.37000000  0.91200000  0.66200000  1.0 0.4276940949
H  H3  1  0.13000000  0.41200000  0.33800000  1.0 0.4276940949
H  H4  1  0.63000000  0.08800000  0.33800000  1.0 0.4276940949
H  H5  1  0.31800000  0.05500000  0.36200000  1.0 0.4109158642
H  H6  1  0.81800000  0.44500000  0.36200000  1.0 0.4109158642
H  H7  1  0.68200000  0.94500000  0.63800000  1.0 0.4109158642
H  H8  1  0.18200000  0.55500000  0.63800000  1.0 0.4109158642
H  H9  1  0.53500000  0.17500000  0.14400000  1.0 0.4109158642
H  H10  1  0.03500000  0.32500000  0.14400000  1.0 0.4109158642
H  H11  1  0.46500000  0.82500000  0.85600000  1.0 0.4109158642
H  H12  1  0.96500000  0.67500000  0.85600000  1.0 0.4109158642
O  O1  1  0.46290000  0.86120000  0.32373000  1.0 -0.7507915966
O  O2  1  0.96290000  0.63880000  0.32373000  1.0 -0.7507915966
O  O3  1  0.53710000  0.13880000  0.67627000  1.0 -0.7507915966
O  O4  1  0.03710000  0.36120000  0.67627000  1.0 -0.7507915966
O  O5  1  0.64730000  0.64660000  0.45434000  1.0 -0.6851366333
O  O6  1  0.14730000  0.85340000  0.45434000  1.0 -0.6851366333
O  O7  1  0.35270000  0.35340000  0.54566000  1.0 -0.6851366333
O  O8  1  0.85270000  0.14660000  0.54566000  1.0 -0.6851366333
O  O9  1  0.30360000  0.94390000  0.17631000  1.0 -0.7211602204
O  O10  1  0.80360000  0.55610000  0.17631000  1.0 -0.7211602204
O  O11  1  0.69640000  0.05610000  0.82369000  1.0 -0.7211602204
O  O12  1  0.19640000  0.44390000  0.82369000  1.0 -0.7211602204
O  O13  1  0.33570000  0.09300000  0.00585000  1.0 -0.7627474539
O  O14  1  0.83570000  0.40700000  0.00585000  1.0 -0.7627474539
O  O15  1  0.66430000  0.90700000  0.99415000  1.0 -0.7627474539
O  O16  1  0.16430000  0.59300000  0.99415000  1.0 -0.7627474539
O  O17  1  0.52040000  0.07500000  0.25266000  1.0 -0.6997834169
O  O18  1  0.02040000  0.42500000  0.25266000  1.0 -0.6997834169
O  O19  1  0.47960000  0.92500000  0.74734000  1.0 -0.6997834169
O  O20  1  0.97960000  0.57500000  0.74734000  1.0 -0.6997834169
O  O21  1  0.31150000  0.07050000  0.31387000  1.0 -0.4706148081
O  O22  1  0.81150000  0.42950000  0.31387000  1.0 -0.4706148081
O  O23  1  0.68850000  0.92950000  0.68613000  1.0 -0.4706148081
O  O24  1  0.18850000  0.57050000  0.68613000  1.0 -0.4706148081
O  O25  1  0.90790000  0.70620000  0.51267000  1.0 -0.7507915966
O  O26  1  0.40790000  0.79380000  0.51267000  1.0 -0.7507915966
O  O27  1  0.09210000  0.29380000  0.48733000  1.0 -0.7507915966
O  O28  1  0.59210000  0.20620000  0.48733000  1.0 -0.7507915966
O  O29  1  0.82600000  0.46320000  0.48414000  1.0 -0.7627474539
O  O30  1  0.32600000  0.03680000  0.48414000  1.0 -0.7627474539
O  O31  1  0.17400000  0.53680000  0.51586000  1.0 -0.7627474539
O  O32  1  0.67400000  0.96320000  0.51586000  1.0 -0.7627474539
O  O33  1  0.77900000  0.59790000  0.61276000  1.0 -0.6228440278
O  O34  1  0.27900000  0.90210000  0.61276000  1.0 -0.6228440278
O  O35  1  0.22100000  0.40210000  0.38724000  1.0 -0.6228440278
O  O36  1  0.72100000  0.09790000  0.38724000  1.0 -0.6228440278
O  O37  1  0.52150000  0.20500000  0.94437000  1.0 -0.7271941476
O  O38  1  0.02150000  0.29500000  0.94437000  1.0 -0.7271941476
O  O39  1  0.47850000  0.79500000  0.05563000  1.0 -0.7271941476
O  O40  1  0.97850000  0.70500000  0.05563000  1.0 -0.7271941476
O  O41  1  0.36500000  0.34690000  0.00911000  1.0 -0.6851366333
O  O42  1  0.86500000  0.15310000  0.00911000  1.0 -0.6851366333
O  O43  1  0.63500000  0.65310000  0.99089000  1.0 -0.6851366333
O  O44  1  0.13500000  0.84690000  0.99089000  1.0 -0.6851366333
O  O45  1  0.55480000  0.20380000  0.10787000  1.0 -0.453526365
O  O46  1  0.05480000  0.29620000  0.10787000  1.0 -0.453526365
O  O47  1  0.44520000  0.79620000  0.89213000  1.0 -0.453526365
O  O48  1  0.94520000  0.70380000  0.89213000  1.0 -0.453526365
