# DDEC6 charges by PACMAN v1.1 (https://github.com/mtap-research/PACMAN-charge/)
data_UMOKIS_ASR_pacman
_symmetry_space_group_name_H-M   'P 1'
_cell_length_a   12.11500000
_cell_length_b   25.75100000
_cell_length_c   35.58800000
_cell_angle_alpha   90.00000000
_cell_angle_beta   90.63900000
_cell_angle_gamma   90.00000000
_symmetry_Int_Tables_number   1
_chemical_formula_structural   Zn3H40C68(N9O11)2
_chemical_formula_sum   'Zn12 H160 C272 N72 O88'
_cell_volume   11101.81764642
_cell_formula_units_Z   4
loop_
 _symmetry_equiv_pos_site_id
 _symmetry_equiv_pos_as_xyz
  1  'x, y, z'
loop_
 _atom_site_type_symbol
 _atom_site_label
 _atom_site_symmetry_multiplicity
 _atom_site_fract_x
 _atom_site_fract_y
 _atom_site_fract_z
 _atom_site_occupancy
 _atom_site_charge
Zn  Zn1  1  0.21701000  0.20852000  0.66526000  1.0 0.7694091483
Zn  Zn2  1  0.78299000  0.70852000  0.83474000  1.0 0.7694091483
Zn  Zn3  1  0.78299000  0.79148000  0.33474000  1.0 0.7694091483
Zn  Zn4  1  0.21701000  0.29148000  0.16526000  1.0 0.7694091483
Zn  Zn5  1  0.22535000  0.17354000  0.80697000  1.0 0.7694091483
Zn  Zn6  1  0.77465000  0.67354000  0.69303000  1.0 0.7694091483
Zn  Zn7  1  0.77465000  0.82646000  0.19303000  1.0 0.7694091483
Zn  Zn8  1  0.22535000  0.32646000  0.30697000  1.0 0.7694091483
Zn  Zn9  1  0.89975000  0.28711000  0.51834000  1.0 0.6376882477
Zn  Zn10  1  0.10025000  0.78711000  0.98166000  1.0 0.6376882477
Zn  Zn11  1  0.10025000  0.71289000  0.48166000  1.0 0.6376882477
Zn  Zn12  1  0.89975000  0.21289000  0.01834000  1.0 0.6376882477
H  H1  1  0.44920000  0.27540000  0.54710000  1.0 0.130369081
H  H2  1  0.55080000  0.77540000  0.95290000  1.0 0.130369081
H  H3  1  0.55080000  0.72460000  0.45290000  1.0 0.130369081
H  H4  1  0.44920000  0.22460000  0.04710000  1.0 0.130369081
H  H5  1  0.17540000  0.25030000  0.48450000  1.0 0.1393383347
H  H6  1  0.82460000  0.75030000  0.01550000  1.0 0.1393383347
H  H7  1  0.82460000  0.74970000  0.51550000  1.0 0.1393383347
H  H8  1  0.17540000  0.24970000  0.98450000  1.0 0.1393383347
H  H9  1  0.43800000  0.32100000  0.43880000  1.0 0.130369081
H  H10  1  0.56200000  0.82100000  0.06120000  1.0 0.130369081
H  H11  1  0.56200000  0.67900000  0.56120000  1.0 0.130369081
H  H12  1  0.43800000  0.17900000  0.93880000  1.0 0.130369081
H  H13  1  0.32700000  0.26670000  0.59700000  1.0 0.1215115313
H  H14  1  0.67300000  0.76670000  0.90300000  1.0 0.1215115313
H  H15  1  0.67300000  0.73330000  0.40300000  1.0 0.1215115313
H  H16  1  0.32700000  0.23330000  0.09700000  1.0 0.1215115313
H  H17  1  0.09400000  0.16250000  0.59260000  1.0 0.1393383347
H  H18  1  0.90600000  0.66250000  0.90740000  1.0 0.1393383347
H  H19  1  0.90600000  0.83750000  0.40740000  1.0 0.1393383347
H  H20  1  0.09400000  0.33750000  0.09260000  1.0 0.1393383347
H  H21  1  0.13740000  0.18690000  0.52830000  1.0 0.1393383347
H  H22  1  0.86260000  0.68690000  0.97170000  1.0 0.1393383347
H  H23  1  0.86260000  0.81310000  0.47170000  1.0 0.1393383347
H  H24  1  0.13740000  0.31310000  0.02830000  1.0 0.1393383347
H  H25  1  0.35000000  0.32340000  0.38640000  1.0 0.130369081
H  H26  1  0.65000000  0.82340000  0.11360000  1.0 0.130369081
H  H27  1  0.65000000  0.67660000  0.61360000  1.0 0.130369081
H  H28  1  0.35000000  0.17660000  0.88640000  1.0 0.130369081
H  H29  1  0.05270000  0.27650000  0.36310000  1.0 0.1215115313
H  H30  1  0.94730000  0.77650000  0.13690000  1.0 0.1215115313
H  H31  1  0.94730000  0.72350000  0.63690000  1.0 0.1215115313
H  H32  1  0.05270000  0.22350000  0.86310000  1.0 0.1215115313
H  H33  1  0.08800000  0.25470000  0.42900000  1.0 0.1393383347
H  H34  1  0.91200000  0.75470000  0.07100000  1.0 0.1393383347
H  H35  1  0.91200000  0.74530000  0.57100000  1.0 0.1393383347
H  H36  1  0.08800000  0.24530000  0.92900000  1.0 0.1393383347
H  H37  1  0.64880000  0.25810000  0.52170000  1.0 0.130369081
H  H38  1  0.35120000  0.75810000  0.97830000  1.0 0.130369081
H  H39  1  0.35120000  0.74190000  0.47830000  1.0 0.130369081
H  H40  1  0.64880000  0.24190000  0.02170000  1.0 0.130369081
H  H41  1  0.77510000  0.38440000  0.47930000  1.0 0.1215115313
H  H42  1  0.22490000  0.88440000  0.02070000  1.0 0.1215115313
H  H43  1  0.22490000  0.61560000  0.52070000  1.0 0.1215115313
H  H44  1  0.77510000  0.11560000  0.97930000  1.0 0.1215115313
H  H45  1  0.57630000  0.38900000  0.46830000  1.0 0.1215115313
H  H46  1  0.42370000  0.88900000  0.03170000  1.0 0.1215115313
H  H47  1  0.42370000  0.61100000  0.53170000  1.0 0.1215115313
H  H48  1  0.57630000  0.11100000  0.96830000  1.0 0.1215115313
H  H49  1  0.69950000  0.17590000  0.74840000  1.0 0.1460030211
H  H50  1  0.30050000  0.67590000  0.75160000  1.0 0.1460030211
H  H51  1  0.30050000  0.82410000  0.25160000  1.0 0.1460030211
H  H52  1  0.69950000  0.32410000  0.24840000  1.0 0.1460030211
H  H53  1  0.65970000  0.23750000  0.64490000  1.0 0.130369081
H  H54  1  0.34030000  0.73750000  0.85510000  1.0 0.130369081
H  H55  1  0.34030000  0.76250000  0.35510000  1.0 0.130369081
H  H56  1  0.65970000  0.26250000  0.14490000  1.0 0.130369081
H  H57  1  0.95970000  0.23750000  0.69500000  1.0 0.1393383347
H  H58  1  0.04030000  0.73750000  0.80500000  1.0 0.1393383347
H  H59  1  0.04030000  0.76250000  0.30500000  1.0 0.1393383347
H  H60  1  0.95970000  0.26250000  0.19500000  1.0 0.1393383347
H  H61  1  0.47600000  0.24410000  0.66210000  1.0 0.1215115313
H  H62  1  0.52400000  0.74410000  0.83790000  1.0 0.1215115313
H  H63  1  0.52400000  0.75590000  0.33790000  1.0 0.1215115313
H  H64  1  0.47600000  0.25590000  0.16210000  1.0 0.1215115313
H  H65  1  0.33900000  0.13450000  0.72110000  1.0 0.1393383347
H  H66  1  0.66100000  0.63450000  0.77890000  1.0 0.1393383347
H  H67  1  0.66100000  0.86550000  0.27890000  1.0 0.1393383347
H  H68  1  0.33900000  0.36550000  0.22110000  1.0 0.1393383347
H  H69  1  0.53380000  0.13250000  0.73590000  1.0 0.1393383347
H  H70  1  0.46620000  0.63250000  0.76410000  1.0 0.1393383347
H  H71  1  0.46620000  0.86750000  0.26410000  1.0 0.1393383347
H  H72  1  0.53380000  0.36750000  0.23590000  1.0 0.1393383347
H  H73  1  0.77930000  0.23650000  0.58950000  1.0 0.1215115313
H  H74  1  0.22070000  0.73650000  0.91050000  1.0 0.1215115313
H  H75  1  0.22070000  0.76350000  0.41050000  1.0 0.1215115313
H  H76  1  0.77930000  0.26350000  0.08950000  1.0 0.1215115313
H  H77  1  0.02970000  0.33210000  0.58980000  1.0 0.130369081
H  H78  1  0.97030000  0.83210000  0.91020000  1.0 0.130369081
H  H79  1  0.97030000  0.66790000  0.41020000  1.0 0.130369081
H  H80  1  0.02970000  0.16790000  0.08980000  1.0 0.130369081
H  H81  1  0.98750000  0.31290000  0.65490000  1.0 0.130369081
H  H82  1  0.01250000  0.81290000  0.84510000  1.0 0.130369081
H  H83  1  0.01250000  0.68710000  0.34510000  1.0 0.130369081
H  H84  1  0.98750000  0.18710000  0.15490000  1.0 0.130369081
H  H85  1  0.05650000  0.22370000  0.74590000  1.0 0.1215115313
H  H86  1  0.94350000  0.72370000  0.75410000  1.0 0.1215115313
H  H87  1  0.94350000  0.77630000  0.25410000  1.0 0.1215115313
H  H88  1  0.05650000  0.27630000  0.24590000  1.0 0.1215115313
H  H89  1  0.99040000  0.12000000  0.82270000  1.0 0.1393383347
H  H90  1  0.00960000  0.62000000  0.67730000  1.0 0.1393383347
H  H91  1  0.00960000  0.88000000  0.17730000  1.0 0.1393383347
H  H92  1  0.99040000  0.38000000  0.32270000  1.0 0.1393383347
H  H93  1  0.82050000  0.13500000  0.78640000  1.0 0.130369081
H  H94  1  0.17950000  0.63500000  0.71360000  1.0 0.130369081
H  H95  1  0.17950000  0.86500000  0.21360000  1.0 0.130369081
H  H96  1  0.82050000  0.36500000  0.28640000  1.0 0.130369081
H  H97  1  0.26970000  0.40550000  0.67660000  1.0 0.1393383347
H  H98  1  0.73030000  0.90550000  0.82340000  1.0 0.1393383347
H  H99  1  0.73030000  0.59450000  0.32340000  1.0 0.1393383347
H  H100  1  0.26970000  0.09450000  0.17660000  1.0 0.1393383347
H  H101  1  0.99900000  0.40410000  0.76650000  1.0 0.130369081
H  H102  1  0.00100000  0.90410000  0.73350000  1.0 0.130369081
H  H103  1  0.00100000  0.59590000  0.23350000  1.0 0.130369081
H  H104  1  0.99900000  0.09590000  0.26650000  1.0 0.130369081
H  H105  1  0.04420000  0.32880000  0.73660000  1.0 0.1215115313
H  H106  1  0.95580000  0.82880000  0.76340000  1.0 0.1215115313
H  H107  1  0.95580000  0.67120000  0.26340000  1.0 0.1215115313
H  H108  1  0.04420000  0.17120000  0.23660000  1.0 0.1215115313
H  H109  1  0.91670000  0.49740000  0.74090000  1.0 0.1215115313
H  H110  1  0.08330000  0.99740000  0.75910000  1.0 0.1215115313
H  H111  1  0.08330000  0.50260000  0.25910000  1.0 0.1215115313
H  H112  1  0.91670000  0.00260000  0.24090000  1.0 0.1215115313
H  H113  1  0.85120000  0.56810000  0.77270000  1.0 0.130369081
H  H114  1  0.14880000  0.06810000  0.72730000  1.0 0.130369081
H  H115  1  0.14880000  0.43190000  0.22730000  1.0 0.130369081
H  H116  1  0.85120000  0.93190000  0.27270000  1.0 0.130369081
H  H117  1  0.14430000  0.58710000  0.82240000  1.0 0.1393383347
H  H118  1  0.85570000  0.08710000  0.67760000  1.0 0.1393383347
H  H119  1  0.85570000  0.41290000  0.17760000  1.0 0.1393383347
H  H120  1  0.14430000  0.91290000  0.32240000  1.0 0.1393383347
H  H121  1  0.32170000  0.32170000  0.75540000  1.0 0.1215115313
H  H122  1  0.67830000  0.82170000  0.74460000  1.0 0.1215115313
H  H123  1  0.67830000  0.67830000  0.24460000  1.0 0.1215115313
H  H124  1  0.32170000  0.17830000  0.25540000  1.0 0.1215115313
H  H125  1  0.41160000  0.39440000  0.73490000  1.0 0.1215115313
H  H126  1  0.58840000  0.89440000  0.76510000  1.0 0.1215115313
H  H127  1  0.58840000  0.60560000  0.26510000  1.0 0.1215115313
H  H128  1  0.41160000  0.10560000  0.23490000  1.0 0.1215115313
H  H129  1  0.60690000  0.26270000  0.79260000  1.0 0.130369081
H  H130  1  0.39310000  0.76270000  0.70740000  1.0 0.130369081
H  H131  1  0.39310000  0.73730000  0.20740000  1.0 0.130369081
H  H132  1  0.60690000  0.23730000  0.29260000  1.0 0.130369081
H  H133  1  0.52270000  0.46970000  0.76850000  1.0 0.130369081
H  H134  1  0.47730000  0.96970000  0.73150000  1.0 0.130369081
H  H135  1  0.47730000  0.53030000  0.23150000  1.0 0.130369081
H  H136  1  0.52270000  0.03030000  0.26850000  1.0 0.130369081
H  H137  1  0.59080000  0.54750000  0.74750000  1.0 0.130369081
H  H138  1  0.40920000  0.04750000  0.75250000  1.0 0.130369081
H  H139  1  0.40920000  0.45250000  0.25250000  1.0 0.130369081
H  H140  1  0.59080000  0.95250000  0.24750000  1.0 0.130369081
H  H141  1  0.77820000  0.47370000  0.67360000  1.0 0.1393383347
H  H142  1  0.22180000  0.97370000  0.82640000  1.0 0.1393383347
H  H143  1  0.22180000  0.52630000  0.32640000  1.0 0.1393383347
H  H144  1  0.77820000  0.02630000  0.17360000  1.0 0.1393383347
H  H145  1  0.03900000  0.13610000  0.47120000  1.0 0.1215115313
H  H146  1  0.96100000  0.63610000  0.02880000  1.0 0.1215115313
H  H147  1  0.96100000  0.86390000  0.52880000  1.0 0.1215115313
H  H148  1  0.03900000  0.36390000  0.97120000  1.0 0.1215115313
H  H149  1  0.06160000  0.04730000  0.46360000  1.0 0.1090647757
H  H150  1  0.93840000  0.54730000  0.03640000  1.0 0.1090647757
H  H151  1  0.93840000  0.95270000  0.53640000  1.0 0.1090647757
H  H152  1  0.06160000  0.45270000  0.96360000  1.0 0.1090647757
H  H153  1  0.88660000  0.12390000  0.57050000  1.0 0.1393383347
H  H154  1  0.11340000  0.62390000  0.92950000  1.0 0.1393383347
H  H155  1  0.11340000  0.87610000  0.42950000  1.0 0.1393383347
H  H156  1  0.88660000  0.37610000  0.07050000  1.0 0.1393383347
H  H157  1  0.75290000  0.10270000  0.49020000  1.0 0.1393383347
H  H158  1  0.24710000  0.60270000  0.00980000  1.0 0.1393383347
H  H159  1  0.24710000  0.89730000  0.50980000  1.0 0.1393383347
H  H160  1  0.75290000  0.39730000  0.99020000  1.0 0.1393383347
C  C1  1  0.69320000  0.51866000  0.70837000  1.0 -0.00352178
C  C2  1  0.30680000  0.01866000  0.79163000  1.0 -0.00352178
C  C3  1  0.30680000  0.48134000  0.29163000  1.0 -0.00352178
C  C4  1  0.69320000  0.98134000  0.20837000  1.0 -0.00352178
C  C5  1  0.41120000  0.27809000  0.52436000  1.0 -0.2891323304
C  C6  1  0.58880000  0.77809000  0.97564000  1.0 -0.2891323304
C  C7  1  0.58880000  0.72191000  0.47564000  1.0 -0.2891323304
C  C8  1  0.41120000  0.22191000  0.02436000  1.0 -0.2891323304
C  C9  1  0.30450000  0.25954000  0.52025000  1.0 0.1927803738
C  C10  1  0.69550000  0.75954000  0.97975000  1.0 0.1927803738
C  C11  1  0.69550000  0.74046000  0.47975000  1.0 0.1927803738
C  C12  1  0.30450000  0.24046000  0.02025000  1.0 0.1927803738
C  C13  1  0.24700000  0.26306000  0.48664000  1.0 -0.2686629333
C  C14  1  0.75300000  0.76306000  0.01336000  1.0 -0.2686629333
C  C15  1  0.75300000  0.73694000  0.51336000  1.0 -0.2686629333
C  C16  1  0.24700000  0.23694000  0.98664000  1.0 -0.2686629333
C  C17  1  0.29750000  0.28575000  0.45635000  1.0 0.1989319383
C  C18  1  0.70250000  0.78575000  0.04365000  1.0 0.1989319383
C  C19  1  0.70250000  0.71425000  0.54365000  1.0 0.1989319383
C  C20  1  0.29750000  0.21425000  0.95635000  1.0 0.1989319383
C  C21  1  0.40440000  0.30529000  0.45920000  1.0 -0.2891323304
C  C22  1  0.59560000  0.80529000  0.04080000  1.0 -0.2891323304
C  C23  1  0.59560000  0.69471000  0.54080000  1.0 -0.2891323304
C  C24  1  0.40440000  0.19471000  0.95920000  1.0 -0.2891323304
C  C25  1  0.45900000  0.30068000  0.49335000  1.0 0.1927803738
C  C26  1  0.54100000  0.80068000  0.00665000  1.0 0.1927803738
C  C27  1  0.54100000  0.69932000  0.50665000  1.0 0.1927803738
C  C28  1  0.45900000  0.19932000  0.99335000  1.0 0.1927803738
C  C29  1  0.27440000  0.24332000  0.58800000  1.0 0.0722126516
C  C30  1  0.72560000  0.74332000  0.91200000  1.0 0.0722126516
C  C31  1  0.72560000  0.75668000  0.41200000  1.0 0.0722126516
C  C32  1  0.27440000  0.25668000  0.08800000  1.0 0.0722126516
C  C33  1  0.14700000  0.18660000  0.58561000  1.0 -0.0121707119
C  C34  1  0.85300000  0.68660000  0.91439000  1.0 -0.0121707119
C  C35  1  0.85300000  0.81340000  0.41439000  1.0 -0.0121707119
C  C36  1  0.14700000  0.31340000  0.08561000  1.0 -0.0121707119
C  C37  1  0.17100000  0.19990000  0.54998000  1.0 -0.0798170799
C  C38  1  0.82900000  0.69990000  0.95002000  1.0 -0.0798170799
C  C39  1  0.82900000  0.80010000  0.45002000  1.0 -0.0798170799
C  C40  1  0.17100000  0.30010000  0.04998000  1.0 -0.0798170799
C  C41  1  0.28000000  0.30900000  0.38870000  1.0 0.1033213196
C  C42  1  0.72000000  0.80900000  0.11130000  1.0 0.1033213196
C  C43  1  0.72000000  0.69100000  0.61130000  1.0 0.1033213196
C  C44  1  0.28000000  0.19100000  0.88870000  1.0 0.1033213196
C  C45  1  0.11810000  0.28320000  0.37608000  1.0 -0.0121707119
C  C46  1  0.88190000  0.78320000  0.12392000  1.0 -0.0121707119
C  C47  1  0.88190000  0.71680000  0.62392000  1.0 -0.0121707119
C  C48  1  0.11810000  0.21680000  0.87608000  1.0 -0.0121707119
C  C49  1  0.13630000  0.27120000  0.41280000  1.0 -0.1192459704
C  C50  1  0.86370000  0.77120000  0.08720000  1.0 -0.1192459704
C  C51  1  0.86370000  0.72880000  0.58720000  1.0 -0.1192459704
C  C52  1  0.13630000  0.22880000  0.91280000  1.0 -0.1192459704
C  C53  1  0.65570000  0.29004000  0.50982000  1.0 0.0722126516
C  C54  1  0.34430000  0.79004000  0.99018000  1.0 0.0722126516
C  C55  1  0.34430000  0.70996000  0.49018000  1.0 0.0722126516
C  C56  1  0.65570000  0.20996000  0.00982000  1.0 0.0722126516
C  C57  1  0.72400000  0.35950000  0.48645000  1.0 -0.0417836586
C  C58  1  0.27600000  0.85950000  0.01355000  1.0 -0.0417836586
C  C59  1  0.27600000  0.64050000  0.51355000  1.0 -0.0417836586
C  C60  1  0.72400000  0.14050000  0.98645000  1.0 -0.0417836586
C  C61  1  0.61480000  0.36239000  0.48034000  1.0 -0.1263383353
C  C62  1  0.38520000  0.86239000  0.01966000  1.0 -0.1263383353
C  C63  1  0.38520000  0.63761000  0.51966000  1.0 -0.1263383353
C  C64  1  0.61480000  0.13761000  0.98034000  1.0 -0.1263383353
C  C65  1  0.72900000  0.19211000  0.72736000  1.0 -0.2613971846
C  C66  1  0.27100000  0.69211000  0.77264000  1.0 -0.2613971846
C  C67  1  0.27100000  0.80789000  0.27264000  1.0 -0.2613971846
C  C68  1  0.72900000  0.30789000  0.22736000  1.0 -0.2613971846
C  C69  1  0.66290000  0.20507000  0.69663000  1.0 0.2084858264
C  C70  1  0.33710000  0.70507000  0.80337000  1.0 0.2084858264
C  C71  1  0.33710000  0.79493000  0.30337000  1.0 0.2084858264
C  C72  1  0.66290000  0.29493000  0.19663000  1.0 0.2084858264
C  C73  1  0.70470000  0.22962000  0.66541000  1.0 -0.2686629333
C  C74  1  0.29530000  0.72962000  0.83459000  1.0 -0.2686629333
C  C75  1  0.29530000  0.77038000  0.33459000  1.0 -0.2686629333
C  C76  1  0.70470000  0.27038000  0.16541000  1.0 -0.2686629333
C  C77  1  0.81570000  0.24203000  0.66566000  1.0 0.2084858264
C  C78  1  0.18430000  0.74203000  0.83434000  1.0 0.2084858264
C  C79  1  0.18430000  0.75797000  0.33434000  1.0 0.2084858264
C  C80  1  0.81570000  0.25797000  0.16566000  1.0 0.2084858264
C  C81  1  0.88500000  0.22919000  0.69550000  1.0 -0.2341316247
C  C82  1  0.11500000  0.72919000  0.80450000  1.0 -0.2341316247
C  C83  1  0.11500000  0.77081000  0.30450000  1.0 -0.2341316247
C  C84  1  0.88500000  0.27081000  0.19550000  1.0 -0.2341316247
C  C85  1  0.84120000  0.20416000  0.72566000  1.0 0.2084858264
C  C86  1  0.15880000  0.70416000  0.77434000  1.0 0.2084858264
C  C87  1  0.15880000  0.79584000  0.27434000  1.0 0.2084858264
C  C88  1  0.84120000  0.29584000  0.22566000  1.0 0.2084858264
C  C89  1  0.46600000  0.21625000  0.67830000  1.0 0.1033213196
C  C90  1  0.53400000  0.71625000  0.82170000  1.0 0.1033213196
C  C91  1  0.53400000  0.78375000  0.32170000  1.0 0.1033213196
C  C92  1  0.46600000  0.28375000  0.17830000  1.0 0.1033213196
C  C93  1  0.39190000  0.15630000  0.71087000  1.0 -0.0210214099
C  C94  1  0.60810000  0.65630000  0.78913000  1.0 -0.0210214099
C  C95  1  0.60810000  0.84370000  0.28913000  1.0 -0.0210214099
C  C96  1  0.39190000  0.34370000  0.21087000  1.0 -0.0210214099
C  C97  1  0.49850000  0.15479000  0.71910000  1.0 -0.0901445744
C  C98  1  0.50150000  0.65479000  0.78090000  1.0 -0.0901445744
C  C99  1  0.50150000  0.84521000  0.28090000  1.0 -0.0901445744
C  C100  1  0.49850000  0.34521000  0.21910000  1.0 -0.0901445744
C  C101  1  0.83620000  0.25810000  0.59768000  1.0 0.1090647757
C  C102  1  0.16380000  0.75810000  0.90232000  1.0 0.1090647757
C  C103  1  0.16380000  0.74190000  0.40232000  1.0 0.1090647757
C  C104  1  0.83620000  0.24190000  0.09768000  1.0 0.1090647757
C  C105  1  0.97340000  0.31040000  0.59797000  1.0 -0.0455787878
C  C106  1  0.02660000  0.81040000  0.90203000  1.0 -0.0455787878
C  C107  1  0.02660000  0.68960000  0.40203000  1.0 -0.0455787878
C  C108  1  0.97340000  0.18960000  0.09797000  1.0 -0.0455787878
C  C109  1  0.95070000  0.30000000  0.63380000  1.0 -0.0798170799
C  C110  1  0.04930000  0.80000000  0.86620000  1.0 -0.0798170799
C  C111  1  0.04930000  0.70000000  0.36620000  1.0 -0.0798170799
C  C112  1  0.95070000  0.20000000  0.13380000  1.0 -0.0798170799
C  C113  1  0.01920000  0.19964000  0.76057000  1.0 0.1215115313
C  C114  1  0.98080000  0.69964000  0.73943000  1.0 0.1215115313
C  C115  1  0.98080000  0.80036000  0.23943000  1.0 0.1215115313
C  C116  1  0.01920000  0.30036000  0.26057000  1.0 0.1215115313
C  C117  1  0.98260000  0.14289000  0.80263000  1.0 -0.0210214099
C  C118  1  0.01740000  0.64289000  0.69737000  1.0 -0.0210214099
C  C119  1  0.01740000  0.85711000  0.19737000  1.0 -0.0210214099
C  C120  1  0.98260000  0.35711000  0.30263000  1.0 -0.0210214099
C  C121  1  0.88850000  0.15090000  0.78266000  1.0 -0.0901445744
C  C122  1  0.11150000  0.65090000  0.71734000  1.0 -0.0901445744
C  C123  1  0.11150000  0.84910000  0.21734000  1.0 -0.0901445744
C  C124  1  0.88850000  0.34910000  0.28266000  1.0 -0.0901445744
C  C125  1  0.20150000  0.30870000  0.68557000  1.0 0.5301211204
C  C126  1  0.79850000  0.80870000  0.81443000  1.0 0.5301211204
C  C127  1  0.79850000  0.69130000  0.31443000  1.0 0.5301211204
C  C128  1  0.20150000  0.19130000  0.18557000  1.0 0.5301211204
C  C129  1  0.16510000  0.35823000  0.70364000  1.0 -0.0121707119
C  C130  1  0.83490000  0.85823000  0.79636000  1.0 -0.0121707119
C  C131  1  0.83490000  0.64177000  0.29636000  1.0 -0.0121707119
C  C132  1  0.16510000  0.14177000  0.20364000  1.0 -0.0121707119
C  C133  1  0.21560000  0.40467000  0.69494000  1.0 -0.1514496497
C  C134  1  0.78440000  0.90467000  0.80506000  1.0 -0.1514496497
C  C135  1  0.78440000  0.59533000  0.30506000  1.0 -0.1514496497
C  C136  1  0.21560000  0.09533000  0.19494000  1.0 -0.1514496497
C  C137  1  0.18700000  0.44933000  0.71302000  1.0 0.0198923144
C  C138  1  0.81300000  0.94933000  0.78698000  1.0 0.0198923144
C  C139  1  0.81300000  0.55067000  0.28698000  1.0 0.0198923144
C  C140  1  0.18700000  0.05067000  0.21302000  1.0 0.0198923144
C  C141  1  0.10610000  0.45111000  0.74088000  1.0 0.0397809047
C  C142  1  0.89390000  0.95111000  0.75912000  1.0 0.0397809047
C  C143  1  0.89390000  0.54889000  0.25912000  1.0 0.0397809047
C  C144  1  0.10610000  0.04889000  0.24088000  1.0 0.0397809047
C  C145  1  0.05430000  0.40465000  0.74860000  1.0 -0.1263383353
C  C146  1  0.94570000  0.90465000  0.75140000  1.0 -0.1263383353
C  C147  1  0.94570000  0.59535000  0.25140000  1.0 -0.1263383353
C  C148  1  0.05430000  0.09535000  0.24860000  1.0 -0.1263383353
C  C149  1  0.08160000  0.35928000  0.73070000  1.0 -0.0901445744
C  C150  1  0.91840000  0.85928000  0.76930000  1.0 -0.0901445744
C  C151  1  0.91840000  0.64072000  0.26930000  1.0 -0.0901445744
C  C152  1  0.08160000  0.14072000  0.23070000  1.0 -0.0901445744
C  C153  1  0.07170000  0.49860000  0.76199000  1.0 0.0397809047
C  C154  1  0.92830000  0.99860000  0.73801000  1.0 0.0397809047
C  C155  1  0.92830000  0.50140000  0.23801000  1.0 0.0397809047
C  C156  1  0.07170000  0.00140000  0.26199000  1.0 0.0397809047
C  C157  1  0.96340000  0.51520000  0.75735000  1.0 -0.1263383353
C  C158  1  0.03660000  0.01520000  0.74265000  1.0 -0.1263383353
C  C159  1  0.03660000  0.48480000  0.24265000  1.0 -0.1263383353
C  C160  1  0.96340000  0.98480000  0.25735000  1.0 -0.1263383353
C  C161  1  0.92380000  0.55760000  0.77675000  1.0 -0.0798170799
C  C162  1  0.07620000  0.05760000  0.72325000  1.0 -0.0798170799
C  C163  1  0.07620000  0.44240000  0.22325000  1.0 -0.0798170799
C  C164  1  0.92380000  0.94240000  0.27675000  1.0 -0.0798170799
C  C165  1  0.98880000  0.58452000  0.80179000  1.0 -0.0121707119
C  C166  1  0.01120000  0.08452000  0.69821000  1.0 -0.0121707119
C  C167  1  0.01120000  0.41548000  0.19821000  1.0 -0.0121707119
C  C168  1  0.98880000  0.91548000  0.30179000  1.0 -0.0121707119
C  C169  1  0.09760000  0.56913000  0.80604000  1.0 -0.1405652778
C  C170  1  0.90240000  0.06913000  0.69396000  1.0 -0.1405652778
C  C171  1  0.90240000  0.43087000  0.19396000  1.0 -0.1405652778
C  C172  1  0.09760000  0.93087000  0.30604000  1.0 -0.1405652778
C  C173  1  0.13640000  0.52759000  0.78630000  1.0 0.0255983008
C  C174  1  0.86360000  0.02759000  0.71370000  1.0 0.0255983008
C  C175  1  0.86360000  0.47241000  0.21370000  1.0 0.0255983008
C  C176  1  0.13640000  0.97241000  0.28630000  1.0 0.0255983008
C  C177  1  0.94670000  0.63006000  0.82416000  1.0 0.550545199
C  C178  1  0.05330000  0.13006000  0.67584000  1.0 0.550545199
C  C179  1  0.05330000  0.36994000  0.17584000  1.0 0.550545199
C  C180  1  0.94670000  0.86994000  0.32416000  1.0 0.550545199
C  C181  1  0.39400000  0.23802000  0.79257000  1.0 0.5429268761
C  C182  1  0.60600000  0.73802000  0.70743000  1.0 0.5429268761
C  C183  1  0.60600000  0.76198000  0.20743000  1.0 0.5429268761
C  C184  1  0.39400000  0.26198000  0.29257000  1.0 0.5429268761
C  C185  1  0.45410000  0.28511000  0.77733000  1.0 0.0040702556
C  C186  1  0.54590000  0.78511000  0.72267000  1.0 0.0040702556
C  C187  1  0.54590000  0.71489000  0.22267000  1.0 0.0040702556
C  C188  1  0.45410000  0.21489000  0.27733000  1.0 0.0040702556
C  C189  1  0.39760000  0.32454000  0.75912000  1.0 -0.0798170799
C  C190  1  0.60240000  0.82454000  0.74088000  1.0 -0.0798170799
C  C191  1  0.60240000  0.67546000  0.24088000  1.0 -0.0798170799
C  C192  1  0.39760000  0.17546000  0.25912000  1.0 -0.0798170799
C  C193  1  0.45200000  0.36800000  0.74648000  1.0 -0.1263383353
C  C194  1  0.54800000  0.86800000  0.75352000  1.0 -0.1263383353
C  C195  1  0.54800000  0.63200000  0.25352000  1.0 -0.1263383353
C  C196  1  0.45200000  0.13200000  0.24648000  1.0 -0.1263383353
C  C197  1  0.56550000  0.37343000  0.75052000  1.0 0.0397809047
C  C198  1  0.43450000  0.87343000  0.74948000  1.0 0.0397809047
C  C199  1  0.43450000  0.62657000  0.24948000  1.0 0.0397809047
C  C200  1  0.56550000  0.12657000  0.25052000  1.0 0.0397809047
C  C201  1  0.62050000  0.33361000  0.76893000  1.0 0.0198923144
C  C202  1  0.37950000  0.83361000  0.73107000  1.0 0.0198923144
C  C203  1  0.37950000  0.66639000  0.23107000  1.0 0.0198923144
C  C204  1  0.62050000  0.16639000  0.26893000  1.0 0.0198923144
C  C205  1  0.56670000  0.28942000  0.78144000  1.0 -0.1591792123
C  C206  1  0.43330000  0.78942000  0.71856000  1.0 -0.1591792123
C  C207  1  0.43330000  0.71058000  0.21856000  1.0 -0.1591792123
C  C208  1  0.56670000  0.21058000  0.28144000  1.0 -0.1591792123
C  C209  1  0.61390000  0.42271000  0.73571000  1.0 0.0519923269
C  C210  1  0.38610000  0.92271000  0.76429000  1.0 0.0519923269
C  C211  1  0.38610000  0.57729000  0.26429000  1.0 0.0519923269
C  C212  1  0.61390000  0.07729000  0.23571000  1.0 0.0519923269
C  C213  1  0.57600000  0.46980000  0.74989000  1.0 -0.1263383353
C  C214  1  0.42400000  0.96980000  0.75011000  1.0 -0.1263383353
C  C215  1  0.42400000  0.53020000  0.25011000  1.0 -0.1263383353
C  C216  1  0.57600000  0.03020000  0.24989000  1.0 -0.1263383353
C  C217  1  0.61600000  0.51678000  0.73696000  1.0 -0.0798170799
C  C218  1  0.38400000  0.01678000  0.76304000  1.0 -0.0798170799
C  C219  1  0.38400000  0.48322000  0.26304000  1.0 -0.0798170799
C  C220  1  0.61600000  0.98322000  0.23696000  1.0 -0.0798170799
C  C221  1  0.72810000  0.47321000  0.69321000  1.0 -0.1514496497
C  C222  1  0.27190000  0.97321000  0.80679000  1.0 -0.1514496497
C  C223  1  0.27190000  0.52679000  0.30679000  1.0 -0.1514496497
C  C224  1  0.72810000  0.02679000  0.19321000  1.0 -0.1514496497
C  C225  1  0.68970000  0.42620000  0.70663000  1.0 0.0123970669
C  C226  1  0.31030000  0.92620000  0.79337000  1.0 0.0123970669
C  C227  1  0.31030000  0.57380000  0.29337000  1.0 0.0123970669
C  C228  1  0.68970000  0.07380000  0.20663000  1.0 0.0123970669
C  C229  1  0.73920000  0.56918000  0.69404000  1.0 0.5429268761
C  C230  1  0.26080000  0.06918000  0.80596000  1.0 0.5429268761
C  C231  1  0.26080000  0.43082000  0.30596000  1.0 0.5429268761
C  C232  1  0.73920000  0.93082000  0.19404000  1.0 0.5429268761
C  C233  1  0.88390000  0.18600000  0.51040000  1.0 0.5301211204
C  C234  1  0.11610000  0.68600000  0.98960000  1.0 0.5301211204
C  C235  1  0.11610000  0.81400000  0.48960000  1.0 0.5301211204
C  C236  1  0.88390000  0.31400000  0.01040000  1.0 0.5245669467
C  C237  1  0.91810000  0.13050000  0.50540000  1.0 0.0519923269
C  C238  1  0.08190000  0.63050000  0.99460000  1.0 0.0519923269
C  C239  1  0.08190000  0.86950000  0.49460000  1.0 0.0519923269
C  C240  1  0.91810000  0.36950000  0.00540000  1.0 0.0555836281
C  C241  1  0.00180000  0.11260000  0.48630000  1.0 -0.1514496497
C  C242  1  0.99820000  0.61260000  0.01370000  1.0 -0.1514496497
C  C243  1  0.99820000  0.88740000  0.51370000  1.0 -0.1514496497
C  C244  1  0.00180000  0.38740000  0.98630000  1.0 -0.1514496497
C  C245  1  0.03230000  0.06270000  0.48490000  1.0 -0.062863589
C  C246  1  0.96770000  0.56270000  0.01510000  1.0 -0.062863589
C  C247  1  0.96770000  0.93730000  0.51510000  1.0 -0.062863589
C  C248  1  0.03230000  0.43730000  0.98490000  1.0 -0.062863589
C  C249  1  0.01050000  0.03060000  0.52640000  1.0 -0.0121707119
C  C250  1  0.98950000  0.53060000  0.97360000  1.0 -0.0121707119
C  C251  1  0.98950000  0.96940000  0.47360000  1.0 -0.0121707119
C  C252  1  0.01050000  0.46940000  0.02640000  1.0 -0.0121707119
C  C253  1  0.95410000  0.05310000  0.55520000  1.0 0.0198923144
C  C254  1  0.04590000  0.55310000  0.94480000  1.0 0.0198923144
C  C255  1  0.04590000  0.94690000  0.44480000  1.0 0.0198923144
C  C256  1  0.95410000  0.44690000  0.05520000  1.0 0.0198923144
C  C257  1  0.91380000  0.10490000  0.55040000  1.0 -0.2194354514
C  C258  1  0.08620000  0.60490000  0.94960000  1.0 -0.2194354514
C  C259  1  0.08620000  0.89510000  0.44960000  1.0 -0.2194354514
C  C260  1  0.91380000  0.39510000  0.05040000  1.0 -0.2194354514
C  C261  1  0.95300000  0.02310000  0.47760000  1.0 -0.0286943668
C  C262  1  0.04700000  0.52310000  0.02240000  1.0 -0.0286943668
C  C263  1  0.04700000  0.97690000  0.52240000  1.0 -0.0286943668
C  C264  1  0.95300000  0.47690000  0.97760000  1.0 -0.0286943668
C  C265  1  0.84740000  0.04080000  0.48430000  1.0 0.0123970669
C  C266  1  0.15260000  0.54080000  0.01570000  1.0 0.0123970669
C  C267  1  0.15260000  0.95920000  0.51570000  1.0 0.0123970669
C  C268  1  0.84740000  0.45920000  0.98430000  1.0 0.0123970669
C  C269  1  0.82520000  0.09100000  0.49230000  1.0 -0.1685681024
C  C270  1  0.17480000  0.59100000  0.00770000  1.0 -0.1685681024
C  C271  1  0.17480000  0.90900000  0.50770000  1.0 -0.1685681024
C  C272  1  0.82520000  0.40900000  0.99230000  1.0 -0.1685681024
N  N1  1  0.21180000  0.21393000  0.60945000  1.0 -0.2613971846
N  N2  1  0.78820000  0.71393000  0.89055000  1.0 -0.2613971846
N  N3  1  0.78820000  0.78607000  0.39055000  1.0 -0.2613971846
N  N4  1  0.21180000  0.28607000  0.10945000  1.0 -0.2613971846
N  N5  1  0.25200000  0.23499000  0.55157000  1.0 0.0123970669
N  N6  1  0.74800000  0.73499000  0.94843000  1.0 0.0123970669
N  N7  1  0.74800000  0.76501000  0.44843000  1.0 0.0123970669
N  N8  1  0.25200000  0.26501000  0.05157000  1.0 0.0123970669
N  N9  1  0.20690000  0.30609000  0.36105000  1.0 -0.2686629333
N  N10  1  0.79310000  0.80609000  0.13895000  1.0 -0.2686629333
N  N11  1  0.79310000  0.69391000  0.63895000  1.0 -0.2686629333
N  N12  1  0.20690000  0.19391000  0.86105000  1.0 -0.2686629333
N  N13  1  0.24050000  0.28847000  0.42085000  1.0 0.0123970669
N  N14  1  0.75950000  0.78847000  0.07915000  1.0 0.0123970669
N  N15  1  0.75950000  0.71153000  0.57915000  1.0 0.0123970669
N  N16  1  0.24050000  0.21153000  0.92085000  1.0 0.0123970669
N  N17  1  0.74880000  0.31411000  0.50479000  1.0 -0.2780465858
N  N18  1  0.25120000  0.81411000  0.99521000  1.0 -0.2780465858
N  N19  1  0.25120000  0.68589000  0.49521000  1.0 -0.2686629333
N  N20  1  0.74880000  0.18589000  0.00479000  1.0 -0.2686629333
N  N21  1  0.57120000  0.31754000  0.49559000  1.0 0.0198923144
N  N22  1  0.42880000  0.81754000  0.00441000  1.0 0.0198923144
N  N23  1  0.42880000  0.68246000  0.50441000  1.0 0.0198923144
N  N24  1  0.57120000  0.18246000  0.99559000  1.0 0.0198923144
N  N25  1  0.37040000  0.19457000  0.68515000  1.0 -0.2780465858
N  N26  1  0.62960000  0.69457000  0.81485000  1.0 -0.2780465858
N  N27  1  0.62960000  0.80543000  0.31485000  1.0 -0.2780465858
N  N28  1  0.37040000  0.30543000  0.18515000  1.0 -0.2780465858
N  N29  1  0.54700000  0.19314000  0.69761000  1.0 0.0040702556
N  N30  1  0.45300000  0.69314000  0.80239000  1.0 0.0040702556
N  N31  1  0.45300000  0.80686000  0.30239000  1.0 0.0040702556
N  N32  1  0.54700000  0.30686000  0.19761000  1.0 0.0040702556
N  N33  1  0.90120000  0.28447000  0.57519000  1.0 -0.2780465858
N  N34  1  0.09880000  0.78447000  0.92481000  1.0 -0.2780465858
N  N35  1  0.09880000  0.71553000  0.42481000  1.0 -0.2780465858
N  N36  1  0.90120000  0.21553000  0.07519000  1.0 -0.2780465858
N  N37  1  0.86250000  0.26636000  0.63359000  1.0 0.0198923144
N  N38  1  0.13750000  0.76636000  0.86641000  1.0 0.0198923144
N  N39  1  0.13750000  0.73364000  0.36641000  1.0 0.0198923144
N  N40  1  0.86250000  0.23364000  0.13359000  1.0 0.0198923144
N  N41  1  0.06430000  0.17367000  0.78872000  1.0 -0.2891323304
N  N42  1  0.93570000  0.67367000  0.71128000  1.0 -0.2891323304
N  N43  1  0.93570000  0.82633000  0.21128000  1.0 -0.2891323304
N  N44  1  0.06430000  0.32633000  0.28872000  1.0 -0.2891323304
N  N45  1  0.91330000  0.18704000  0.75580000  1.0 0.0040702556
N  N46  1  0.08670000  0.68704000  0.74420000  1.0 0.0040702556
N  N47  1  0.08670000  0.81296000  0.24420000  1.0 0.0040702556
N  N48  1  0.91330000  0.31296000  0.25580000  1.0 0.0040702556
N  N49  1  0.24520000  0.49750000  0.70184000  1.0 0.5002800955
N  N50  1  0.75480000  0.99750000  0.79816000  1.0 0.5002800955
N  N51  1  0.75480000  0.50250000  0.29816000  1.0 0.5002800955
N  N52  1  0.24520000  0.00250000  0.20184000  1.0 0.5002800955
N  N53  1  0.25470000  0.51430000  0.79189000  1.0 0.5002800955
N  N54  1  0.74530000  0.01430000  0.70811000  1.0 0.5002800955
N  N55  1  0.74530000  0.48570000  0.20811000  1.0 0.5002800955
N  N56  1  0.25470000  0.98570000  0.29189000  1.0 0.5002800955
N  N57  1  0.74070000  0.33560000  0.77476000  1.0 0.4816156758
N  N58  1  0.25930000  0.83560000  0.72524000  1.0 0.4816156758
N  N59  1  0.25930000  0.66440000  0.22524000  1.0 0.4816156758
N  N60  1  0.74070000  0.16440000  0.27476000  1.0 0.4816156758
N  N61  1  0.73250000  0.37966000  0.68901000  1.0 0.4816156758
N  N62  1  0.26750000  0.87966000  0.81099000  1.0 0.4816156758
N  N63  1  0.26750000  0.62034000  0.31099000  1.0 0.4816156758
N  N64  1  0.73250000  0.12034000  0.18901000  1.0 0.4816156758
N  N65  1  0.96200000  0.02470000  0.59010000  1.0 0.4923437817
N  N66  1  0.03800000  0.52470000  0.90990000  1.0 0.4923437817
N  N67  1  0.03800000  0.97530000  0.40990000  1.0 0.4923437817
N  N68  1  0.96200000  0.47530000  0.09010000  1.0 0.4923437817
N  N69  1  0.75740000  0.00380000  0.48160000  1.0 0.5111992939
N  N70  1  0.24260000  0.50380000  0.01840000  1.0 0.5111992939
N  N71  1  0.24260000  0.99620000  0.51840000  1.0 0.5111992939
N  N72  1  0.75740000  0.49620000  0.98160000  1.0 0.5111992939
O  O1  1  0.33910000  0.49311000  0.69053000  1.0 -0.302726015
O  O2  1  0.66090000  0.99311000  0.80947000  1.0 -0.310469817
O  O3  1  0.66090000  0.50689000  0.30947000  1.0 -0.302726015
O  O4  1  0.33910000  0.00689000  0.19053000  1.0 -0.302726015
O  O5  1  0.19740000  0.53790000  0.70332000  1.0 -0.3176911863
O  O6  1  0.80260000  0.03790000  0.79668000  1.0 -0.3176911863
O  O7  1  0.80260000  0.46210000  0.29668000  1.0 -0.3176911863
O  O8  1  0.19740000  0.96210000  0.20332000  1.0 -0.3176911863
O  O9  1  0.28800000  0.47150000  0.78591000  1.0 -0.302726015
O  O10  1  0.71200000  0.97150000  0.71409000  1.0 -0.302726015
O  O11  1  0.71200000  0.52850000  0.21409000  1.0 -0.302726015
O  O12  1  0.28800000  0.02850000  0.28591000  1.0 -0.302726015
O  O13  1  0.31660000  0.54860000  0.80220000  1.0 -0.310469817
O  O14  1  0.68340000  0.04860000  0.69780000  1.0 -0.310469817
O  O15  1  0.68340000  0.45140000  0.19780000  1.0 -0.310469817
O  O16  1  0.31660000  0.95140000  0.30220000  1.0 -0.310469817
O  O17  1  0.29270000  0.23386000  0.78279000  1.0 -0.5576399849
O  O18  1  0.70730000  0.73386000  0.71721000  1.0 -0.5576399849
O  O19  1  0.70730000  0.76614000  0.21721000  1.0 -0.5576399849
O  O20  1  0.29270000  0.26614000  0.28279000  1.0 -0.5576399849
O  O21  1  0.44220000  0.20772000  0.81348000  1.0 -0.5482373751
O  O22  1  0.55780000  0.70772000  0.68652000  1.0 -0.5482373751
O  O23  1  0.55780000  0.79228000  0.18652000  1.0 -0.5482373751
O  O24  1  0.44220000  0.29228000  0.31348000  1.0 -0.5482373751
O  O25  1  0.70780000  0.60995000  0.71078000  1.0 -0.5380078869
O  O26  1  0.29220000  0.10995000  0.78922000  1.0 -0.5380078869
O  O27  1  0.29220000  0.39005000  0.28922000  1.0 -0.5380078869
O  O28  1  0.70780000  0.89005000  0.21078000  1.0 -0.5380078869
O  O29  1  0.80640000  0.56874000  0.66867000  1.0 -0.5380078869
O  O30  1  0.19360000  0.06874000  0.83133000  1.0 -0.5380078869
O  O31  1  0.19360000  0.43126000  0.33133000  1.0 -0.5380078869
O  O32  1  0.80640000  0.93126000  0.16867000  1.0 -0.5380078869
O  O33  1  0.79090000  0.29670000  0.78414000  1.0 -0.310469817
O  O34  1  0.20910000  0.79670000  0.71586000  1.0 -0.310469817
O  O35  1  0.20910000  0.70330000  0.21586000  1.0 -0.310469817
O  O36  1  0.79090000  0.20330000  0.28414000  1.0 -0.310469817
O  O37  1  0.78550000  0.37640000  0.77370000  1.0 -0.2891323304
O  O38  1  0.21450000  0.87640000  0.72630000  1.0 -0.2891323304
O  O39  1  0.21450000  0.62360000  0.22630000  1.0 -0.2891323304
O  O40  1  0.78550000  0.12360000  0.27370000  1.0 -0.2891323304
O  O41  1  0.67040000  0.34250000  0.68583000  1.0 -0.310469817
O  O42  1  0.32960000  0.84250000  0.81417000  1.0 -0.310469817
O  O43  1  0.32960000  0.65750000  0.31417000  1.0 -0.310469817
O  O44  1  0.67040000  0.15750000  0.18583000  1.0 -0.310469817
O  O45  1  0.81510000  0.38090000  0.67520000  1.0 -0.2194354514
O  O46  1  0.18490000  0.88090000  0.82480000  1.0 -0.2194354514
O  O47  1  0.18490000  0.61910000  0.32480000  1.0 -0.2194354514
O  O48  1  0.81510000  0.11910000  0.17520000  1.0 -0.2194354514
O  O49  1  0.79410000  0.19474000  0.52615000  1.0 -0.5576399849
O  O50  1  0.20590000  0.69474000  0.97385000  1.0 -0.5576399849
O  O51  1  0.20590000  0.80526000  0.47385000  1.0 -0.5576399849
O  O52  1  0.79410000  0.30526000  0.02615000  1.0 -0.5576399849
O  O53  1  0.94920000  0.21918000  0.49854000  1.0 -0.5482373751
O  O54  1  0.05080000  0.71918000  0.00146000  1.0 -0.5482373751
O  O55  1  0.05080000  0.78082000  0.50146000  1.0 -0.5482373751
O  O56  1  0.94920000  0.28082000  0.99854000  1.0 -0.5482373751
O  O57  1  0.14810000  0.26750000  0.69313000  1.0 -0.5482373751
O  O58  1  0.85190000  0.76750000  0.80687000  1.0 -0.5482373751
O  O59  1  0.85190000  0.73250000  0.30687000  1.0 -0.5482373751
O  O60  1  0.14810000  0.23250000  0.19313000  1.0 -0.5482373751
O  O61  1  0.28100000  0.30870000  0.66395000  1.0 -0.5576399849
O  O62  1  0.71900000  0.80870000  0.83605000  1.0 -0.5576399849
O  O63  1  0.71900000  0.69130000  0.33605000  1.0 -0.5576399849
O  O64  1  0.28100000  0.19130000  0.16395000  1.0 -0.5576399849
O  O65  1  0.85420000  0.64795000  0.81292000  1.0 -0.5576399849
O  O66  1  0.14580000  0.14795000  0.68708000  1.0 -0.5576399849
O  O67  1  0.14580000  0.35205000  0.18708000  1.0 -0.5576399849
O  O68  1  0.85420000  0.85205000  0.31292000  1.0 -0.5576399849
O  O69  1  0.00150000  0.64662000  0.85076000  1.0 -0.5576399849
O  O70  1  0.99850000  0.14662000  0.64924000  1.0 -0.5576399849
O  O71  1  0.99850000  0.35338000  0.14924000  1.0 -0.5576399849
O  O72  1  0.00150000  0.85338000  0.35076000  1.0 -0.5576399849
O  O73  1  0.86400000  0.02790000  0.60440000  1.0 -0.3758263456
O  O74  1  0.13600000  0.52790000  0.89560000  1.0 -0.3758263456
O  O75  1  0.13600000  0.97210000  0.39560000  1.0 -0.3758263456
O  O76  1  0.86400000  0.47210000  0.10440000  1.0 -0.3758263456
O  O77  1  0.03400000  0.99980000  0.60010000  1.0 -0.2486979084
O  O78  1  0.96600000  0.49980000  0.89990000  1.0 -0.2486979084
O  O79  1  0.96600000  0.00020000  0.39990000  1.0 -0.2486979084
O  O80  1  0.03400000  0.50020000  0.10010000  1.0 -0.2486979084
O  O81  1  0.67650000  0.01300000  0.50220000  1.0 -0.3275071921
O  O82  1  0.32350000  0.51300000  0.99780000  1.0 -0.3275071921
O  O83  1  0.32350000  0.98700000  0.49780000  1.0 -0.3275071921
O  O84  1  0.67650000  0.48700000  0.00220000  1.0 -0.3275071921
O  O85  1  0.75950000  0.96700000  0.46130000  1.0 -0.3275071921
O  O86  1  0.24050000  0.46700000  0.03870000  1.0 -0.3275071921
O  O87  1  0.24050000  0.03300000  0.53870000  1.0 -0.3275071921
O  O88  1  0.75950000  0.53300000  0.96130000  1.0 -0.3275071921
