# DDEC6 charges by PACMAN v1.1 (https://github.com/mtap-research/PACMAN-charge/)
data_UMOYOM18_ASR_pacman
_symmetry_space_group_name_H-M   'P 1'
_cell_length_a   21.30700000
_cell_length_b   21.30700000
_cell_length_c   21.30700000
_cell_angle_alpha   114.31200000
_cell_angle_beta   114.31200000
_cell_angle_gamma   114.31200000
_symmetry_Int_Tables_number   1
_chemical_formula_structural   CuH10C26O5
_chemical_formula_sum   'Cu6 H60 C156 O30'
_cell_volume   5738.43440333
_cell_formula_units_Z   6
loop_
 _symmetry_equiv_pos_site_id
 _symmetry_equiv_pos_as_xyz
  1  'x, y, z'
loop_
 _atom_site_type_symbol
 _atom_site_label
 _atom_site_symmetry_multiplicity
 _atom_site_fract_x
 _atom_site_fract_y
 _atom_site_fract_z
 _atom_site_occupancy
 _atom_site_charge
Cu  Cu1  1  0.59184000  0.07909000  0.07909000  1.0 0.8468380761
Cu  Cu2  1  0.07909000  0.07909000  0.59184000  1.0 0.8468380761
Cu  Cu3  1  0.07909000  0.59184000  0.07909000  1.0 0.8468380761
Cu  Cu4  1  0.92091000  0.40816000  0.92091000  1.0 0.8468380761
Cu  Cu5  1  0.92091000  0.92091000  0.40816000  1.0 0.8468380761
Cu  Cu6  1  0.40816000  0.92091000  0.92091000  1.0 0.8468380761
H  H1  1  0.70480000  0.95260000  0.12160000  1.0 0.126988721
H  H2  1  0.95260000  0.12160000  0.70480000  1.0 0.126988721
H  H3  1  0.12160000  0.70480000  0.95260000  1.0 0.126988721
H  H4  1  0.04740000  0.29520000  0.87840000  1.0 0.126988721
H  H5  1  0.87840000  0.04740000  0.29520000  1.0 0.126988721
H  H6  1  0.29520000  0.87840000  0.04740000  1.0 0.126988721
H  H7  1  0.29520000  0.04740000  0.87840000  1.0 0.126988721
H  H8  1  0.04740000  0.87840000  0.29520000  1.0 0.126988721
H  H9  1  0.87840000  0.29520000  0.04740000  1.0 0.126988721
H  H10  1  0.95260000  0.70480000  0.12160000  1.0 0.126988721
H  H11  1  0.12160000  0.95260000  0.70480000  1.0 0.126988721
H  H12  1  0.70480000  0.12160000  0.95260000  1.0 0.126988721
H  H13  1  0.72270000  0.85080000  0.12030000  1.0 0.126988721
H  H14  1  0.85080000  0.12030000  0.72270000  1.0 0.126988721
H  H15  1  0.12030000  0.72270000  0.85080000  1.0 0.126988721
H  H16  1  0.14920000  0.27730000  0.87970000  1.0 0.126988721
H  H17  1  0.87970000  0.14920000  0.27730000  1.0 0.126988721
H  H18  1  0.27730000  0.87970000  0.14920000  1.0 0.126988721
H  H19  1  0.27730000  0.14920000  0.87970000  1.0 0.126988721
H  H20  1  0.14920000  0.87970000  0.27730000  1.0 0.126988721
H  H21  1  0.87970000  0.27730000  0.14920000  1.0 0.126988721
H  H22  1  0.85080000  0.72270000  0.12030000  1.0 0.126988721
H  H23  1  0.12030000  0.85080000  0.72270000  1.0 0.126988721
H  H24  1  0.72270000  0.12030000  0.85080000  1.0 0.126988721
H  H25  1  0.44380000  0.62310000  0.88890000  1.0 0.1232068848
H  H26  1  0.62310000  0.88890000  0.44380000  1.0 0.1232068848
H  H27  1  0.88890000  0.44380000  0.62310000  1.0 0.1232068848
H  H28  1  0.37690000  0.55620000  0.11110000  1.0 0.1232068848
H  H29  1  0.11110000  0.37690000  0.55620000  1.0 0.1232068848
H  H30  1  0.55620000  0.11110000  0.37690000  1.0 0.1232068848
H  H31  1  0.55620000  0.37690000  0.11110000  1.0 0.1232068848
H  H32  1  0.37690000  0.11110000  0.55620000  1.0 0.1232068848
H  H33  1  0.11110000  0.55620000  0.37690000  1.0 0.1232068848
H  H34  1  0.62310000  0.44380000  0.88890000  1.0 0.1232068848
H  H35  1  0.88890000  0.62310000  0.44380000  1.0 0.1232068848
H  H36  1  0.44380000  0.88890000  0.62310000  1.0 0.1232068848
H  H37  1  0.42280000  0.72110000  0.88990000  1.0 0.126988721
H  H38  1  0.72110000  0.88990000  0.42280000  1.0 0.126988721
H  H39  1  0.88990000  0.42280000  0.72110000  1.0 0.126988721
H  H40  1  0.27890000  0.57720000  0.11010000  1.0 0.126988721
H  H41  1  0.11010000  0.27890000  0.57720000  1.0 0.126988721
H  H42  1  0.57720000  0.11010000  0.27890000  1.0 0.126988721
H  H43  1  0.57720000  0.27890000  0.11010000  1.0 0.126988721
H  H44  1  0.27890000  0.11010000  0.57720000  1.0 0.126988721
H  H45  1  0.11010000  0.57720000  0.27890000  1.0 0.126988721
H  H46  1  0.72110000  0.42280000  0.88990000  1.0 0.126988721
H  H47  1  0.88990000  0.72110000  0.42280000  1.0 0.126988721
H  H48  1  0.42280000  0.88990000  0.72110000  1.0 0.126988721
H  H49  1  0.48670000  0.59790000  0.99810000  1.0 0.11403541
H  H50  1  0.59790000  0.99810000  0.48670000  1.0 0.11403541
H  H51  1  0.99810000  0.48670000  0.59790000  1.0 0.11403541
H  H52  1  0.40210000  0.51330000  0.00190000  1.0 0.11403541
H  H53  1  0.00190000  0.40210000  0.51330000  1.0 0.11403541
H  H54  1  0.51330000  0.00190000  0.40210000  1.0 0.11403541
H  H55  1  0.51330000  0.40210000  0.00190000  1.0 0.11403541
H  H56  1  0.40210000  0.00190000  0.51330000  1.0 0.11403541
H  H57  1  0.00190000  0.51330000  0.40210000  1.0 0.11403541
H  H58  1  0.59790000  0.48670000  0.99810000  1.0 0.11403541
H  H59  1  0.99810000  0.59790000  0.48670000  1.0 0.11403541
H  H60  1  0.48670000  0.99810000  0.59790000  1.0 0.11403541
C  C1  1  0.54437000  0.90853000  0.00870000  1.0 0.573171416
C  C2  1  0.90853000  0.00870000  0.54437000  1.0 0.573171416
C  C3  1  0.00870000  0.54437000  0.90853000  1.0 0.573171416
C  C4  1  0.09147000  0.45563000  0.99130000  1.0 0.573171416
C  C5  1  0.99130000  0.09147000  0.45563000  1.0 0.573171416
C  C6  1  0.45563000  0.99130000  0.09147000  1.0 0.573171416
C  C7  1  0.45563000  0.09147000  0.99130000  1.0 0.573171416
C  C8  1  0.09147000  0.99130000  0.45563000  1.0 0.573171416
C  C9  1  0.99130000  0.45563000  0.09147000  1.0 0.573171416
C  C10  1  0.90853000  0.54437000  0.00870000  1.0 0.573171416
C  C11  1  0.00870000  0.90853000  0.54437000  1.0 0.573171416
C  C12  1  0.54437000  0.00870000  0.90853000  1.0 0.573171416
C  C13  1  0.55841000  0.84441000  0.00568000  1.0 -0.0182378177
C  C14  1  0.84441000  0.00568000  0.55841000  1.0 -0.0182378177
C  C15  1  0.00568000  0.55841000  0.84441000  1.0 -0.0182378177
C  C16  1  0.15559000  0.44159000  0.99432000  1.0 -0.0182378177
C  C17  1  0.99432000  0.15559000  0.44159000  1.0 -0.0182378177
C  C18  1  0.44159000  0.99432000  0.15559000  1.0 -0.0182378177
C  C19  1  0.44159000  0.15559000  0.99432000  1.0 -0.0182378177
C  C20  1  0.15559000  0.99432000  0.44159000  1.0 -0.0182378177
C  C21  1  0.99432000  0.44159000  0.15559000  1.0 -0.0182378177
C  C22  1  0.84441000  0.55841000  0.00568000  1.0 -0.0182378177
C  C23  1  0.00568000  0.84441000  0.55841000  1.0 -0.0182378177
C  C24  1  0.55841000  0.00568000  0.84441000  1.0 -0.0182378177
C  C25  1  0.65165000  0.88639000  0.07566000  1.0 -0.0819006571
C  C26  1  0.88639000  0.07566000  0.65165000  1.0 -0.0819006571
C  C27  1  0.07566000  0.65165000  0.88639000  1.0 -0.0819006571
C  C28  1  0.11361000  0.34835000  0.92434000  1.0 -0.0819006571
C  C29  1  0.92434000  0.11361000  0.34835000  1.0 -0.0819006571
C  C30  1  0.34835000  0.92434000  0.11361000  1.0 -0.0819006571
C  C31  1  0.34835000  0.11361000  0.92434000  1.0 -0.0819006571
C  C32  1  0.11361000  0.92434000  0.34835000  1.0 -0.0819006571
C  C33  1  0.92434000  0.34835000  0.11361000  1.0 -0.0819006571
C  C34  1  0.88639000  0.65165000  0.07566000  1.0 -0.0819006571
C  C35  1  0.07566000  0.88639000  0.65165000  1.0 -0.0819006571
C  C36  1  0.65165000  0.07566000  0.88639000  1.0 -0.0819006571
C  C37  1  0.66171000  0.82427000  0.07372000  1.0 -0.1311319604
C  C38  1  0.82427000  0.07372000  0.66171000  1.0 -0.1311319604
C  C39  1  0.07372000  0.66171000  0.82427000  1.0 -0.1311319604
C  C40  1  0.17573000  0.33829000  0.92628000  1.0 -0.1311319604
C  C41  1  0.92628000  0.17573000  0.33829000  1.0 -0.1311319604
C  C42  1  0.33829000  0.92628000  0.17573000  1.0 -0.1311319604
C  C43  1  0.33829000  0.17573000  0.92628000  1.0 -0.1311319604
C  C44  1  0.17573000  0.92628000  0.33829000  1.0 -0.1311319604
C  C45  1  0.92628000  0.33829000  0.17573000  1.0 -0.1311319604
C  C46  1  0.82427000  0.66171000  0.07372000  1.0 -0.1311319604
C  C47  1  0.07372000  0.82427000  0.66171000  1.0 -0.1311319604
C  C48  1  0.66171000  0.07372000  0.82427000  1.0 -0.1311319604
C  C49  1  0.58575000  0.72754000  0.00641000  1.0 0.087435827
C  C50  1  0.72754000  0.00641000  0.58575000  1.0 0.087435827
C  C51  1  0.00641000  0.58575000  0.72754000  1.0 0.087435827
C  C52  1  0.27246000  0.41425000  0.99359000  1.0 0.087435827
C  C53  1  0.99359000  0.27246000  0.41425000  1.0 0.087435827
C  C54  1  0.41425000  0.99359000  0.27246000  1.0 0.087435827
C  C55  1  0.41425000  0.27246000  0.99359000  1.0 0.087435827
C  C56  1  0.27246000  0.99359000  0.41425000  1.0 0.087435827
C  C57  1  0.99359000  0.41425000  0.27246000  1.0 0.087435827
C  C58  1  0.72754000  0.58575000  0.00641000  1.0 0.087435827
C  C59  1  0.00641000  0.72754000  0.58575000  1.0 0.087435827
C  C60  1  0.58575000  0.00641000  0.72754000  1.0 0.087435827
C  C61  1  0.49664000  0.68952000  0.93704000  1.0 -0.1372137953
C  C62  1  0.68952000  0.93704000  0.49664000  1.0 -0.1372137953
C  C63  1  0.93704000  0.49664000  0.68952000  1.0 -0.1372137953
C  C64  1  0.31048000  0.50336000  0.06296000  1.0 -0.1372137953
C  C65  1  0.06296000  0.31048000  0.50336000  1.0 -0.1372137953
C  C66  1  0.50336000  0.06296000  0.31048000  1.0 -0.1372137953
C  C67  1  0.50336000  0.31048000  0.06296000  1.0 -0.1372137953
C  C68  1  0.31048000  0.06296000  0.50336000  1.0 -0.1372137953
C  C69  1  0.06296000  0.50336000  0.31048000  1.0 -0.1372137953
C  C70  1  0.68952000  0.49664000  0.93704000  1.0 -0.1372137953
C  C71  1  0.93704000  0.68952000  0.49664000  1.0 -0.1372137953
C  C72  1  0.49664000  0.93704000  0.68952000  1.0 -0.1372137953
C  C73  1  0.48402000  0.74864000  0.93764000  1.0 -0.0819006571
C  C74  1  0.74864000  0.93764000  0.48402000  1.0 -0.0819006571
C  C75  1  0.93764000  0.48402000  0.74864000  1.0 -0.0819006571
C  C76  1  0.25136000  0.51598000  0.06236000  1.0 -0.0819006571
C  C77  1  0.06236000  0.25136000  0.51598000  1.0 -0.0819006571
C  C78  1  0.51598000  0.06236000  0.25136000  1.0 -0.0819006571
C  C79  1  0.51598000  0.25136000  0.06236000  1.0 -0.0819006571
C  C80  1  0.25136000  0.06236000  0.51598000  1.0 -0.0819006571
C  C81  1  0.06236000  0.51598000  0.25136000  1.0 -0.0819006571
C  C82  1  0.74864000  0.48402000  0.93764000  1.0 -0.0819006571
C  C83  1  0.93764000  0.74864000  0.48402000  1.0 -0.0819006571
C  C84  1  0.48402000  0.93764000  0.74864000  1.0 -0.0819006571
C  C85  1  0.59664000  0.66390000  0.00876000  1.0 -0.00060188
C  C86  1  0.66390000  0.00876000  0.59664000  1.0 -0.00060188
C  C87  1  0.00876000  0.59664000  0.66390000  1.0 -0.00060188
C  C88  1  0.33610000  0.40336000  0.99124000  1.0 -0.00060188
C  C89  1  0.99124000  0.33610000  0.40336000  1.0 -0.00060188
C  C90  1  0.40336000  0.99124000  0.33610000  1.0 0.0011206587
C  C91  1  0.40336000  0.33610000  0.99124000  1.0 -0.00060188
C  C92  1  0.33610000  0.99124000  0.40336000  1.0 0.0011206587
C  C93  1  0.99124000  0.40336000  0.33610000  1.0 -0.00060188
C  C94  1  0.66390000  0.59664000  0.00876000  1.0 -0.00060188
C  C95  1  0.00876000  0.66390000  0.59664000  1.0 -0.00060188
C  C96  1  0.59664000  0.00876000  0.66390000  1.0 -0.00060188
C  C97  1  0.53143000  0.59743000  0.00154000  1.0 -0.1895184252
C  C98  1  0.59743000  0.00154000  0.53143000  1.0 -0.1895184252
C  C99  1  0.00154000  0.53143000  0.59743000  1.0 -0.1895184252
C  C100  1  0.40257000  0.46857000  0.99846000  1.0 -0.1895184252
C  C101  1  0.99846000  0.40257000  0.46857000  1.0 -0.1895184252
C  C102  1  0.46857000  0.99846000  0.40257000  1.0 -0.1895184252
C  C103  1  0.46857000  0.40257000  0.99846000  1.0 -0.1895184252
C  C104  1  0.40257000  0.99846000  0.46857000  1.0 -0.1895184252
C  C105  1  0.99846000  0.46857000  0.40257000  1.0 -0.1895184252
C  C106  1  0.59743000  0.53143000  0.00154000  1.0 -0.1895184252
C  C107  1  0.00154000  0.59743000  0.53143000  1.0 -0.1895184252
C  C108  1  0.53143000  0.00154000  0.59743000  1.0 -0.1895184252
C  C109  1  0.53121000  0.53121000  0.99929000  1.0 0.0725604063
C  C110  1  0.53121000  0.99929000  0.53121000  1.0 0.0725604063
C  C111  1  0.99929000  0.53121000  0.53121000  1.0 0.0725604063
C  C112  1  0.46880000  0.46880000  0.00071000  1.0 0.0725604063
C  C113  1  0.00071000  0.46880000  0.46880000  1.0 0.0725604063
C  C114  1  0.46880000  0.00071000  0.46880000  1.0 0.0725604063
C  C115  1  0.66073000  0.66073000  0.01025000  1.0 0.1474615252
C  C116  1  0.66073000  0.01025000  0.66073000  1.0 0.1474615252
C  C117  1  0.01025000  0.66073000  0.66073000  1.0 0.1474615252
C  C118  1  0.33928000  0.33928000  0.98975000  1.0 0.1474615252
C  C119  1  0.98975000  0.33927000  0.33927000  1.0 0.1474615252
C  C120  1  0.33928000  0.98975000  0.33927000  1.0 0.1474615252
C  C121  1  0.67970000  0.70050000  0.92330000  1.0 0.1232068848
C  C122  1  0.70050000  0.92330000  0.67970000  1.0 0.1232068848
C  C123  1  0.92330000  0.67970000  0.70050000  1.0 0.1232068848
C  C124  1  0.29950000  0.32030000  0.07670000  1.0 0.1232068848
C  C125  1  0.07670000  0.29950000  0.32030000  1.0 0.1232068848
C  C126  1  0.32030000  0.07670000  0.29950000  1.0 0.126988721
C  C127  1  0.32030000  0.29950000  0.07670000  1.0 0.1232068848
C  C128  1  0.29950000  0.07670000  0.32030000  1.0 0.1232068848
C  C129  1  0.07670000  0.32030000  0.29950000  1.0 0.1232068848
C  C130  1  0.70050000  0.67970000  0.92330000  1.0 0.1232068848
C  C131  1  0.92330000  0.70050000  0.67970000  1.0 0.1232068848
C  C132  1  0.67970000  0.92330000  0.70050000  1.0 0.1232068848
C  C133  1  0.76120000  0.79740000  0.96210000  1.0 -0.0342914154
C  C134  1  0.79740000  0.96210000  0.76120000  1.0 -0.0355343637
C  C135  1  0.96210000  0.76120000  0.79740000  1.0 -0.0355343637
C  C136  1  0.20260000  0.23880000  0.03790000  1.0 -0.0355343637
C  C137  1  0.03790000  0.20260000  0.23880000  1.0 -0.0355343637
C  C138  1  0.23880000  0.03790000  0.20260000  1.0 -0.0342914154
C  C139  1  0.23880000  0.20260000  0.03790000  1.0 -0.0355343637
C  C140  1  0.20260000  0.03790000  0.23880000  1.0 -0.0355343637
C  C141  1  0.03790000  0.23880000  0.20260000  1.0 -0.0355343637
C  C142  1  0.79740000  0.76120000  0.96210000  1.0 -0.0342914154
C  C143  1  0.96210000  0.79740000  0.76120000  1.0 -0.0355343637
C  C144  1  0.76120000  0.96210000  0.79740000  1.0 -0.0355343637
C  C145  1  0.66710000  0.61920000  0.85790000  1.0 -0.1372137953
C  C146  1  0.61920000  0.85790000  0.66710000  1.0 -0.1372137953
C  C147  1  0.85790000  0.66710000  0.61920000  1.0 -0.1372137953
C  C148  1  0.38080000  0.33290000  0.14210000  1.0 -0.1372137953
C  C149  1  0.14210000  0.38080000  0.33290000  1.0 -0.1372137953
C  C150  1  0.33290000  0.14210000  0.38080000  1.0 -0.1372137953
C  C151  1  0.33290000  0.38080000  0.14210000  1.0 -0.1372137953
C  C152  1  0.38080000  0.14210000  0.33290000  1.0 -0.1494281599
C  C153  1  0.14210000  0.33290000  0.38080000  1.0 -0.1372137953
C  C154  1  0.61920000  0.66710000  0.85790000  1.0 -0.1372137953
C  C155  1  0.85790000  0.61920000  0.66710000  1.0 -0.1372137953
C  C156  1  0.66710000  0.85790000  0.61920000  1.0 -0.1372137953
O  O1  1  0.45640000  0.86271000  0.93999000  1.0 -0.5449919709
O  O2  1  0.86271000  0.93999000  0.45640000  1.0 -0.5449919709
O  O3  1  0.93999000  0.45640000  0.86271000  1.0 -0.5449919709
O  O4  1  0.13729000  0.54360000  0.06001000  1.0 -0.5449919709
O  O5  1  0.06001000  0.13729000  0.54360000  1.0 -0.5457697519
O  O6  1  0.54360000  0.06001000  0.13729000  1.0 -0.5449919709
O  O7  1  0.54360000  0.13729000  0.06001000  1.0 -0.5457697519
O  O8  1  0.13729000  0.06001000  0.54360000  1.0 -0.5457697519
O  O9  1  0.06001000  0.54360000  0.13729000  1.0 -0.5449919709
O  O10  1  0.86271000  0.45640000  0.93999000  1.0 -0.5449919709
O  O11  1  0.93999000  0.86271000  0.45640000  1.0 -0.5449919709
O  O12  1  0.45640000  0.93999000  0.86271000  1.0 -0.5449919709
O  O13  1  0.61267000  0.99656000  0.07347000  1.0 -0.4921620298
O  O14  1  0.99656000  0.07347000  0.61267000  1.0 -0.4921620298
O  O15  1  0.07347000  0.61267000  0.99656000  1.0 -0.4921620298
O  O16  1  0.00344000  0.38733000  0.92653000  1.0 -0.4921620298
O  O17  1  0.92653000  0.00344000  0.38733000  1.0 -0.4921620298
O  O18  1  0.38733000  0.92653000  0.00344000  1.0 -0.4921620298
O  O19  1  0.38733000  0.00344000  0.92653000  1.0 -0.4921620298
O  O20  1  0.00344000  0.92653000  0.38733000  1.0 -0.4921620298
O  O21  1  0.92653000  0.38733000  0.00344000  1.0 -0.4921620298
O  O22  1  0.99656000  0.61267000  0.07347000  1.0 -0.4921620298
O  O23  1  0.07347000  0.99656000  0.61267000  1.0 -0.4921620298
O  O24  1  0.61267000  0.07347000  0.99656000  1.0 -0.4921620298
O  O25  1  0.72284000  0.72284000  0.01292000  1.0 -0.1694918159
O  O26  1  0.72284000  0.01292000  0.72284000  1.0 -0.1694918159
O  O27  1  0.01292000  0.72284000  0.72284000  1.0 -0.1694918159
O  O28  1  0.27716000  0.27716000  0.98708000  1.0 -0.1694918159
O  O29  1  0.98708000  0.27716000  0.27716000  1.0 -0.1694918159
O  O30  1  0.27716000  0.98708000  0.27716000  1.0 -0.1694918159
