# DDEC6 charges by PACMAN v1.1 (https://github.com/mtap-research/PACMAN-charge/)
data_UMOYOM_ASR_pacman
_symmetry_space_group_name_H-M   'P 1'
_cell_length_a   21.50970000
_cell_length_b   21.50970000
_cell_length_c   21.50970000
_cell_angle_alpha   110.27200000
_cell_angle_beta   110.27200000
_cell_angle_gamma   110.27200000
_symmetry_Int_Tables_number   1
_chemical_formula_structural   CuH10C26O5
_chemical_formula_sum   'Cu6 H60 C156 O30'
_cell_volume   7425.11911410
_cell_formula_units_Z   6
loop_
 _symmetry_equiv_pos_site_id
 _symmetry_equiv_pos_as_xyz
  1  'x, y, z'
loop_
 _atom_site_type_symbol
 _atom_site_label
 _atom_site_symmetry_multiplicity
 _atom_site_fract_x
 _atom_site_fract_y
 _atom_site_fract_z
 _atom_site_occupancy
 _atom_site_charge
Cu  Cu1  1  0.55253000  0.55253000  0.07472000  1.0 0.8714933115
Cu  Cu2  1  0.55253000  0.07472000  0.55252000  1.0 0.8714933115
Cu  Cu3  1  0.07472000  0.55253000  0.55252000  1.0 0.8714933115
Cu  Cu4  1  0.44747000  0.44748000  0.92528000  1.0 0.8714933115
Cu  Cu5  1  0.92528000  0.44747000  0.44747000  1.0 0.8714933115
Cu  Cu6  1  0.44747000  0.92528000  0.44747000  1.0 0.8714933115
H  H1  1  0.57270000  0.39960000  0.15740000  1.0 0.1304879468
H  H2  1  0.39960000  0.15740000  0.57270000  1.0 0.1304879468
H  H3  1  0.15740000  0.57270000  0.39960000  1.0 0.1304879468
H  H4  1  0.60040000  0.42730000  0.84260000  1.0 0.1304879468
H  H5  1  0.84260000  0.60040000  0.42730000  1.0 0.1304879468
H  H6  1  0.42730000  0.84260000  0.60040000  1.0 0.1304879468
H  H7  1  0.42730000  0.60040000  0.84260000  1.0 0.1304879468
H  H8  1  0.60040000  0.84260000  0.42730000  1.0 0.1304879468
H  H9  1  0.84260000  0.42730000  0.60040000  1.0 0.1304879468
H  H10  1  0.39960000  0.57270000  0.15740000  1.0 0.1304879468
H  H11  1  0.15740000  0.39960000  0.57270000  1.0 0.1304879468
H  H12  1  0.57270000  0.15740000  0.39960000  1.0 0.1304879468
H  H13  1  0.57160000  0.30030000  0.17890000  1.0 0.1212965142
H  H14  1  0.30030000  0.17890000  0.57160000  1.0 0.1212965142
H  H15  1  0.17890000  0.57160000  0.30030000  1.0 0.1212965142
H  H16  1  0.69970000  0.42840000  0.82110000  1.0 0.1212965142
H  H17  1  0.82110000  0.69970000  0.42840000  1.0 0.1212965142
H  H18  1  0.42840000  0.82110000  0.69970000  1.0 0.1212965142
H  H19  1  0.42840000  0.69970000  0.82110000  1.0 0.1212965142
H  H20  1  0.69970000  0.82110000  0.42840000  1.0 0.1212965142
H  H21  1  0.82110000  0.42840000  0.69970000  1.0 0.1212965142
H  H22  1  0.30030000  0.57160000  0.17890000  1.0 0.1212965142
H  H23  1  0.17890000  0.30030000  0.57160000  1.0 0.1212965142
H  H24  1  0.57160000  0.17890000  0.30030000  1.0 0.1212965142
H  H25  1  0.40740000  0.13980000  0.95010000  1.0 0.1212965142
H  H26  1  0.13980000  0.95010000  0.40740000  1.0 0.1212965142
H  H27  1  0.95010000  0.40740000  0.13980000  1.0 0.1212965142
H  H28  1  0.86020000  0.59260000  0.04990000  1.0 0.1212965142
H  H29  1  0.04990000  0.86020000  0.59260000  1.0 0.1212965142
H  H30  1  0.59260000  0.04990000  0.86020000  1.0 0.1212965142
H  H31  1  0.59260000  0.86020000  0.04990000  1.0 0.1212965142
H  H32  1  0.86020000  0.04990000  0.59260000  1.0 0.1212965142
H  H33  1  0.04990000  0.59260000  0.86020000  1.0 0.1212965142
H  H34  1  0.13980000  0.40740000  0.95010000  1.0 0.1212965142
H  H35  1  0.95010000  0.13980000  0.40740000  1.0 0.1212965142
H  H36  1  0.40740000  0.95010000  0.13980000  1.0 0.1212965142
H  H37  1  0.41050000  0.24080000  0.92850000  1.0 0.1212965142
H  H38  1  0.24080000  0.92850000  0.41050000  1.0 0.1212965142
H  H39  1  0.92850000  0.41050000  0.24080000  1.0 0.1212965142
H  H40  1  0.75920000  0.58950000  0.07150000  1.0 0.1212965142
H  H41  1  0.07150000  0.75920000  0.58950000  1.0 0.1212965142
H  H42  1  0.58950000  0.07150000  0.75920000  1.0 0.1212965142
H  H43  1  0.58950000  0.75920000  0.07150000  1.0 0.1212965142
H  H44  1  0.75920000  0.07150000  0.58950000  1.0 0.1212965142
H  H45  1  0.07150000  0.58950000  0.75920000  1.0 0.1212965142
H  H46  1  0.24080000  0.41050000  0.92850000  1.0 0.1212965142
H  H47  1  0.92850000  0.24080000  0.41050000  1.0 0.1212965142
H  H48  1  0.41050000  0.92850000  0.24080000  1.0 0.1212965142
H  H49  1  0.49460000  0.09470000  0.98060000  1.0 0.1113302285
H  H50  1  0.09470000  0.98060000  0.49460000  1.0 0.1113302285
H  H51  1  0.98060000  0.49460000  0.09470000  1.0 0.1113302285
H  H52  1  0.90530000  0.50540000  0.01940000  1.0 0.1113302285
H  H53  1  0.01940000  0.90530000  0.50540000  1.0 0.1113302285
H  H54  1  0.50540000  0.01940000  0.90530000  1.0 0.1113302285
H  H55  1  0.50540000  0.90530000  0.01940000  1.0 0.1113302285
H  H56  1  0.90530000  0.01940000  0.50540000  1.0 0.1113302285
H  H57  1  0.01940000  0.50540000  0.90530000  1.0 0.1113302285
H  H58  1  0.09470000  0.49460000  0.98060000  1.0 0.1113302285
H  H59  1  0.98060000  0.09470000  0.49460000  1.0 0.1113302285
H  H60  1  0.49460000  0.98060000  0.09470000  1.0 0.1113302285
C  C1  1  0.49468000  0.39364000  0.02649000  1.0 0.5808141746
C  C2  1  0.39364000  0.02649000  0.49468000  1.0 0.5808141746
C  C3  1  0.02649000  0.49468000  0.39364000  1.0 0.5808141746
C  C4  1  0.60636000  0.50532000  0.97351000  1.0 0.5808141746
C  C5  1  0.97351000  0.60636000  0.50532000  1.0 0.5808141746
C  C6  1  0.50532000  0.97351000  0.60636000  1.0 0.5808141746
C  C7  1  0.50532000  0.60636000  0.97351000  1.0 0.5808141746
C  C8  1  0.60636000  0.97351000  0.50532000  1.0 0.5808141746
C  C9  1  0.97351000  0.50532000  0.60636000  1.0 0.5808141746
C  C10  1  0.39364000  0.49468000  0.02649000  1.0 0.5808141746
C  C11  1  0.02649000  0.39364000  0.49468000  1.0 0.5808141746
C  C12  1  0.49468000  0.02649000  0.39364000  1.0 0.5808141746
C  C13  1  0.49159000  0.32951000  0.04073000  1.0 -0.0290651974
C  C14  1  0.32951000  0.04073000  0.49159000  1.0 -0.0290651974
C  C15  1  0.04073000  0.49159000  0.32951000  1.0 -0.0290651974
C  C16  1  0.67049000  0.50841000  0.95927000  1.0 -0.0290651974
C  C17  1  0.95927000  0.67049000  0.50841000  1.0 -0.0290651974
C  C18  1  0.50841000  0.95927000  0.67049000  1.0 -0.0290651974
C  C19  1  0.50841000  0.67049000  0.95927000  1.0 -0.0290651974
C  C20  1  0.67049000  0.95927000  0.50841000  1.0 -0.0290651974
C  C21  1  0.95927000  0.50841000  0.67049000  1.0 -0.0290651974
C  C22  1  0.32951000  0.49159000  0.04073000  1.0 -0.0290651974
C  C23  1  0.04073000  0.32951000  0.49159000  1.0 -0.0290651974
C  C24  1  0.49159000  0.04073000  0.32951000  1.0 -0.0290651974
C  C25  1  0.53931000  0.34673000  0.11499000  1.0 -0.0838256074
C  C26  1  0.34673000  0.11499000  0.53931000  1.0 -0.0838256074
C  C27  1  0.11499000  0.53931000  0.34673000  1.0 -0.0838256074
C  C28  1  0.65327000  0.46069000  0.88501000  1.0 -0.0838256074
C  C29  1  0.88501000  0.65327000  0.46069000  1.0 -0.0838256074
C  C30  1  0.46069000  0.88501000  0.65327000  1.0 -0.0838256074
C  C31  1  0.46069000  0.65327000  0.88501000  1.0 -0.0838256074
C  C32  1  0.65327000  0.88501000  0.46069000  1.0 -0.0838256074
C  C33  1  0.88501000  0.46069000  0.65327000  1.0 -0.0838256074
C  C34  1  0.34673000  0.53931000  0.11499000  1.0 -0.0838256074
C  C35  1  0.11499000  0.34673000  0.53931000  1.0 -0.0838256074
C  C36  1  0.53931000  0.11499000  0.34673000  1.0 -0.0838256074
C  C37  1  0.53864000  0.28772000  0.12793000  1.0 -0.1448109008
C  C38  1  0.28772000  0.12793000  0.53864000  1.0 -0.1505872601
C  C39  1  0.12793000  0.53864000  0.28772000  1.0 -0.1505872601
C  C40  1  0.71228000  0.46136000  0.87207000  1.0 -0.1505872601
C  C41  1  0.87207000  0.71228000  0.46136000  1.0 -0.1448109008
C  C42  1  0.46136000  0.87207000  0.71228000  1.0 -0.1505872601
C  C43  1  0.46136000  0.71228000  0.87207000  1.0 -0.1505872601
C  C44  1  0.71228000  0.87207000  0.46136000  1.0 -0.1448109008
C  C45  1  0.87207000  0.46136000  0.71228000  1.0 -0.1505872601
C  C46  1  0.28772000  0.53864000  0.12793000  1.0 -0.1448109008
C  C47  1  0.12793000  0.28772000  0.53864000  1.0 -0.1505872601
C  C48  1  0.53864000  0.12793000  0.28772000  1.0 -0.1505872601
C  C49  1  0.49004000  0.21092000  0.06676000  1.0 0.0888176206
C  C50  1  0.21092000  0.06676000  0.49004000  1.0 0.0888176206
C  C51  1  0.06676000  0.49004000  0.21092000  1.0 0.0888176206
C  C52  1  0.78908000  0.50996000  0.93324000  1.0 0.0888176206
C  C53  1  0.93324000  0.78908000  0.50996000  1.0 0.0888176206
C  C54  1  0.50996000  0.93324000  0.78908000  1.0 0.0888176206
C  C55  1  0.50996000  0.78908000  0.93324000  1.0 0.0888176206
C  C56  1  0.78908000  0.93324000  0.50996000  1.0 0.0888176206
C  C57  1  0.93324000  0.50996000  0.78908000  1.0 0.0888176206
C  C58  1  0.21092000  0.49004000  0.06676000  1.0 0.0888176206
C  C59  1  0.06676000  0.21092000  0.49004000  1.0 0.0888176206
C  C60  1  0.49004000  0.06676000  0.21092000  1.0 0.0888176206
C  C61  1  0.44148000  0.19275000  0.99222000  1.0 -0.1505872601
C  C62  1  0.19275000  0.99222000  0.44148000  1.0 -0.1550735019
C  C63  1  0.99222000  0.44148000  0.19275000  1.0 -0.1505872601
C  C64  1  0.80725000  0.55852000  0.00778000  1.0 -0.1505872601
C  C65  1  0.00778000  0.80725000  0.55852000  1.0 -0.1505872601
C  C66  1  0.55852000  0.00778000  0.80725000  1.0 -0.1505872601
C  C67  1  0.55852000  0.80725000  0.00778000  1.0 -0.1505872601
C  C68  1  0.80725000  0.00778000  0.55852000  1.0 -0.1505872601
C  C69  1  0.00778000  0.55852000  0.80725000  1.0 -0.1550735019
C  C70  1  0.19275000  0.44148000  0.99222000  1.0 -0.1505872601
C  C71  1  0.99222000  0.19275000  0.44148000  1.0 -0.1505872601
C  C72  1  0.44148000  0.99222000  0.19275000  1.0 -0.1550735019
C  C73  1  0.44303000  0.25299000  0.97948000  1.0 -0.0838256074
C  C74  1  0.25299000  0.97948000  0.44303000  1.0 -0.0838256074
C  C75  1  0.97948000  0.44303000  0.25299000  1.0 -0.0838256074
C  C76  1  0.74701000  0.55697000  0.02052000  1.0 -0.0838256074
C  C77  1  0.02052000  0.74701000  0.55697000  1.0 -0.0838256074
C  C78  1  0.55697000  0.02052000  0.74701000  1.0 -0.0916597689
C  C79  1  0.55697000  0.74701000  0.02052000  1.0 -0.0838256074
C  C80  1  0.74701000  0.02052000  0.55697000  1.0 -0.0838256074
C  C81  1  0.02052000  0.55697000  0.74701000  1.0 -0.0838256074
C  C82  1  0.25299000  0.44303000  0.97948000  1.0 -0.0838256074
C  C83  1  0.97948000  0.25299000  0.44303000  1.0 -0.0838256074
C  C84  1  0.44303000  0.97948000  0.25299000  1.0 -0.0838256074
C  C85  1  0.49114000  0.14570000  0.07673000  1.0 -0.0070992157
C  C86  1  0.14570000  0.07673000  0.49114000  1.0 -0.0070992157
C  C87  1  0.07673000  0.49114000  0.14570000  1.0 -0.0070992157
C  C88  1  0.85430000  0.50886000  0.92327000  1.0 -0.0070992157
C  C89  1  0.92327000  0.85430000  0.50886000  1.0 -0.0070992157
C  C90  1  0.50886000  0.92327000  0.85430000  1.0 -0.0070992157
C  C91  1  0.50886000  0.85430000  0.92327000  1.0 -0.0070992157
C  C92  1  0.85430000  0.92327000  0.50886000  1.0 -0.0070992157
C  C93  1  0.92327000  0.50886000  0.85430000  1.0 -0.0070992157
C  C94  1  0.14570000  0.49114000  0.07673000  1.0 -0.0070992157
C  C95  1  0.07673000  0.14570000  0.49114000  1.0 -0.0070992157
C  C96  1  0.49114000  0.07673000  0.14570000  1.0 -0.0070992157
C  C97  1  0.49415000  0.09018000  0.02292000  1.0 -0.19575855
C  C98  1  0.09018000  0.02292000  0.49415000  1.0 -0.19575855
C  C99  1  0.02292000  0.49415000  0.09018000  1.0 -0.19575855
C  C100  1  0.90982000  0.50585000  0.97708000  1.0 -0.19575855
C  C101  1  0.97708000  0.90982000  0.50585000  1.0 -0.19575855
C  C102  1  0.50585000  0.97708000  0.90982000  1.0 -0.19575855
C  C103  1  0.50585000  0.90982000  0.97708000  1.0 -0.19575855
C  C104  1  0.90982000  0.97708000  0.50585000  1.0 -0.1946099631
C  C105  1  0.97708000  0.50585000  0.90982000  1.0 -0.19575855
C  C106  1  0.09018000  0.49415000  0.02292000  1.0 -0.19575855
C  C107  1  0.02292000  0.09018000  0.49415000  1.0 -0.19575855
C  C108  1  0.49415000  0.02292000  0.09018000  1.0 -0.19575855
C  C109  1  0.49656000  0.02782000  0.02782000  1.0 0.078145882
C  C110  1  0.02782000  0.02782000  0.49656000  1.0 0.078145882
C  C111  1  0.02782000  0.49656000  0.02782000  1.0 0.078145882
C  C112  1  0.97218000  0.50344000  0.97218000  1.0 0.078145882
C  C113  1  0.97218000  0.97218000  0.50344000  1.0 0.078145882
C  C114  1  0.50344000  0.97218000  0.97218000  1.0 0.078145882
C  C115  1  0.49000000  0.13940000  0.13940000  1.0 0.1778425393
C  C116  1  0.13940000  0.13940000  0.49000000  1.0 0.1778425393
C  C117  1  0.13940000  0.49000000  0.13940000  1.0 0.1778425393
C  C118  1  0.86060000  0.51000000  0.86060000  1.0 0.1778425393
C  C119  1  0.86060000  0.86060000  0.51000000  1.0 0.1778425393
C  C120  1  0.51000000  0.86060000  0.86060000  1.0 0.1778425393
C  C121  1  0.34630000  0.10880000  0.15350000  1.0 -0.0916597689
C  C122  1  0.10880000  0.15350000  0.34630000  1.0 -0.0916597689
C  C123  1  0.15350000  0.34630000  0.10880000  1.0 -0.0991644841
C  C124  1  0.89120000  0.65370000  0.84650000  1.0 -0.0916597689
C  C125  1  0.84650000  0.89120000  0.65370000  1.0 -0.0991644841
C  C126  1  0.65370000  0.84650000  0.89120000  1.0 -0.0916597689
C  C127  1  0.65370000  0.89120000  0.84650000  1.0 -0.0916597689
C  C128  1  0.89120000  0.84650000  0.65370000  1.0 -0.0991644841
C  C129  1  0.84650000  0.65370000  0.89120000  1.0 -0.0916597689
C  C130  1  0.10880000  0.34630000  0.15350000  1.0 -0.0991644841
C  C131  1  0.15350000  0.10880000  0.34630000  1.0 -0.0916597689
C  C132  1  0.34630000  0.15350000  0.10880000  1.0 -0.0916597689
C  C133  1  0.43190000  0.23250000  0.26700000  1.0 -0.0542442694
C  C134  1  0.23250000  0.26700000  0.43190000  1.0 -0.0572179366
C  C135  1  0.26700000  0.43190000  0.23250000  1.0 -0.0572179366
C  C136  1  0.76750000  0.56810000  0.73300000  1.0 -0.0572179366
C  C137  1  0.73300000  0.76750000  0.56810000  1.0 -0.0572179366
C  C138  1  0.56810000  0.73300000  0.76750000  1.0 -0.0572179366
C  C139  1  0.56810000  0.76750000  0.73300000  1.0 -0.0572179366
C  C140  1  0.76750000  0.73300000  0.56810000  1.0 -0.0572179366
C  C141  1  0.73300000  0.56810000  0.76750000  1.0 -0.0572179366
C  C142  1  0.23250000  0.43190000  0.26700000  1.0 -0.0572179366
C  C143  1  0.26700000  0.23250000  0.43190000  1.0 -0.0572179366
C  C144  1  0.43190000  0.26700000  0.23250000  1.0 -0.0572179366
C  C145  1  0.40640000  0.16280000  0.18520000  1.0 0.1012827226
C  C146  1  0.16280000  0.18520000  0.40640000  1.0 0.1012827226
C  C147  1  0.18520000  0.40640000  0.16280000  1.0 0.1012827226
C  C148  1  0.83720000  0.59360000  0.81480000  1.0 0.1012827226
C  C149  1  0.81480000  0.83720000  0.59360000  1.0 0.1012827226
C  C150  1  0.59360000  0.81480000  0.83720000  1.0 0.1012827226
C  C151  1  0.59360000  0.83720000  0.81480000  1.0 0.1012827226
C  C152  1  0.83720000  0.81480000  0.59360000  1.0 0.1113302285
C  C153  1  0.81480000  0.59360000  0.83720000  1.0 0.1012827226
C  C154  1  0.16280000  0.40640000  0.18520000  1.0 0.1113302285
C  C155  1  0.18520000  0.16280000  0.40640000  1.0 0.1012827226
C  C156  1  0.40640000  0.18520000  0.16280000  1.0 0.1012827226
O  O1  1  0.45180000  0.37398000  0.95715000  1.0 -0.5216618038
O  O2  1  0.37398000  0.95715000  0.45180000  1.0 -0.5216618038
O  O3  1  0.95715000  0.45180000  0.37398000  1.0 -0.5216618038
O  O4  1  0.62602000  0.54820000  0.04285000  1.0 -0.5216618038
O  O5  1  0.04285000  0.62602000  0.54820000  1.0 -0.5216618038
O  O6  1  0.54820000  0.04285000  0.62602000  1.0 -0.5216618038
O  O7  1  0.54820000  0.62602000  0.04285000  1.0 -0.5216618038
O  O8  1  0.62602000  0.04285000  0.54820000  1.0 -0.5216618038
O  O9  1  0.04285000  0.54820000  0.62602000  1.0 -0.5216618038
O  O10  1  0.37398000  0.45180000  0.95715000  1.0 -0.5216618038
O  O11  1  0.95715000  0.37398000  0.45180000  1.0 -0.5216618038
O  O12  1  0.45180000  0.95715000  0.37398000  1.0 -0.5216618038
O  O13  1  0.54112000  0.46318000  0.08493000  1.0 -0.5216618038
O  O14  1  0.46318000  0.08493000  0.54112000  1.0 -0.5216618038
O  O15  1  0.08493000  0.54112000  0.46318000  1.0 -0.5216618038
O  O16  1  0.53682000  0.45888000  0.91507000  1.0 -0.5216618038
O  O17  1  0.91507000  0.53682000  0.45888000  1.0 -0.5216618038
O  O18  1  0.45888000  0.91507000  0.53682000  1.0 -0.5216618038
O  O19  1  0.45888000  0.53682000  0.91507000  1.0 -0.5216618038
O  O20  1  0.53682000  0.91507000  0.45888000  1.0 -0.5216618038
O  O21  1  0.91507000  0.45888000  0.53682000  1.0 -0.5216618038
O  O22  1  0.46318000  0.54112000  0.08493000  1.0 -0.5216618038
O  O23  1  0.08493000  0.46318000  0.54112000  1.0 -0.5216618038
O  O24  1  0.54112000  0.08493000  0.46318000  1.0 -0.5216618038
O  O25  1  0.48600000  0.19294000  0.19294000  1.0 -0.0916597689
O  O26  1  0.19294000  0.19294000  0.48600000  1.0 -0.0916597689
O  O27  1  0.19294000  0.48600000  0.19294000  1.0 -0.0991644841
O  O28  1  0.80706000  0.51400000  0.80706000  1.0 -0.0916597689
O  O29  1  0.80706000  0.80706000  0.51400000  1.0 -0.0991644841
O  O30  1  0.51400000  0.80706000  0.80706000  1.0 -0.0916597689
