# DDEC6 charges by PACMAN v1.1 (https://github.com/mtap-research/PACMAN-charge/)
data_UMOYOM15_ASR_pacman
_symmetry_space_group_name_H-M   'P 1'
_cell_length_a   21.35450000
_cell_length_b   21.35450000
_cell_length_c   21.35450000
_cell_angle_alpha   113.46500000
_cell_angle_beta   113.46500000
_cell_angle_gamma   113.46500000
_symmetry_Int_Tables_number   1
_chemical_formula_structural   CuH10(C5O)5
_chemical_formula_sum   'Cu6 H60 C150 O30'
_cell_volume   6143.93803071
_cell_formula_units_Z   6
loop_
 _symmetry_equiv_pos_site_id
 _symmetry_equiv_pos_as_xyz
  1  'x, y, z'
loop_
 _atom_site_type_symbol
 _atom_site_label
 _atom_site_symmetry_multiplicity
 _atom_site_fract_x
 _atom_site_fract_y
 _atom_site_fract_z
 _atom_site_occupancy
 _atom_site_charge
Cu  Cu1  1  0.41345000  0.93060000  0.93060000  1.0 0.8443807388
Cu  Cu2  1  0.93060000  0.93060000  0.41345000  1.0 0.8443807388
Cu  Cu3  1  0.93060000  0.41345000  0.93060000  1.0 0.8443807388
Cu  Cu4  1  0.06940000  0.58655000  0.06940000  1.0 0.8443807388
Cu  Cu5  1  0.06940000  0.06940000  0.58655000  1.0 0.8443807388
Cu  Cu6  1  0.58655000  0.06940000  0.06940000  1.0 0.8443807388
H  H1  1  0.31990000  0.07200000  0.89940000  1.0 0.1273217058
H  H2  1  0.07200000  0.89940000  0.31990000  1.0 0.1273217058
H  H3  1  0.89940000  0.31990000  0.07200000  1.0 0.1273217058
H  H4  1  0.92800000  0.68010000  0.10060000  1.0 0.1273217058
H  H5  1  0.10060000  0.92800000  0.68010000  1.0 0.1273217058
H  H6  1  0.68010000  0.10060000  0.92800000  1.0 0.1273217058
H  H7  1  0.68010000  0.92800000  0.10060000  1.0 0.1273217058
H  H8  1  0.92800000  0.10060000  0.68010000  1.0 0.1273217058
H  H9  1  0.10060000  0.68010000  0.92800000  1.0 0.1273217058
H  H10  1  0.07200000  0.31990000  0.89940000  1.0 0.1273217058
H  H11  1  0.89940000  0.07200000  0.31990000  1.0 0.1273217058
H  H12  1  0.31990000  0.89940000  0.07200000  1.0 0.1273217058
H  H13  1  0.29820000  0.17370000  0.90820000  1.0 0.1222783526
H  H14  1  0.17370000  0.90820000  0.29820000  1.0 0.1222783526
H  H15  1  0.90820000  0.29820000  0.17370000  1.0 0.1222783526
H  H16  1  0.82630000  0.70180000  0.09180000  1.0 0.1222783526
H  H17  1  0.09180000  0.82630000  0.70180000  1.0 0.1222783526
H  H18  1  0.70180000  0.09180000  0.82630000  1.0 0.1222783526
H  H19  1  0.70180000  0.82630000  0.09180000  1.0 0.1222783526
H  H20  1  0.82630000  0.09180000  0.70180000  1.0 0.1222783526
H  H21  1  0.09180000  0.70180000  0.82630000  1.0 0.1222783526
H  H22  1  0.17370000  0.29820000  0.90820000  1.0 0.1222783526
H  H23  1  0.90820000  0.17370000  0.29820000  1.0 0.1222783526
H  H24  1  0.29820000  0.90820000  0.17370000  1.0 0.1222783526
H  H25  1  0.56340000  0.38020000  0.11450000  1.0 0.1123259719
H  H26  1  0.38020000  0.11450000  0.56340000  1.0 0.1123259719
H  H27  1  0.11450000  0.56340000  0.38020000  1.0 0.1123259719
H  H28  1  0.61980000  0.43660000  0.88550000  1.0 0.1123259719
H  H29  1  0.88550000  0.61980000  0.43660000  1.0 0.1123259719
H  H30  1  0.43660000  0.88550000  0.61980000  1.0 0.1123259719
H  H31  1  0.43660000  0.61980000  0.88550000  1.0 0.1123259719
H  H32  1  0.61980000  0.88550000  0.43660000  1.0 0.1123259719
H  H33  1  0.88550000  0.43660000  0.61980000  1.0 0.1123259719
H  H34  1  0.38020000  0.56340000  0.11450000  1.0 0.1123259719
H  H35  1  0.11450000  0.38020000  0.56340000  1.0 0.1123259719
H  H36  1  0.56340000  0.11450000  0.38020000  1.0 0.1123259719
H  H37  1  0.58540000  0.28290000  0.11540000  1.0 0.1273217058
H  H38  1  0.28290000  0.11540000  0.58540000  1.0 0.1273217058
H  H39  1  0.11540000  0.58540000  0.28290000  1.0 0.1273217058
H  H40  1  0.71710000  0.41460000  0.88460000  1.0 0.1273217058
H  H41  1  0.88460000  0.71710000  0.41460000  1.0 0.1273217058
H  H42  1  0.41460000  0.88460000  0.71710000  1.0 0.1273217058
H  H43  1  0.41460000  0.71710000  0.88460000  1.0 0.1273217058
H  H44  1  0.71710000  0.88460000  0.41460000  1.0 0.1273217058
H  H45  1  0.88460000  0.41460000  0.71710000  1.0 0.1273217058
H  H46  1  0.28290000  0.58540000  0.11540000  1.0 0.1273217058
H  H47  1  0.11540000  0.28290000  0.58540000  1.0 0.1273217058
H  H48  1  0.58540000  0.11540000  0.28290000  1.0 0.1273217058
H  H49  1  0.51410000  0.40200000  0.00100000  1.0 0.1123259719
H  H50  1  0.40200000  0.00100000  0.51410000  1.0 0.1123259719
H  H51  1  0.00100000  0.51410000  0.40200000  1.0 0.1123259719
H  H52  1  0.59800000  0.48590000  0.99900000  1.0 0.1123259719
H  H53  1  0.99900000  0.59800000  0.48590000  1.0 0.1123259719
H  H54  1  0.48590000  0.99900000  0.59800000  1.0 0.1123259719
H  H55  1  0.48590000  0.59800000  0.99900000  1.0 0.1123259719
H  H56  1  0.59800000  0.99900000  0.48590000  1.0 0.1123259719
H  H57  1  0.99900000  0.48590000  0.59800000  1.0 0.1123259719
H  H58  1  0.40200000  0.51410000  0.00100000  1.0 0.1123259719
H  H59  1  0.00100000  0.40200000  0.51410000  1.0 0.1123259719
H  H60  1  0.51410000  0.00100000  0.40200000  1.0 0.1123259719
C  C1  1  0.47020000  0.10367000  0.00423000  1.0 0.5790913428
C  C2  1  0.10367000  0.00423000  0.47020000  1.0 0.5790913428
C  C3  1  0.00423000  0.47020000  0.10367000  1.0 0.5790913428
C  C4  1  0.89633000  0.52980000  0.99577000  1.0 0.5790913428
C  C5  1  0.99577000  0.89633000  0.52980000  1.0 0.5790913428
C  C6  1  0.52980000  0.99577000  0.89633000  1.0 0.5790913428
C  C7  1  0.52980000  0.89633000  0.99577000  1.0 0.5790913428
C  C8  1  0.89633000  0.99577000  0.52980000  1.0 0.5790913428
C  C9  1  0.99577000  0.52980000  0.89633000  1.0 0.5790913428
C  C10  1  0.10367000  0.47020000  0.00423000  1.0 0.5790913428
C  C11  1  0.00423000  0.10367000  0.47020000  1.0 0.5790913428
C  C12  1  0.47020000  0.00423000  0.10367000  1.0 0.5790913428
C  C13  1  0.45490000  0.16845000  0.00905000  1.0 -0.0195580674
C  C14  1  0.16845000  0.00905000  0.45490000  1.0 -0.0195580674
C  C15  1  0.00905000  0.45490000  0.16845000  1.0 -0.0195580674
C  C16  1  0.83155000  0.54510000  0.99095000  1.0 -0.0195580674
C  C17  1  0.99095000  0.83155000  0.54510000  1.0 -0.0195580674
C  C18  1  0.54510000  0.99095000  0.83155000  1.0 -0.0195580674
C  C19  1  0.54510000  0.83155000  0.99095000  1.0 -0.0195580674
C  C20  1  0.83155000  0.99095000  0.54510000  1.0 -0.0195580674
C  C21  1  0.99095000  0.54510000  0.83155000  1.0 -0.0195580674
C  C22  1  0.16845000  0.45490000  0.00905000  1.0 -0.0195580674
C  C23  1  0.00905000  0.16845000  0.45490000  1.0 -0.0195580674
C  C24  1  0.45490000  0.00905000  0.16845000  1.0 -0.0195580674
C  C25  1  0.36884000  0.13446000  0.94460000  1.0 -0.0837068514
C  C26  1  0.13446000  0.94460000  0.36884000  1.0 -0.0837068514
C  C27  1  0.94460000  0.36884000  0.13446000  1.0 -0.0837068514
C  C28  1  0.86554000  0.63116000  0.05540000  1.0 -0.0837068514
C  C29  1  0.05540000  0.86554000  0.63116000  1.0 -0.0837068514
C  C30  1  0.63116000  0.05540000  0.86554000  1.0 -0.0837068514
C  C31  1  0.63116000  0.86554000  0.05540000  1.0 -0.0837068514
C  C32  1  0.86554000  0.05540000  0.63116000  1.0 -0.0837068514
C  C33  1  0.05540000  0.63116000  0.86554000  1.0 -0.0837068514
C  C34  1  0.13446000  0.36884000  0.94460000  1.0 -0.0837068514
C  C35  1  0.94460000  0.13446000  0.36884000  1.0 -0.0837068514
C  C36  1  0.36884000  0.94460000  0.13446000  1.0 -0.0837068514
C  C37  1  0.35628000  0.19542000  0.94840000  1.0 -0.1475857159
C  C38  1  0.19542000  0.94840000  0.35628000  1.0 -0.1442993705
C  C39  1  0.94840000  0.35628000  0.19542000  1.0 -0.1475857159
C  C40  1  0.80458000  0.64372000  0.05160000  1.0 -0.1475857159
C  C41  1  0.05160000  0.80458000  0.64372000  1.0 -0.1475857159
C  C42  1  0.64372000  0.05160000  0.80458000  1.0 -0.1475857159
C  C43  1  0.64372000  0.80458000  0.05160000  1.0 -0.1475857159
C  C44  1  0.80458000  0.05160000  0.64372000  1.0 -0.1475857159
C  C45  1  0.05160000  0.64372000  0.80458000  1.0 -0.1475857159
C  C46  1  0.19542000  0.35628000  0.94840000  1.0 -0.1475857159
C  C47  1  0.94840000  0.19542000  0.35628000  1.0 -0.1442993705
C  C48  1  0.35628000  0.94840000  0.19542000  1.0 -0.1442993705
C  C49  1  0.43016000  0.28725000  0.01189000  1.0 0.0874849403
C  C50  1  0.28725000  0.01189000  0.43016000  1.0 0.0874849403
C  C51  1  0.01189000  0.43016000  0.28725000  1.0 0.0874849403
C  C52  1  0.71275000  0.56984000  0.98811000  1.0 0.0874849403
C  C53  1  0.98811000  0.71275000  0.56984000  1.0 0.0874849403
C  C54  1  0.56984000  0.98811000  0.71275000  1.0 0.0874849403
C  C55  1  0.56984000  0.71275000  0.98811000  1.0 0.0874849403
C  C56  1  0.71275000  0.98811000  0.56984000  1.0 0.0874849403
C  C57  1  0.98811000  0.56984000  0.71275000  1.0 0.0874849403
C  C58  1  0.28725000  0.43016000  0.01189000  1.0 0.0874849403
C  C59  1  0.01189000  0.28725000  0.43016000  1.0 0.0874849403
C  C60  1  0.43016000  0.01189000  0.28725000  1.0 0.0874849403
C  C61  1  0.51364000  0.31796000  0.07200000  1.0 -0.1475857159
C  C62  1  0.31796000  0.07200000  0.51364000  1.0 -0.1475857159
C  C63  1  0.07200000  0.51364000  0.31796000  1.0 -0.1475857159
C  C64  1  0.68204000  0.48636000  0.92800000  1.0 -0.1475857159
C  C65  1  0.92800000  0.68204000  0.48636000  1.0 -0.1475857159
C  C66  1  0.48636000  0.92800000  0.68204000  1.0 -0.1475857159
C  C67  1  0.48636000  0.68204000  0.92800000  1.0 -0.1475857159
C  C68  1  0.68204000  0.92800000  0.48636000  1.0 -0.1475857159
C  C69  1  0.92800000  0.48636000  0.68204000  1.0 -0.1475857159
C  C70  1  0.31796000  0.51364000  0.07200000  1.0 -0.1475857159
C  C71  1  0.07200000  0.31796000  0.51364000  1.0 -0.1475857159
C  C72  1  0.51364000  0.07200000  0.31796000  1.0 -0.1475857159
C  C73  1  0.52747000  0.25985000  0.07248000  1.0 -0.0837068514
C  C74  1  0.25985000  0.07248000  0.52747000  1.0 -0.0837068514
C  C75  1  0.07248000  0.52747000  0.25985000  1.0 -0.0837068514
C  C76  1  0.74015000  0.47253000  0.92752000  1.0 -0.0837068514
C  C77  1  0.92752000  0.74015000  0.47253000  1.0 -0.0837068514
C  C78  1  0.47253000  0.92752000  0.74015000  1.0 -0.0837068514
C  C79  1  0.47253000  0.74015000  0.92752000  1.0 -0.0837068514
C  C80  1  0.74015000  0.92752000  0.47253000  1.0 -0.0837068514
C  C81  1  0.92752000  0.47253000  0.74015000  1.0 -0.0837068514
C  C82  1  0.25985000  0.52747000  0.07248000  1.0 -0.0837068514
C  C83  1  0.07248000  0.25985000  0.52747000  1.0 -0.0837068514
C  C84  1  0.52747000  0.07248000  0.25985000  1.0 -0.0837068514
C  C85  1  0.41875000  0.35115000  0.00920000  1.0 -0.0195580674
C  C86  1  0.35115000  0.00920000  0.41875000  1.0 -0.0195580674
C  C87  1  0.00920000  0.41875000  0.35115000  1.0 -0.0195580674
C  C88  1  0.64885000  0.58125000  0.99080000  1.0 -0.0195580674
C  C89  1  0.99080000  0.64885000  0.58125000  1.0 -0.0195580674
C  C90  1  0.58125000  0.99080000  0.64885000  1.0 -0.0195580674
C  C91  1  0.58125000  0.64885000  0.99080000  1.0 -0.0195580674
C  C92  1  0.64885000  0.99080000  0.58125000  1.0 -0.0195580674
C  C93  1  0.99080000  0.58125000  0.64885000  1.0 -0.0195580674
C  C94  1  0.35115000  0.41875000  0.00920000  1.0 -0.0195580674
C  C95  1  0.00920000  0.35115000  0.41875000  1.0 -0.0195580674
C  C96  1  0.41875000  0.00920000  0.35115000  1.0 -0.0195580674
C  C97  1  0.47494000  0.40796000  0.00540000  1.0 -0.1888602475
C  C98  1  0.40796000  0.00540000  0.47494000  1.0 -0.1888602475
C  C99  1  0.00540000  0.47494000  0.40796000  1.0 -0.1888602475
C  C100  1  0.59204000  0.52506000  0.99460000  1.0 -0.1888602475
C  C101  1  0.99460000  0.59204000  0.52506000  1.0 -0.1888602475
C  C102  1  0.52506000  0.99460000  0.59204000  1.0 -0.1888602475
C  C103  1  0.52506000  0.59204000  0.99460000  1.0 -0.1888602475
C  C104  1  0.59204000  0.99460000  0.52506000  1.0 -0.1888602475
C  C105  1  0.99460000  0.52506000  0.59204000  1.0 -0.1888602475
C  C106  1  0.40796000  0.47494000  0.00540000  1.0 -0.1888602475
C  C107  1  0.00540000  0.40796000  0.47494000  1.0 -0.1888602475
C  C108  1  0.47494000  0.00540000  0.40796000  1.0 -0.1888602475
C  C109  1  0.47445000  0.47445000  0.00810000  1.0 0.079344331
C  C110  1  0.47445000  0.00810000  0.47445000  1.0 0.079344331
C  C111  1  0.00810000  0.47445000  0.47445000  1.0 0.079344331
C  C112  1  0.52555000  0.52555000  0.99190000  1.0 0.079344331
C  C113  1  0.99190000  0.52555000  0.52555000  1.0 0.079344331
C  C114  1  0.52555000  0.99190000  0.52555000  1.0 0.079344331
C  C115  1  0.35770000  0.35770000  0.01360000  1.0 0.1769787123
C  C116  1  0.35770000  0.01360000  0.35770000  1.0 0.1769787123
C  C117  1  0.01360000  0.35770000  0.35770000  1.0 0.1769787123
C  C118  1  0.64230000  0.64230000  0.98640000  1.0 0.1769787123
C  C119  1  0.98640000  0.64230000  0.64230000  1.0 0.1769787123
C  C120  1  0.64230000  0.98640000  0.64230000  1.0 0.1769787123
C  C121  1  0.33450000  0.33450000  0.10560000  1.0 0.2974560087
C  C122  1  0.33450000  0.10560000  0.33450000  1.0 0.2974560087
C  C123  1  0.10560000  0.33450000  0.33450000  1.0 0.2974560087
C  C124  1  0.66550000  0.66550000  0.89440000  1.0 0.294392171
C  C125  1  0.89440000  0.66550000  0.66550000  1.0 0.294392171
C  C126  1  0.66550000  0.89440000  0.66550000  1.0 0.294392171
C  C127  1  0.40420000  0.42990000  0.19610000  1.0 -0.0301169327
C  C128  1  0.42990000  0.19610000  0.40420000  1.0 -0.0301169327
C  C129  1  0.19610000  0.40420000  0.42990000  1.0 -0.0301169327
C  C130  1  0.57010000  0.59580000  0.80390000  1.0 -0.0301169327
C  C131  1  0.80390000  0.57010000  0.59580000  1.0 -0.0301169327
C  C132  1  0.59580000  0.80390000  0.57010000  1.0 -0.0301169327
C  C133  1  0.59580000  0.57010000  0.80390000  1.0 -0.0301169327
C  C134  1  0.57010000  0.80390000  0.59580000  1.0 -0.0301169327
C  C135  1  0.80390000  0.59580000  0.57010000  1.0 -0.0301169327
C  C136  1  0.42990000  0.40420000  0.19610000  1.0 -0.0301169327
C  C137  1  0.19610000  0.42990000  0.40420000  1.0 -0.0301169327
C  C138  1  0.40420000  0.19610000  0.42990000  1.0 -0.0301169327
C  C139  1  0.27970000  0.24360000  0.08570000  1.0 -0.0873435934
C  C140  1  0.24360000  0.08570000  0.27970000  1.0 -0.0873435934
C  C141  1  0.08570000  0.27970000  0.24360000  1.0 -0.0873435934
C  C142  1  0.75640000  0.72030000  0.91430000  1.0 -0.0873435934
C  C143  1  0.91430000  0.75640000  0.72030000  1.0 -0.0873435934
C  C144  1  0.72030000  0.91430000  0.75640000  1.0 -0.0873435934
C  C145  1  0.72030000  0.75640000  0.91430000  1.0 -0.0873435934
C  C146  1  0.75640000  0.91430000  0.72030000  1.0 -0.0873435934
C  C147  1  0.91430000  0.72030000  0.75640000  1.0 -0.0873435934
C  C148  1  0.24360000  0.27970000  0.08570000  1.0 -0.0873435934
C  C149  1  0.08570000  0.24360000  0.27970000  1.0 -0.0873435934
C  C150  1  0.27970000  0.08570000  0.24360000  1.0 -0.0873435934
O  O1  1  0.55048000  0.13978000  0.06334000  1.0 -0.5176872089
O  O2  1  0.13978000  0.06334000  0.55048000  1.0 -0.5176872089
O  O3  1  0.06334000  0.55048000  0.13978000  1.0 -0.5176872089
O  O4  1  0.86022000  0.44952000  0.93666000  1.0 -0.5176872089
O  O5  1  0.93666000  0.86022000  0.44952000  1.0 -0.5176872089
O  O6  1  0.44952000  0.93666000  0.86022000  1.0 -0.5176872089
O  O7  1  0.44952000  0.86022000  0.93666000  1.0 -0.5176872089
O  O8  1  0.86022000  0.93666000  0.44952000  1.0 -0.5176872089
O  O9  1  0.93666000  0.44952000  0.86022000  1.0 -0.5176872089
O  O10  1  0.13978000  0.55048000  0.06334000  1.0 -0.5176872089
O  O11  1  0.06334000  0.13978000  0.55048000  1.0 -0.5176872089
O  O12  1  0.55048000  0.06334000  0.13978000  1.0 -0.5176872089
O  O13  1  0.40050000  0.01934000  0.94316000  1.0 -0.5254218852
O  O14  1  0.01934000  0.94316000  0.40050000  1.0 -0.5254218852
O  O15  1  0.94316000  0.40050000  0.01934000  1.0 -0.5254218852
O  O16  1  0.98066000  0.59950000  0.05684000  1.0 -0.5254218852
O  O17  1  0.05684000  0.98066000  0.59950000  1.0 -0.5254218852
O  O18  1  0.59950000  0.05684000  0.98066000  1.0 -0.5254218852
O  O19  1  0.59950000  0.98066000  0.05684000  1.0 -0.5254218852
O  O20  1  0.98066000  0.05684000  0.59950000  1.0 -0.5254218852
O  O21  1  0.05684000  0.59950000  0.98066000  1.0 -0.5254218852
O  O22  1  0.01934000  0.40050000  0.94316000  1.0 -0.5254218852
O  O23  1  0.94316000  0.01934000  0.40050000  1.0 -0.5254218852
O  O24  1  0.40050000  0.94316000  0.01934000  1.0 -0.5254218852
O  O25  1  0.30147000  0.30147000  0.01715000  1.0 -0.2323087528
O  O26  1  0.30147000  0.01715000  0.30147000  1.0 -0.2323087528
O  O27  1  0.01715000  0.30147000  0.30147000  1.0 -0.2323087528
O  O28  1  0.69852000  0.69852000  0.98285000  1.0 -0.2323087528
O  O29  1  0.98285000  0.69852000  0.69852000  1.0 -0.2323087528
O  O30  1  0.69852000  0.98285000  0.69852000  1.0 -0.2323087528
