# DDEC6 charges by PACMAN v1.1 (https://github.com/mtap-research/PACMAN-charge/)
data_UMOYOM09_ASR_pacman
_symmetry_space_group_name_H-M   'P 1'
_cell_length_a   21.56670000
_cell_length_b   21.56670000
_cell_length_c   21.56670000
_cell_angle_alpha   109.20700000
_cell_angle_beta   109.20700000
_cell_angle_gamma   109.20700000
_symmetry_Int_Tables_number   1
_chemical_formula_structural   CuH10(C5O)5
_chemical_formula_sum   'Cu6 H60 C150 O30'
_cell_volume   7796.61482610
_cell_formula_units_Z   6
loop_
 _symmetry_equiv_pos_site_id
 _symmetry_equiv_pos_as_xyz
  1  'x, y, z'
loop_
 _atom_site_type_symbol
 _atom_site_label
 _atom_site_symmetry_multiplicity
 _atom_site_fract_x
 _atom_site_fract_y
 _atom_site_fract_z
 _atom_site_occupancy
 _atom_site_charge
Cu  Cu1  1  0.45104000  0.92803000  0.45104000  1.0 0.8654296164
Cu  Cu2  1  0.92803000  0.45104000  0.45104000  1.0 0.8654296164
Cu  Cu3  1  0.45104000  0.45104000  0.92803000  1.0 0.8641191487
Cu  Cu4  1  0.07197000  0.54895000  0.54895000  1.0 0.8654296164
Cu  Cu5  1  0.54895000  0.07197000  0.54895000  1.0 0.8654296164
Cu  Cu6  1  0.54895000  0.54895000  0.07197000  1.0 0.8654296164
H  H1  1  0.57250000  0.15220000  0.39300000  1.0 0.1290854938
H  H2  1  0.15220000  0.39300000  0.57250000  1.0 0.1290854938
H  H3  1  0.39300000  0.57250000  0.15220000  1.0 0.1290854938
H  H4  1  0.84780000  0.42750000  0.60700000  1.0 0.1290854938
H  H5  1  0.60700000  0.84780000  0.42750000  1.0 0.1290854938
H  H6  1  0.42750000  0.60700000  0.84780000  1.0 0.1290854938
H  H7  1  0.42750000  0.84780000  0.60700000  1.0 0.1290854938
H  H8  1  0.84780000  0.60700000  0.42750000  1.0 0.1290854938
H  H9  1  0.60700000  0.42750000  0.84780000  1.0 0.1290854938
H  H10  1  0.15220000  0.57250000  0.39300000  1.0 0.1290854938
H  H11  1  0.39300000  0.15220000  0.57250000  1.0 0.1290854938
H  H12  1  0.57250000  0.39300000  0.15220000  1.0 0.1290854938
H  H13  1  0.57190000  0.17190000  0.29500000  1.0 0.1290854938
H  H14  1  0.17190000  0.29500000  0.57190000  1.0 0.1290854938
H  H15  1  0.29500000  0.57190000  0.17190000  1.0 0.1290854938
H  H16  1  0.82810000  0.42810000  0.70500000  1.0 0.1290854938
H  H17  1  0.70500000  0.82810000  0.42810000  1.0 0.1290854938
H  H18  1  0.42810000  0.70500000  0.82810000  1.0 0.1290854938
H  H19  1  0.42810000  0.82810000  0.70500000  1.0 0.1290854938
H  H20  1  0.82810000  0.70500000  0.42810000  1.0 0.1290854938
H  H21  1  0.70500000  0.42810000  0.82810000  1.0 0.1290854938
H  H22  1  0.17190000  0.57190000  0.29500000  1.0 0.1290854938
H  H23  1  0.29500000  0.17190000  0.57190000  1.0 0.1290854938
H  H24  1  0.57190000  0.29500000  0.17190000  1.0 0.1290854938
H  H25  1  0.41450000  0.95610000  0.14770000  1.0 0.1173924483
H  H26  1  0.95610000  0.14770000  0.41450000  1.0 0.1173924483
H  H27  1  0.14770000  0.41450000  0.95610000  1.0 0.1173924483
H  H28  1  0.04390000  0.58550000  0.85230000  1.0 0.1173924483
H  H29  1  0.85230000  0.04390000  0.58550000  1.0 0.1173924483
H  H30  1  0.58550000  0.85230000  0.04390000  1.0 0.1173924483
H  H31  1  0.58550000  0.04390000  0.85230000  1.0 0.1173924483
H  H32  1  0.04390000  0.85230000  0.58550000  1.0 0.1173924483
H  H33  1  0.85230000  0.58550000  0.04390000  1.0 0.1173924483
H  H34  1  0.95610000  0.41450000  0.14770000  1.0 0.1173924483
H  H35  1  0.14770000  0.95610000  0.41450000  1.0 0.1173924483
H  H36  1  0.41450000  0.14770000  0.95610000  1.0 0.1173924483
H  H37  1  0.41660000  0.93590000  0.24680000  1.0 0.1290854938
H  H38  1  0.93590000  0.24680000  0.41660000  1.0 0.1290854938
H  H39  1  0.24680000  0.41660000  0.93590000  1.0 0.1290854938
H  H40  1  0.06410000  0.58340000  0.75320000  1.0 0.1290854938
H  H41  1  0.75320000  0.06410000  0.58340000  1.0 0.1290854938
H  H42  1  0.58340000  0.75320000  0.06410000  1.0 0.1290854938
H  H43  1  0.58340000  0.06410000  0.75320000  1.0 0.1290854938
H  H44  1  0.06410000  0.75320000  0.58340000  1.0 0.1290854938
H  H45  1  0.75320000  0.58340000  0.06410000  1.0 0.1290854938
H  H46  1  0.93590000  0.41660000  0.24680000  1.0 0.1290854938
H  H47  1  0.24680000  0.93590000  0.41660000  1.0 0.1290854938
H  H48  1  0.41660000  0.24680000  0.93590000  1.0 0.1290854938
H  H49  1  0.49660000  0.98240000  0.09600000  1.0 0.1138997235
H  H50  1  0.98240000  0.09600000  0.49660000  1.0 0.1138997235
H  H51  1  0.09600000  0.49660000  0.98240000  1.0 0.1138997235
H  H52  1  0.01760000  0.50340000  0.90400000  1.0 0.1138997235
H  H53  1  0.90400000  0.01760000  0.50340000  1.0 0.1138997235
H  H54  1  0.50340000  0.90400000  0.01760000  1.0 0.1138997235
H  H55  1  0.50340000  0.01760000  0.90400000  1.0 0.1138997235
H  H56  1  0.01760000  0.90400000  0.50340000  1.0 0.1138997235
H  H57  1  0.90400000  0.50340000  0.01760000  1.0 0.1138997235
H  H58  1  0.98240000  0.49660000  0.09600000  1.0 0.1138997235
H  H59  1  0.09600000  0.98240000  0.49660000  1.0 0.1138997235
H  H60  1  0.49660000  0.09600000  0.98240000  1.0 0.1138997235
C  C1  1  0.49661000  0.02700000  0.39456000  1.0 0.5799415424
C  C2  1  0.02700000  0.39456000  0.49661000  1.0 0.5799415424
C  C3  1  0.39456000  0.49661000  0.02700000  1.0 0.5799415424
C  C4  1  0.97300000  0.50339000  0.60544000  1.0 0.5799415424
C  C5  1  0.60544000  0.97300000  0.50339000  1.0 0.5799415424
C  C6  1  0.50339000  0.60544000  0.97300000  1.0 0.5799415424
C  C7  1  0.50339000  0.97300000  0.60544000  1.0 0.5799415424
C  C8  1  0.97300000  0.60544000  0.50339000  1.0 0.5799415424
C  C9  1  0.60544000  0.50339000  0.97300000  1.0 0.5799415424
C  C10  1  0.02700000  0.49661000  0.39456000  1.0 0.5799415424
C  C11  1  0.39456000  0.02700000  0.49661000  1.0 0.5799415424
C  C12  1  0.49661000  0.39456000  0.02700000  1.0 0.5799415424
C  C13  1  0.49414000  0.04089000  0.32986000  1.0 -0.0265807829
C  C14  1  0.04089000  0.32986000  0.49414000  1.0 -0.0265807829
C  C15  1  0.32986000  0.49414000  0.04089000  1.0 -0.0265807829
C  C16  1  0.95911000  0.50586000  0.67014000  1.0 -0.0265807829
C  C17  1  0.67014000  0.95911000  0.50586000  1.0 -0.0265807829
C  C18  1  0.50586000  0.67014000  0.95911000  1.0 -0.0265807829
C  C19  1  0.50586000  0.95911000  0.67014000  1.0 -0.0265807829
C  C20  1  0.95911000  0.67014000  0.50586000  1.0 -0.0265807829
C  C21  1  0.67014000  0.50586000  0.95911000  1.0 -0.0265807829
C  C22  1  0.04089000  0.49414000  0.32986000  1.0 -0.0265807829
C  C23  1  0.32986000  0.04089000  0.49414000  1.0 -0.0265807829
C  C24  1  0.49414000  0.32986000  0.04089000  1.0 -0.0265807829
C  C25  1  0.54101000  0.11254000  0.34379000  1.0 -0.0864520698
C  C26  1  0.11254000  0.34379000  0.54101000  1.0 -0.0864520698
C  C27  1  0.34379000  0.54101000  0.11254000  1.0 -0.0864520698
C  C28  1  0.88746000  0.45899000  0.65621000  1.0 -0.0864520698
C  C29  1  0.65621000  0.88746000  0.45899000  1.0 -0.0864520698
C  C30  1  0.45899000  0.65621000  0.88746000  1.0 -0.0864520698
C  C31  1  0.45899000  0.88746000  0.65621000  1.0 -0.0864520698
C  C32  1  0.88746000  0.65621000  0.45899000  1.0 -0.0864520698
C  C33  1  0.65621000  0.45899000  0.88746000  1.0 -0.0864520698
C  C34  1  0.11254000  0.54101000  0.34379000  1.0 -0.0864520698
C  C35  1  0.34379000  0.11254000  0.54101000  1.0 -0.0864520698
C  C36  1  0.54101000  0.34379000  0.11254000  1.0 -0.0864520698
C  C37  1  0.54043000  0.12420000  0.28498000  1.0 -0.1410335685
C  C38  1  0.12420000  0.28498000  0.54043000  1.0 -0.1410335685
C  C39  1  0.28498000  0.54043000  0.12420000  1.0 -0.1410335685
C  C40  1  0.87580000  0.45957000  0.71502000  1.0 -0.1410335685
C  C41  1  0.71502000  0.87580000  0.45957000  1.0 -0.1410335685
C  C42  1  0.45957000  0.71502000  0.87580000  1.0 -0.1410335685
C  C43  1  0.45957000  0.87580000  0.71502000  1.0 -0.1410335685
C  C44  1  0.87580000  0.71502000  0.45957000  1.0 -0.1410335685
C  C45  1  0.71502000  0.45957000  0.87580000  1.0 -0.1410335685
C  C46  1  0.12420000  0.54043000  0.28498000  1.0 -0.1410335685
C  C47  1  0.28498000  0.12420000  0.54043000  1.0 -0.1410335685
C  C48  1  0.54043000  0.28498000  0.12420000  1.0 -0.1410335685
C  C49  1  0.49428000  0.06710000  0.21144000  1.0 0.0955358128
C  C50  1  0.06710000  0.21144000  0.49428000  1.0 0.0945955803
C  C51  1  0.21144000  0.49428000  0.06710000  1.0 0.0945955803
C  C52  1  0.93290000  0.50572000  0.78856000  1.0 0.0955358128
C  C53  1  0.78856000  0.93290000  0.50572000  1.0 0.0955358128
C  C54  1  0.50572000  0.78856000  0.93290000  1.0 0.0955358128
C  C55  1  0.50572000  0.93290000  0.78856000  1.0 0.0955358128
C  C56  1  0.93290000  0.78856000  0.50572000  1.0 0.0955358128
C  C57  1  0.78856000  0.50572000  0.93290000  1.0 0.0955358128
C  C58  1  0.06710000  0.49428000  0.21144000  1.0 0.0945955803
C  C59  1  0.21144000  0.06710000  0.49428000  1.0 0.0955358128
C  C60  1  0.49428000  0.21144000  0.06710000  1.0 0.0945955803
C  C61  1  0.44666000  0.99545000  0.19703000  1.0 -0.1487520335
C  C62  1  0.99545000  0.19703000  0.44666000  1.0 -0.1487520335
C  C63  1  0.19703000  0.44666000  0.99545000  1.0 -0.1487520335
C  C64  1  0.00455000  0.55334000  0.80297000  1.0 -0.1487520335
C  C65  1  0.80297000  0.00455000  0.55334000  1.0 -0.1487520335
C  C66  1  0.55334000  0.80297000  0.00455000  1.0 -0.1487520335
C  C67  1  0.55334000  0.00455000  0.80297000  1.0 -0.1487520335
C  C68  1  0.00455000  0.80297000  0.55334000  1.0 -0.1487520335
C  C69  1  0.80297000  0.55334000  0.00455000  1.0 -0.1487520335
C  C70  1  0.99545000  0.44666000  0.19703000  1.0 -0.1487520335
C  C71  1  0.19703000  0.99545000  0.44666000  1.0 -0.1487520335
C  C72  1  0.44666000  0.19703000  0.99545000  1.0 -0.1487520335
C  C73  1  0.44782000  0.98363000  0.25662000  1.0 -0.0829656526
C  C74  1  0.98363000  0.25662000  0.44782000  1.0 -0.0829656526
C  C75  1  0.25662000  0.44782000  0.98363000  1.0 -0.0829656526
C  C76  1  0.01637000  0.55218000  0.74338000  1.0 -0.0829656526
C  C77  1  0.74338000  0.01637000  0.55218000  1.0 -0.0829656526
C  C78  1  0.55218000  0.74338000  0.01637000  1.0 -0.0829656526
C  C79  1  0.55218000  0.01637000  0.74338000  1.0 -0.0829656526
C  C80  1  0.01637000  0.74338000  0.55218000  1.0 -0.0829656526
C  C81  1  0.74338000  0.55218000  0.01637000  1.0 -0.0829656526
C  C82  1  0.98363000  0.44782000  0.25662000  1.0 -0.0829656526
C  C83  1  0.25662000  0.98363000  0.44782000  1.0 -0.0829656526
C  C84  1  0.44782000  0.25662000  0.98363000  1.0 -0.0829656526
C  C85  1  0.49447000  0.07666000  0.14586000  1.0 -0.0122895077
C  C86  1  0.07666000  0.14586000  0.49447000  1.0 -0.0122895077
C  C87  1  0.14586000  0.49447000  0.07666000  1.0 -0.0122895077
C  C88  1  0.92334000  0.50553000  0.85414000  1.0 -0.0122895077
C  C89  1  0.85414000  0.92334000  0.50553000  1.0 -0.0122895077
C  C90  1  0.50553000  0.85414000  0.92334000  1.0 -0.0122895077
C  C91  1  0.50553000  0.92334000  0.85414000  1.0 -0.0122895077
C  C92  1  0.92334000  0.85414000  0.50553000  1.0 -0.0122895077
C  C93  1  0.85414000  0.50553000  0.92334000  1.0 -0.0122895077
C  C94  1  0.07666000  0.49447000  0.14586000  1.0 -0.0122895077
C  C95  1  0.14586000  0.07666000  0.49447000  1.0 -0.0122895077
C  C96  1  0.49447000  0.14586000  0.07666000  1.0 -0.0122895077
C  C97  1  0.49656000  0.02374000  0.09130000  1.0 -0.190427056
C  C98  1  0.02374000  0.09130000  0.49656000  1.0 -0.190427056
C  C99  1  0.09130000  0.49656000  0.02374000  1.0 -0.190427056
C  C100  1  0.97626000  0.50344000  0.90870000  1.0 -0.190427056
C  C101  1  0.90870000  0.97626000  0.50344000  1.0 -0.190427056
C  C102  1  0.50344000  0.90870000  0.97626000  1.0 -0.190427056
C  C103  1  0.50344000  0.97626000  0.90870000  1.0 -0.190427056
C  C104  1  0.97626000  0.90870000  0.50344000  1.0 -0.190427056
C  C105  1  0.90870000  0.50344000  0.97626000  1.0 -0.190427056
C  C106  1  0.02374000  0.49656000  0.09130000  1.0 -0.190427056
C  C107  1  0.09130000  0.02374000  0.49656000  1.0 -0.190427056
C  C108  1  0.49656000  0.09130000  0.02374000  1.0 -0.190427056
C  C109  1  0.49862000  0.02874000  0.02874000  1.0 0.0780508098
C  C110  1  0.02874000  0.02874000  0.49862000  1.0 0.0780508098
C  C111  1  0.02874000  0.49862000  0.02874000  1.0 0.0780508098
C  C112  1  0.97126000  0.50138000  0.97126000  1.0 0.0780508098
C  C113  1  0.97126000  0.97126000  0.50138000  1.0 0.0780508098
C  C114  1  0.50138000  0.97126000  0.97126000  1.0 0.0780508098
C  C115  1  0.49260000  0.13795000  0.13795000  1.0 0.1917637551
C  C116  1  0.13795000  0.13795000  0.49260000  1.0 0.1917637551
C  C117  1  0.13795000  0.49260000  0.13795000  1.0 0.1917637551
C  C118  1  0.86205000  0.50740000  0.86205000  1.0 0.1917637551
C  C119  1  0.86205000  0.86205000  0.50740000  1.0 0.1917637551
C  C120  1  0.50740000  0.86205000  0.86205000  1.0 0.1917637551
C  C121  1  0.41726000  0.18282000  0.18282000  1.0 0.2490609104
C  C122  1  0.18282000  0.18282000  0.41726000  1.0 0.2490609104
C  C123  1  0.18282000  0.41726000  0.18282000  1.0 0.2490609104
C  C124  1  0.81718000  0.58274000  0.81718000  1.0 0.2490609104
C  C125  1  0.81718000  0.81718000  0.58274000  1.0 0.2490609104
C  C126  1  0.58274000  0.81718000  0.81718000  1.0 0.2490609104
C  C127  1  0.34770000  0.15220000  0.11200000  1.0 -0.1410335685
C  C128  1  0.15220000  0.11200000  0.34770000  1.0 -0.1410335685
C  C129  1  0.11200000  0.34770000  0.15220000  1.0 -0.1410335685
C  C130  1  0.84780000  0.65230000  0.88800000  1.0 -0.1410335685
C  C131  1  0.88800000  0.84780000  0.65230000  1.0 -0.1410335685
C  C132  1  0.65230000  0.88800000  0.84780000  1.0 -0.1410335685
C  C133  1  0.65230000  0.84780000  0.88800000  1.0 -0.1410335685
C  C134  1  0.84780000  0.88800000  0.65230000  1.0 -0.1410335685
C  C135  1  0.88800000  0.65230000  0.84780000  1.0 -0.1410335685
C  C136  1  0.15220000  0.34770000  0.11200000  1.0 -0.1410335685
C  C137  1  0.11200000  0.15220000  0.34770000  1.0 -0.1410335685
C  C138  1  0.34770000  0.11200000  0.15220000  1.0 -0.1410335685
C  C139  1  0.43080000  0.23340000  0.26090000  1.0 0.0376541772
C  C140  1  0.23340000  0.26090000  0.43080000  1.0 0.0376541772
C  C141  1  0.26090000  0.43080000  0.23340000  1.0 0.0376541772
C  C142  1  0.76660000  0.56920000  0.73910000  1.0 0.0376541772
C  C143  1  0.73910000  0.76660000  0.56920000  1.0 0.0376541772
C  C144  1  0.56920000  0.73910000  0.76660000  1.0 0.0376541772
C  C145  1  0.56920000  0.76660000  0.73910000  1.0 0.0376541772
C  C146  1  0.76660000  0.73910000  0.56920000  1.0 0.0376541772
C  C147  1  0.73910000  0.56920000  0.76660000  1.0 0.0376541772
C  C148  1  0.23340000  0.43080000  0.26090000  1.0 0.0376541772
C  C149  1  0.26090000  0.23340000  0.43080000  1.0 0.0376541772
C  C150  1  0.43080000  0.26090000  0.23340000  1.0 0.0376541772
O  O1  1  0.45532000  0.95979000  0.37685000  1.0 -0.5235837932
O  O2  1  0.95979000  0.37685000  0.45532000  1.0 -0.5235837932
O  O3  1  0.37685000  0.45532000  0.95979000  1.0 -0.5235837932
O  O4  1  0.04021000  0.54468000  0.62315000  1.0 -0.5235837932
O  O5  1  0.62315000  0.04021000  0.54468000  1.0 -0.5235837932
O  O6  1  0.54468000  0.62315000  0.04021000  1.0 -0.5235837932
O  O7  1  0.54468000  0.04021000  0.62315000  1.0 -0.5235837932
O  O8  1  0.04021000  0.62315000  0.54468000  1.0 -0.5235837932
O  O9  1  0.62315000  0.54468000  0.04021000  1.0 -0.5235837932
O  O10  1  0.95979000  0.45532000  0.37685000  1.0 -0.5235837932
O  O11  1  0.37685000  0.95979000  0.45532000  1.0 -0.5235837932
O  O12  1  0.45532000  0.37685000  0.95979000  1.0 -0.5235837932
O  O13  1  0.53832000  0.08225000  0.45954000  1.0 -0.5086843903
O  O14  1  0.08225000  0.45954000  0.53832000  1.0 -0.5086843903
O  O15  1  0.45954000  0.53832000  0.08225000  1.0 -0.5086843903
O  O16  1  0.91775000  0.46168000  0.54046000  1.0 -0.5086843903
O  O17  1  0.54046000  0.91775000  0.46168000  1.0 -0.5086843903
O  O18  1  0.46168000  0.54046000  0.91775000  1.0 -0.5086843903
O  O19  1  0.46168000  0.91775000  0.54046000  1.0 -0.5086843903
O  O20  1  0.91775000  0.54046000  0.46168000  1.0 -0.5086843903
O  O21  1  0.54046000  0.46168000  0.91775000  1.0 -0.5086843903
O  O22  1  0.08225000  0.53832000  0.45954000  1.0 -0.5086843903
O  O23  1  0.45954000  0.08225000  0.53832000  1.0 -0.5086843903
O  O24  1  0.53832000  0.45954000  0.08225000  1.0 -0.5086843903
O  O25  1  0.49151000  0.19347000  0.19347000  1.0 -0.3232153838
O  O26  1  0.19347000  0.19347000  0.49151000  1.0 -0.3232153838
O  O27  1  0.19347000  0.49151000  0.19347000  1.0 -0.3232153838
O  O28  1  0.80653000  0.50849000  0.80653000  1.0 -0.3232153838
O  O29  1  0.80653000  0.80653000  0.50849000  1.0 -0.3232153838
O  O30  1  0.50849000  0.80653000  0.80653000  1.0 -0.3232153838
