# DDEC6 charges by PACMAN v1.1 (https://github.com/mtap-research/PACMAN-charge/)
data_UMOYOM02_ASR_pacman
_symmetry_space_group_name_H-M   'P 1'
_cell_length_a   21.54530000
_cell_length_b   21.54530000
_cell_length_c   21.54530000
_cell_angle_alpha   109.93700000
_cell_angle_beta   109.93700000
_cell_angle_gamma   109.93700000
_symmetry_Int_Tables_number   1
_chemical_formula_structural   CuH10C26O5
_chemical_formula_sum   'Cu6 H60 C156 O30'
_cell_volume   7563.34376539
_cell_formula_units_Z   6
loop_
 _symmetry_equiv_pos_site_id
 _symmetry_equiv_pos_as_xyz
  1  'x, y, z'
loop_
 _atom_site_type_symbol
 _atom_site_label
 _atom_site_symmetry_multiplicity
 _atom_site_fract_x
 _atom_site_fract_y
 _atom_site_fract_z
 _atom_site_occupancy
 _atom_site_charge
Cu  Cu1  1  0.94864000  0.42626000  0.94864000  1.0 0.8666805396
Cu  Cu2  1  0.42626000  0.94865000  0.94864000  1.0 0.8666805396
Cu  Cu3  1  0.94864000  0.94865000  0.42626000  1.0 0.8666805396
Cu  Cu4  1  0.57374000  0.05135000  0.05135000  1.0 0.8666805396
Cu  Cu5  1  0.05135000  0.57374000  0.05135000  1.0 0.8666805396
Cu  Cu6  1  0.05135000  0.05135000  0.57374000  1.0 0.8666805396
H  H1  1  0.10220000  0.34340000  0.92760000  1.0 0.1292176285
H  H2  1  0.34340000  0.92760000  0.10220000  1.0 0.1292176285
H  H3  1  0.92760000  0.10220000  0.34340000  1.0 0.1292176285
H  H4  1  0.65660000  0.89780000  0.07240000  1.0 0.1292176285
H  H5  1  0.07240000  0.65660000  0.89780000  1.0 0.1292176285
H  H6  1  0.89780000  0.07240000  0.65660000  1.0 0.1292176285
H  H7  1  0.89780000  0.65660000  0.07240000  1.0 0.1292176285
H  H8  1  0.65660000  0.07240000  0.89780000  1.0 0.1292176285
H  H9  1  0.07240000  0.89780000  0.65660000  1.0 0.1292176285
H  H10  1  0.34340000  0.10220000  0.92760000  1.0 0.1292176285
H  H11  1  0.92760000  0.34340000  0.10220000  1.0 0.1292176285
H  H12  1  0.10220000  0.92760000  0.34340000  1.0 0.1292176285
H  H13  1  0.20090000  0.32290000  0.92680000  1.0 0.1195939534
H  H14  1  0.32290000  0.92680000  0.20090000  1.0 0.1195939534
H  H15  1  0.92680000  0.20090000  0.32290000  1.0 0.1195939534
H  H16  1  0.67710000  0.79910000  0.07320000  1.0 0.1195939534
H  H17  1  0.07320000  0.67710000  0.79910000  1.0 0.1195939534
H  H18  1  0.79910000  0.07320000  0.67710000  1.0 0.1195939534
H  H19  1  0.79910000  0.67710000  0.07320000  1.0 0.1195939534
H  H20  1  0.67710000  0.07320000  0.79910000  1.0 0.1195939534
H  H21  1  0.07320000  0.79910000  0.67710000  1.0 0.1195939534
H  H22  1  0.32290000  0.20090000  0.92680000  1.0 0.1195939534
H  H23  1  0.92680000  0.32290000  0.20090000  1.0 0.1195939534
H  H24  1  0.20090000  0.92680000  0.32290000  1.0 0.1195939534
H  H25  1  0.35800000  0.54810000  0.09050000  1.0 0.1195939534
H  H26  1  0.54810000  0.09050000  0.35800000  1.0 0.1195939534
H  H27  1  0.09050000  0.35800000  0.54810000  1.0 0.1195939534
H  H28  1  0.45190000  0.64200000  0.90950000  1.0 0.1195939534
H  H29  1  0.90950000  0.45190000  0.64200000  1.0 0.1195939534
H  H30  1  0.64200000  0.90950000  0.45190000  1.0 0.1195939534
H  H31  1  0.64200000  0.45190000  0.90950000  1.0 0.1195939534
H  H32  1  0.45190000  0.90950000  0.64200000  1.0 0.1195939534
H  H33  1  0.90950000  0.64200000  0.45190000  1.0 0.1195939534
H  H34  1  0.54810000  0.35800000  0.09050000  1.0 0.1195939534
H  H35  1  0.09050000  0.54810000  0.35800000  1.0 0.1195939534
H  H36  1  0.35800000  0.09050000  0.54810000  1.0 0.1195939534
H  H37  1  0.25770000  0.56990000  0.08800000  1.0 0.1195939534
H  H38  1  0.56990000  0.08800000  0.25770000  1.0 0.1195939534
H  H39  1  0.08800000  0.25770000  0.56990000  1.0 0.1195939534
H  H40  1  0.43010000  0.74230000  0.91200000  1.0 0.1195939534
H  H41  1  0.91200000  0.43010000  0.74230000  1.0 0.1195939534
H  H42  1  0.74230000  0.91200000  0.43010000  1.0 0.1195939534
H  H43  1  0.74230000  0.43010000  0.91200000  1.0 0.1195939534
H  H44  1  0.43010000  0.91200000  0.74230000  1.0 0.1195939534
H  H45  1  0.91200000  0.74230000  0.43010000  1.0 0.1195939534
H  H46  1  0.56990000  0.25770000  0.08800000  1.0 0.1195939534
H  H47  1  0.08800000  0.56990000  0.25770000  1.0 0.1195939534
H  H48  1  0.25770000  0.08800000  0.56990000  1.0 0.1195939534
H  H49  1  0.40560000  0.51970000  0.00590000  1.0 0.1091402838
H  H50  1  0.51970000  0.00590000  0.40560000  1.0 0.1091402838
H  H51  1  0.00590000  0.40560000  0.51970000  1.0 0.1091402838
H  H52  1  0.48030000  0.59440000  0.99410000  1.0 0.1091402838
H  H53  1  0.99410000  0.48030000  0.59440000  1.0 0.1091402838
H  H54  1  0.59440000  0.99410000  0.48030000  1.0 0.1091402838
H  H55  1  0.59440000  0.48030000  0.99410000  1.0 0.1091402838
H  H56  1  0.48030000  0.99410000  0.59440000  1.0 0.1091402838
H  H57  1  0.99410000  0.59440000  0.48030000  1.0 0.1091402838
H  H58  1  0.51970000  0.40560000  0.00590000  1.0 0.1091402838
H  H59  1  0.00590000  0.51970000  0.40560000  1.0 0.1091402838
H  H60  1  0.40560000  0.00590000  0.51970000  1.0 0.1091402838
C  C1  1  0.10596000  0.47305000  0.00470000  1.0 0.5804437766
C  C2  1  0.47305000  0.00470000  0.10596000  1.0 0.5804437766
C  C3  1  0.00470000  0.10596000  0.47305000  1.0 0.5804437766
C  C4  1  0.52695000  0.89404000  0.99530000  1.0 0.5804437766
C  C5  1  0.99530000  0.52695000  0.89404000  1.0 0.5804437766
C  C6  1  0.89404000  0.99530000  0.52695000  1.0 0.5804437766
C  C7  1  0.89404000  0.52695000  0.99530000  1.0 0.5804437766
C  C8  1  0.52695000  0.99530000  0.89404000  1.0 0.5804437766
C  C9  1  0.99530000  0.89404000  0.52695000  1.0 0.5804437766
C  C10  1  0.47305000  0.10596000  0.00470000  1.0 0.5804437766
C  C11  1  0.00470000  0.47305000  0.10596000  1.0 0.5804437766
C  C12  1  0.10596000  0.00470000  0.47305000  1.0 0.5804437766
C  C13  1  0.17067000  0.45962000  0.00799000  1.0 -0.025185837
C  C14  1  0.45962000  0.00799000  0.17067000  1.0 -0.025185837
C  C15  1  0.00799000  0.17067000  0.45962000  1.0 -0.0240757005
C  C16  1  0.54038000  0.82933000  0.99201000  1.0 -0.0240757005
C  C17  1  0.99201000  0.54038000  0.82933000  1.0 -0.0240757005
C  C18  1  0.82933000  0.99201000  0.54038000  1.0 -0.0240757005
C  C19  1  0.82933000  0.54038000  0.99201000  1.0 -0.0240757005
C  C20  1  0.54038000  0.99201000  0.82933000  1.0 -0.0240757005
C  C21  1  0.99201000  0.82933000  0.54038000  1.0 -0.025185837
C  C22  1  0.45962000  0.17067000  0.00799000  1.0 -0.025185837
C  C23  1  0.00799000  0.45962000  0.17067000  1.0 -0.025185837
C  C24  1  0.17067000  0.00799000  0.45962000  1.0 -0.025185837
C  C25  1  0.15413000  0.38525000  0.96015000  1.0 -0.0870358176
C  C26  1  0.38525000  0.96015000  0.15413000  1.0 -0.0870358176
C  C27  1  0.96015000  0.15413000  0.38525000  1.0 -0.0870358176
C  C28  1  0.61475000  0.84587000  0.03985000  1.0 -0.0870358176
C  C29  1  0.03985000  0.61475000  0.84587000  1.0 -0.0870358176
C  C30  1  0.84587000  0.03985000  0.61475000  1.0 -0.0870358176
C  C31  1  0.84587000  0.61475000  0.03985000  1.0 -0.0870358176
C  C32  1  0.61475000  0.03985000  0.84587000  1.0 -0.0870358176
C  C33  1  0.03985000  0.84587000  0.61475000  1.0 -0.0870358176
C  C34  1  0.38525000  0.15413000  0.96015000  1.0 -0.0870358176
C  C35  1  0.96015000  0.38525000  0.15413000  1.0 -0.0870358176
C  C36  1  0.15413000  0.96015000  0.38525000  1.0 -0.0870358176
C  C37  1  0.21282000  0.37291000  0.96039000  1.0 -0.1440322687
C  C38  1  0.37291000  0.96039000  0.21282000  1.0 -0.1440322687
C  C39  1  0.96039000  0.21282000  0.37291000  1.0 -0.1440322687
C  C40  1  0.62709000  0.78718000  0.03961000  1.0 -0.1440322687
C  C41  1  0.03961000  0.62709000  0.78718000  1.0 -0.1440322687
C  C42  1  0.78718000  0.03961000  0.62709000  1.0 -0.1440322687
C  C43  1  0.78718000  0.62709000  0.03961000  1.0 -0.1440322687
C  C44  1  0.62709000  0.03961000  0.78718000  1.0 -0.1502405272
C  C45  1  0.03961000  0.78718000  0.62709000  1.0 -0.1502405272
C  C46  1  0.37291000  0.21282000  0.96039000  1.0 -0.1440322687
C  C47  1  0.96039000  0.37291000  0.21282000  1.0 -0.1440322687
C  C48  1  0.21282000  0.96039000  0.37291000  1.0 -0.1440322687
C  C49  1  0.28933000  0.43294000  0.00931000  1.0 0.0860191295
C  C50  1  0.43294000  0.00931000  0.28933000  1.0 0.0860191295
C  C51  1  0.00931000  0.28933000  0.43294000  1.0 0.0789166348
C  C52  1  0.56706000  0.71067000  0.99069000  1.0 0.0860191295
C  C53  1  0.99069000  0.56706000  0.71067000  1.0 0.0860191295
C  C54  1  0.71067000  0.99069000  0.56706000  1.0 0.0860191295
C  C55  1  0.71067000  0.56706000  0.99069000  1.0 0.0860191295
C  C56  1  0.56706000  0.99069000  0.71067000  1.0 0.0860191295
C  C57  1  0.99069000  0.71067000  0.56706000  1.0 0.0860191295
C  C58  1  0.43294000  0.28933000  0.00931000  1.0 0.0860191295
C  C59  1  0.00931000  0.43294000  0.28933000  1.0 0.0789166348
C  C60  1  0.28933000  0.00931000  0.43294000  1.0 0.0860191295
C  C61  1  0.30592000  0.50659000  0.05701000  1.0 -0.1502405272
C  C62  1  0.50659000  0.05701000  0.30592000  1.0 -0.1502405272
C  C63  1  0.05701000  0.30592000  0.50659000  1.0 -0.1502405272
C  C64  1  0.49341000  0.69408000  0.94299000  1.0 -0.1502405272
C  C65  1  0.94299000  0.49341000  0.69408000  1.0 -0.1502405272
C  C66  1  0.69408000  0.94299000  0.49341000  1.0 -0.1502405272
C  C67  1  0.69408000  0.49341000  0.94299000  1.0 -0.1502405272
C  C68  1  0.49341000  0.94299000  0.69408000  1.0 -0.1502405272
C  C69  1  0.94299000  0.69408000  0.49341000  1.0 -0.1502405272
C  C70  1  0.50659000  0.30592000  0.05701000  1.0 -0.1502405272
C  C71  1  0.05701000  0.50659000  0.30592000  1.0 -0.1502405272
C  C72  1  0.30592000  0.05701000  0.50659000  1.0 -0.1502405272
C  C73  1  0.24611000  0.51957000  0.05575000  1.0 -0.0870358176
C  C74  1  0.51957000  0.05575000  0.24611000  1.0 -0.0870358176
C  C75  1  0.05575000  0.24611000  0.51957000  1.0 -0.0870358176
C  C76  1  0.48043000  0.75389000  0.94425000  1.0 -0.0870358176
C  C77  1  0.94425000  0.48043000  0.75389000  1.0 -0.0870358176
C  C78  1  0.75389000  0.94425000  0.48043000  1.0 -0.0870358176
C  C79  1  0.75389000  0.48043000  0.94425000  1.0 -0.0870358176
C  C80  1  0.48043000  0.94425000  0.75389000  1.0 -0.0870358176
C  C81  1  0.94425000  0.75389000  0.48043000  1.0 -0.0870358176
C  C82  1  0.51957000  0.24611000  0.05575000  1.0 -0.0870358176
C  C83  1  0.05575000  0.51957000  0.24611000  1.0 -0.0870358176
C  C84  1  0.24611000  0.05575000  0.51957000  1.0 -0.0870358176
C  C85  1  0.35378000  0.42285000  0.00733000  1.0 -0.0073265198
C  C86  1  0.42285000  0.00733000  0.35378000  1.0 -0.0073265198
C  C87  1  0.00733000  0.35378000  0.42285000  1.0 -0.0073265198
C  C88  1  0.57715000  0.64622000  0.99267000  1.0 -0.0073265198
C  C89  1  0.99267000  0.57715000  0.64622000  1.0 -0.0073265198
C  C90  1  0.64622000  0.99267000  0.57715000  1.0 -0.0073265198
C  C91  1  0.64622000  0.57715000  0.99267000  1.0 -0.0073265198
C  C92  1  0.57715000  0.99267000  0.64622000  1.0 -0.0073265198
C  C93  1  0.99267000  0.64622000  0.57715000  1.0 -0.0073265198
C  C94  1  0.42285000  0.35378000  0.00733000  1.0 -0.0073265198
C  C95  1  0.00733000  0.42285000  0.35378000  1.0 -0.0073265198
C  C96  1  0.35378000  0.00733000  0.42285000  1.0 -0.0073265198
C  C97  1  0.40960000  0.47700000  0.00530000  1.0 -0.1938861862
C  C98  1  0.47700000  0.00530000  0.40960000  1.0 -0.1938861862
C  C99  1  0.00530000  0.40960000  0.47700000  1.0 -0.1938861862
C  C100  1  0.52300000  0.59040000  0.99470000  1.0 -0.1938861862
C  C101  1  0.99470000  0.52300000  0.59040000  1.0 -0.1938861862
C  C102  1  0.59040000  0.99470000  0.52300000  1.0 -0.1938861862
C  C103  1  0.59040000  0.52300000  0.99470000  1.0 -0.1938861862
C  C104  1  0.52300000  0.99470000  0.59040000  1.0 -0.1938861862
C  C105  1  0.99470000  0.59040000  0.52300000  1.0 -0.1938861862
C  C106  1  0.47700000  0.40960000  0.00530000  1.0 -0.1938861862
C  C107  1  0.00530000  0.47700000  0.40960000  1.0 -0.1938861862
C  C108  1  0.40960000  0.00530000  0.47700000  1.0 -0.1938861862
C  C109  1  0.47166000  0.47166000  0.00258000  1.0 0.0789166348
C  C110  1  0.47166000  0.00258000  0.47166000  1.0 0.0789166348
C  C111  1  0.00258000  0.47166000  0.47166000  1.0 0.0789166348
C  C112  1  0.52834000  0.52834000  0.99742000  1.0 0.0789166348
C  C113  1  0.99742000  0.52834000  0.52834000  1.0 0.0789166348
C  C114  1  0.52834000  0.99742000  0.52834000  1.0 0.0789166348
C  C115  1  0.36110000  0.36110000  0.00980000  1.0 0.1828148186
C  C116  1  0.36110000  0.00980000  0.36110000  1.0 0.1828148186
C  C117  1  0.00980000  0.36110000  0.36110000  1.0 0.1828148186
C  C118  1  0.63890000  0.63890000  0.99020000  1.0 0.1828148186
C  C119  1  0.99020000  0.63890000  0.63890000  1.0 0.1828148186
C  C120  1  0.63890000  0.99020000  0.63890000  1.0 0.1828148186
C  C121  1  0.31330000  0.33390000  0.09080000  1.0 0.1292176285
C  C122  1  0.33390000  0.09080000  0.31330000  1.0 0.1292176285
C  C123  1  0.09080000  0.31330000  0.33390000  1.0 0.1292176285
C  C124  1  0.66610000  0.68670000  0.90920000  1.0 0.1292176285
C  C125  1  0.90920000  0.66610000  0.68670000  1.0 0.1292176285
C  C126  1  0.68670000  0.90920000  0.66610000  1.0 0.1292176285
C  C127  1  0.68670000  0.66610000  0.90920000  1.0 0.1292176285
C  C128  1  0.66610000  0.90920000  0.68670000  1.0 0.1292176285
C  C129  1  0.90920000  0.68670000  0.66610000  1.0 0.1292176285
C  C130  1  0.33390000  0.31330000  0.09080000  1.0 0.1292176285
C  C131  1  0.09080000  0.33390000  0.31330000  1.0 0.1292176285
C  C132  1  0.31330000  0.09080000  0.33390000  1.0 0.1292176285
C  C133  1  0.23190000  0.25960000  0.06470000  1.0 0.0087057531
C  C134  1  0.25960000  0.06470000  0.23190000  1.0 0.0087057531
C  C135  1  0.06470000  0.23190000  0.25960000  1.0 0.0087057531
C  C136  1  0.74040000  0.76810000  0.93530000  1.0 0.0087057531
C  C137  1  0.93530000  0.74040000  0.76810000  1.0 0.0087057531
C  C138  1  0.76810000  0.93530000  0.74040000  1.0 0.0087057531
C  C139  1  0.76810000  0.74040000  0.93530000  1.0 0.0087057531
C  C140  1  0.74040000  0.93530000  0.76810000  1.0 0.0087057531
C  C141  1  0.93530000  0.76810000  0.74040000  1.0 0.0087057531
C  C142  1  0.25960000  0.23190000  0.06470000  1.0 0.0087057531
C  C143  1  0.06470000  0.25960000  0.23190000  1.0 0.0087057531
C  C144  1  0.23190000  0.06470000  0.25960000  1.0 0.0087057531
C  C145  1  0.35680000  0.39340000  0.16120000  1.0 -0.1614537158
C  C146  1  0.39340000  0.16120000  0.35680000  1.0 -0.1614537158
C  C147  1  0.16120000  0.35680000  0.39340000  1.0 -0.1614537158
C  C148  1  0.60660000  0.64320000  0.83880000  1.0 -0.1614537158
C  C149  1  0.83880000  0.60660000  0.64320000  1.0 -0.1614537158
C  C150  1  0.64320000  0.83880000  0.60660000  1.0 -0.1614537158
C  C151  1  0.64320000  0.60660000  0.83880000  1.0 -0.1614537158
C  C152  1  0.60660000  0.83880000  0.64320000  1.0 -0.1614537158
C  C153  1  0.83880000  0.64320000  0.60660000  1.0 -0.1614537158
C  C154  1  0.39340000  0.35680000  0.16120000  1.0 -0.1614537158
C  C155  1  0.16120000  0.39340000  0.35680000  1.0 -0.1614537158
C  C156  1  0.35680000  0.16120000  0.39340000  1.0 -0.1614537158
O  O1  1  0.12570000  0.54184000  0.04766000  1.0 -0.525377204
O  O2  1  0.54184000  0.04766000  0.12570000  1.0 -0.525377204
O  O3  1  0.04766000  0.12570000  0.54184000  1.0 -0.525377204
O  O4  1  0.45816000  0.87430000  0.95234000  1.0 -0.525377204
O  O5  1  0.95234000  0.45816000  0.87430000  1.0 -0.525377204
O  O6  1  0.87430000  0.95234000  0.45816000  1.0 -0.525377204
O  O7  1  0.87430000  0.45816000  0.95234000  1.0 -0.525377204
O  O8  1  0.45816000  0.95234000  0.87430000  1.0 -0.525377204
O  O9  1  0.95234000  0.87430000  0.45816000  1.0 -0.525377204
O  O10  1  0.54184000  0.12570000  0.04766000  1.0 -0.525377204
O  O11  1  0.04766000  0.54184000  0.12570000  1.0 -0.525377204
O  O12  1  0.12570000  0.04766000  0.54184000  1.0 -0.525377204
O  O13  1  0.03756000  0.41516000  0.95969000  1.0 -0.5245267381
O  O14  1  0.41516000  0.95969000  0.03756000  1.0 -0.525377204
O  O15  1  0.95969000  0.03756000  0.41516000  1.0 -0.525377204
O  O16  1  0.58484000  0.96244000  0.04031000  1.0 -0.525377204
O  O17  1  0.04031000  0.58484000  0.96244000  1.0 -0.5245267381
O  O18  1  0.96244000  0.04031000  0.58484000  1.0 -0.5245267381
O  O19  1  0.96244000  0.58484000  0.04031000  1.0 -0.525377204
O  O20  1  0.58484000  0.04031000  0.96244000  1.0 -0.525377204
O  O21  1  0.04031000  0.96244000  0.58484000  1.0 -0.525377204
O  O22  1  0.41516000  0.03756000  0.95969000  1.0 -0.525377204
O  O23  1  0.95969000  0.41516000  0.03756000  1.0 -0.5245267381
O  O24  1  0.03756000  0.95969000  0.41516000  1.0 -0.525377204
O  O25  1  0.30732000  0.30732000  0.01327000  1.0 -0.1150867274
O  O26  1  0.30731000  0.01327000  0.30732000  1.0 -0.1150867274
O  O27  1  0.01327000  0.30732000  0.30732000  1.0 -0.1133790468
O  O28  1  0.69268000  0.69268000  0.98673000  1.0 -0.1150867274
O  O29  1  0.98673000  0.69268000  0.69268000  1.0 -0.1150867274
O  O30  1  0.69268000  0.98673000  0.69268000  1.0 -0.1150867274
