# DDEC6 charges by PACMAN v1.1 (https://github.com/mtap-research/PACMAN-charge/)
data_UNECOH_FSR_pacman
_symmetry_space_group_name_H-M   'P 1'
_cell_length_a   16.99370000
_cell_length_b   16.99370000
_cell_length_c   16.99370000
_cell_angle_alpha   105.97100000
_cell_angle_beta   105.97100000
_cell_angle_gamma   116.72500000
_symmetry_Int_Tables_number   1
_chemical_formula_structural   ZnCo2H19C21NO16
_chemical_formula_sum   'Zn4 Co8 H76 C84 N4 O64'
_cell_volume   3731.83825535
_cell_formula_units_Z   4
loop_
 _symmetry_equiv_pos_site_id
 _symmetry_equiv_pos_as_xyz
  1  'x, y, z'
loop_
 _atom_site_type_symbol
 _atom_site_label
 _atom_site_symmetry_multiplicity
 _atom_site_fract_x
 _atom_site_fract_y
 _atom_site_fract_z
 _atom_site_occupancy
 _atom_site_charge
Zn  Zn1  1  0.84860000  0.66040000  0.50000000  1.0 0.926133943
Zn  Zn2  1  0.16040000  0.34860000  0.50000000  1.0 0.926133943
Zn  Zn3  1  0.34860000  0.84860000  0.18820000  1.0 0.926133943
Zn  Zn4  1  0.66040000  0.16040000  0.81180000  1.0 0.926133943
Co  Co1  1  0.90841000  0.76960000  0.37669000  1.0 0.8796741127
Co  Co2  1  0.39291000  0.53172000  0.62331000  1.0 0.8796741127
Co  Co3  1  0.53172000  0.90841000  0.13881000  1.0 0.8796741127
Co  Co4  1  0.76960000  0.39291000  0.86119000  1.0 0.8796741127
Co  Co5  1  0.40841000  0.03172000  0.13881000  1.0 0.8796741127
Co  Co6  1  0.89291000  0.26960000  0.86119000  1.0 0.8796741127
Co  Co7  1  0.03172000  0.89291000  0.62331000  1.0 0.8746792946
Co  Co8  1  0.26960000  0.40841000  0.37669000  1.0 0.8796741127
H  H1  1  0.09900000  0.06530000  0.39310000  1.0 0.1300701349
H  H2  1  0.67220000  0.70590000  0.60690000  1.0 0.1300701349
H  H3  1  0.70590000  0.09900000  0.03370000  1.0 0.1300701349
H  H4  1  0.06530000  0.67220000  0.96630000  1.0 0.1300701349
H  H5  1  0.59900000  0.20590000  0.03370000  1.0 0.1300701349
H  H6  1  0.17220000  0.56530000  0.96630000  1.0 0.1300701349
H  H7  1  0.20590000  0.17220000  0.60690000  1.0 0.1300701349
H  H8  1  0.56530000  0.59900000  0.39310000  1.0 0.1300701349
H  H9  1  0.31110000  0.16840000  0.31510000  1.0 0.1300701349
H  H10  1  0.85330000  0.99600000  0.68490000  1.0 0.1300701349
H  H11  1  0.99600000  0.31110000  0.14270000  1.0 0.1300701349
H  H12  1  0.16840000  0.85330000  0.85730000  1.0 0.1300701349
H  H13  1  0.81110000  0.49600000  0.14270000  1.0 0.1300701349
H  H14  1  0.35330000  0.66840000  0.85730000  1.0 0.1300701349
H  H15  1  0.49600000  0.35330000  0.68490000  1.0 0.1300701349
H  H16  1  0.66840000  0.81110000  0.31510000  1.0 0.1300701349
H  H17  1  0.20400000  0.90510000  0.31690000  1.0 0.137315375
H  H18  1  0.58820000  0.88710000  0.68310000  1.0 0.137315375
H  H19  1  0.88710000  0.20400000  0.29890000  1.0 0.137315375
H  H20  1  0.90510000  0.58820000  0.70110000  1.0 0.137315375
H  H21  1  0.70400000  0.38710000  0.29890000  1.0 0.137315375
H  H22  1  0.08820000  0.40510000  0.70110000  1.0 0.137315375
H  H23  1  0.38710000  0.08820000  0.68310000  1.0 0.137315375
H  H24  1  0.40510000  0.70400000  0.31690000  1.0 0.137315375
H  H25  1  0.66100000  0.55640000  0.50000000  1.0 0.1088226928
H  H26  1  0.05640000  0.16100000  0.50000000  1.0 0.1088226928
H  H27  1  0.16100000  0.66100000  0.10460000  1.0 0.1088226928
H  H28  1  0.55640000  0.05640000  0.89540000  1.0 0.1088226928
H  H29  1  0.53310000  0.46800000  0.55490000  1.0 0.0993724219
H  H30  1  0.91310000  0.97820000  0.44510000  1.0 0.0993724219
H  H31  1  0.97820000  0.53310000  0.06510000  1.0 0.0993724219
H  H32  1  0.46800000  0.91310000  0.93490000  1.0 0.0993724219
H  H33  1  0.03310000  0.47820000  0.06510000  1.0 0.0993724219
H  H34  1  0.41310000  0.96800000  0.93490000  1.0 0.0993724219
H  H35  1  0.47820000  0.41310000  0.44510000  1.0 0.0993724219
H  H36  1  0.96800000  0.03310000  0.55490000  1.0 0.0993724219
H  H37  1  0.69570000  0.38250000  0.49820000  1.0 0.1088226928
H  H38  1  0.88430000  0.19750000  0.50180000  1.0 0.1088226928
H  H39  1  0.19750000  0.69570000  0.31320000  1.0 0.1088226928
H  H40  1  0.38250000  0.88430000  0.68680000  1.0 0.1088226928
H  H41  1  0.19570000  0.69750000  0.31320000  1.0 0.1088226928
H  H42  1  0.38430000  0.88250000  0.68680000  1.0 0.1088226928
H  H43  1  0.69750000  0.38430000  0.50180000  1.0 0.1088226928
H  H44  1  0.88250000  0.19570000  0.49820000  1.0 0.1088226928
H  H45  1  0.63920000  0.35270000  0.55510000  1.0 0.1088226928
H  H46  1  0.79760000  0.08410000  0.44490000  1.0 0.1088226928
H  H47  1  0.08410000  0.63920000  0.28650000  1.0 0.1088226928
H  H48  1  0.35270000  0.79760000  0.71350000  1.0 0.1088226928
H  H49  1  0.13920000  0.58410000  0.28650000  1.0 0.1088226928
H  H50  1  0.29760000  0.85270000  0.71350000  1.0 0.1088226928
H  H51  1  0.58410000  0.29760000  0.44490000  1.0 0.1088226928
H  H52  1  0.85270000  0.13920000  0.55510000  1.0 0.1088226928
H  H53  1  0.58210000  0.29650000  0.44680000  1.0 0.1088226928
H  H54  1  0.84970000  0.13530000  0.55320000  1.0 0.1088226928
H  H55  1  0.13530000  0.58210000  0.28560000  1.0 0.1088226928
H  H56  1  0.29650000  0.84970000  0.71440000  1.0 0.1088226928
H  H57  1  0.08210000  0.63530000  0.28560000  1.0 0.1088226928
H  H58  1  0.34970000  0.79650000  0.71440000  1.0 0.1088226928
H  H59  1  0.63530000  0.34970000  0.55320000  1.0 0.1088226928
H  H60  1  0.79650000  0.08210000  0.44680000  1.0 0.1088226928
H  H61  1  0.47420000  0.35340000  0.50140000  1.0 0.0993724219
H  H62  1  0.85200000  0.97280000  0.49860000  1.0 0.0993724219
H  H63  1  0.97280000  0.47420000  0.12080000  1.0 0.0993724219
H  H64  1  0.35340000  0.85200000  0.87920000  1.0 0.0993724219
H  H65  1  0.97420000  0.47280000  0.12080000  1.0 0.0993724219
H  H66  1  0.35200000  0.85340000  0.87920000  1.0 0.0993724219
H  H67  1  0.47280000  0.35200000  0.49860000  1.0 0.0993724219
H  H68  1  0.85340000  0.97420000  0.50140000  1.0 0.0993724219
H  H69  1  0.53320000  0.46960000  0.55340000  1.0 0.0993724219
H  H70  1  0.91620000  0.97980000  0.44660000  1.0 0.0993724219
H  H71  1  0.97980000  0.53320000  0.06360000  1.0 0.0993724219
H  H72  1  0.46960000  0.91620000  0.93640000  1.0 0.0993724219
H  H73  1  0.03320000  0.47980000  0.06360000  1.0 0.0993724219
H  H74  1  0.41620000  0.96960000  0.93640000  1.0 0.0993724219
H  H75  1  0.47980000  0.41620000  0.44660000  1.0 0.0993724219
H  H76  1  0.96960000  0.03320000  0.55340000  1.0 0.0993724219
C  C1  1  0.06575000  0.88831000  0.36544000  1.0 0.4954427753
C  C2  1  0.52287000  0.70031000  0.63456000  1.0 0.4954427753
C  C3  1  0.70031000  0.06575000  0.17744000  1.0 0.4954427753
C  C4  1  0.88831000  0.52287000  0.82256000  1.0 0.4954427753
C  C5  1  0.56575000  0.20031000  0.17744000  1.0 0.4954427753
C  C6  1  0.02287000  0.38831000  0.82256000  1.0 0.4954427753
C  C7  1  0.20031000  0.02287000  0.63456000  1.0 0.4954427753
C  C8  1  0.38831000  0.56575000  0.36544000  1.0 0.4954427753
C  C9  1  0.14042000  0.97239000  0.35645000  1.0 -0.0094981075
C  C10  1  0.61594000  0.78397000  0.64355000  1.0 -0.0094981075
C  C11  1  0.78397000  0.14042000  0.16803000  1.0 -0.0094981075
C  C12  1  0.97239000  0.61594000  0.83197000  1.0 -0.0094981075
C  C13  1  0.64042000  0.28397000  0.16803000  1.0 -0.0094981075
C  C14  1  0.11594000  0.47239000  0.83197000  1.0 -0.0094981075
C  C15  1  0.28397000  0.11594000  0.64355000  1.0 -0.0094981075
C  C16  1  0.47239000  0.64042000  0.35645000  1.0 -0.0094981075
C  C17  1  0.14156000  0.05768000  0.37220000  1.0 -0.1242158253
C  C18  1  0.68548000  0.76936000  0.62780000  1.0 -0.1242158253
C  C19  1  0.76936000  0.14156000  0.08388000  1.0 -0.1242158253
C  C20  1  0.05768000  0.68548000  0.91612000  1.0 -0.1242158253
C  C21  1  0.64156000  0.26936000  0.08388000  1.0 -0.1242158253
C  C22  1  0.18548000  0.55768000  0.91612000  1.0 -0.1242158253
C  C23  1  0.26936000  0.18548000  0.62780000  1.0 -0.1242158253
C  C24  1  0.55768000  0.64156000  0.37220000  1.0 -0.1242158253
C  C25  1  0.20514000  0.13118000  0.35720000  1.0 -0.0254899382
C  C26  1  0.77398000  0.84794000  0.64280000  1.0 -0.0254899382
C  C27  1  0.84794000  0.20514000  0.07396000  1.0 -0.0254899382
C  C28  1  0.13118000  0.77398000  0.92604000  1.0 -0.0254899382
C  C29  1  0.70514000  0.34794000  0.07396000  1.0 -0.0254899382
C  C30  1  0.27398000  0.63118000  0.92604000  1.0 -0.0254899382
C  C31  1  0.34794000  0.27398000  0.64280000  1.0 -0.0254899382
C  C32  1  0.63118000  0.70514000  0.35720000  1.0 -0.0254899382
C  C33  1  0.26841000  0.11931000  0.32570000  1.0 -0.1114237209
C  C34  1  0.79361000  0.94271000  0.67430000  1.0 -0.1114237209
C  C35  1  0.94271000  0.26841000  0.14910000  1.0 -0.1114237209
C  C36  1  0.11931000  0.79361000  0.85090000  1.0 -0.1114237209
C  C37  1  0.76841000  0.44271000  0.14910000  1.0 -0.1114237209
C  C38  1  0.29361000  0.61931000  0.85090000  1.0 -0.1114237209
C  C39  1  0.44271000  0.29361000  0.67430000  1.0 -0.1114237209
C  C40  1  0.61931000  0.76841000  0.32570000  1.0 -0.1114237209
C  C41  1  0.26810000  0.03507000  0.31015000  1.0 -0.0094981075
C  C42  1  0.72492000  0.95795000  0.68985000  1.0 -0.0094981075
C  C43  1  0.95795000  0.26810000  0.23303000  1.0 -0.0094981075
C  C44  1  0.03507000  0.72492000  0.76697000  1.0 -0.0094981075
C  C45  1  0.76810000  0.45795000  0.23303000  1.0 -0.0094981075
C  C46  1  0.22492000  0.53507000  0.76697000  1.0 -0.0094981075
C  C47  1  0.45795000  0.22492000  0.68985000  1.0 -0.0094981075
C  C48  1  0.53507000  0.76810000  0.31015000  1.0 -0.0094981075
C  C49  1  0.20378000  0.96160000  0.32646000  1.0 -0.1114237209
C  C50  1  0.63514000  0.87732000  0.67354000  1.0 -0.1114237209
C  C51  1  0.87732000  0.20378000  0.24218000  1.0 -0.1114237209
C  C52  1  0.96160000  0.63514000  0.75782000  1.0 -0.1114237209
C  C53  1  0.70378000  0.37732000  0.24218000  1.0 -0.1114237209
C  C54  1  0.13514000  0.46160000  0.75782000  1.0 -0.1114237209
C  C55  1  0.37732000  0.13514000  0.67354000  1.0 -0.1114237209
C  C56  1  0.46160000  0.70378000  0.32646000  1.0 -0.1114237209
C  C57  1  0.20849000  0.22511000  0.37818000  1.0 0.5676624451
C  C58  1  0.84693000  0.83031000  0.62182000  1.0 0.5676624451
C  C59  1  0.83031000  0.20849000  0.98338000  1.0 0.5676624451
C  C60  1  0.22511000  0.84693000  0.01662000  1.0 0.5676624451
C  C61  1  0.70849000  0.33031000  0.98338000  1.0 0.5676624451
C  C62  1  0.34693000  0.72511000  0.01662000  1.0 0.5676624451
C  C63  1  0.33031000  0.34693000  0.62182000  1.0 0.5676624451
C  C64  1  0.72511000  0.70849000  0.37818000  1.0 0.5676624451
C  C65  1  0.33038000  0.01606000  0.26868000  1.0 0.5792009879
C  C66  1  0.74738000  0.06170000  0.73132000  1.0 0.5792009879
C  C67  1  0.06170000  0.33038000  0.31432000  1.0 0.5792009879
C  C68  1  0.01606000  0.74738000  0.68568000  1.0 0.5792009879
C  C69  1  0.83038000  0.56170000  0.31432000  1.0 0.5792009879
C  C70  1  0.24738000  0.51606000  0.68568000  1.0 0.5792009879
C  C71  1  0.56170000  0.24738000  0.73132000  1.0 0.5792009879
C  C72  1  0.51606000  0.83038000  0.26868000  1.0 0.5792009879
C  C73  1  0.67868000  0.51192000  0.50000000  1.0 0.2408803601
C  C74  1  0.01192000  0.17868000  0.50000000  1.0 0.2408803601
C  C75  1  0.17868000  0.67868000  0.16677000  1.0 0.2408803601
C  C76  1  0.51192000  0.01192000  0.83323000  1.0 0.2408803601
C  C77  1  0.63370000  0.35970000  0.50000000  1.0 -0.3712827912
C  C78  1  0.85970000  0.13370000  0.50000000  1.0 -0.3712827912
C  C79  1  0.13370000  0.63370000  0.27400000  1.0 -0.3712827912
C  C80  1  0.35970000  0.85970000  0.72600000  1.0 -0.3712827912
C  C81  1  0.51490000  0.41410000  0.50000000  1.0 -0.4632114421
C  C82  1  0.91410000  0.01490000  0.50000000  1.0 -0.4632114421
C  C83  1  0.01490000  0.51490000  0.10080000  1.0 -0.4632114421
C  C84  1  0.41410000  0.91410000  0.89920000  1.0 -0.4632114421
N  N1  1  0.61170000  0.42390000  0.50000000  1.0 -0.0094981075
N  N2  1  0.92390000  0.11170000  0.50000000  1.0 -0.0094981075
N  N3  1  0.11170000  0.61170000  0.18780000  1.0 -0.0094981075
N  N4  1  0.42390000  0.92390000  0.81220000  1.0 -0.0169900481
O  O1  1  0.99153000  0.88475000  0.36480000  1.0 -0.4890530917
O  O2  1  0.51995000  0.62673000  0.63520000  1.0 -0.4890530917
O  O3  1  0.62673000  0.99153000  0.10678000  1.0 -0.4890530917
O  O4  1  0.88475000  0.51995000  0.89322000  1.0 -0.4890530917
O  O5  1  0.49153000  0.12673000  0.10678000  1.0 -0.4890530917
O  O6  1  0.01995000  0.38475000  0.89322000  1.0 -0.4890530917
O  O7  1  0.12673000  0.01995000  0.63520000  1.0 -0.4890530917
O  O8  1  0.38475000  0.49153000  0.36480000  1.0 -0.4890530917
O  O9  1  0.07947000  0.82515000  0.37112000  1.0 -0.3712827912
O  O10  1  0.45403000  0.70835000  0.62888000  1.0 -0.3712827912
O  O11  1  0.70835000  0.07947000  0.25432000  1.0 -0.3712827912
O  O12  1  0.82515000  0.45403000  0.74568000  1.0 -0.3712827912
O  O13  1  0.57947000  0.20835000  0.25432000  1.0 -0.3712827912
O  O14  1  0.95403000  0.32515000  0.74568000  1.0 -0.3712827912
O  O15  1  0.20835000  0.95403000  0.62888000  1.0 -0.3712827912
O  O16  1  0.32515000  0.57947000  0.37112000  1.0 -0.3712827912
O  O17  1  0.35638000  0.06272000  0.22368000  1.0 -0.5586869534
O  O18  1  0.83904000  0.13270000  0.77632000  1.0 -0.5586869534
O  O19  1  0.13270000  0.35638000  0.29366000  1.0 -0.5586869534
O  O20  1  0.06272000  0.83904000  0.70634000  1.0 -0.5586869534
O  O21  1  0.85638000  0.63270000  0.29366000  1.0 -0.5586869534
O  O22  1  0.33904000  0.56272000  0.70634000  1.0 -0.5586869534
O  O23  1  0.63270000  0.33904000  0.77632000  1.0 -0.5586869534
O  O24  1  0.56272000  0.85638000  0.22368000  1.0 -0.5586869534
O  O25  1  0.35138000  0.95819000  0.28403000  1.0 -0.5272406663
O  O26  1  0.67416000  0.06735000  0.71597000  1.0 -0.5272406663
O  O27  1  0.06735000  0.35138000  0.39319000  1.0 -0.5272406663
O  O28  1  0.95819000  0.67416000  0.60681000  1.0 -0.5272406663
O  O29  1  0.85138000  0.56735000  0.39319000  1.0 -0.5272406663
O  O30  1  0.17416000  0.45819000  0.60681000  1.0 -0.5272406663
O  O31  1  0.56735000  0.17416000  0.71597000  1.0 -0.5272406663
O  O32  1  0.45819000  0.85138000  0.28403000  1.0 -0.5272406663
O  O33  1  0.27012000  0.28989000  0.36581000  1.0 -0.5385711443
O  O34  1  0.92408000  0.90431000  0.63419000  1.0 -0.5385711443
O  O35  1  0.90431000  0.27012000  0.98023000  1.0 -0.5385711443
O  O36  1  0.28989000  0.92408000  0.01977000  1.0 -0.5385711443
O  O37  1  0.77012000  0.40431000  0.98023000  1.0 -0.5385711443
O  O38  1  0.42408000  0.78989000  0.01977000  1.0 -0.5385711443
O  O39  1  0.40431000  0.42408000  0.63419000  1.0 -0.5385711443
O  O40  1  0.78989000  0.77012000  0.36581000  1.0 -0.5385711443
O  O41  1  0.14882000  0.23139000  0.40339000  1.0 -0.5586869534
O  O42  1  0.82800000  0.74543000  0.59661000  1.0 -0.5586869534
O  O43  1  0.74543000  0.14882000  0.91743000  1.0 -0.5586869534
O  O44  1  0.23139000  0.82800000  0.08257000  1.0 -0.5586869534
O  O45  1  0.64882000  0.24543000  0.91743000  1.0 -0.5586869534
O  O46  1  0.32800000  0.73139000  0.08257000  1.0 -0.5586869534
O  O47  1  0.24543000  0.32800000  0.59661000  1.0 -0.5586869534
O  O48  1  0.73139000  0.64882000  0.40339000  1.0 -0.5586869534
O  O49  1  0.74811000  0.53169000  0.50000000  1.0 -0.3480768602
O  O50  1  0.03169000  0.24811000  0.50000000  1.0 -0.3480768602
O  O51  1  0.24811000  0.74811000  0.21642000  1.0 -0.3480768602
O  O52  1  0.53169000  0.03169000  0.78358000  1.0 -0.3480768602
O  O53  1  0.96451000  0.78299000  0.50000000  1.0 -0.5586869534
O  O54  1  0.28299000  0.46451000  0.50000000  1.0 -0.5586869534
O  O55  1  0.46451000  0.96451000  0.18152000  1.0 -0.5586869534
O  O56  1  0.78299000  0.28299000  0.81848000  1.0 -0.5586869534
O  O57  1  0.01765000  0.75140000  0.42185000  1.0 0.1300701349
O  O58  1  0.32955000  0.59580000  0.57815000  1.0 0.1300701349
O  O59  1  0.59580000  0.01765000  0.26625000  1.0 0.1300701349
O  O60  1  0.75140000  0.32955000  0.73375000  1.0 0.1300701349
O  O61  1  0.51765000  0.09580000  0.26625000  1.0 0.1300701349
O  O62  1  0.82955000  0.25140000  0.73375000  1.0 0.1300701349
O  O63  1  0.09580000  0.82955000  0.57815000  1.0 0.1300701349
O  O64  1  0.25140000  0.51765000  0.42185000  1.0 0.1300701349
