# DDEC6 charges by PACMAN v1.1 (https://github.com/mtap-research/PACMAN-charge/)
data_UNECUN_FSR_pacman
_symmetry_space_group_name_H-M   'P 1'
_cell_length_a   17.07570000
_cell_length_b   17.07570000
_cell_length_c   17.07570000
_cell_angle_alpha   105.79600000
_cell_angle_beta   105.79600000
_cell_angle_gamma   117.10100000
_symmetry_Int_Tables_number   1
_chemical_formula_structural   Zn2CdH16C21NO16
_chemical_formula_sum   'Zn8 Cd4 H64 C84 N4 O64'
_cell_volume   3781.19986020
_cell_formula_units_Z   4
loop_
 _symmetry_equiv_pos_site_id
 _symmetry_equiv_pos_as_xyz
  1  'x, y, z'
loop_
 _atom_site_type_symbol
 _atom_site_label
 _atom_site_symmetry_multiplicity
 _atom_site_fract_x
 _atom_site_fract_y
 _atom_site_fract_z
 _atom_site_occupancy
 _atom_site_charge
Zn  Zn1  1  0.72328000  0.58383000  0.37733000  1.0 0.9270451758
Zn  Zn2  1  0.20650000  0.34595000  0.62267000  1.0 0.9270451758
Zn  Zn3  1  0.34595000  0.72328000  0.13945000  1.0 0.9270451758
Zn  Zn4  1  0.58383000  0.20650000  0.86055000  1.0 0.9270451758
Zn  Zn5  1  0.22328000  0.84595000  0.13945000  1.0 0.9270451758
Zn  Zn6  1  0.70650000  0.08383000  0.86055000  1.0 0.9270451758
Zn  Zn7  1  0.84595000  0.70650000  0.62267000  1.0 0.9270451758
Zn  Zn8  1  0.08383000  0.22328000  0.37733000  1.0 0.9270451758
Cd  Cd1  1  0.66173000  0.46995000  0.50000000  1.0 1.0278567964
Cd  Cd2  1  0.96995000  0.16173000  0.50000000  1.0 1.0278567964
Cd  Cd3  1  0.16173000  0.66173000  0.19178000  1.0 1.0236190651
Cd  Cd4  1  0.46995000  0.96995000  0.80822000  1.0 1.0278567964
H  H1  1  0.38040000  0.41390000  0.39190000  1.0 0.1331395898
H  H2  1  0.02200000  0.98850000  0.60810000  1.0 0.1331395898
H  H3  1  0.98850000  0.38040000  0.96650000  1.0 0.1331395898
H  H4  1  0.41390000  0.02200000  0.03350000  1.0 0.1331395898
H  H5  1  0.88040000  0.48850000  0.96650000  1.0 0.1331395898
H  H6  1  0.52200000  0.91390000  0.03350000  1.0 0.1331395898
H  H7  1  0.48850000  0.52200000  0.60810000  1.0 0.1331395898
H  H8  1  0.91390000  0.88040000  0.39190000  1.0 0.1331395898
H  H9  1  0.22040000  0.52150000  0.31590000  1.0 0.140605812
H  H10  1  0.20560000  0.90450000  0.68410000  1.0 0.140605812
H  H11  1  0.90450000  0.22040000  0.69890000  1.0 0.140605812
H  H12  1  0.52150000  0.20560000  0.30110000  1.0 0.140605812
H  H13  1  0.72040000  0.40450000  0.69890000  1.0 0.140605812
H  H14  1  0.70560000  0.02150000  0.30110000  1.0 0.140605812
H  H15  1  0.40450000  0.70560000  0.68410000  1.0 0.140605812
H  H16  1  0.02150000  0.72040000  0.31590000  1.0 0.140605812
H  H17  1  0.48370000  0.62460000  0.31190000  1.0 0.140605812
H  H18  1  0.31270000  0.17180000  0.68810000  1.0 0.140605812
H  H19  1  0.17180000  0.48370000  0.85910000  1.0 0.140605812
H  H20  1  0.62460000  0.31270000  0.14090000  1.0 0.140605812
H  H21  1  0.98370000  0.67180000  0.85910000  1.0 0.140605812
H  H22  1  0.81270000  0.12460000  0.14090000  1.0 0.140605812
H  H23  1  0.67180000  0.81270000  0.68810000  1.0 0.140605812
H  H24  1  0.12460000  0.98370000  0.31190000  1.0 0.140605812
H  H25  1  0.48200000  0.37380000  0.50000000  1.0 0.0907441769
H  H26  1  0.87380000  0.98200000  0.50000000  1.0 0.0907441769
H  H27  1  0.98200000  0.48200000  0.10820000  1.0 0.0907441769
H  H28  1  0.37380000  0.87380000  0.89180000  1.0 0.0907441769
H  H29  1  0.33380000  0.29000000  0.50000000  1.0 0.120653582
H  H30  1  0.79000000  0.83380000  0.50000000  1.0 0.120653582
H  H31  1  0.83380000  0.33380000  0.04380000  1.0 0.120653582
H  H32  1  0.29000000  0.79000000  0.95620000  1.0 0.120653582
H  H33  1  0.27380000  0.17410000  0.44630000  1.0 0.120653582
H  H34  1  0.72780000  0.82750000  0.55370000  1.0 0.120653582
H  H35  1  0.82750000  0.27380000  0.09970000  1.0 0.120653582
H  H36  1  0.17410000  0.72780000  0.90030000  1.0 0.120653582
H  H37  1  0.77380000  0.32750000  0.09970000  1.0 0.120653582
H  H38  1  0.22780000  0.67410000  0.90030000  1.0 0.120653582
H  H39  1  0.32750000  0.22780000  0.55370000  1.0 0.120653582
H  H40  1  0.67410000  0.77380000  0.44630000  1.0 0.120653582
H  H41  1  0.44580000  0.16200000  0.55440000  1.0 0.120653582
H  H42  1  0.60760000  0.89140000  0.44560000  1.0 0.120653582
H  H43  1  0.89140000  0.44580000  0.28380000  1.0 0.120653582
H  H44  1  0.16200000  0.60760000  0.71620000  1.0 0.120653582
H  H45  1  0.94580000  0.39140000  0.28380000  1.0 0.120653582
H  H46  1  0.10760000  0.66200000  0.71620000  1.0 0.120653582
H  H47  1  0.39140000  0.10760000  0.44560000  1.0 0.120653582
H  H48  1  0.66200000  0.94580000  0.55440000  1.0 0.120653582
H  H49  1  0.50520000  0.19240000  0.50120000  1.0 0.120653582
H  H50  1  0.69120000  0.00400000  0.49880000  1.0 0.120653582
H  H51  1  0.00400000  0.50520000  0.31280000  1.0 0.120653582
H  H52  1  0.19240000  0.69120000  0.68720000  1.0 0.120653582
H  H53  1  0.00520000  0.50400000  0.31280000  1.0 0.120653582
H  H54  1  0.19120000  0.69240000  0.68720000  1.0 0.120653582
H  H55  1  0.50400000  0.19120000  0.49880000  1.0 0.120653582
H  H56  1  0.69240000  0.00520000  0.50120000  1.0 0.120653582
H  H57  1  0.44330000  0.16010000  0.55320000  1.0 0.120653582
H  H58  1  0.60690000  0.89010000  0.44680000  1.0 0.120653582
H  H59  1  0.89010000  0.44330000  0.28320000  1.0 0.120653582
H  H60  1  0.16010000  0.60690000  0.71680000  1.0 0.120653582
H  H61  1  0.94330000  0.39010000  0.28320000  1.0 0.120653582
H  H62  1  0.10690000  0.66010000  0.71680000  1.0 0.120653582
H  H63  1  0.39010000  0.10690000  0.44680000  1.0 0.120653582
H  H64  1  0.66010000  0.94330000  0.55320000  1.0 0.120653582
C  C1  1  0.53900000  0.52180000  0.37620000  1.0 0.579580253
C  C2  1  0.14560000  0.16280000  0.62380000  1.0 0.579580253
C  C3  1  0.16280000  0.53900000  0.01720000  1.0 0.579580253
C  C4  1  0.52180000  0.14560000  0.98280000  1.0 0.579580253
C  C5  1  0.03900000  0.66280000  0.01720000  1.0 0.579580253
C  C6  1  0.64560000  0.02180000  0.98280000  1.0 0.579580253
C  C7  1  0.66280000  0.64560000  0.62380000  1.0 0.579580253
C  C8  1  0.02180000  0.03900000  0.37620000  1.0 0.579580253
C  C9  1  0.44460000  0.51890000  0.35610000  1.0 -0.0210090559
C  C10  1  0.16280000  0.08850000  0.64390000  1.0 -0.0210090559
C  C11  1  0.08850000  0.44460000  0.92570000  1.0 -0.0210090559
C  C12  1  0.51890000  0.16280000  0.07430000  1.0 -0.0210090559
C  C13  1  0.94460000  0.58850000  0.92570000  1.0 -0.0210090559
C  C14  1  0.66280000  0.01890000  0.07430000  1.0 -0.0210090559
C  C15  1  0.58850000  0.66280000  0.64390000  1.0 -0.0210090559
C  C16  1  0.01890000  0.94460000  0.35610000  1.0 -0.0210090559
C  C17  1  0.37280000  0.45610000  0.37090000  1.0 -0.1228601755
C  C18  1  0.08520000  0.00190000  0.62910000  1.0 -0.1228601755
C  C19  1  0.00190000  0.37280000  0.91670000  1.0 -0.1228601755
C  C20  1  0.45610000  0.08520000  0.08330000  1.0 -0.1228601755
C  C21  1  0.87280000  0.50190000  0.91670000  1.0 -0.1228601755
C  C22  1  0.58520000  0.95610000  0.08330000  1.0 -0.1228601755
C  C23  1  0.50190000  0.58520000  0.62910000  1.0 -0.1228601755
C  C24  1  0.95610000  0.87280000  0.37090000  1.0 -0.1228601755
C  C25  1  0.28670000  0.45500000  0.35470000  1.0 0.000425062
C  C26  1  0.10030000  0.93200000  0.64530000  1.0 0.000425062
C  C27  1  0.93200000  0.28670000  0.83170000  1.0 0.000425062
C  C28  1  0.45500000  0.10030000  0.16830000  1.0 0.000425062
C  C29  1  0.78670000  0.43200000  0.83170000  1.0 0.000425062
C  C30  1  0.60030000  0.95500000  0.16830000  1.0 0.000425062
C  C31  1  0.43200000  0.60030000  0.64530000  1.0 0.000425062
C  C32  1  0.95500000  0.78670000  0.35470000  1.0 0.000425062
C  C33  1  0.27590000  0.52013000  0.32505000  1.0 -0.1109828203
C  C34  1  0.19508000  0.95085000  0.67495000  1.0 -0.1109828203
C  C35  1  0.95085000  0.27590000  0.75577000  1.0 -0.1109828203
C  C36  1  0.52013000  0.19508000  0.24423000  1.0 -0.1109828203
C  C37  1  0.77590000  0.45085000  0.75577000  1.0 -0.1109828203
C  C38  1  0.69508000  0.02013000  0.24423000  1.0 -0.1109828203
C  C39  1  0.45085000  0.69508000  0.67495000  1.0 -0.1109828203
C  C40  1  0.02013000  0.77590000  0.32505000  1.0 -0.1109828203
C  C41  1  0.35178000  0.58330000  0.30948000  1.0 -0.0065053217
C  C42  1  0.27382000  0.04230000  0.69052000  1.0 -0.0065053217
C  C43  1  0.04230000  0.35178000  0.76848000  1.0 -0.0065053217
C  C44  1  0.58330000  0.27382000  0.23152000  1.0 -0.0065053217
C  C45  1  0.85178000  0.54230000  0.76848000  1.0 -0.0065053217
C  C46  1  0.77382000  0.08330000  0.23152000  1.0 -0.0065053217
C  C47  1  0.54230000  0.77382000  0.69052000  1.0 -0.0065053217
C  C48  1  0.08330000  0.85178000  0.30948000  1.0 -0.0065053217
C  C49  1  0.43498000  0.58320000  0.32358000  1.0 -0.1109828203
C  C50  1  0.25962000  0.11140000  0.67642000  1.0 -0.1109828203
C  C51  1  0.11140000  0.43498000  0.85178000  1.0 -0.1109828203
C  C52  1  0.58320000  0.25962000  0.14822000  1.0 -0.1109828203
C  C53  1  0.93498000  0.61140000  0.85178000  1.0 -0.1109828203
C  C54  1  0.75962000  0.08320000  0.14822000  1.0 -0.1109828203
C  C55  1  0.61140000  0.75962000  0.67642000  1.0 -0.1109828203
C  C56  1  0.08320000  0.93498000  0.32358000  1.0 -0.1109828203
C  C57  1  0.20170000  0.38190000  0.36380000  1.0 0.5100836251
C  C58  1  0.01810000  0.83790000  0.63620000  1.0 0.5100836251
C  C59  1  0.83790000  0.20170000  0.81980000  1.0 0.5100836251
C  C60  1  0.38190000  0.01810000  0.18020000  1.0 0.5100836251
C  C61  1  0.70170000  0.33790000  0.81980000  1.0 0.5100836251
C  C62  1  0.51810000  0.88190000  0.18020000  1.0 0.5100836251
C  C63  1  0.33790000  0.51810000  0.63620000  1.0 0.5100836251
C  C64  1  0.88190000  0.70170000  0.36380000  1.0 0.5100836251
C  C65  1  0.33470000  0.64780000  0.26990000  1.0 0.579580253
C  C66  1  0.37790000  0.06480000  0.73010000  1.0 0.579580253
C  C67  1  0.06480000  0.33470000  0.68690000  1.0 0.579580253
C  C68  1  0.64780000  0.37790000  0.31310000  1.0 0.579580253
C  C69  1  0.83470000  0.56480000  0.68690000  1.0 0.579580253
C  C70  1  0.87790000  0.14780000  0.31310000  1.0 0.579580253
C  C71  1  0.56480000  0.87790000  0.73010000  1.0 0.579580253
C  C72  1  0.14780000  0.83470000  0.26990000  1.0 0.579580253
C  C73  1  0.48980000  0.32340000  0.50000000  1.0 0.2483974193
C  C74  1  0.82340000  0.98980000  0.50000000  1.0 0.2483974193
C  C75  1  0.98980000  0.48980000  0.16640000  1.0 0.2441023682
C  C76  1  0.32340000  0.82340000  0.83360000  1.0 0.2441023682
C  C77  1  0.44190000  0.16950000  0.50000000  1.0 -0.4243236389
C  C78  1  0.66950000  0.94190000  0.50000000  1.0 -0.4243236389
C  C79  1  0.94190000  0.44190000  0.27240000  1.0 -0.4243236389
C  C80  1  0.16950000  0.66950000  0.72760000  1.0 -0.4243236389
C  C81  1  0.33130000  0.23270000  0.50000000  1.0 -0.3486764636
C  C82  1  0.73270000  0.83130000  0.50000000  1.0 -0.3486764636
C  C83  1  0.83130000  0.33130000  0.09860000  1.0 -0.3486764636
C  C84  1  0.23270000  0.73270000  0.90140000  1.0 -0.3486764636
N  N1  1  0.42050000  0.24150000  0.50000000  1.0 -0.0860144999
N  N2  1  0.74150000  0.92050000  0.50000000  1.0 -0.0860144999
N  N3  1  0.92050000  0.42050000  0.17900000  1.0 -0.0860144999
N  N4  1  0.24150000  0.74150000  0.82100000  1.0 -0.0860144999
O  O1  1  0.54281000  0.46033000  0.40128000  1.0 -0.5683307256
O  O2  1  0.05905000  0.14153000  0.59872000  1.0 -0.5683307256
O  O3  1  0.14153000  0.54281000  0.08248000  1.0 -0.5683307256
O  O4  1  0.46033000  0.05905000  0.91752000  1.0 -0.5683307256
O  O5  1  0.04281000  0.64153000  0.08248000  1.0 -0.5683307256
O  O6  1  0.55905000  0.96033000  0.91752000  1.0 -0.5683307256
O  O7  1  0.64153000  0.55905000  0.59872000  1.0 -0.5683307256
O  O8  1  0.96033000  0.04281000  0.40128000  1.0 -0.5683307256
O  O9  1  0.60407000  0.58318000  0.36561000  1.0 -0.5053701903
O  O10  1  0.21757000  0.23846000  0.63439000  1.0 -0.5053701903
O  O11  1  0.23846000  0.60407000  0.02089000  1.0 -0.5053701903
O  O12  1  0.58318000  0.21757000  0.97911000  1.0 -0.5053701903
O  O13  1  0.10407000  0.73846000  0.02089000  1.0 -0.5053701903
O  O14  1  0.71757000  0.08318000  0.97911000  1.0 -0.5053701903
O  O15  1  0.73846000  0.71757000  0.63439000  1.0 -0.5053701903
O  O16  1  0.08318000  0.10407000  0.36561000  1.0 -0.5053701903
O  O17  1  0.19701000  0.30586000  0.36255000  1.0 -0.5041255758
O  O18  1  0.94331000  0.83446000  0.63745000  1.0 -0.5041255758
O  O19  1  0.83446000  0.19701000  0.89115000  1.0 -0.5041255758
O  O20  1  0.30586000  0.94331000  0.10885000  1.0 -0.5041255758
O  O21  1  0.69701000  0.33446000  0.89115000  1.0 -0.5041255758
O  O22  1  0.44331000  0.80586000  0.10885000  1.0 -0.5041255758
O  O23  1  0.33446000  0.44331000  0.63745000  1.0 -0.5053701903
O  O24  1  0.80586000  0.69701000  0.36255000  1.0 -0.5053701903
O  O25  1  0.13971000  0.39731000  0.36980000  1.0 -0.3816376682
O  O26  1  0.02751000  0.76991000  0.63020000  1.0 -0.3816376682
O  O27  1  0.76991000  0.13971000  0.74240000  1.0 -0.3816376682
O  O28  1  0.39731000  0.02751000  0.25760000  1.0 -0.3816376682
O  O29  1  0.63971000  0.26991000  0.74240000  1.0 -0.3816376682
O  O30  1  0.52751000  0.89731000  0.25760000  1.0 -0.3816376682
O  O31  1  0.26991000  0.52751000  0.63020000  1.0 -0.3816376682
O  O32  1  0.89731000  0.63971000  0.36980000  1.0 -0.3816376682
O  O33  1  0.38027000  0.67110000  0.22277000  1.0 -0.5503131952
O  O34  1  0.44833000  0.15750000  0.77723000  1.0 -0.5503131952
O  O35  1  0.15750000  0.38027000  0.70917000  1.0 -0.5503131952
O  O36  1  0.67110000  0.44833000  0.29083000  1.0 -0.5503131952
O  O37  1  0.88027000  0.65750000  0.70917000  1.0 -0.5503131952
O  O38  1  0.94833000  0.17110000  0.29083000  1.0 -0.5503131952
O  O39  1  0.65750000  0.94833000  0.77723000  1.0 -0.5503131952
O  O40  1  0.17110000  0.88027000  0.22277000  1.0 -0.5503131952
O  O41  1  0.27767000  0.66867000  0.28436000  1.0 -0.5160725619
O  O42  1  0.38431000  0.99331000  0.71564000  1.0 -0.5160725619
O  O43  1  0.99331000  0.27767000  0.60900000  1.0 -0.5160725619
O  O44  1  0.66867000  0.38431000  0.39100000  1.0 -0.5160725619
O  O45  1  0.77767000  0.49331000  0.60900000  1.0 -0.5160725619
O  O46  1  0.88431000  0.16867000  0.39100000  1.0 -0.5160725619
O  O47  1  0.49331000  0.88431000  0.71564000  1.0 -0.5160725619
O  O48  1  0.16867000  0.77767000  0.28436000  1.0 -0.5160725619
O  O49  1  0.77741000  0.59719000  0.50000000  1.0 -0.6319104936
O  O50  1  0.09719000  0.27741000  0.50000000  1.0 -0.6319104936
O  O51  1  0.27741000  0.77741000  0.18022000  1.0 -0.6319104936
O  O52  1  0.59719000  0.09719000  0.81978000  1.0 -0.6319104936
O  O53  1  0.56323000  0.32697000  0.50000000  1.0 -0.4092774596
O  O54  1  0.82697000  0.06323000  0.50000000  1.0 -0.4092774596
O  O55  1  0.06323000  0.56323000  0.23626000  1.0 -0.4092774596
O  O56  1  0.32697000  0.82697000  0.76374000  1.0 -0.4092774596
O  O57  1  0.83488000  0.56770000  0.42198000  1.0 0.120653582
O  O58  1  0.14572000  0.41290000  0.57802000  1.0 0.120653582
O  O59  1  0.41290000  0.83488000  0.26718000  1.0 0.120653582
O  O60  1  0.56770000  0.14572000  0.73282000  1.0 0.099444359
O  O61  1  0.33488000  0.91290000  0.26718000  1.0 0.120653582
O  O62  1  0.64572000  0.06770000  0.73282000  1.0 0.099444359
O  O63  1  0.91290000  0.64572000  0.57802000  1.0 0.120653582
O  O64  1  0.06770000  0.33488000  0.42198000  1.0 0.099444359
