# DDEC6 charges by PACMAN v1.1 (https://github.com/mtap-research/PACMAN-charge/)
data_UNEJEE_ASR_pacman
_symmetry_space_group_name_H-M   'P 1'
_cell_length_a   28.19910000
_cell_length_b   28.19910000
_cell_length_c   28.19910000
_cell_angle_alpha   90.00000000
_cell_angle_beta   90.00000000
_cell_angle_gamma   90.00000000
_symmetry_Int_Tables_number   1
_chemical_formula_structural   Zr3H40(C10O3)4
_chemical_formula_sum   'Zr18 H240 C240 O72'
_cell_volume   22423.62092053
_cell_formula_units_Z   6
loop_
 _symmetry_equiv_pos_site_id
 _symmetry_equiv_pos_as_xyz
  1  'x, y, z'
loop_
 _atom_site_type_symbol
 _atom_site_label
 _atom_site_symmetry_multiplicity
 _atom_site_fract_x
 _atom_site_fract_y
 _atom_site_fract_z
 _atom_site_occupancy
 _atom_site_charge
Zr  Zr1  1  0.41264000  0.00000000  0.00000000  1.0 2.3215989187
Zr  Zr2  1  0.00000000  0.41264000  0.00000000  1.0 2.3215989187
Zr  Zr3  1  0.58736000  0.00000000  0.00000000  1.0 2.3215989187
Zr  Zr4  1  0.00000000  0.58736000  0.00000000  1.0 2.3215989187
Zr  Zr5  1  0.00000000  0.00000000  0.58736000  1.0 2.3215989187
Zr  Zr6  1  0.00000000  0.00000000  0.41264000  1.0 2.3215989187
Zr  Zr7  1  0.50000000  0.06254000  0.06254000  1.0 2.4120193237
Zr  Zr8  1  0.93746000  0.50000000  0.06254000  1.0 2.4120193237
Zr  Zr9  1  0.50000000  0.93746000  0.06254000  1.0 2.4120193237
Zr  Zr10  1  0.06254000  0.50000000  0.06254000  1.0 2.4120193237
Zr  Zr11  1  0.50000000  0.93746000  0.93746000  1.0 2.4120193237
Zr  Zr12  1  0.50000000  0.06254000  0.93746000  1.0 2.4120193237
Zr  Zr13  1  0.06254000  0.06254000  0.50000000  1.0 2.4120193237
Zr  Zr14  1  0.93746000  0.06254000  0.50000000  1.0 2.4120193237
Zr  Zr15  1  0.93746000  0.93746000  0.50000000  1.0 2.4120193237
Zr  Zr16  1  0.06254000  0.50000000  0.93746000  1.0 2.4120193237
Zr  Zr17  1  0.93746000  0.50000000  0.93746000  1.0 2.4120193237
Zr  Zr18  1  0.06254000  0.93746000  0.50000000  1.0 2.4120193237
H  H1  1  0.29330000  0.07230000  0.07230000  1.0 0.1079308293
H  H2  1  0.92770000  0.29330000  0.07230000  1.0 0.1079308293
H  H3  1  0.70670000  0.92770000  0.07230000  1.0 0.1079308293
H  H4  1  0.07230000  0.70670000  0.07230000  1.0 0.1079308293
H  H5  1  0.29330000  0.92770000  0.07230000  1.0 0.1079308293
H  H6  1  0.29330000  0.92770000  0.92770000  1.0 0.1079308293
H  H7  1  0.29330000  0.07230000  0.92770000  1.0 0.1079308293
H  H8  1  0.07230000  0.07230000  0.70670000  1.0 0.1079308293
H  H9  1  0.70670000  0.07230000  0.92770000  1.0 0.1079308293
H  H10  1  0.92770000  0.07230000  0.29330000  1.0 0.1079308293
H  H11  1  0.07230000  0.29330000  0.07230000  1.0 0.1079308293
H  H12  1  0.07230000  0.07230000  0.29330000  1.0 0.1079308293
H  H13  1  0.92770000  0.92770000  0.29330000  1.0 0.1079308293
H  H14  1  0.07230000  0.70670000  0.92770000  1.0 0.1079308293
H  H15  1  0.92770000  0.07230000  0.70670000  1.0 0.1079308293
H  H16  1  0.92770000  0.70670000  0.07230000  1.0 0.1079308293
H  H17  1  0.92770000  0.29330000  0.92770000  1.0 0.1079308293
H  H18  1  0.07230000  0.92770000  0.70670000  1.0 0.1079308293
H  H19  1  0.07230000  0.29330000  0.92770000  1.0 0.1079308293
H  H20  1  0.92770000  0.70670000  0.92770000  1.0 0.1079308293
H  H21  1  0.70670000  0.07230000  0.07230000  1.0 0.1079308293
H  H22  1  0.70670000  0.92770000  0.92770000  1.0 0.1079308293
H  H23  1  0.07230000  0.92770000  0.29330000  1.0 0.1079308293
H  H24  1  0.92770000  0.92770000  0.70670000  1.0 0.1079308293
H  H25  1  0.23550000  0.11240000  0.11240000  1.0 0.145813536
H  H26  1  0.88760000  0.23550000  0.11240000  1.0 0.145813536
H  H27  1  0.76450000  0.88760000  0.11240000  1.0 0.145813536
H  H28  1  0.11240000  0.76450000  0.11240000  1.0 0.145813536
H  H29  1  0.23550000  0.88760000  0.11240000  1.0 0.145813536
H  H30  1  0.23550000  0.88760000  0.88760000  1.0 0.145813536
H  H31  1  0.23550000  0.11240000  0.88760000  1.0 0.145813536
H  H32  1  0.11240000  0.11240000  0.76450000  1.0 0.145813536
H  H33  1  0.76450000  0.11240000  0.88760000  1.0 0.145813536
H  H34  1  0.88760000  0.11240000  0.23550000  1.0 0.145813536
H  H35  1  0.11240000  0.23550000  0.11240000  1.0 0.145813536
H  H36  1  0.11240000  0.11240000  0.23550000  1.0 0.145813536
H  H37  1  0.88760000  0.88760000  0.23550000  1.0 0.145813536
H  H38  1  0.11240000  0.76450000  0.88760000  1.0 0.145813536
H  H39  1  0.88760000  0.11240000  0.76450000  1.0 0.145813536
H  H40  1  0.88760000  0.76450000  0.11240000  1.0 0.145813536
H  H41  1  0.88760000  0.23550000  0.88760000  1.0 0.145813536
H  H42  1  0.11240000  0.88760000  0.76450000  1.0 0.145813536
H  H43  1  0.11240000  0.23550000  0.88760000  1.0 0.145813536
H  H44  1  0.88760000  0.76450000  0.88760000  1.0 0.145813536
H  H45  1  0.76450000  0.11240000  0.11240000  1.0 0.145813536
H  H46  1  0.76450000  0.88760000  0.88760000  1.0 0.145813536
H  H47  1  0.11240000  0.88760000  0.23550000  1.0 0.145813536
H  H48  1  0.88760000  0.88760000  0.76450000  1.0 0.145813536
H  H49  1  0.33310000  0.18490000  0.18490000  1.0 0.1434194093
H  H50  1  0.81510000  0.33310000  0.18490000  1.0 0.1434194093
H  H51  1  0.66690000  0.81510000  0.18490000  1.0 0.1434194093
H  H52  1  0.18490000  0.66690000  0.18490000  1.0 0.1434194093
H  H53  1  0.33310000  0.81510000  0.18490000  1.0 0.1434194093
H  H54  1  0.33310000  0.81510000  0.81510000  1.0 0.1434194093
H  H55  1  0.33310000  0.18490000  0.81510000  1.0 0.1434194093
H  H56  1  0.18490000  0.18490000  0.66690000  1.0 0.1434194093
H  H57  1  0.66690000  0.18490000  0.81510000  1.0 0.1434194093
H  H58  1  0.81510000  0.18490000  0.33310000  1.0 0.1434194093
H  H59  1  0.18490000  0.33310000  0.18490000  1.0 0.1434194093
H  H60  1  0.18490000  0.18490000  0.33310000  1.0 0.1434194093
H  H61  1  0.81510000  0.81510000  0.33310000  1.0 0.1434194093
H  H62  1  0.18490000  0.66690000  0.81510000  1.0 0.1434194093
H  H63  1  0.81510000  0.18490000  0.66690000  1.0 0.1434194093
H  H64  1  0.81510000  0.66690000  0.18490000  1.0 0.1434194093
H  H65  1  0.81510000  0.33310000  0.81510000  1.0 0.1434194093
H  H66  1  0.18490000  0.81510000  0.66690000  1.0 0.1434194093
H  H67  1  0.18490000  0.33310000  0.81510000  1.0 0.1434194093
H  H68  1  0.81510000  0.66690000  0.81510000  1.0 0.1434194093
H  H69  1  0.66690000  0.18490000  0.18490000  1.0 0.1434194093
H  H70  1  0.66690000  0.81510000  0.81510000  1.0 0.1434194093
H  H71  1  0.18490000  0.81510000  0.33310000  1.0 0.1434194093
H  H72  1  0.81510000  0.81510000  0.66690000  1.0 0.1434194093
H  H73  1  0.39080000  0.14380000  0.14380000  1.0 0.0898775414
H  H74  1  0.85620000  0.39080000  0.14380000  1.0 0.0898775414
H  H75  1  0.60920000  0.85620000  0.14380000  1.0 0.0898775414
H  H76  1  0.14380000  0.60920000  0.14380000  1.0 0.0898775414
H  H77  1  0.39080000  0.85620000  0.14380000  1.0 0.0898775414
H  H78  1  0.39080000  0.85620000  0.85620000  1.0 0.0898775414
H  H79  1  0.39080000  0.14380000  0.85620000  1.0 0.0898775414
H  H80  1  0.14380000  0.14380000  0.60920000  1.0 0.0898775414
H  H81  1  0.60920000  0.14380000  0.85620000  1.0 0.0898775414
H  H82  1  0.85620000  0.14380000  0.39080000  1.0 0.0898775414
H  H83  1  0.14380000  0.39080000  0.14380000  1.0 0.0898775414
H  H84  1  0.14380000  0.14380000  0.39080000  1.0 0.0898775414
H  H85  1  0.85620000  0.85620000  0.39080000  1.0 0.0898775414
H  H86  1  0.14380000  0.60920000  0.85620000  1.0 0.0898775414
H  H87  1  0.85620000  0.14380000  0.60920000  1.0 0.0898775414
H  H88  1  0.85620000  0.60920000  0.14380000  1.0 0.0898775414
H  H89  1  0.85620000  0.39080000  0.85620000  1.0 0.0898775414
H  H90  1  0.14380000  0.85620000  0.60920000  1.0 0.0898775414
H  H91  1  0.14380000  0.39080000  0.85620000  1.0 0.0898775414
H  H92  1  0.85620000  0.60920000  0.85620000  1.0 0.0898775414
H  H93  1  0.60920000  0.14380000  0.14380000  1.0 0.0898775414
H  H94  1  0.60920000  0.85620000  0.85620000  1.0 0.0898775414
H  H95  1  0.14380000  0.85620000  0.39080000  1.0 0.0898775414
H  H96  1  0.85620000  0.85620000  0.60920000  1.0 0.0898775414
H  H97  1  0.26740000  0.22210000  0.10410000  1.0 0.0207642755
H  H98  1  0.77790000  0.26740000  0.10410000  1.0 0.0207642755
H  H99  1  0.73260000  0.77790000  0.10410000  1.0 0.0207642755
H  H100  1  0.22210000  0.73260000  0.10410000  1.0 0.0207642755
H  H101  1  0.26740000  0.89590000  0.22210000  1.0 0.0207642755
H  H102  1  0.26740000  0.77790000  0.89590000  1.0 0.0207642755
H  H103  1  0.26740000  0.10410000  0.77790000  1.0 0.0207642755
H  H104  1  0.10410000  0.22210000  0.73260000  1.0 0.0207642755
H  H105  1  0.73260000  0.22210000  0.89590000  1.0 0.0207642755
H  H106  1  0.89590000  0.22210000  0.26740000  1.0 0.0207642755
H  H107  1  0.10410000  0.26740000  0.22210000  1.0 0.0207642755
H  H108  1  0.22210000  0.10410000  0.26740000  1.0 0.0207642755
H  H109  1  0.77790000  0.89590000  0.26740000  1.0 0.0207642755
H  H110  1  0.10410000  0.73260000  0.77790000  1.0 0.0207642755
H  H111  1  0.77790000  0.10410000  0.73260000  1.0 0.0207642755
H  H112  1  0.89590000  0.73260000  0.22210000  1.0 0.0207642755
H  H113  1  0.89590000  0.26740000  0.77790000  1.0 0.0207642755
H  H114  1  0.22210000  0.89590000  0.73260000  1.0 0.0207642755
H  H115  1  0.22210000  0.26740000  0.89590000  1.0 0.0207642755
H  H116  1  0.77790000  0.73260000  0.89590000  1.0 0.0207642755
H  H117  1  0.73260000  0.10410000  0.22210000  1.0 0.0207642755
H  H118  1  0.73260000  0.89590000  0.77790000  1.0 0.0207642755
H  H119  1  0.10410000  0.77790000  0.26740000  1.0 0.0207642755
H  H120  1  0.89590000  0.77790000  0.73260000  1.0 0.0207642755
H  H121  1  0.73260000  0.77790000  0.89590000  1.0 0.0207642755
H  H122  1  0.22210000  0.73260000  0.89590000  1.0 0.0207642755
H  H123  1  0.26740000  0.22210000  0.89590000  1.0 0.0207642755
H  H124  1  0.77790000  0.26740000  0.89590000  1.0 0.0207642755
H  H125  1  0.73260000  0.10410000  0.77790000  1.0 0.0207642755
H  H126  1  0.73260000  0.22210000  0.10410000  1.0 0.0207642755
H  H127  1  0.73260000  0.89590000  0.22210000  1.0 0.0207642755
H  H128  1  0.89590000  0.77790000  0.26740000  1.0 0.0207642755
H  H129  1  0.26740000  0.77790000  0.10410000  1.0 0.0207642755
H  H130  1  0.10410000  0.77790000  0.73260000  1.0 0.0207642755
H  H131  1  0.89590000  0.73260000  0.77790000  1.0 0.0207642755
H  H132  1  0.77790000  0.89590000  0.73260000  1.0 0.0207642755
H  H133  1  0.22210000  0.10410000  0.73260000  1.0 0.0207642755
H  H134  1  0.89590000  0.26740000  0.22210000  1.0 0.0207642755
H  H135  1  0.22210000  0.89590000  0.26740000  1.0 0.0207642755
H  H136  1  0.10410000  0.26740000  0.77790000  1.0 0.0207642755
H  H137  1  0.10410000  0.73260000  0.22210000  1.0 0.0207642755
H  H138  1  0.77790000  0.10410000  0.26740000  1.0 0.0207642755
H  H139  1  0.77790000  0.73260000  0.10410000  1.0 0.0207642755
H  H140  1  0.22210000  0.26740000  0.10410000  1.0 0.0207642755
H  H141  1  0.26740000  0.89590000  0.77790000  1.0 0.0207642755
H  H142  1  0.26740000  0.10410000  0.22210000  1.0 0.0207642755
H  H143  1  0.89590000  0.22210000  0.73260000  1.0 0.0207642755
H  H144  1  0.10410000  0.22210000  0.26740000  1.0 0.0207642755
H  H145  1  0.24610000  0.27120000  0.11910000  1.0 0.0207642755
H  H146  1  0.72880000  0.24610000  0.11910000  1.0 0.0207642755
H  H147  1  0.75390000  0.72880000  0.11910000  1.0 0.0207642755
H  H148  1  0.27120000  0.75390000  0.11910000  1.0 0.0207642755
H  H149  1  0.24610000  0.88090000  0.27120000  1.0 0.0207642755
H  H150  1  0.24610000  0.72880000  0.88090000  1.0 0.0207642755
H  H151  1  0.24610000  0.11910000  0.72880000  1.0 0.0207642755
H  H152  1  0.11910000  0.27120000  0.75390000  1.0 0.0207642755
H  H153  1  0.75390000  0.27120000  0.88090000  1.0 0.0207642755
H  H154  1  0.88090000  0.27120000  0.24610000  1.0 0.0207642755
H  H155  1  0.11910000  0.24610000  0.27120000  1.0 0.0207642755
H  H156  1  0.27120000  0.11910000  0.24610000  1.0 0.0207642755
H  H157  1  0.72880000  0.88090000  0.24610000  1.0 0.0207642755
H  H158  1  0.11910000  0.75390000  0.72880000  1.0 0.0207642755
H  H159  1  0.72880000  0.11910000  0.75390000  1.0 0.0207642755
H  H160  1  0.88090000  0.75390000  0.27120000  1.0 0.0207642755
H  H161  1  0.88090000  0.24610000  0.72880000  1.0 0.0207642755
H  H162  1  0.27120000  0.88090000  0.75390000  1.0 0.0207642755
H  H163  1  0.27120000  0.24610000  0.88090000  1.0 0.0207642755
H  H164  1  0.72880000  0.75390000  0.88090000  1.0 0.0207642755
H  H165  1  0.75390000  0.11910000  0.27120000  1.0 0.0207642755
H  H166  1  0.75390000  0.88090000  0.72880000  1.0 0.0207642755
H  H167  1  0.11910000  0.72880000  0.24610000  1.0 0.0207642755
H  H168  1  0.88090000  0.72880000  0.75390000  1.0 0.0207642755
H  H169  1  0.75390000  0.72880000  0.88090000  1.0 0.0207642755
H  H170  1  0.27120000  0.75390000  0.88090000  1.0 0.0207642755
H  H171  1  0.24610000  0.27120000  0.88090000  1.0 0.0207642755
H  H172  1  0.72880000  0.24610000  0.88090000  1.0 0.0207642755
H  H173  1  0.75390000  0.11910000  0.72880000  1.0 0.0207642755
H  H174  1  0.75390000  0.27120000  0.11910000  1.0 0.0207642755
H  H175  1  0.75390000  0.88090000  0.27120000  1.0 0.0207642755
H  H176  1  0.88090000  0.72880000  0.24610000  1.0 0.0207642755
H  H177  1  0.24610000  0.72880000  0.11910000  1.0 0.0207642755
H  H178  1  0.11910000  0.72880000  0.75390000  1.0 0.0207642755
H  H179  1  0.88090000  0.75390000  0.72880000  1.0 0.0207642755
H  H180  1  0.72880000  0.88090000  0.75390000  1.0 0.0207642755
H  H181  1  0.27120000  0.11910000  0.75390000  1.0 0.0207642755
H  H182  1  0.88090000  0.24610000  0.27120000  1.0 0.0207642755
H  H183  1  0.27120000  0.88090000  0.24610000  1.0 0.0207642755
H  H184  1  0.11910000  0.24610000  0.72880000  1.0 0.0207642755
H  H185  1  0.11910000  0.75390000  0.27120000  1.0 0.0207642755
H  H186  1  0.72880000  0.11910000  0.24610000  1.0 0.0207642755
H  H187  1  0.72880000  0.75390000  0.11910000  1.0 0.0207642755
H  H188  1  0.27120000  0.24610000  0.11910000  1.0 0.0207642755
H  H189  1  0.24610000  0.88090000  0.72880000  1.0 0.0207642755
H  H190  1  0.24610000  0.11910000  0.27120000  1.0 0.0207642755
H  H191  1  0.88090000  0.27120000  0.75390000  1.0 0.0207642755
H  H192  1  0.11910000  0.27120000  0.24610000  1.0 0.0207642755
H  H193  1  0.21740000  0.23760000  0.08540000  1.0 0.0322644464
H  H194  1  0.76240000  0.21740000  0.08540000  1.0 0.0322644464
H  H195  1  0.78260000  0.76240000  0.08540000  1.0 0.0322644464
H  H196  1  0.23760000  0.78260000  0.08540000  1.0 0.0322644464
H  H197  1  0.21740000  0.91460000  0.23760000  1.0 0.0322644464
H  H198  1  0.21740000  0.76240000  0.91460000  1.0 0.0322644464
H  H199  1  0.21740000  0.08540000  0.76240000  1.0 0.0322644464
H  H200  1  0.08540000  0.23760000  0.78260000  1.0 0.0322644464
H  H201  1  0.78260000  0.23760000  0.91460000  1.0 0.0322644464
H  H202  1  0.91460000  0.23760000  0.21740000  1.0 0.0322644464
H  H203  1  0.08540000  0.21740000  0.23760000  1.0 0.0322644464
H  H204  1  0.23760000  0.08540000  0.21740000  1.0 0.0322644464
H  H205  1  0.76240000  0.91460000  0.21740000  1.0 0.0322644464
H  H206  1  0.08540000  0.78260000  0.76240000  1.0 0.0322644464
H  H207  1  0.76240000  0.08540000  0.78260000  1.0 0.0322644464
H  H208  1  0.91460000  0.78260000  0.23760000  1.0 0.0322644464
H  H209  1  0.91460000  0.21740000  0.76240000  1.0 0.0322644464
H  H210  1  0.23760000  0.91460000  0.78260000  1.0 0.0322644464
H  H211  1  0.23760000  0.21740000  0.91460000  1.0 0.0322644464
H  H212  1  0.76240000  0.78260000  0.91460000  1.0 0.0322644464
H  H213  1  0.78260000  0.08540000  0.23760000  1.0 0.0322644464
H  H214  1  0.78260000  0.91460000  0.76240000  1.0 0.0322644464
H  H215  1  0.08540000  0.76240000  0.21740000  1.0 0.0322644464
H  H216  1  0.91460000  0.76240000  0.78260000  1.0 0.0322644464
H  H217  1  0.78260000  0.76240000  0.91460000  1.0 0.0322644464
H  H218  1  0.23760000  0.78260000  0.91460000  1.0 0.0322644464
H  H219  1  0.21740000  0.23760000  0.91460000  1.0 0.0322644464
H  H220  1  0.76240000  0.21740000  0.91460000  1.0 0.0322644464
H  H221  1  0.78260000  0.08540000  0.76240000  1.0 0.0322644464
H  H222  1  0.78260000  0.23760000  0.08540000  1.0 0.0322644464
H  H223  1  0.78260000  0.91460000  0.23760000  1.0 0.0322644464
H  H224  1  0.91460000  0.76240000  0.21740000  1.0 0.0322644464
H  H225  1  0.21740000  0.76240000  0.08540000  1.0 0.0322644464
H  H226  1  0.08540000  0.76240000  0.78260000  1.0 0.0322644464
H  H227  1  0.91460000  0.78260000  0.76240000  1.0 0.0322644464
H  H228  1  0.76240000  0.91460000  0.78260000  1.0 0.0322644464
H  H229  1  0.23760000  0.08540000  0.78260000  1.0 0.0322644464
H  H230  1  0.91460000  0.21740000  0.23760000  1.0 0.0322644464
H  H231  1  0.23760000  0.91460000  0.21740000  1.0 0.0322644464
H  H232  1  0.08540000  0.21740000  0.76240000  1.0 0.0322644464
H  H233  1  0.08540000  0.78260000  0.23760000  1.0 0.0322644464
H  H234  1  0.76240000  0.08540000  0.21740000  1.0 0.0322644464
H  H235  1  0.76240000  0.78260000  0.08540000  1.0 0.0322644464
H  H236  1  0.23760000  0.21740000  0.08540000  1.0 0.0322644464
H  H237  1  0.21740000  0.91460000  0.76240000  1.0 0.0322644464
H  H238  1  0.21740000  0.08540000  0.23760000  1.0 0.0322644464
H  H239  1  0.91460000  0.23760000  0.78260000  1.0 0.0322644464
H  H240  1  0.08540000  0.23760000  0.21740000  1.0 0.0322644464
C  C1  1  0.38520000  0.07880000  0.07880000  1.0 0.519793641
C  C2  1  0.92120000  0.38520000  0.07880000  1.0 0.519793641
C  C3  1  0.61480000  0.92120000  0.07880000  1.0 0.519793641
C  C4  1  0.07880000  0.61480000  0.07880000  1.0 0.519793641
C  C5  1  0.38520000  0.92120000  0.07880000  1.0 0.519793641
C  C6  1  0.38520000  0.92120000  0.92120000  1.0 0.519793641
C  C7  1  0.38520000  0.07880000  0.92120000  1.0 0.519793641
C  C8  1  0.07880000  0.07880000  0.61480000  1.0 0.519793641
C  C9  1  0.61480000  0.07880000  0.92120000  1.0 0.519793641
C  C10  1  0.92120000  0.07880000  0.38520000  1.0 0.519793641
C  C11  1  0.07880000  0.38520000  0.07880000  1.0 0.519793641
C  C12  1  0.07880000  0.07880000  0.38520000  1.0 0.519793641
C  C13  1  0.92120000  0.92120000  0.38520000  1.0 0.519793641
C  C14  1  0.07880000  0.61480000  0.92120000  1.0 0.519793641
C  C15  1  0.92120000  0.07880000  0.61480000  1.0 0.519793641
C  C16  1  0.92120000  0.61480000  0.07880000  1.0 0.519793641
C  C17  1  0.92120000  0.38520000  0.92120000  1.0 0.519793641
C  C18  1  0.07880000  0.92120000  0.61480000  1.0 0.519793641
C  C19  1  0.07880000  0.38520000  0.92120000  1.0 0.519793641
C  C20  1  0.92120000  0.61480000  0.92120000  1.0 0.519793641
C  C21  1  0.61480000  0.07880000  0.07880000  1.0 0.519793641
C  C22  1  0.61480000  0.92120000  0.92120000  1.0 0.519793641
C  C23  1  0.07880000  0.92120000  0.38520000  1.0 0.519793641
C  C24  1  0.92120000  0.92120000  0.61480000  1.0 0.519793641
C  C25  1  0.35110000  0.10080000  0.10080000  1.0 -0.1471068373
C  C26  1  0.89920000  0.35110000  0.10080000  1.0 -0.1471068373
C  C27  1  0.64890000  0.89920000  0.10080000  1.0 -0.1471068373
C  C28  1  0.10080000  0.64890000  0.10080000  1.0 -0.1471068373
C  C29  1  0.35110000  0.89920000  0.10080000  1.0 -0.1471068373
C  C30  1  0.35110000  0.89920000  0.89920000  1.0 -0.1471068373
C  C31  1  0.35110000  0.10080000  0.89920000  1.0 -0.1471068373
C  C32  1  0.10080000  0.10080000  0.64890000  1.0 -0.1471068373
C  C33  1  0.64890000  0.10080000  0.89920000  1.0 -0.1471068373
C  C34  1  0.89920000  0.10080000  0.35110000  1.0 -0.1471068373
C  C35  1  0.10080000  0.35110000  0.10080000  1.0 -0.1471068373
C  C36  1  0.10080000  0.10080000  0.35110000  1.0 -0.1471068373
C  C37  1  0.89920000  0.89920000  0.35110000  1.0 -0.1471068373
C  C38  1  0.10080000  0.64890000  0.89920000  1.0 -0.1471068373
C  C39  1  0.89920000  0.10080000  0.64890000  1.0 -0.1471068373
C  C40  1  0.89920000  0.64890000  0.10080000  1.0 -0.1471068373
C  C41  1  0.89920000  0.35110000  0.89920000  1.0 -0.1471068373
C  C42  1  0.10080000  0.89920000  0.64890000  1.0 -0.1471068373
C  C43  1  0.10080000  0.35110000  0.89920000  1.0 -0.1471068373
C  C44  1  0.89920000  0.64890000  0.89920000  1.0 -0.1471068373
C  C45  1  0.64890000  0.10080000  0.10080000  1.0 -0.1471068373
C  C46  1  0.64890000  0.89920000  0.89920000  1.0 -0.1471068373
C  C47  1  0.10080000  0.89920000  0.35110000  1.0 -0.1471068373
C  C48  1  0.89920000  0.89920000  0.64890000  1.0 -0.1471068373
C  C49  1  0.30290000  0.09460000  0.09460000  1.0 0.0113413221
C  C50  1  0.90540000  0.30290000  0.09460000  1.0 0.0113413221
C  C51  1  0.69710000  0.90540000  0.09460000  1.0 0.0113413221
C  C52  1  0.09460000  0.69710000  0.09460000  1.0 0.0113413221
C  C53  1  0.30290000  0.90540000  0.09460000  1.0 0.0113413221
C  C54  1  0.30290000  0.90540000  0.90540000  1.0 0.0113413221
C  C55  1  0.30290000  0.09460000  0.90540000  1.0 0.0113413221
C  C56  1  0.09460000  0.09460000  0.69710000  1.0 0.0113413221
C  C57  1  0.69710000  0.09460000  0.90540000  1.0 0.0113413221
C  C58  1  0.90540000  0.09460000  0.30290000  1.0 0.0113413221
C  C59  1  0.09460000  0.30290000  0.09460000  1.0 0.0113413221
C  C60  1  0.09460000  0.09460000  0.30290000  1.0 0.0113413221
C  C61  1  0.90540000  0.90540000  0.30290000  1.0 0.0113413221
C  C62  1  0.09460000  0.69710000  0.90540000  1.0 0.0113413221
C  C63  1  0.90540000  0.09460000  0.69710000  1.0 0.0113413221
C  C64  1  0.90540000  0.69710000  0.09460000  1.0 0.0113413221
C  C65  1  0.90540000  0.30290000  0.90540000  1.0 0.0113413221
C  C66  1  0.09460000  0.90540000  0.69710000  1.0 0.0113413221
C  C67  1  0.09460000  0.30290000  0.90540000  1.0 0.0113413221
C  C68  1  0.90540000  0.69710000  0.90540000  1.0 0.0113413221
C  C69  1  0.69710000  0.09460000  0.09460000  1.0 0.0113413221
C  C70  1  0.69710000  0.90540000  0.90540000  1.0 0.0113413221
C  C71  1  0.09460000  0.90540000  0.30290000  1.0 0.0113413221
C  C72  1  0.90540000  0.90540000  0.69710000  1.0 0.0113413221
C  C73  1  0.26700000  0.11920000  0.11920000  1.0 -0.1952915526
C  C74  1  0.88080000  0.26700000  0.11920000  1.0 -0.1952915526
C  C75  1  0.73300000  0.88080000  0.11920000  1.0 -0.1952915526
C  C76  1  0.11920000  0.73300000  0.11920000  1.0 -0.1946683711
C  C77  1  0.26700000  0.88080000  0.11920000  1.0 -0.1946683711
C  C78  1  0.26700000  0.88080000  0.88080000  1.0 -0.1946683711
C  C79  1  0.26700000  0.11920000  0.88080000  1.0 -0.1946683711
C  C80  1  0.11920000  0.11920000  0.73300000  1.0 -0.1946683711
C  C81  1  0.73300000  0.11920000  0.88080000  1.0 -0.1952915526
C  C82  1  0.88080000  0.11920000  0.26700000  1.0 -0.1952915526
C  C83  1  0.11920000  0.26700000  0.11920000  1.0 -0.1946683711
C  C84  1  0.11920000  0.11920000  0.26700000  1.0 -0.1946683711
C  C85  1  0.88080000  0.88080000  0.26700000  1.0 -0.1946683711
C  C86  1  0.11920000  0.73300000  0.88080000  1.0 -0.1946683711
C  C87  1  0.88080000  0.11920000  0.73300000  1.0 -0.1952915526
C  C88  1  0.88080000  0.73300000  0.11920000  1.0 -0.1952915526
C  C89  1  0.88080000  0.26700000  0.88080000  1.0 -0.1952915526
C  C90  1  0.11920000  0.88080000  0.73300000  1.0 -0.1946683711
C  C91  1  0.11920000  0.26700000  0.88080000  1.0 -0.1946683711
C  C92  1  0.88080000  0.73300000  0.88080000  1.0 -0.1946683711
C  C93  1  0.73300000  0.11920000  0.11920000  1.0 -0.1952915526
C  C94  1  0.73300000  0.88080000  0.88080000  1.0 -0.1946683711
C  C95  1  0.11920000  0.88080000  0.26700000  1.0 -0.1946683711
C  C96  1  0.88080000  0.88080000  0.73300000  1.0 -0.1946683711
C  C97  1  0.27700000  0.15220000  0.15220000  1.0 0.0530864377
C  C98  1  0.84780000  0.27700000  0.15220000  1.0 0.0530864377
C  C99  1  0.72300000  0.84780000  0.15220000  1.0 0.0530864377
C  C100  1  0.15220000  0.72300000  0.15220000  1.0 0.0530864377
C  C101  1  0.27700000  0.84780000  0.15220000  1.0 0.0530864377
C  C102  1  0.27700000  0.84780000  0.84780000  1.0 0.0530864377
C  C103  1  0.27700000  0.15220000  0.84780000  1.0 0.0530864377
C  C104  1  0.15220000  0.15220000  0.72300000  1.0 0.0530864377
C  C105  1  0.72300000  0.15220000  0.84780000  1.0 0.0530864377
C  C106  1  0.84780000  0.15220000  0.27700000  1.0 0.0530864377
C  C107  1  0.15220000  0.27700000  0.15220000  1.0 0.0530864377
C  C108  1  0.15220000  0.15220000  0.27700000  1.0 0.0530864377
C  C109  1  0.84780000  0.84780000  0.27700000  1.0 0.0530864377
C  C110  1  0.15220000  0.72300000  0.84780000  1.0 0.0530864377
C  C111  1  0.84780000  0.15220000  0.72300000  1.0 0.0530864377
C  C112  1  0.84780000  0.72300000  0.15220000  1.0 0.0530864377
C  C113  1  0.84780000  0.27700000  0.84780000  1.0 0.0530864377
C  C114  1  0.15220000  0.84780000  0.72300000  1.0 0.0530864377
C  C115  1  0.15220000  0.27700000  0.84780000  1.0 0.0530864377
C  C116  1  0.84780000  0.72300000  0.84780000  1.0 0.0530864377
C  C117  1  0.72300000  0.15220000  0.15220000  1.0 0.0530864377
C  C118  1  0.72300000  0.84780000  0.84780000  1.0 0.0530864377
C  C119  1  0.15220000  0.84780000  0.27700000  1.0 0.0530864377
C  C120  1  0.84780000  0.84780000  0.72300000  1.0 0.0530864377
C  C121  1  0.32470000  0.16240000  0.16240000  1.0 -0.1366415504
C  C122  1  0.83760000  0.32470000  0.16240000  1.0 -0.1366415504
C  C123  1  0.67530000  0.83760000  0.16240000  1.0 -0.1366415504
C  C124  1  0.16240000  0.67530000  0.16240000  1.0 -0.1366415504
C  C125  1  0.32470000  0.83760000  0.16240000  1.0 -0.1366415504
C  C126  1  0.32470000  0.83760000  0.83760000  1.0 -0.1366415504
C  C127  1  0.32470000  0.16240000  0.83760000  1.0 -0.1366415504
C  C128  1  0.16240000  0.16240000  0.67530000  1.0 -0.1366415504
C  C129  1  0.67530000  0.16240000  0.83760000  1.0 -0.1366415504
C  C130  1  0.83760000  0.16240000  0.32470000  1.0 -0.1366415504
C  C131  1  0.16240000  0.32470000  0.16240000  1.0 -0.1366415504
C  C132  1  0.16240000  0.16240000  0.32470000  1.0 -0.1366415504
C  C133  1  0.83760000  0.83760000  0.32470000  1.0 -0.1366415504
C  C134  1  0.16240000  0.67530000  0.83760000  1.0 -0.1366415504
C  C135  1  0.83760000  0.16240000  0.67530000  1.0 -0.1366415504
C  C136  1  0.83760000  0.67530000  0.16240000  1.0 -0.1366415504
C  C137  1  0.83760000  0.32470000  0.83760000  1.0 -0.1366415504
C  C138  1  0.16240000  0.83760000  0.67530000  1.0 -0.1366415504
C  C139  1  0.16240000  0.32470000  0.83760000  1.0 -0.1366415504
C  C140  1  0.83760000  0.67530000  0.83760000  1.0 -0.1366415504
C  C141  1  0.67530000  0.16240000  0.16240000  1.0 -0.1366415504
C  C142  1  0.67530000  0.83760000  0.83760000  1.0 -0.1366415504
C  C143  1  0.16240000  0.83760000  0.32470000  1.0 -0.1366415504
C  C144  1  0.83760000  0.83760000  0.67530000  1.0 -0.1366415504
C  C145  1  0.35930000  0.13680000  0.13680000  1.0 0.0207642755
C  C146  1  0.86320000  0.35930000  0.13680000  1.0 0.0207642755
C  C147  1  0.64070000  0.86320000  0.13680000  1.0 0.0207642755
C  C148  1  0.13680000  0.64070000  0.13680000  1.0 0.0207642755
C  C149  1  0.35930000  0.86320000  0.13680000  1.0 0.0207642755
C  C150  1  0.35930000  0.86320000  0.86320000  1.0 0.0207642755
C  C151  1  0.35930000  0.13680000  0.86320000  1.0 0.0207642755
C  C152  1  0.13680000  0.13680000  0.64070000  1.0 0.0207642755
C  C153  1  0.64070000  0.13680000  0.86320000  1.0 0.0207642755
C  C154  1  0.86320000  0.13680000  0.35930000  1.0 0.0207642755
C  C155  1  0.13680000  0.35930000  0.13680000  1.0 0.0207642755
C  C156  1  0.13680000  0.13680000  0.35930000  1.0 0.0207642755
C  C157  1  0.86320000  0.86320000  0.35930000  1.0 0.0207642755
C  C158  1  0.13680000  0.64070000  0.86320000  1.0 0.0207642755
C  C159  1  0.86320000  0.13680000  0.64070000  1.0 0.0207642755
C  C160  1  0.86320000  0.64070000  0.13680000  1.0 0.0207642755
C  C161  1  0.86320000  0.35930000  0.86320000  1.0 0.0207642755
C  C162  1  0.13680000  0.86320000  0.64070000  1.0 0.0207642755
C  C163  1  0.13680000  0.35930000  0.86320000  1.0 0.0207642755
C  C164  1  0.86320000  0.64070000  0.86320000  1.0 0.0207642755
C  C165  1  0.64070000  0.13680000  0.13680000  1.0 0.0207642755
C  C166  1  0.64070000  0.86320000  0.86320000  1.0 0.0207642755
C  C167  1  0.13680000  0.86320000  0.35930000  1.0 0.0207642755
C  C168  1  0.86320000  0.86320000  0.64070000  1.0 0.0207642755
C  C169  1  0.23760000  0.17650000  0.17650000  1.0 -0.0315163927
C  C170  1  0.82350000  0.23760000  0.17650000  1.0 -0.0315163927
C  C171  1  0.76240000  0.82350000  0.17650000  1.0 -0.0315163927
C  C172  1  0.17650000  0.76240000  0.17650000  1.0 -0.0315163927
C  C173  1  0.23760000  0.82350000  0.17650000  1.0 -0.0315163927
C  C174  1  0.23760000  0.82350000  0.82350000  1.0 -0.0315163927
C  C175  1  0.23760000  0.17650000  0.82350000  1.0 -0.0315163927
C  C176  1  0.17650000  0.17650000  0.76240000  1.0 -0.0315163927
C  C177  1  0.76240000  0.17650000  0.82350000  1.0 -0.0315163927
C  C178  1  0.82350000  0.17650000  0.23760000  1.0 -0.0315163927
C  C179  1  0.17650000  0.23760000  0.17650000  1.0 -0.0315163927
C  C180  1  0.17650000  0.17650000  0.23760000  1.0 -0.0315163927
C  C181  1  0.82350000  0.82350000  0.23760000  1.0 -0.0315163927
C  C182  1  0.17650000  0.76240000  0.82350000  1.0 -0.0315163927
C  C183  1  0.82350000  0.17650000  0.76240000  1.0 -0.0315163927
C  C184  1  0.82350000  0.76240000  0.17650000  1.0 -0.0315163927
C  C185  1  0.82350000  0.23760000  0.82350000  1.0 -0.0315163927
C  C186  1  0.17650000  0.82350000  0.76240000  1.0 -0.0315163927
C  C187  1  0.17650000  0.23760000  0.82350000  1.0 -0.0315163927
C  C188  1  0.82350000  0.76240000  0.82350000  1.0 -0.0315163927
C  C189  1  0.76240000  0.17650000  0.17650000  1.0 -0.0315163927
C  C190  1  0.76240000  0.82350000  0.82350000  1.0 -0.0315163927
C  C191  1  0.17650000  0.82350000  0.23760000  1.0 -0.0315163927
C  C192  1  0.82350000  0.82350000  0.76240000  1.0 -0.0315163927
C  C193  1  0.21540000  0.21540000  0.15490000  1.0 0.0113413221
C  C194  1  0.78460000  0.21540000  0.15490000  1.0 0.0113413221
C  C195  1  0.78460000  0.78460000  0.15490000  1.0 0.0113413221
C  C196  1  0.21540000  0.78460000  0.15490000  1.0 0.0113413221
C  C197  1  0.21540000  0.84510000  0.21540000  1.0 0.0113413221
C  C198  1  0.21540000  0.78460000  0.84510000  1.0 0.0113413221
C  C199  1  0.21540000  0.15490000  0.78460000  1.0 0.0113413221
C  C200  1  0.15490000  0.21540000  0.78460000  1.0 0.0113413221
C  C201  1  0.78460000  0.21540000  0.84510000  1.0 0.0113413221
C  C202  1  0.84510000  0.21540000  0.21540000  1.0 0.0113413221
C  C203  1  0.15490000  0.21540000  0.21540000  1.0 0.0113413221
C  C204  1  0.21540000  0.15490000  0.21540000  1.0 0.0113413221
C  C205  1  0.78460000  0.84510000  0.21540000  1.0 0.0113413221
C  C206  1  0.15490000  0.78460000  0.78460000  1.0 0.0113413221
C  C207  1  0.78460000  0.15490000  0.78460000  1.0 0.0113413221
C  C208  1  0.84510000  0.78460000  0.21540000  1.0 0.0113413221
C  C209  1  0.84510000  0.21540000  0.78460000  1.0 0.0113413221
C  C210  1  0.21540000  0.84510000  0.78460000  1.0 0.0113413221
C  C211  1  0.21540000  0.21540000  0.84510000  1.0 0.0113413221
C  C212  1  0.78460000  0.78460000  0.84510000  1.0 0.0113413221
C  C213  1  0.78460000  0.15490000  0.21540000  1.0 0.0113413221
C  C214  1  0.78460000  0.84510000  0.78460000  1.0 0.0113413221
C  C215  1  0.15490000  0.78460000  0.21540000  1.0 0.0113413221
C  C216  1  0.84510000  0.78460000  0.78460000  1.0 0.0113413221
C  C217  1  0.23880000  0.23880000  0.11190000  1.0 -0.2244634962
C  C218  1  0.76120000  0.23880000  0.11190000  1.0 -0.2244634962
C  C219  1  0.76120000  0.76120000  0.11190000  1.0 -0.2267775869
C  C220  1  0.23880000  0.76120000  0.11190000  1.0 -0.2267775869
C  C221  1  0.23880000  0.88810000  0.23880000  1.0 -0.2267775869
C  C222  1  0.23880000  0.76120000  0.88810000  1.0 -0.2267775869
C  C223  1  0.23880000  0.11190000  0.76120000  1.0 -0.2244634962
C  C224  1  0.11190000  0.23880000  0.76120000  1.0 -0.2244634962
C  C225  1  0.76120000  0.23880000  0.88810000  1.0 -0.2267775869
C  C226  1  0.88810000  0.23880000  0.23880000  1.0 -0.2267775869
C  C227  1  0.11190000  0.23880000  0.23880000  1.0 -0.2244634962
C  C228  1  0.23880000  0.11190000  0.23880000  1.0 -0.2244634962
C  C229  1  0.76120000  0.88810000  0.23880000  1.0 -0.2267775869
C  C230  1  0.11190000  0.76120000  0.76120000  1.0 -0.2267775869
C  C231  1  0.76120000  0.11190000  0.76120000  1.0 -0.2267775869
C  C232  1  0.88810000  0.76120000  0.23880000  1.0 -0.2267775869
C  C233  1  0.88810000  0.23880000  0.76120000  1.0 -0.2267775869
C  C234  1  0.23880000  0.88810000  0.76120000  1.0 -0.2267775869
C  C235  1  0.23880000  0.23880000  0.88810000  1.0 -0.2267775869
C  C236  1  0.76120000  0.76120000  0.88810000  1.0 -0.2267775869
C  C237  1  0.76120000  0.11190000  0.23880000  1.0 -0.2244634962
C  C238  1  0.76120000  0.88810000  0.76120000  1.0 -0.2267775869
C  C239  1  0.11190000  0.76120000  0.23880000  1.0 -0.2267775869
C  C240  1  0.88810000  0.76120000  0.76120000  1.0 -0.2267775869
O  O1  1  0.37330000  0.04834000  0.04834000  1.0 -0.5615117561
O  O2  1  0.95166000  0.37330000  0.04834000  1.0 -0.5615117561
O  O3  1  0.62670000  0.95166000  0.04834000  1.0 -0.5615117561
O  O4  1  0.04834000  0.62670000  0.04834000  1.0 -0.5615117561
O  O5  1  0.37330000  0.95166000  0.04834000  1.0 -0.5615117561
O  O6  1  0.37330000  0.95166000  0.95166000  1.0 -0.5615117561
O  O7  1  0.37330000  0.04834000  0.95166000  1.0 -0.5615117561
O  O8  1  0.04834000  0.04834000  0.62670000  1.0 -0.5615117561
O  O9  1  0.62670000  0.04834000  0.95166000  1.0 -0.5615117561
O  O10  1  0.95166000  0.04834000  0.37330000  1.0 -0.5615117561
O  O11  1  0.04834000  0.37330000  0.04834000  1.0 -0.5615117561
O  O12  1  0.04834000  0.04834000  0.37330000  1.0 -0.5615117561
O  O13  1  0.95166000  0.95166000  0.37330000  1.0 -0.5615117561
O  O14  1  0.04834000  0.62670000  0.95166000  1.0 -0.5615117561
O  O15  1  0.95166000  0.04834000  0.62670000  1.0 -0.5615117561
O  O16  1  0.95166000  0.62670000  0.04834000  1.0 -0.5615117561
O  O17  1  0.95166000  0.37330000  0.95166000  1.0 -0.5615117561
O  O18  1  0.04834000  0.95166000  0.62670000  1.0 -0.5615117561
O  O19  1  0.04834000  0.37330000  0.95166000  1.0 -0.5615117561
O  O20  1  0.95166000  0.62670000  0.95166000  1.0 -0.5615117561
O  O21  1  0.62670000  0.04834000  0.04834000  1.0 -0.5615117561
O  O22  1  0.62670000  0.95166000  0.95166000  1.0 -0.5615117561
O  O23  1  0.04834000  0.95166000  0.37330000  1.0 -0.5615117561
O  O24  1  0.95166000  0.95166000  0.62670000  1.0 -0.5615117561
O  O25  1  0.42854000  0.08755000  0.08755000  1.0 -0.5891046709
O  O26  1  0.91245000  0.42854000  0.08755000  1.0 -0.5891046709
O  O27  1  0.57146000  0.91245000  0.08755000  1.0 -0.5891046709
O  O28  1  0.08755000  0.57146000  0.08755000  1.0 -0.5891046709
O  O29  1  0.42854000  0.91245000  0.08755000  1.0 -0.5891046709
O  O30  1  0.42854000  0.91245000  0.91245000  1.0 -0.5891046709
O  O31  1  0.42854000  0.08755000  0.91245000  1.0 -0.5891046709
O  O32  1  0.08755000  0.08755000  0.57146000  1.0 -0.5891046709
O  O33  1  0.57146000  0.08755000  0.91245000  1.0 -0.5891046709
O  O34  1  0.91245000  0.08755000  0.42854000  1.0 -0.5891046709
O  O35  1  0.08755000  0.42854000  0.08755000  1.0 -0.5891046709
O  O36  1  0.08755000  0.08755000  0.42854000  1.0 -0.5891046709
O  O37  1  0.91245000  0.91245000  0.42854000  1.0 -0.5891046709
O  O38  1  0.08755000  0.57146000  0.91245000  1.0 -0.5891046709
O  O39  1  0.91245000  0.08755000  0.57146000  1.0 -0.5891046709
O  O40  1  0.91245000  0.57146000  0.08755000  1.0 -0.5891046709
O  O41  1  0.91245000  0.42854000  0.91245000  1.0 -0.5891046709
O  O42  1  0.08755000  0.91245000  0.57146000  1.0 -0.5891046709
O  O43  1  0.08755000  0.42854000  0.91245000  1.0 -0.5891046709
O  O44  1  0.91245000  0.57146000  0.91245000  1.0 -0.5891046709
O  O45  1  0.57146000  0.08755000  0.08755000  1.0 -0.5891046709
O  O46  1  0.57146000  0.91245000  0.91245000  1.0 -0.5891046709
O  O47  1  0.08755000  0.91245000  0.42854000  1.0 -0.5891046709
O  O48  1  0.91245000  0.91245000  0.57146000  1.0 -0.5891046709
O  O49  1  0.45820000  0.00000000  0.06200000  1.0 -1.1504777855
O  O50  1  0.00000000  0.45820000  0.06200000  1.0 -1.1504777855
O  O51  1  0.54180000  0.00000000  0.06200000  1.0 -1.1504777855
O  O52  1  0.00000000  0.54180000  0.06200000  1.0 -1.1504777855
O  O53  1  0.45820000  0.93800000  0.00000000  1.0 -1.1504777855
O  O54  1  0.45820000  0.00000000  0.93800000  1.0 -1.1504777855
O  O55  1  0.45820000  0.06200000  0.00000000  1.0 -1.1504777855
O  O56  1  0.06200000  0.00000000  0.54180000  1.0 -1.1504777855
O  O57  1  0.54180000  0.00000000  0.93800000  1.0 -1.1504777855
O  O58  1  0.93800000  0.00000000  0.45820000  1.0 -1.1504777855
O  O59  1  0.06200000  0.45820000  0.00000000  1.0 -1.1504777855
O  O60  1  0.00000000  0.06200000  0.45820000  1.0 -1.1504777855
O  O61  1  0.00000000  0.93800000  0.45820000  1.0 -1.1504777855
O  O62  1  0.06200000  0.54180000  0.00000000  1.0 -1.1504777855
O  O63  1  0.00000000  0.06200000  0.54180000  1.0 -1.1504777855
O  O64  1  0.93800000  0.54180000  0.00000000  1.0 -1.1504777855
O  O65  1  0.93800000  0.45820000  0.00000000  1.0 -1.1504777855
O  O66  1  0.00000000  0.93800000  0.54180000  1.0 -1.1504777855
O  O67  1  0.00000000  0.45820000  0.93800000  1.0 -1.1504777855
O  O68  1  0.00000000  0.54180000  0.93800000  1.0 -1.1504777855
O  O69  1  0.54180000  0.06200000  0.00000000  1.0 -1.1504777855
O  O70  1  0.54180000  0.93800000  0.00000000  1.0 -1.1504777855
O  O71  1  0.06200000  0.00000000  0.45820000  1.0 -1.1504777855
O  O72  1  0.93800000  0.00000000  0.54180000  1.0 -1.1504777855
