# DDEC6 charges by PACMAN v1.1 (https://github.com/mtap-research/PACMAN-charge/)
data_UNIMAG_ASR_pacman
_symmetry_space_group_name_H-M   'P 1'
_cell_length_a   22.91630000
_cell_length_b   22.91630000
_cell_length_c   29.29200000
_cell_angle_alpha   62.92550000
_cell_angle_beta   117.07500000
_cell_angle_gamma   130.88000000
_symmetry_Int_Tables_number   1
_chemical_formula_structural   Mn9H58W6(C2N)58
_chemical_formula_sum   'Mn18 H116 W12 C232 N116'
_cell_volume   10069.63025240
_cell_formula_units_Z   2
loop_
 _symmetry_equiv_pos_site_id
 _symmetry_equiv_pos_as_xyz
  1  'x, y, z'
loop_
 _atom_site_type_symbol
 _atom_site_label
 _atom_site_symmetry_multiplicity
 _atom_site_fract_x
 _atom_site_fract_y
 _atom_site_fract_z
 _atom_site_occupancy
 _atom_site_charge
Mn  Mn1  1  0.50000000  0.50000000  0.50000000  1.0 0.9139215758
Mn  Mn2  1  0.50000000  0.50000000  0.00000000  1.0 0.9139215758
Mn  Mn3  1  0.58398000  0.71562000  0.63196000  1.0 0.8222217883
Mn  Mn4  1  0.71562000  0.58398000  0.86804000  1.0 0.8222217883
Mn  Mn5  1  0.41602000  0.28438000  0.36804000  1.0 0.8222217883
Mn  Mn6  1  0.28438000  0.41602000  0.13196000  1.0 0.8222217883
Mn  Mn7  1  0.58799000  0.72521000  0.27255000  1.0 0.8222217883
Mn  Mn8  1  0.72521000  0.58799000  0.22745000  1.0 0.8308700731
Mn  Mn9  1  0.41201000  0.27479000  0.72745000  1.0 0.8222217883
Mn  Mn10  1  0.27479000  0.41201000  0.77255000  1.0 0.8222217883
Mn  Mn11  1  0.13749000  0.23251000  0.46456000  1.0 0.8308700731
Mn  Mn12  1  0.23251000  0.13749000  0.03544000  1.0 0.8308700731
Mn  Mn13  1  0.86251000  0.76749000  0.53544000  1.0 0.8308700731
Mn  Mn14  1  0.76749000  0.86251000  0.96456000  1.0 0.8308700731
Mn  Mn15  1  0.30211000  0.64409000  0.38021000  1.0 0.9623727312
Mn  Mn16  1  0.64409000  0.30211000  0.11979000  1.0 0.9623727312
Mn  Mn17  1  0.69789000  0.35591000  0.61979000  1.0 0.9623727312
Mn  Mn18  1  0.35591000  0.69789000  0.88021000  1.0 0.9623727312
H  H1  1  0.46090000  0.74210000  0.63020000  1.0 0.1215204238
H  H2  1  0.74210000  0.46090000  0.86980000  1.0 0.1215204238
H  H3  1  0.53910000  0.25790000  0.36980000  1.0 0.1215204238
H  H4  1  0.25790000  0.53910000  0.13020000  1.0 0.1215204238
H  H5  1  0.41860000  0.82440000  0.58460000  1.0 0.1487160566
H  H6  1  0.82440000  0.41860000  0.91540000  1.0 0.1487160566
H  H7  1  0.58140000  0.17560000  0.41540000  1.0 0.1487160566
H  H8  1  0.17560000  0.58140000  0.08460000  1.0 0.1487160566
H  H9  1  0.60250000  0.97490000  0.51320000  1.0 0.1421124568
H  H10  1  0.97490000  0.60250000  0.98680000  1.0 0.1421124568
H  H11  1  0.39750000  0.02510000  0.48680000  1.0 0.1421124568
H  H12  1  0.02510000  0.39750000  0.01320000  1.0 0.1421124568
H  H13  1  0.63650000  0.88430000  0.56140000  1.0 0.1119849581
H  H14  1  0.88430000  0.63650000  0.93860000  1.0 0.1119849581
H  H15  1  0.36350000  0.11570000  0.43860000  1.0 0.1119849581
H  H16  1  0.11570000  0.36350000  0.06140000  1.0 0.1119849581
H  H17  1  0.43640000  0.94800000  0.52200000  1.0 0.1215204238
H  H18  1  0.94800000  0.43640000  0.97800000  1.0 0.1284795766
H  H19  1  0.56360000  0.05200000  0.47800000  1.0 0.1284795766
H  H20  1  0.05200000  0.56360000  0.02200000  1.0 0.1284795766
H  H21  1  0.75530000  0.84390000  0.60280000  1.0 0.1215204238
H  H22  1  0.84390000  0.75530000  0.89720000  1.0 0.1215204238
H  H23  1  0.24470000  0.15610000  0.39720000  1.0 0.1215204238
H  H24  1  0.15610000  0.24470000  0.10280000  1.0 0.1215204238
H  H25  1  0.87670000  0.95850000  0.62320000  1.0 0.1487160566
H  H26  1  0.95850000  0.87670000  0.87680000  1.0 0.1487160566
H  H27  1  0.12330000  0.04150000  0.37680000  1.0 0.1487160566
H  H28  1  0.04150000  0.12330000  0.12320000  1.0 0.1487160566
H  H29  1  0.81990000  0.91810000  0.74970000  1.0 0.1421124568
H  H30  1  0.91810000  0.81990000  0.75030000  1.0 0.1421124568
H  H31  1  0.18010000  0.08190000  0.25030000  1.0 0.1421124568
H  H32  1  0.08190000  0.18010000  0.24970000  1.0 0.1421124568
H  H33  1  0.69810000  0.80970000  0.72330000  1.0 0.1119849581
H  H34  1  0.80970000  0.69810000  0.77670000  1.0 0.1119849581
H  H35  1  0.30190000  0.19030000  0.27670000  1.0 0.1119849581
H  H36  1  0.19030000  0.30190000  0.22330000  1.0 0.1119849581
H  H37  1  0.96610000  0.06330000  0.67170000  1.0 0.1215204238
H  H38  1  0.06330000  0.96610000  0.82830000  1.0 0.1215204238
H  H39  1  0.03390000  0.93670000  0.32830000  1.0 0.1215204238
H  H40  1  0.93670000  0.03390000  0.17170000  1.0 0.1215204238
H  H41  1  0.12880000  0.25420000  0.82240000  1.0 0.1215204238
H  H42  1  0.25420000  0.12880000  0.67760000  1.0 0.1215204238
H  H43  1  0.87120000  0.74580000  0.17760000  1.0 0.1215204238
H  H44  1  0.74580000  0.87120000  0.32240000  1.0 0.1215204238
H  H45  1  0.01340000  0.13260000  0.80840000  1.0 0.1487160566
H  H46  1  0.13260000  0.01340000  0.69160000  1.0 0.1487160566
H  H47  1  0.98660000  0.86740000  0.19160000  1.0 0.1487160566
H  H48  1  0.86740000  0.98660000  0.30840000  1.0 0.1487160566
H  H49  1  0.08820000  0.16060000  0.69690000  1.0 0.1421124568
H  H50  1  0.16060000  0.08820000  0.80310000  1.0 0.1421124568
H  H51  1  0.91180000  0.83940000  0.30310000  1.0 0.1421124568
H  H52  1  0.83940000  0.91180000  0.19690000  1.0 0.1421124568
H  H53  1  0.19130000  0.28930000  0.70460000  1.0 0.1215204238
H  H54  1  0.28930000  0.19130000  0.79540000  1.0 0.1119849581
H  H55  1  0.80870000  0.71070000  0.29540000  1.0 0.1119849581
H  H56  1  0.71070000  0.80870000  0.20460000  1.0 0.1119849581
H  H57  1  0.92140000  0.03120000  0.75970000  1.0 0.1215204238
H  H58  1  0.03120000  0.92140000  0.74030000  1.0 0.1215204238
H  H59  1  0.07860000  0.96880000  0.24030000  1.0 0.1215204238
H  H60  1  0.96880000  0.07860000  0.25970000  1.0 0.1215204238
H  H61  1  0.61580000  0.89060000  0.25440000  1.0 0.1215204238
H  H62  1  0.89060000  0.61580000  0.24560000  1.0 0.1215204238
H  H63  1  0.38420000  0.10940000  0.74560000  1.0 0.1215204238
H  H64  1  0.10940000  0.38420000  0.75440000  1.0 0.1215204238
H  H65  1  0.55730000  0.96010000  0.20380000  1.0 0.1215204238
H  H66  1  0.96010000  0.55730000  0.29620000  1.0 0.1215204238
H  H67  1  0.44270000  0.03990000  0.79620000  1.0 0.1215204238
H  H68  1  0.03990000  0.44270000  0.70380000  1.0 0.1215204238
H  H69  1  0.37690000  0.77930000  0.13280000  1.0 0.1215204238
H  H70  1  0.77930000  0.37690000  0.36720000  1.0 0.1215204238
H  H71  1  0.62310000  0.22070000  0.86720000  1.0 0.1215204238
H  H72  1  0.22070000  0.62310000  0.63280000  1.0 0.1215204238
H  H73  1  0.44810000  0.72290000  0.17670000  1.0 0.1284795766
H  H74  1  0.72290000  0.44810000  0.32330000  1.0 0.1284795766
H  H75  1  0.55190000  0.27710000  0.82330000  1.0 0.1284795766
H  H76  1  0.27710000  0.55190000  0.67670000  1.0 0.1284795766
H  H77  1  0.38380000  0.91260000  0.09920000  1.0 0.1215204238
H  H78  1  0.91260000  0.38380000  0.40080000  1.0 0.1284795766
H  H79  1  0.61620000  0.08740000  0.90080000  1.0 0.1284795766
H  H80  1  0.08740000  0.61620000  0.59920000  1.0 0.1215204238
H  H81  1  0.26510000  0.03530000  0.01500000  1.0 0.1215204238
H  H82  1  0.03530000  0.26510000  0.48500000  1.0 0.1215204238
H  H83  1  0.73490000  0.96470000  0.98500000  1.0 0.1215204238
H  H84  1  0.96470000  0.73490000  0.51500000  1.0 0.1215204238
H  H85  1  0.32040000  0.96300000  0.05840000  1.0 0.1421124568
H  H86  1  0.96300000  0.32040000  0.44160000  1.0 0.1421124568
H  H87  1  0.67960000  0.03700000  0.94160000  1.0 0.1421124568
H  H88  1  0.03700000  0.67960000  0.55840000  1.0 0.1487160566
H  H89  1  0.34310000  0.98310000  0.19530000  1.0 0.1598089671
H  H90  1  0.98310000  0.34310000  0.30470000  1.0 0.1598089671
H  H91  1  0.65690000  0.01690000  0.80470000  1.0 0.1598089671
H  H92  1  0.01690000  0.65690000  0.69530000  1.0 0.1598089671
H  H93  1  0.29380000  0.06120000  0.14870000  1.0 0.1215204238
H  H94  1  0.06120000  0.29380000  0.35130000  1.0 0.1215204238
H  H95  1  0.70620000  0.93880000  0.85130000  1.0 0.1215204238
H  H96  1  0.93880000  0.70620000  0.64870000  1.0 0.1215204238
H  H97  1  0.40510000  0.92210000  0.19230000  1.0 0.1284795766
H  H98  1  0.92210000  0.40510000  0.30770000  1.0 0.1284795766
H  H99  1  0.59490000  0.07790000  0.80770000  1.0 0.1284795766
H  H100  1  0.07790000  0.59490000  0.69230000  1.0 0.1284795766
H  H101  1  0.46120000  0.73480000  0.26880000  1.0 0.1215204238
H  H102  1  0.73480000  0.46120000  0.23120000  1.0 0.1215204238
H  H103  1  0.53880000  0.26520000  0.73120000  1.0 0.1215204238
H  H104  1  0.26520000  0.53880000  0.76880000  1.0 0.1215204238
H  H105  1  0.41860000  0.81820000  0.23630000  1.0 0.1119849581
H  H106  1  0.81820000  0.41860000  0.26370000  1.0 0.1119849581
H  H107  1  0.58140000  0.18180000  0.76370000  1.0 0.1119849581
H  H108  1  0.18180000  0.58140000  0.73630000  1.0 0.1119849581
H  H109  1  0.50070000  0.90490000  0.10850000  1.0 0.1215204238
H  H110  1  0.90490000  0.50070000  0.39150000  1.0 0.1215204238
H  H111  1  0.49930000  0.09510000  0.89150000  1.0 0.1215204238
H  H112  1  0.09510000  0.49930000  0.60850000  1.0 0.1215204238
H  H113  1  0.57380000  0.85020000  0.15730000  1.0 0.1215204238
H  H114  1  0.85020000  0.57380000  0.34270000  1.0 0.1215204238
H  H115  1  0.42620000  0.14980000  0.84270000  1.0 0.1215204238
H  H116  1  0.14980000  0.42620000  0.65730000  1.0 0.1215204238
W  W1  1  0.29655000  0.46121000  0.30568000  1.0 0.6207275426
W  W2  1  0.46121000  0.29655000  0.19432000  1.0 0.6207275426
W  W3  1  0.70345000  0.53879000  0.69432000  1.0 0.6207275426
W  W4  1  0.53879000  0.70345000  0.80568000  1.0 0.6207275426
W  W5  1  0.29292000  0.45116000  0.57921000  1.0 0.6008880546
W  W6  1  0.45116000  0.29292000  0.92079000  1.0 0.6078819643
W  W7  1  0.70708000  0.54884000  0.42079000  1.0 0.6078819643
W  W8  1  0.54884000  0.70708000  0.07921000  1.0 0.6078819643
W  W9  1  0.62932000  0.81922000  0.43312000  1.0 0.6207275426
W  W10  1  0.81922000  0.62932000  0.06688000  1.0 0.6207275426
W  W11  1  0.37068000  0.18078000  0.56688000  1.0 0.6207275426
W  W12  1  0.18078000  0.37068000  0.93312000  1.0 0.6207275426
C  C1  1  0.30170000  0.44810000  0.23800000  1.0 0.0595549561
C  C2  1  0.44810000  0.30170000  0.26200000  1.0 0.0595549561
C  C3  1  0.69830000  0.55190000  0.76200000  1.0 0.0595549561
C  C4  1  0.55190000  0.69830000  0.73800000  1.0 0.0595549561
C  C5  1  0.17630000  0.38570000  0.27220000  1.0 -0.0500294706
C  C6  1  0.38570000  0.17630000  0.22780000  1.0 -0.0500294706
C  C7  1  0.82370000  0.61430000  0.72780000  1.0 -0.043917902
C  C8  1  0.61430000  0.82370000  0.77220000  1.0 -0.043917902
C  C9  1  0.27060000  0.54060000  0.23750000  1.0 -0.0322030449
C  C10  1  0.54060000  0.27060000  0.26250000  1.0 -0.0322030449
C  C11  1  0.72940000  0.45940000  0.76250000  1.0 -0.0322030449
C  C12  1  0.45940000  0.72940000  0.73750000  1.0 -0.0322030449
C  C13  1  0.37860000  0.48600000  0.38030000  1.0 0.0595549561
C  C14  1  0.48600000  0.37860000  0.11970000  1.0 0.0595549561
C  C15  1  0.62140000  0.51400000  0.61970000  1.0 0.0595549561
C  C16  1  0.51400000  0.62140000  0.88030000  1.0 0.0595549561
C  C17  1  0.33840000  0.38720000  0.33200000  1.0 0.0325617791
C  C18  1  0.38720000  0.33840000  0.16800000  1.0 0.0325617791
C  C19  1  0.66160000  0.61280000  0.66800000  1.0 0.0325617791
C  C20  1  0.61280000  0.66160000  0.83200000  1.0 0.0325617791
C  C21  1  0.40930000  0.56510000  0.29350000  1.0 0.0401126905
C  C22  1  0.56510000  0.40930000  0.20650000  1.0 0.0401126905
C  C23  1  0.59070000  0.43490000  0.70650000  1.0 0.0401126905
C  C24  1  0.43490000  0.59070000  0.79350000  1.0 0.0401126905
C  C25  1  0.23680000  0.36820000  0.36780000  1.0 0.0595549561
C  C26  1  0.36820000  0.23680000  0.13220000  1.0 0.0595549561
C  C27  1  0.76320000  0.63180000  0.63220000  1.0 0.0595549561
C  C28  1  0.63180000  0.76320000  0.86780000  1.0 0.0595549561
C  C29  1  0.27850000  0.52210000  0.33050000  1.0 0.0401126905
C  C30  1  0.52210000  0.27850000  0.16950000  1.0 0.0401126905
C  C31  1  0.72150000  0.47790000  0.66950000  1.0 0.0401126905
C  C32  1  0.47790000  0.72150000  0.83050000  1.0 0.0401126905
C  C33  1  0.17310000  0.35890000  0.58700000  1.0 -0.0696414813
C  C34  1  0.35890000  0.17310000  0.91300000  1.0 -0.0696414813
C  C35  1  0.82690000  0.64110000  0.41300000  1.0 -0.0696414813
C  C36  1  0.64110000  0.82690000  0.08700000  1.0 -0.0696414813
C  C37  1  0.25460000  0.52140000  0.56960000  1.0 -0.0500294706
C  C38  1  0.52140000  0.25460000  0.93040000  1.0 -0.0500294706
C  C39  1  0.74540000  0.47860000  0.43040000  1.0 -0.0500294706
C  C40  1  0.47860000  0.74540000  0.06960000  1.0 -0.0500294706
C  C41  1  0.29440000  0.44180000  0.65690000  1.0 0.0494821889
C  C42  1  0.44180000  0.29440000  0.84310000  1.0 0.0494821889
C  C43  1  0.70560000  0.55820000  0.34310000  1.0 0.0494821889
C  C44  1  0.55820000  0.70560000  0.15690000  1.0 0.0494821889
C  C45  1  0.38150000  0.47630000  0.55270000  1.0 0.0595549561
C  C46  1  0.47630000  0.38150000  0.94730000  1.0 0.0595549561
C  C47  1  0.61850000  0.52370000  0.44730000  1.0 0.0595549561
C  C48  1  0.52370000  0.61850000  0.05270000  1.0 0.0595549561
C  C49  1  0.40160000  0.56020000  0.59900000  1.0 0.0494821889
C  C50  1  0.56020000  0.40160000  0.90100000  1.0 0.0494821889
C  C51  1  0.59840000  0.43980000  0.40100000  1.0 0.0494821889
C  C52  1  0.43980000  0.59840000  0.09900000  1.0 0.0494821889
C  C53  1  0.33080000  0.37520000  0.63660000  1.0 0.0325617791
C  C54  1  0.37520000  0.33080000  0.86340000  1.0 0.0325617791
C  C55  1  0.66920000  0.62480000  0.36340000  1.0 0.0325617791
C  C56  1  0.62480000  0.66920000  0.13660000  1.0 0.0325617791
C  C57  1  0.24170000  0.36810000  0.53670000  1.0 0.0595549561
C  C58  1  0.36810000  0.24170000  0.96330000  1.0 0.0595549561
C  C59  1  0.75830000  0.63190000  0.46330000  1.0 0.0595549561
C  C60  1  0.63190000  0.75830000  0.03670000  1.0 0.0595549561
C  C61  1  0.28090000  0.51710000  0.49760000  1.0 0.0595549561
C  C62  1  0.51710000  0.28090000  0.00240000  1.0 0.0595549561
C  C63  1  0.71910000  0.48290000  0.50240000  1.0 0.0595549561
C  C64  1  0.48290000  0.71910000  0.99760000  1.0 0.0494821889
C  C65  1  0.71880000  0.91920000  0.39010000  1.0 -0.009644071
C  C66  1  0.91920000  0.71880000  0.10990000  1.0 -0.009644071
C  C67  1  0.28120000  0.08080000  0.60990000  1.0 -0.0179700972
C  C68  1  0.08080000  0.28120000  0.89010000  1.0 -0.009644071
C  C69  1  0.70060000  0.91540000  0.47100000  1.0 -0.009644071
C  C70  1  0.91540000  0.70060000  0.02900000  1.0 -0.0042026422
C  C71  1  0.29940000  0.08460000  0.52900000  1.0 -0.009644071
C  C72  1  0.08460000  0.29940000  0.97100000  1.0 -0.009644071
C  C73  1  0.58600000  0.89200000  0.38100000  1.0 -0.0179700972
C  C74  1  0.89200000  0.58600000  0.11900000  1.0 -0.0179700972
C  C75  1  0.41400000  0.10800000  0.61900000  1.0 -0.0179700972
C  C76  1  0.10800000  0.41400000  0.88100000  1.0 -0.0179700972
C  C77  1  0.58940000  0.69440000  0.46220000  1.0 0.0999122841
C  C78  1  0.69440000  0.58940000  0.03780000  1.0 0.0999122841
C  C79  1  0.41060000  0.30560000  0.53780000  1.0 0.0999122841
C  C80  1  0.30560000  0.41060000  0.96220000  1.0 0.0999122841
C  C81  1  0.61180000  0.77920000  0.51050000  1.0 0.0401126905
C  C82  1  0.77920000  0.61180000  0.98950000  1.0 0.0401126905
C  C83  1  0.38820000  0.22080000  0.48950000  1.0 0.0401126905
C  C84  1  0.22080000  0.38820000  0.01050000  1.0 0.0401126905
C  C85  1  0.61150000  0.78250000  0.36810000  1.0 0.0205485596
C  C86  1  0.78250000  0.61150000  0.13190000  1.0 0.0205485596
C  C87  1  0.38850000  0.21750000  0.63190000  1.0 0.0205485596
C  C88  1  0.21750000  0.38850000  0.86810000  1.0 0.0205485596
C  C89  1  0.73440000  0.81880000  0.47590000  1.0 0.0595549561
C  C90  1  0.81880000  0.73440000  0.02410000  1.0 0.0595549561
C  C91  1  0.26560000  0.18120000  0.52410000  1.0 0.0595549561
C  C92  1  0.18120000  0.26560000  0.97590000  1.0 0.0595549561
C  C93  1  0.50110000  0.74470000  0.41270000  1.0 0.0401126905
C  C94  1  0.74470000  0.50110000  0.08730000  1.0 0.0401126905
C  C95  1  0.49890000  0.25530000  0.58730000  1.0 0.0401126905
C  C96  1  0.25530000  0.49890000  0.91270000  1.0 0.0494821889
C  C97  1  0.48790000  0.78850000  0.60480000  1.0 0.0999122841
C  C98  1  0.78850000  0.48790000  0.89520000  1.0 0.0999122841
C  C99  1  0.51210000  0.21150000  0.39520000  1.0 0.0999122841
C  C100  1  0.21150000  0.51210000  0.10480000  1.0 0.0999122841
C  C101  1  0.46500000  0.83900000  0.57920000  1.0 -0.168567801
C  C102  1  0.83900000  0.46500000  0.92080000  1.0 -0.168567801
C  C103  1  0.53500000  0.16100000  0.42080000  1.0 -0.168567801
C  C104  1  0.16100000  0.53500000  0.07920000  1.0 -0.168567801
C  C105  1  0.50590000  0.91010000  0.54540000  1.0 0.1487160566
C  C106  1  0.91010000  0.50590000  0.95460000  1.0 0.1487160566
C  C107  1  0.49410000  0.08990000  0.45460000  1.0 0.1487160566
C  C108  1  0.08990000  0.49410000  0.04540000  1.0 0.1487160566
C  C109  1  0.57220000  0.92780000  0.53670000  1.0 -0.168567801
C  C110  1  0.92780000  0.57220000  0.96330000  1.0 -0.168567801
C  C111  1  0.42780000  0.07220000  0.46330000  1.0 -0.168567801
C  C112  1  0.07220000  0.42780000  0.03670000  1.0 -0.168567801
C  C113  1  0.58990000  0.87210000  0.56450000  1.0 0.1119849581
C  C114  1  0.87210000  0.58990000  0.93550000  1.0 0.1119849581
C  C115  1  0.41010000  0.12790000  0.43550000  1.0 0.1119849581
C  C116  1  0.12790000  0.41010000  0.06450000  1.0 0.1119849581
C  C117  1  0.48340000  0.96460000  0.51650000  1.0 -0.1303966904
C  C118  1  0.96460000  0.48340000  0.98350000  1.0 -0.1303966904
C  C119  1  0.51660000  0.03540000  0.48350000  1.0 -0.1303966904
C  C120  1  0.03540000  0.51660000  0.01650000  1.0 -0.1303966904
C  C121  1  0.76580000  0.86200000  0.63080000  1.0 0.0909917061
C  C122  1  0.86200000  0.76580000  0.86920000  1.0 0.0909917061
C  C123  1  0.23420000  0.13800000  0.36920000  1.0 0.0909917061
C  C124  1  0.13800000  0.23420000  0.13080000  1.0 0.0909917061
C  C125  1  0.83800000  0.93080000  0.64270000  1.0 -0.1888250673
C  C126  1  0.93080000  0.83800000  0.85730000  1.0 -0.1888250673
C  C127  1  0.16200000  0.06920000  0.35730000  1.0 -0.1888250673
C  C128  1  0.06920000  0.16200000  0.14270000  1.0 -0.1888250673
C  C129  1  0.85510000  0.95990000  0.68240000  1.0 0.1487160566
C  C130  1  0.95990000  0.85510000  0.81760000  1.0 0.1487160566
C  C131  1  0.14490000  0.04010000  0.31760000  1.0 0.1487160566
C  C132  1  0.04010000  0.14490000  0.18240000  1.0 0.1487160566
C  C133  1  0.80540000  0.90840000  0.71660000  1.0 -0.1823578044
C  C134  1  0.90840000  0.80540000  0.78340000  1.0 -0.1823578044
C  C135  1  0.19460000  0.09160000  0.28340000  1.0 -0.1823578044
C  C136  1  0.09160000  0.19460000  0.21660000  1.0 -0.1823578044
C  C137  1  0.73390000  0.84250000  0.70090000  1.0 0.0909917061
C  C138  1  0.84250000  0.73390000  0.79910000  1.0 0.0909917061
C  C139  1  0.26610000  0.15750000  0.29910000  1.0 0.0909917061
C  C140  1  0.15750000  0.26610000  0.20090000  1.0 0.0909917061
C  C141  1  0.93060000  0.03340000  0.69400000  1.0 -0.1303966904
C  C142  1  0.03340000  0.93060000  0.80600000  1.0 -0.1303966904
C  C143  1  0.06940000  0.96660000  0.30600000  1.0 -0.1303966904
C  C144  1  0.96660000  0.06940000  0.19400000  1.0 -0.1303966904
C  C145  1  0.11570000  0.23910000  0.79200000  1.0 0.0999122841
C  C146  1  0.23910000  0.11570000  0.70800000  1.0 0.0999122841
C  C147  1  0.88430000  0.76090000  0.20800000  1.0 0.0999122841
C  C148  1  0.76090000  0.88430000  0.29200000  1.0 0.0999122841
C  C149  1  0.04700000  0.16560000  0.78450000  1.0 -0.1823578044
C  C150  1  0.16560000  0.04700000  0.71550000  1.0 -0.1823578044
C  C151  1  0.95300000  0.83440000  0.21550000  1.0 -0.1823578044
C  C152  1  0.83440000  0.95300000  0.28450000  1.0 -0.1823578044
C  C153  1  0.02780000  0.14080000  0.74170000  1.0 0.1487160566
C  C154  1  0.14080000  0.02780000  0.75830000  1.0 0.1487160566
C  C155  1  0.97220000  0.85920000  0.25830000  1.0 0.1487160566
C  C156  1  0.85920000  0.97220000  0.24170000  1.0 0.1487160566
C  C157  1  0.08960000  0.18320000  0.71800000  1.0 -0.1823578044
C  C158  1  0.18320000  0.08960000  0.78200000  1.0 -0.1823578044
C  C159  1  0.91040000  0.81680000  0.28200000  1.0 -0.1823578044
C  C160  1  0.81680000  0.91040000  0.21800000  1.0 -0.1823578044
C  C161  1  0.15340000  0.25840000  0.72500000  1.0 0.0999122841
C  C162  1  0.25840000  0.15340000  0.77500000  1.0 0.0999122841
C  C163  1  0.84660000  0.74160000  0.27500000  1.0 0.0999122841
C  C164  1  0.74160000  0.84660000  0.22500000  1.0 0.0999122841
C  C165  1  0.95370000  0.06230000  0.73500000  1.0 -0.1303966904
C  C166  1  0.06230000  0.95370000  0.76500000  1.0 -0.1303966904
C  C167  1  0.04630000  0.93770000  0.26500000  1.0 -0.1303966904
C  C168  1  0.93770000  0.04630000  0.23500000  1.0 -0.1303966904
C  C169  1  0.56660000  0.86740000  0.22900000  1.0 0.0006927497
C  C170  1  0.86740000  0.56660000  0.27100000  1.0 0.0006927497
C  C171  1  0.43340000  0.13260000  0.77100000  1.0 0.0006927497
C  C172  1  0.13260000  0.43340000  0.72900000  1.0 0.0006927497
C  C173  1  0.53030000  0.90770000  0.20100000  1.0 -0.1094514021
C  C174  1  0.90770000  0.53030000  0.29900000  1.0 -0.1094514021
C  C175  1  0.46970000  0.09230000  0.79900000  1.0 -0.1094514021
C  C176  1  0.09230000  0.46970000  0.70100000  1.0 -0.1094514021
C  C177  1  0.42520000  0.80280000  0.15800000  1.0 -0.1020239938
C  C178  1  0.80280000  0.42520000  0.34200000  1.0 -0.1020239938
C  C179  1  0.57480000  0.19720000  0.84200000  1.0 -0.1020239938
C  C180  1  0.19720000  0.57480000  0.65800000  1.0 -0.1020239938
C  C181  1  0.46830000  0.76970000  0.18510000  1.0 0.0401126905
C  C182  1  0.76970000  0.46830000  0.31490000  1.0 0.0401126905
C  C183  1  0.53170000  0.23030000  0.81490000  1.0 0.0401126905
C  C184  1  0.23030000  0.53170000  0.68510000  1.0 0.0401126905
C  C185  1  0.45540000  0.87260000  0.16810000  1.0 0.0909917061
C  C186  1  0.87260000  0.45540000  0.33190000  1.0 0.0909917061
C  C187  1  0.54460000  0.12740000  0.83190000  1.0 0.0909917061
C  C188  1  0.12740000  0.54460000  0.66810000  1.0 0.0909917061
C  C189  1  0.40420000  0.90980000  0.13600000  1.0 -0.1020239938
C  C190  1  0.90980000  0.40420000  0.36400000  1.0 -0.1020239938
C  C191  1  0.59580000  0.09020000  0.86400000  1.0 -0.1020239938
C  C192  1  0.09020000  0.59580000  0.63600000  1.0 -0.1020239938
C  C193  1  0.28430000  0.02770000  0.05220000  1.0 0.0999122841
C  C194  1  0.02770000  0.28430000  0.44780000  1.0 0.0999122841
C  C195  1  0.71570000  0.97230000  0.94780000  1.0 0.0999122841
C  C196  1  0.97230000  0.71570000  0.55220000  1.0 0.0999122841
C  C197  1  0.31860000  0.98540000  0.07780000  1.0 -0.1975445917
C  C198  1  0.98540000  0.31860000  0.42220000  1.0 -0.1975445917
C  C199  1  0.68140000  0.01460000  0.92220000  1.0 -0.1975445917
C  C200  1  0.01460000  0.68140000  0.57780000  1.0 -0.1975445917
C  C201  1  0.34990000  0.97610000  0.13120000  1.0 0.1598089671
C  C202  1  0.97610000  0.34990000  0.36880000  1.0 0.1598089671
C  C203  1  0.65010000  0.02390000  0.86880000  1.0 0.1598089671
C  C204  1  0.02390000  0.65010000  0.63120000  1.0 0.1598089671
C  C205  1  0.33230000  0.99770000  0.15780000  1.0 -0.1975445917
C  C206  1  0.99770000  0.33230000  0.34220000  1.0 -0.1975445917
C  C207  1  0.66770000  0.00230000  0.84220000  1.0 -0.1975445917
C  C208  1  0.00230000  0.66770000  0.65780000  1.0 -0.1975445917
C  C209  1  0.30010000  0.04190000  0.12970000  1.0 0.1119849581
C  C210  1  0.04190000  0.30010000  0.37030000  1.0 0.1119849581
C  C211  1  0.69990000  0.95810000  0.87030000  1.0 0.1119849581
C  C212  1  0.95810000  0.69990000  0.62970000  1.0 0.1119849581
C  C213  1  0.38900000  0.93300000  0.15500000  1.0 -0.1094514021
C  C214  1  0.93300000  0.38900000  0.34500000  1.0 -0.1094514021
C  C215  1  0.61100000  0.06700000  0.84500000  1.0 -0.1094514021
C  C216  1  0.06700000  0.61100000  0.65500000  1.0 -0.1094514021
C  C217  1  0.47900000  0.77900000  0.24000000  1.0 0.0097482583
C  C218  1  0.77900000  0.47900000  0.26000000  1.0 0.0097482583
C  C219  1  0.52100000  0.22100000  0.76000000  1.0 0.0097482583
C  C220  1  0.22100000  0.52100000  0.74000000  1.0 0.0097482583
C  C221  1  0.44700000  0.82300000  0.21800000  1.0 -0.1094514021
C  C222  1  0.82300000  0.44700000  0.28200000  1.0 -0.1094514021
C  C223  1  0.55300000  0.17700000  0.78200000  1.0 -0.1094514021
C  C224  1  0.17700000  0.55300000  0.71800000  1.0 -0.1094514021
C  C225  1  0.49880000  0.87720000  0.14430000  1.0 -0.0696414813
C  C226  1  0.87720000  0.49880000  0.35570000  1.0 -0.0696414813
C  C227  1  0.50120000  0.12280000  0.85570000  1.0 -0.0696414813
C  C228  1  0.12280000  0.50120000  0.64430000  1.0 -0.0696414813
C  C229  1  0.54010000  0.84190000  0.17300000  1.0 0.0006927497
C  C230  1  0.84190000  0.54010000  0.32700000  1.0 0.0006927497
C  C231  1  0.45990000  0.15810000  0.82700000  1.0 0.0006927497
C  C232  1  0.15810000  0.45990000  0.67300000  1.0 0.0006927497
N  N1  1  0.30590000  0.44150000  0.20420000  1.0 -0.3476513216
N  N2  1  0.44150000  0.30590000  0.29580000  1.0 -0.3476513216
N  N3  1  0.69410000  0.55850000  0.79580000  1.0 -0.3476513216
N  N4  1  0.55850000  0.69410000  0.70420000  1.0 -0.3476513216
N  N5  1  0.10880000  0.34120000  0.25660000  1.0 -0.3387522687
N  N6  1  0.34120000  0.10880000  0.24340000  1.0 -0.3387522687
N  N7  1  0.89120000  0.65880000  0.74340000  1.0 -0.3387522687
N  N8  1  0.65880000  0.89120000  0.75660000  1.0 -0.3387522687
N  N9  1  0.25430000  0.58030000  0.20070000  1.0 -0.3193418143
N  N10  1  0.58030000  0.25430000  0.29930000  1.0 -0.3193418143
N  N11  1  0.74570000  0.41970000  0.79930000  1.0 -0.3193418143
N  N12  1  0.41970000  0.74570000  0.70070000  1.0 -0.3193418143
N  N13  1  0.41940000  0.49680000  0.42050000  1.0 -0.3117803523
N  N14  1  0.49680000  0.41940000  0.07950000  1.0 -0.3117803523
N  N15  1  0.58060000  0.50320000  0.57950000  1.0 -0.3117803523
N  N16  1  0.50320000  0.58060000  0.92050000  1.0 -0.3193418143
N  N17  1  0.36350000  0.35190000  0.34230000  1.0 -0.3311814233
N  N18  1  0.35190000  0.36350000  0.15770000  1.0 -0.3311814233
N  N19  1  0.63650000  0.64810000  0.65770000  1.0 -0.3311814233
N  N20  1  0.64810000  0.63650000  0.84230000  1.0 -0.3311814233
N  N21  1  0.47150000  0.62110000  0.28450000  1.0 -0.3476513216
N  N22  1  0.62110000  0.47150000  0.21550000  1.0 -0.3476513216
N  N23  1  0.52850000  0.37890000  0.71550000  1.0 -0.3476513216
N  N24  1  0.37890000  0.52850000  0.78450000  1.0 -0.3476513216
N  N25  1  0.20190000  0.31670000  0.40240000  1.0 -0.3618764438
N  N26  1  0.31670000  0.20190000  0.09760000  1.0 -0.3618764438
N  N27  1  0.79810000  0.68330000  0.59760000  1.0 -0.3618764438
N  N28  1  0.68330000  0.79810000  0.90240000  1.0 -0.3618764438
N  N29  1  0.27350000  0.55850000  0.34460000  1.0 -0.3669956846
N  N30  1  0.55850000  0.27350000  0.15540000  1.0 -0.3669956846
N  N31  1  0.72650000  0.44150000  0.65540000  1.0 -0.3669956846
N  N32  1  0.44150000  0.72650000  0.84460000  1.0 -0.3669956846
N  N33  1  0.10330000  0.30470000  0.58960000  1.0 -0.3618764438
N  N34  1  0.30470000  0.10330000  0.91040000  1.0 -0.3618764438
N  N35  1  0.89670000  0.69530000  0.41040000  1.0 -0.3618764438
N  N36  1  0.69530000  0.89670000  0.08960000  1.0 -0.3618764438
N  N37  1  0.22420000  0.55180000  0.56210000  1.0 -0.3193418143
N  N38  1  0.55180000  0.22420000  0.93790000  1.0 -0.3193418143
N  N39  1  0.77580000  0.44820000  0.43790000  1.0 -0.3193418143
N  N40  1  0.44820000  0.77580000  0.06210000  1.0 -0.3193418143
N  N41  1  0.29940000  0.43600000  0.69940000  1.0 -0.3476513216
N  N42  1  0.43600000  0.29940000  0.80060000  1.0 -0.3476513216
N  N43  1  0.70060000  0.56400000  0.30060000  1.0 -0.3476513216
N  N44  1  0.56400000  0.70060000  0.19940000  1.0 -0.3476513216
N  N45  1  0.42810000  0.49350000  0.53440000  1.0 -0.3193418143
N  N46  1  0.49350000  0.42810000  0.96560000  1.0 -0.3193418143
N  N47  1  0.57190000  0.50650000  0.46560000  1.0 -0.3193418143
N  N48  1  0.50650000  0.57190000  0.03440000  1.0 -0.3193418143
N  N49  1  0.35340000  0.33740000  0.66970000  1.0 -0.3311814233
N  N50  1  0.33740000  0.35340000  0.83030000  1.0 -0.3311814233
N  N51  1  0.64660000  0.66260000  0.33030000  1.0 -0.3311814233
N  N52  1  0.66260000  0.64660000  0.16970000  1.0 -0.3311814233
N  N53  1  0.20950000  0.31750000  0.51410000  1.0 -0.3618764438
N  N54  1  0.31750000  0.20950000  0.98590000  1.0 -0.3618764438
N  N55  1  0.79050000  0.68250000  0.48590000  1.0 -0.3618764438
N  N56  1  0.68250000  0.79050000  0.01410000  1.0 -0.3618764438
N  N57  1  0.28200000  0.55680000  0.45410000  1.0 -0.3669956846
N  N58  1  0.55680000  0.28200000  0.04590000  1.0 -0.3669956846
N  N59  1  0.71800000  0.44320000  0.54590000  1.0 -0.3669956846
N  N60  1  0.44320000  0.71800000  0.95410000  1.0 -0.3669956846
N  N61  1  0.77290000  0.97510000  0.36720000  1.0 -0.3387522687
N  N62  1  0.97510000  0.77290000  0.13280000  1.0 -0.3387522687
N  N63  1  0.22710000  0.02490000  0.63280000  1.0 -0.3387522687
N  N64  1  0.02490000  0.22710000  0.86720000  1.0 -0.3387522687
N  N65  1  0.71200000  0.96400000  0.48400000  1.0 -0.3311814233
N  N66  1  0.96400000  0.71200000  0.01600000  1.0 -0.3311814233
N  N67  1  0.28800000  0.03600000  0.51600000  1.0 -0.3311814233
N  N68  1  0.03600000  0.28800000  0.98400000  1.0 -0.3311814233
N  N69  1  0.55200000  0.92000000  0.33400000  1.0 -0.3387522687
N  N70  1  0.92000000  0.55200000  0.16600000  1.0 -0.3387522687
N  N71  1  0.44800000  0.08000000  0.66600000  1.0 -0.3387522687
N  N72  1  0.08000000  0.44800000  0.83400000  1.0 -0.3387522687
N  N73  1  0.56940000  0.63200000  0.47790000  1.0 -0.3117803523
N  N74  1  0.63200000  0.56940000  0.02210000  1.0 -0.3117803523
N  N75  1  0.43060000  0.36800000  0.52210000  1.0 -0.3117803523
N  N76  1  0.36800000  0.43060000  0.97790000  1.0 -0.3117803523
N  N77  1  0.60370000  0.75630000  0.33920000  1.0 -0.3476513216
N  N78  1  0.75630000  0.60370000  0.16080000  1.0 -0.3476513216
N  N79  1  0.39630000  0.24370000  0.66080000  1.0 -0.3476513216
N  N80  1  0.24370000  0.39630000  0.83920000  1.0 -0.3476513216
N  N81  1  0.78680000  0.81300000  0.49780000  1.0 -0.3476513216
N  N82  1  0.81300000  0.78680000  0.00220000  1.0 -0.3476513216
N  N83  1  0.21320000  0.18700000  0.50220000  1.0 -0.3476513216
N  N84  1  0.18700000  0.21320000  0.99780000  1.0 -0.3476513216
N  N85  1  0.43240000  0.70620000  0.40250000  1.0 -0.3618764438
N  N86  1  0.70620000  0.43240000  0.09750000  1.0 -0.3618764438
N  N87  1  0.56760000  0.29380000  0.59750000  1.0 -0.3618764438
N  N88  1  0.29380000  0.56760000  0.90250000  1.0 -0.3618764438
N  N89  1  0.54800000  0.80320000  0.59480000  1.0 -0.2159143129
N  N90  1  0.80320000  0.54800000  0.90520000  1.0 -0.2159143129
N  N91  1  0.45200000  0.19680000  0.40520000  1.0 -0.2159143129
N  N92  1  0.19680000  0.45200000  0.09480000  1.0 -0.2159143129
N  N93  1  0.70980000  0.82000000  0.65750000  1.0 -0.2303182559
N  N94  1  0.82000000  0.70980000  0.84250000  1.0 -0.2303182559
N  N95  1  0.29020000  0.18000000  0.34250000  1.0 -0.2303182559
N  N96  1  0.18000000  0.29020000  0.15750000  1.0 -0.2303182559
N  N97  1  0.16480000  0.29020000  0.75940000  1.0 -0.2475039551
N  N98  1  0.29020000  0.16480000  0.74060000  1.0 -0.2475039551
N  N99  1  0.83520000  0.70980000  0.24060000  1.0 -0.2475039551
N  N100  1  0.70980000  0.83520000  0.25940000  1.0 -0.2475039551
N  N101  1  0.53510000  0.79730000  0.22220000  1.0 -0.0500294706
N  N102  1  0.79730000  0.53510000  0.27780000  1.0 -0.0500294706
N  N103  1  0.46490000  0.20270000  0.77780000  1.0 -0.0500294706
N  N104  1  0.20270000  0.46490000  0.72220000  1.0 -0.0500294706
N  N105  1  0.27740000  0.05920000  0.07680000  1.0 -0.2391608769
N  N106  1  0.05920000  0.27740000  0.42320000  1.0 -0.2391608769
N  N107  1  0.72260000  0.94080000  0.92320000  1.0 -0.2391608769
N  N108  1  0.94080000  0.72260000  0.57680000  1.0 -0.2391608769
N  N109  1  0.58180000  0.73100000  0.54930000  1.0 -0.3618764438
N  N110  1  0.73100000  0.58180000  0.95070000  1.0 -0.3618764438
N  N111  1  0.41820000  0.26900000  0.45070000  1.0 -0.3618764438
N  N112  1  0.26900000  0.41820000  0.04930000  1.0 -0.3669956846
N  N113  1  0.46060000  0.61380000  0.61150000  1.0 -0.3193418143
N  N114  1  0.61380000  0.46060000  0.88850000  1.0 -0.3193418143
N  N115  1  0.53940000  0.38620000  0.38850000  1.0 -0.3193418143
N  N116  1  0.38620000  0.53940000  0.11150000  1.0 -0.3117803523
