# DDEC6 charges by PACMAN v1.1 (https://github.com/mtap-research/PACMAN-charge/)
data_UNOJUD_ASR_pacman
_symmetry_space_group_name_H-M   'P 1'
_cell_length_a   8.35850000
_cell_length_b   12.38650000
_cell_length_c   12.64740000
_cell_angle_alpha   109.88000000
_cell_angle_beta   97.14800000
_cell_angle_gamma   105.32100000
_symmetry_Int_Tables_number   1
_chemical_formula_structural   Sr2H8C12SN2O9
_chemical_formula_sum   'Sr4 H16 C24 S2 N4 O18'
_cell_volume   1154.00134710
_cell_formula_units_Z   2
loop_
 _symmetry_equiv_pos_site_id
 _symmetry_equiv_pos_as_xyz
  1  'x, y, z'
loop_
 _atom_site_type_symbol
 _atom_site_label
 _atom_site_symmetry_multiplicity
 _atom_site_fract_x
 _atom_site_fract_y
 _atom_site_fract_z
 _atom_site_occupancy
 _atom_site_charge
Sr  Sr1  1  0.52281000  0.38668000  0.83610000  1.0 1.458015842
Sr  Sr2  1  0.47719000  0.61332000  0.16390000  1.0 1.458015842
Sr  Sr3  1  0.73255000  0.97086000  0.44299000  1.0 1.4017004795
Sr  Sr4  1  0.26745000  0.02914000  0.55701000  1.0 1.4017004795
H  H1  1  0.45690000  0.29230000  0.49090000  1.0 0.1404576577
H  H2  1  0.54310000  0.70770000  0.50910000  1.0 0.1404576577
H  H3  1  0.42550000  0.23370000  0.35300000  1.0 0.1488034494
H  H4  1  0.57450000  0.76630000  0.64700000  1.0 0.1488034494
H  H5  1  0.08500000  0.69640000  0.39330000  1.0 0.1332256026
H  H6  1  0.91500000  0.30360000  0.60670000  1.0 0.1332256026
H  H7  1  0.04150000  0.70220000  0.26910000  1.0 0.1488034494
H  H8  1  0.95850000  0.29780000  0.73090000  1.0 0.1488034494
H  H9  1  0.02070000  0.51300000  0.16020000  1.0 0.1488034494
H  H10  1  0.97930000  0.48700000  0.83980000  1.0 0.1488034494
H  H11  1  0.90230000  0.39670000  0.17410000  1.0 0.1488034494
H  H12  1  0.09770000  0.60330000  0.82590000  1.0 0.1488034494
H  H13  1  0.60800000  0.16200000  0.68600000  1.0 0.286284966
H  H14  1  0.39200000  0.83800000  0.31400000  1.0 0.286284966
H  H15  1  0.57200000  0.12900000  0.76800000  1.0 0.2715060439
H  H16  1  0.42800000  0.87100000  0.23200000  1.0 0.2765683658
C  C1  1  0.81220000  0.50810000  0.35230000  1.0 0.0817339695
C  C2  1  0.18780000  0.49190000  0.64770000  1.0 0.0817339695
C  C3  1  0.69410000  0.39440000  0.32910000  1.0 -0.1270244443
C  C4  1  0.30590000  0.60560000  0.67090000  1.0 -0.1270244443
C  C5  1  0.64390000  0.38180000  0.43020000  1.0 0.1488034494
C  C6  1  0.35610000  0.61820000  0.56980000  1.0 0.1488034494
C  C7  1  0.72620000  0.48420000  0.52790000  1.0 -0.1956494772
C  C8  1  0.27380000  0.51580000  0.47210000  1.0 -0.1956494772
C  C9  1  0.62190000  0.29880000  0.21690000  1.0 0.2715060439
C  C10  1  0.37810000  0.70120000  0.78310000  1.0 0.2715060439
C  C11  1  0.51380000  0.26950000  0.42640000  1.0 -0.4018410616
C  C12  1  0.48620000  0.73050000  0.57360000  1.0 -0.4018410616
C  C13  1  0.59370000  0.17420000  0.43580000  1.0 0.6551555223
C  C14  1  0.40630000  0.82580000  0.56420000  1.0 0.6551555223
C  C15  1  0.71650000  0.51290000  0.65020000  1.0 0.5986954994
C  C16  1  0.28350000  0.48710000  0.34980000  1.0 0.5986954994
C  C17  1  0.99030000  0.68240000  0.32950000  1.0 -0.2847937816
C  C18  1  0.00970000  0.31760000  0.67050000  1.0 -0.2847937816
C  C19  1  0.89080000  0.76970000  0.37615000  1.0 0.6426615841
C  C20  1  0.10920000  0.23030000  0.62385000  1.0 0.6426615841
C  C21  1  0.90630000  0.47590000  0.17032000  1.0 -0.2847937816
C  C22  1  0.09370000  0.52410000  0.82968000  1.0 -0.2847937816
C  C23  1  0.77390000  0.45250000  0.06430000  1.0 0.6482378668
C  C24  1  0.22610000  0.54750000  0.93570000  1.0 0.6482378668
S  S1  1  0.86161000  0.59771000  0.49878000  1.0 0.1195084281
S  S2  1  0.13839000  0.40229000  0.50122000  1.0 0.1195084281
N  N1  1  0.56180000  0.21930000  0.12880000  1.0 -0.2727037393
N  N2  1  0.43820000  0.78070000  0.87120000  1.0 -0.2727037393
N  N3  1  0.88730000  0.55429000  0.28088000  1.0 0.0399210319
N  N4  1  0.11270000  0.44571000  0.71912000  1.0 0.0399210319
O  O1  1  0.69740000  0.14922000  0.37546000  1.0 -0.6021512024
O  O2  1  0.30260000  0.85078000  0.62454000  1.0 -0.6021512024
O  O3  1  0.54970000  0.12130000  0.50208000  1.0 -0.6881862753
O  O4  1  0.45030000  0.87870000  0.49792000  1.0 -0.6881862753
O  O5  1  0.64080000  0.42856000  0.67841000  1.0 -0.6570774489
O  O6  1  0.35920000  0.57144000  0.32159000  1.0 -0.6570774489
O  O7  1  0.79050000  0.62341000  0.71948000  1.0 -0.5850739055
O  O8  1  0.20950000  0.37659000  0.28052000  1.0 -0.5850739055
O  O9  1  0.73560000  0.74141000  0.32936000  1.0 -0.6832088255
O  O10  1  0.26440000  0.25859000  0.67064000  1.0 -0.6832088255
O  O11  1  0.97410000  0.86959000  0.45813000  1.0 -0.6832088255
O  O12  1  0.02590000  0.13041000  0.54187000  1.0 -0.6832088255
O  O13  1  0.79310000  0.39005000  0.96751000  1.0 -0.6243895762
O  O14  1  0.20690000  0.60995000  0.03249000  1.0 -0.6243895762
O  O15  1  0.65330000  0.49464000  0.07465000  1.0 -0.7025283002
O  O16  1  0.34670000  0.50536000  0.92535000  1.0 -0.7025283002
O  O17  1  0.54860000  0.16837000  0.73157000  1.0 -0.7025283002
O  O18  1  0.45140000  0.83163000  0.26843000  1.0 -0.7025283002
