# DDEC6 charges by PACMAN v1.1 (https://github.com/mtap-research/PACMAN-charge/)
data_UNUNEY_ASR_pacman
_symmetry_space_group_name_H-M   'P 1'
_cell_length_a   38.93150000
_cell_length_b   38.93150000
_cell_length_c   38.93150000
_cell_angle_alpha   60.00000000
_cell_angle_beta   60.00000000
_cell_angle_gamma   60.00000000
_symmetry_Int_Tables_number   1
_chemical_formula_structural   U2H33(C11O2)6
_chemical_formula_sum   'U8 H132 C264 O48'
_cell_volume   41724.23793816
_cell_formula_units_Z   4
loop_
 _symmetry_equiv_pos_site_id
 _symmetry_equiv_pos_as_xyz
  1  'x, y, z'
loop_
 _atom_site_type_symbol
 _atom_site_label
 _atom_site_symmetry_multiplicity
 _atom_site_fract_x
 _atom_site_fract_y
 _atom_site_fract_z
 _atom_site_occupancy
 _atom_site_charge
U  U1  1  0.34850000  0.34850000  0.95450000  1.0 2.0597172451
U  U2  1  0.34850000  0.34850000  0.34850000  1.0 2.0597172451
U  U3  1  0.95450000  0.34850000  0.34850000  1.0 2.0480050517
U  U4  1  0.34850000  0.95450000  0.34850000  1.0 2.0480050517
U  U5  1  0.65150000  0.65150000  0.65150000  1.0 2.0597172451
U  U6  1  0.65150000  0.65150000  0.04550000  1.0 2.0429562998
U  U7  1  0.04550000  0.65150000  0.65150000  1.0 2.0597172451
U  U8  1  0.65150000  0.04550000  0.65150000  1.0 2.0480050517
H  H1  1  0.36550000  0.46590000  0.95630000  1.0 0.1262390746
H  H2  1  0.46590000  0.36550000  0.21230000  1.0 0.1262390746
H  H3  1  0.95630000  0.21230000  0.36550000  1.0 0.1262390746
H  H4  1  0.21230000  0.95630000  0.46590000  1.0 0.1262390746
H  H5  1  0.95630000  0.36550000  0.46590000  1.0 0.1229580225
H  H6  1  0.21230000  0.46590000  0.36550000  1.0 0.1262390746
H  H7  1  0.36550000  0.95630000  0.21230000  1.0 0.1262390746
H  H8  1  0.46590000  0.21230000  0.95630000  1.0 0.1262390746
H  H9  1  0.46590000  0.95630000  0.36550000  1.0 0.1262390746
H  H10  1  0.36550000  0.21230000  0.46590000  1.0 0.1262390746
H  H11  1  0.21230000  0.36550000  0.95630000  1.0 0.1262390746
H  H12  1  0.95630000  0.46590000  0.21230000  1.0 0.1262390746
H  H13  1  0.63450000  0.53410000  0.78770000  1.0 0.1229580225
H  H14  1  0.53410000  0.63450000  0.04370000  1.0 0.1262390746
H  H15  1  0.04370000  0.78770000  0.53410000  1.0 0.1262390746
H  H16  1  0.78770000  0.04370000  0.63450000  1.0 0.1229580225
H  H17  1  0.04370000  0.63450000  0.78770000  1.0 0.1262390746
H  H18  1  0.78770000  0.53410000  0.04370000  1.0 0.1262390746
H  H19  1  0.63450000  0.04370000  0.53410000  1.0 0.1262390746
H  H20  1  0.53410000  0.78770000  0.63450000  1.0 0.1229580225
H  H21  1  0.53410000  0.04370000  0.78770000  1.0 0.1262390746
H  H22  1  0.63450000  0.78770000  0.04370000  1.0 0.1229580225
H  H23  1  0.78770000  0.63450000  0.53410000  1.0 0.1262390746
H  H24  1  0.04370000  0.53410000  0.63450000  1.0 0.1262390746
H  H25  1  0.63450000  0.53410000  0.04370000  1.0 0.1262390746
H  H26  1  0.53410000  0.63450000  0.78770000  1.0 0.1229580225
H  H27  1  0.04370000  0.78770000  0.63450000  1.0 0.1262390746
H  H28  1  0.78770000  0.04370000  0.53410000  1.0 0.1262390746
H  H29  1  0.04370000  0.63450000  0.53410000  1.0 0.1262390746
H  H30  1  0.78770000  0.53410000  0.63450000  1.0 0.1262390746
H  H31  1  0.63450000  0.04370000  0.78770000  1.0 0.1229580225
H  H32  1  0.53410000  0.78770000  0.04370000  1.0 0.1229580225
H  H33  1  0.53410000  0.04370000  0.63450000  1.0 0.1229580225
H  H34  1  0.63450000  0.78770000  0.53410000  1.0 0.1262390746
H  H35  1  0.78770000  0.63450000  0.04370000  1.0 0.1229580225
H  H36  1  0.04370000  0.53410000  0.78770000  1.0 0.1262390746
H  H37  1  0.36550000  0.46590000  0.21230000  1.0 0.1262390746
H  H38  1  0.46590000  0.36550000  0.95630000  1.0 0.1262390746
H  H39  1  0.95630000  0.21230000  0.46590000  1.0 0.1262390746
H  H40  1  0.21230000  0.95630000  0.36550000  1.0 0.1262390746
H  H41  1  0.95630000  0.36550000  0.21230000  1.0 0.1262390746
H  H42  1  0.21230000  0.46590000  0.95630000  1.0 0.1262390746
H  H43  1  0.36550000  0.95630000  0.46590000  1.0 0.1262390746
H  H44  1  0.46590000  0.21230000  0.36550000  1.0 0.1262390746
H  H45  1  0.46590000  0.95630000  0.21230000  1.0 0.1262390746
H  H46  1  0.36550000  0.21230000  0.95630000  1.0 0.1262390746
H  H47  1  0.21230000  0.36550000  0.46590000  1.0 0.1262390746
H  H48  1  0.95630000  0.46590000  0.36550000  1.0 0.1229580225
H  H49  1  0.39860000  0.49940000  0.95800000  1.0 0.1229580225
H  H50  1  0.49940000  0.39860000  0.14400000  1.0 0.1229580225
H  H51  1  0.95800000  0.14400000  0.39860000  1.0 0.1229580225
H  H52  1  0.14400000  0.95800000  0.49940000  1.0 0.1229580225
H  H53  1  0.95800000  0.39860000  0.49940000  1.0 0.1229580225
H  H54  1  0.14400000  0.49940000  0.39860000  1.0 0.1229580225
H  H55  1  0.39860000  0.95800000  0.14400000  1.0 0.1229580225
H  H56  1  0.49940000  0.14400000  0.95800000  1.0 0.1229580225
H  H57  1  0.49940000  0.95800000  0.39860000  1.0 0.1229580225
H  H58  1  0.39860000  0.14400000  0.49940000  1.0 0.1229580225
H  H59  1  0.14400000  0.39860000  0.95800000  1.0 0.1229580225
H  H60  1  0.95800000  0.49940000  0.14400000  1.0 0.1229580225
H  H61  1  0.60140000  0.50060000  0.85600000  1.0 0.1229580225
H  H62  1  0.50060000  0.60140000  0.04200000  1.0 0.1229580225
H  H63  1  0.04200000  0.85600000  0.50060000  1.0 0.1229580225
H  H64  1  0.85600000  0.04200000  0.60140000  1.0 0.1229580225
H  H65  1  0.04200000  0.60140000  0.85600000  1.0 0.1229580225
H  H66  1  0.85600000  0.50060000  0.04200000  1.0 0.1229580225
H  H67  1  0.60140000  0.04200000  0.50060000  1.0 0.1229580225
H  H68  1  0.50060000  0.85600000  0.60140000  1.0 0.1229580225
H  H69  1  0.50060000  0.04200000  0.85600000  1.0 0.1229580225
H  H70  1  0.60140000  0.85600000  0.04200000  1.0 0.1229580225
H  H71  1  0.85600000  0.60140000  0.50060000  1.0 0.1229580225
H  H72  1  0.04200000  0.50060000  0.60140000  1.0 0.1229580225
H  H73  1  0.60140000  0.50060000  0.04200000  1.0 0.1229580225
H  H74  1  0.50060000  0.60140000  0.85600000  1.0 0.1229580225
H  H75  1  0.04200000  0.85600000  0.60140000  1.0 0.1229580225
H  H76  1  0.85600000  0.04200000  0.50060000  1.0 0.1229580225
H  H77  1  0.04200000  0.60140000  0.50060000  1.0 0.1229580225
H  H78  1  0.85600000  0.50060000  0.60140000  1.0 0.1229580225
H  H79  1  0.60140000  0.04200000  0.85600000  1.0 0.1229580225
H  H80  1  0.50060000  0.85600000  0.04200000  1.0 0.1229580225
H  H81  1  0.50060000  0.04200000  0.60140000  1.0 0.1229580225
H  H82  1  0.60140000  0.85600000  0.50060000  1.0 0.1229580225
H  H83  1  0.85600000  0.60140000  0.04200000  1.0 0.1229580225
H  H84  1  0.04200000  0.50060000  0.85600000  1.0 0.1229580225
H  H85  1  0.39860000  0.49940000  0.14400000  1.0 0.1229580225
H  H86  1  0.49940000  0.39860000  0.95800000  1.0 0.1229580225
H  H87  1  0.95800000  0.14400000  0.49940000  1.0 0.1229580225
H  H88  1  0.14400000  0.95800000  0.39860000  1.0 0.1229580225
H  H89  1  0.95800000  0.39860000  0.14400000  1.0 0.1229580225
H  H90  1  0.14400000  0.49940000  0.95800000  1.0 0.1229580225
H  H91  1  0.39860000  0.95800000  0.49940000  1.0 0.1229580225
H  H92  1  0.49940000  0.14400000  0.39860000  1.0 0.1229580225
H  H93  1  0.49940000  0.95800000  0.14400000  1.0 0.1229580225
H  H94  1  0.39860000  0.14400000  0.95800000  1.0 0.1229580225
H  H95  1  0.14400000  0.39860000  0.49940000  1.0 0.1229580225
H  H96  1  0.95800000  0.49940000  0.39860000  1.0 0.1229580225
H  H97  1  0.50000000  0.50000000  0.88660000  1.0 0.1262390746
H  H98  1  0.50000000  0.50000000  0.11340000  1.0 0.1262390746
H  H99  1  0.88660000  0.11340000  0.50000000  1.0 0.1262390746
H  H100  1  0.11340000  0.88660000  0.50000000  1.0 0.1262390746
H  H101  1  0.88660000  0.50000000  0.50000000  1.0 0.1262390746
H  H102  1  0.11340000  0.50000000  0.50000000  1.0 0.1262390746
H  H103  1  0.50000000  0.88660000  0.11340000  1.0 0.1262390746
H  H104  1  0.50000000  0.11340000  0.88660000  1.0 0.1262390746
H  H105  1  0.50000000  0.88660000  0.50000000  1.0 0.1262390746
H  H106  1  0.50000000  0.11340000  0.50000000  1.0 0.1262390746
H  H107  1  0.11340000  0.50000000  0.88660000  1.0 0.1262390746
H  H108  1  0.88660000  0.50000000  0.11340000  1.0 0.1262390746
H  H109  1  0.43970000  0.43970000  0.03110000  1.0 0.1139241408
H  H110  1  0.43970000  0.43970000  0.08950000  1.0 0.1139241408
H  H111  1  0.03110000  0.08950000  0.43970000  1.0 0.1139241408
H  H112  1  0.08950000  0.03110000  0.43970000  1.0 0.1139241408
H  H113  1  0.03110000  0.43970000  0.43970000  1.0 0.1139241408
H  H114  1  0.08950000  0.43970000  0.43970000  1.0 0.1139241408
H  H115  1  0.43970000  0.03110000  0.08950000  1.0 0.1139241408
H  H116  1  0.43970000  0.08950000  0.03110000  1.0 0.1139241408
H  H117  1  0.43970000  0.03110000  0.43970000  1.0 0.1139241408
H  H118  1  0.43970000  0.08950000  0.43970000  1.0 0.1139241408
H  H119  1  0.08950000  0.43970000  0.03110000  1.0 0.1139241408
H  H120  1  0.03110000  0.43970000  0.08950000  1.0 0.1139241408
H  H121  1  0.56030000  0.56030000  0.91050000  1.0 0.1139241408
H  H122  1  0.56030000  0.56030000  0.96890000  1.0 0.1139241408
H  H123  1  0.96890000  0.91050000  0.56030000  1.0 0.1139241408
H  H124  1  0.91050000  0.96890000  0.56030000  1.0 0.1139241408
H  H125  1  0.96890000  0.56030000  0.91050000  1.0 0.1139241408
H  H126  1  0.91050000  0.56030000  0.96890000  1.0 0.1139241408
H  H127  1  0.56030000  0.96890000  0.56030000  1.0 0.1139241408
H  H128  1  0.56030000  0.91050000  0.56030000  1.0 0.1139241408
H  H129  1  0.56030000  0.96890000  0.91050000  1.0 0.1139241408
H  H130  1  0.56030000  0.91050000  0.96890000  1.0 0.1139241408
H  H131  1  0.91050000  0.56030000  0.56030000  1.0 0.1139241408
H  H132  1  0.96890000  0.56030000  0.56030000  1.0 0.1139241408
C  C1  1  0.39058000  0.39058000  0.95414000  1.0 0.5508568305
C  C2  1  0.39058000  0.39058000  0.26470000  1.0 0.5508568305
C  C3  1  0.95414000  0.26470000  0.39058000  1.0 0.5508568305
C  C4  1  0.26470000  0.95414000  0.39058000  1.0 0.5508568305
C  C5  1  0.95414000  0.39058000  0.39058000  1.0 0.5558579934
C  C6  1  0.26470000  0.39058000  0.39058000  1.0 0.5558579934
C  C7  1  0.39058000  0.95414000  0.26470000  1.0 0.5508568305
C  C8  1  0.39058000  0.26470000  0.95414000  1.0 0.5508568305
C  C9  1  0.39058000  0.95414000  0.39058000  1.0 0.5508568305
C  C10  1  0.39058000  0.26470000  0.39058000  1.0 0.5508568305
C  C11  1  0.26470000  0.39058000  0.95414000  1.0 0.5508568305
C  C12  1  0.95414000  0.39058000  0.26470000  1.0 0.5508568305
C  C13  1  0.60942000  0.60942000  0.73530000  1.0 0.5508568305
C  C14  1  0.60942000  0.60942000  0.04586000  1.0 0.5508568305
C  C15  1  0.04586000  0.73530000  0.60942000  1.0 0.5508568305
C  C16  1  0.73530000  0.04586000  0.60942000  1.0 0.5508568305
C  C17  1  0.04586000  0.60942000  0.73530000  1.0 0.5508568305
C  C18  1  0.73530000  0.60942000  0.04586000  1.0 0.5508568305
C  C19  1  0.60942000  0.04586000  0.60942000  1.0 0.5508568305
C  C20  1  0.60942000  0.73530000  0.60942000  1.0 0.5508568305
C  C21  1  0.60942000  0.04586000  0.73530000  1.0 0.5508568305
C  C22  1  0.60942000  0.73530000  0.04586000  1.0 0.5508568305
C  C23  1  0.73530000  0.60942000  0.60942000  1.0 0.5508568305
C  C24  1  0.04586000  0.60942000  0.60942000  1.0 0.5508568305
C  C25  1  0.41359000  0.41359000  0.95511000  1.0 -0.0327197011
C  C26  1  0.41359000  0.41359000  0.21771000  1.0 -0.0327197011
C  C27  1  0.95511000  0.21771000  0.41359000  1.0 -0.0327197011
C  C28  1  0.21771000  0.95511000  0.41359000  1.0 -0.0327197011
C  C29  1  0.95511000  0.41359000  0.41359000  1.0 -0.0327197011
C  C30  1  0.21771000  0.41359000  0.41359000  1.0 -0.0327197011
C  C31  1  0.41359000  0.95511000  0.21771000  1.0 -0.0327197011
C  C32  1  0.41359000  0.21771000  0.95511000  1.0 -0.0327197011
C  C33  1  0.41359000  0.95511000  0.41359000  1.0 -0.0327197011
C  C34  1  0.41359000  0.21771000  0.41359000  1.0 -0.0327197011
C  C35  1  0.21771000  0.41359000  0.95511000  1.0 -0.0327197011
C  C36  1  0.95511000  0.41359000  0.21771000  1.0 -0.0327197011
C  C37  1  0.58641000  0.58641000  0.78229000  1.0 -0.0327197011
C  C38  1  0.58641000  0.58641000  0.04489000  1.0 -0.0327197011
C  C39  1  0.04489000  0.78229000  0.58641000  1.0 -0.0327197011
C  C40  1  0.78229000  0.04489000  0.58641000  1.0 -0.0327197011
C  C41  1  0.04489000  0.58641000  0.78229000  1.0 -0.0327197011
C  C42  1  0.78229000  0.58641000  0.04489000  1.0 -0.0327197011
C  C43  1  0.58641000  0.04489000  0.58641000  1.0 -0.0327197011
C  C44  1  0.58641000  0.78229000  0.58641000  1.0 -0.0327197011
C  C45  1  0.58641000  0.04489000  0.78229000  1.0 -0.0327197011
C  C46  1  0.58641000  0.78229000  0.04489000  1.0 -0.0327197011
C  C47  1  0.78229000  0.58641000  0.58641000  1.0 -0.0327197011
C  C48  1  0.04489000  0.58641000  0.58641000  1.0 -0.0327197011
C  C49  1  0.39390000  0.45220000  0.95562000  1.0 -0.0929790837
C  C50  1  0.45220000  0.39390000  0.19828000  1.0 -0.0929790837
C  C51  1  0.95562000  0.19828000  0.39390000  1.0 -0.0929790837
C  C52  1  0.19828000  0.95562000  0.45220000  1.0 -0.0929790837
C  C53  1  0.95562000  0.39390000  0.45220000  1.0 -0.0929790837
C  C54  1  0.19828000  0.45220000  0.39390000  1.0 -0.0929790837
C  C55  1  0.39390000  0.95562000  0.19828000  1.0 -0.0929790837
C  C56  1  0.45220000  0.19828000  0.95562000  1.0 -0.0929790837
C  C57  1  0.45220000  0.95562000  0.39390000  1.0 -0.0929790837
C  C58  1  0.39390000  0.19828000  0.45220000  1.0 -0.0929790837
C  C59  1  0.19828000  0.39390000  0.95562000  1.0 -0.0929790837
C  C60  1  0.95562000  0.45220000  0.19828000  1.0 -0.0929790837
C  C61  1  0.60610000  0.54780000  0.80172000  1.0 -0.0929790837
C  C62  1  0.54780000  0.60610000  0.04438000  1.0 -0.0929790837
C  C63  1  0.04438000  0.80172000  0.54780000  1.0 -0.0929790837
C  C64  1  0.80172000  0.04438000  0.60610000  1.0 -0.0929790837
C  C65  1  0.04438000  0.60610000  0.80172000  1.0 -0.0929790837
C  C66  1  0.80172000  0.54780000  0.04438000  1.0 -0.0929790837
C  C67  1  0.60610000  0.04438000  0.54780000  1.0 -0.0929790837
C  C68  1  0.54780000  0.80172000  0.60610000  1.0 -0.0929790837
C  C69  1  0.54780000  0.04438000  0.80172000  1.0 -0.0929790837
C  C70  1  0.60610000  0.80172000  0.04438000  1.0 -0.0929790837
C  C71  1  0.80172000  0.60610000  0.54780000  1.0 -0.0929790837
C  C72  1  0.04438000  0.54780000  0.60610000  1.0 -0.0929790837
C  C73  1  0.60610000  0.54780000  0.04438000  1.0 -0.0929790837
C  C74  1  0.54780000  0.60610000  0.80172000  1.0 -0.0929790837
C  C75  1  0.04438000  0.80172000  0.60610000  1.0 -0.0929790837
C  C76  1  0.80172000  0.04438000  0.54780000  1.0 -0.0929790837
C  C77  1  0.04438000  0.60610000  0.54780000  1.0 -0.0929790837
C  C78  1  0.80172000  0.54780000  0.60610000  1.0 -0.0929790837
C  C79  1  0.60610000  0.04438000  0.80172000  1.0 -0.0929790837
C  C80  1  0.54780000  0.80172000  0.04438000  1.0 -0.0929790837
C  C81  1  0.54780000  0.04438000  0.60610000  1.0 -0.0929790837
C  C82  1  0.60610000  0.80172000  0.54780000  1.0 -0.0929790837
C  C83  1  0.80172000  0.60610000  0.04438000  1.0 -0.0929790837
C  C84  1  0.04438000  0.54780000  0.80172000  1.0 -0.0929790837
C  C85  1  0.39390000  0.45220000  0.19828000  1.0 -0.0929790837
C  C86  1  0.45220000  0.39390000  0.95562000  1.0 -0.0929790837
C  C87  1  0.95562000  0.19828000  0.45220000  1.0 -0.0929790837
C  C88  1  0.19828000  0.95562000  0.39390000  1.0 -0.0929790837
C  C89  1  0.95562000  0.39390000  0.19828000  1.0 -0.0929790837
C  C90  1  0.19828000  0.45220000  0.95562000  1.0 -0.0929790837
C  C91  1  0.39390000  0.95562000  0.45220000  1.0 -0.0929790837
C  C92  1  0.45220000  0.19828000  0.39390000  1.0 -0.0929790837
C  C93  1  0.45220000  0.95562000  0.19828000  1.0 -0.0929790837
C  C94  1  0.39390000  0.19828000  0.95562000  1.0 -0.0929790837
C  C95  1  0.19828000  0.39390000  0.45220000  1.0 -0.0929790837
C  C96  1  0.95562000  0.45220000  0.39390000  1.0 -0.0929790837
C  C97  1  0.41386000  0.47226000  0.95520000  1.0 -0.1608453738
C  C98  1  0.47226000  0.41386000  0.15868000  1.0 -0.1608453738
C  C99  1  0.95520000  0.15868000  0.41386000  1.0 -0.1608453738
C  C100  1  0.15868000  0.95520000  0.47226000  1.0 -0.1608453738
C  C101  1  0.95520000  0.41386000  0.47226000  1.0 -0.1608453738
C  C102  1  0.15868000  0.47226000  0.41386000  1.0 -0.1608453738
C  C103  1  0.41386000  0.95520000  0.15868000  1.0 -0.1608453738
C  C104  1  0.47226000  0.15868000  0.95520000  1.0 -0.1652837947
C  C105  1  0.47226000  0.95520000  0.41386000  1.0 -0.1652837947
C  C106  1  0.41386000  0.15868000  0.47226000  1.0 -0.1608453738
C  C107  1  0.15868000  0.41386000  0.95520000  1.0 -0.1652837947
C  C108  1  0.95520000  0.47226000  0.15868000  1.0 -0.1608453738
C  C109  1  0.58614000  0.52774000  0.84132000  1.0 -0.1608453738
C  C110  1  0.52774000  0.58614000  0.04480000  1.0 -0.1652837947
C  C111  1  0.04480000  0.84132000  0.52774000  1.0 -0.1652837947
C  C112  1  0.84132000  0.04480000  0.58614000  1.0 -0.1608453738
C  C113  1  0.04480000  0.58614000  0.84132000  1.0 -0.1652837947
C  C114  1  0.84132000  0.52774000  0.04480000  1.0 -0.1652837947
C  C115  1  0.58614000  0.04480000  0.52774000  1.0 -0.1608453738
C  C116  1  0.52774000  0.84132000  0.58614000  1.0 -0.1652837947
C  C117  1  0.52774000  0.04480000  0.84132000  1.0 -0.1608453738
C  C118  1  0.58614000  0.84132000  0.04480000  1.0 -0.1652837947
C  C119  1  0.84132000  0.58614000  0.52774000  1.0 -0.1652837947
C  C120  1  0.04480000  0.52774000  0.58614000  1.0 -0.1652837947
C  C121  1  0.58614000  0.52774000  0.04480000  1.0 -0.1652837947
C  C122  1  0.52774000  0.58614000  0.84132000  1.0 -0.1608453738
C  C123  1  0.04480000  0.84132000  0.58614000  1.0 -0.1652837947
C  C124  1  0.84132000  0.04480000  0.52774000  1.0 -0.1608453738
C  C125  1  0.04480000  0.58614000  0.52774000  1.0 -0.1652837947
C  C126  1  0.84132000  0.52774000  0.58614000  1.0 -0.1652837947
C  C127  1  0.58614000  0.04480000  0.84132000  1.0 -0.1608453738
C  C128  1  0.52774000  0.84132000  0.04480000  1.0 -0.1652837947
C  C129  1  0.52774000  0.04480000  0.58614000  1.0 -0.1652837947
C  C130  1  0.58614000  0.84132000  0.52774000  1.0 -0.1608453738
C  C131  1  0.84132000  0.58614000  0.04480000  1.0 -0.1652837947
C  C132  1  0.04480000  0.52774000  0.84132000  1.0 -0.1652837947
C  C133  1  0.41386000  0.47226000  0.15868000  1.0 -0.1608453738
C  C134  1  0.47226000  0.41386000  0.95520000  1.0 -0.1652837947
C  C135  1  0.95520000  0.15868000  0.47226000  1.0 -0.1608453738
C  C136  1  0.15868000  0.95520000  0.41386000  1.0 -0.1608453738
C  C137  1  0.95520000  0.41386000  0.15868000  1.0 -0.1608453738
C  C138  1  0.15868000  0.47226000  0.95520000  1.0 -0.1652837947
C  C139  1  0.41386000  0.95520000  0.47226000  1.0 -0.1608453738
C  C140  1  0.47226000  0.15868000  0.41386000  1.0 -0.1608453738
C  C141  1  0.47226000  0.95520000  0.15868000  1.0 -0.1608453738
C  C142  1  0.41386000  0.15868000  0.95520000  1.0 -0.1652837947
C  C143  1  0.15868000  0.41386000  0.47226000  1.0 -0.1608453738
C  C144  1  0.95520000  0.47226000  0.41386000  1.0 -0.1608453738
C  C145  1  0.45479000  0.45479000  0.95091000  1.0 0.0620530183
C  C146  1  0.45479000  0.45479000  0.13951000  1.0 0.0620530183
C  C147  1  0.95091000  0.13951000  0.45479000  1.0 0.0620530183
C  C148  1  0.13951000  0.95091000  0.45479000  1.0 0.0620530183
C  C149  1  0.95091000  0.45479000  0.45479000  1.0 0.0620530183
C  C150  1  0.13951000  0.45479000  0.45479000  1.0 0.0620530183
C  C151  1  0.45479000  0.95091000  0.13951000  1.0 0.0620530183
C  C152  1  0.45479000  0.13951000  0.95091000  1.0 0.0620530183
C  C153  1  0.45479000  0.95091000  0.45479000  1.0 0.0620530183
C  C154  1  0.45479000  0.13951000  0.45479000  1.0 0.0620530183
C  C155  1  0.13951000  0.45479000  0.95091000  1.0 0.0620530183
C  C156  1  0.95091000  0.45479000  0.13951000  1.0 0.0620530183
C  C157  1  0.54521000  0.54521000  0.86049000  1.0 0.0620530183
C  C158  1  0.54521000  0.54521000  0.04909000  1.0 0.0620530183
C  C159  1  0.04909000  0.86049000  0.54521000  1.0 0.0620530183
C  C160  1  0.86049000  0.04909000  0.54521000  1.0 0.0620530183
C  C161  1  0.04909000  0.54521000  0.86049000  1.0 0.0620530183
C  C162  1  0.86049000  0.54521000  0.04909000  1.0 0.0620530183
C  C163  1  0.54521000  0.04909000  0.54521000  1.0 0.0620530183
C  C164  1  0.54521000  0.86049000  0.54521000  1.0 0.0620530183
C  C165  1  0.54521000  0.04909000  0.86049000  1.0 0.0620530183
C  C166  1  0.54521000  0.86049000  0.04909000  1.0 0.0620530183
C  C167  1  0.86049000  0.54521000  0.54521000  1.0 0.0620530183
C  C168  1  0.04909000  0.54521000  0.54521000  1.0 0.0620530183
C  C169  1  0.47829000  0.47829000  0.94947000  1.0 0.0232164819
C  C170  1  0.47829000  0.47829000  0.09395000  1.0 0.0232164819
C  C171  1  0.94947000  0.09395000  0.47829000  1.0 0.0232164819
C  C172  1  0.09395000  0.94947000  0.47829000  1.0 0.0232164819
C  C173  1  0.94947000  0.47829000  0.47829000  1.0 0.0232164819
C  C174  1  0.09395000  0.47829000  0.47829000  1.0 0.0232164819
C  C175  1  0.47829000  0.94947000  0.09395000  1.0 0.0232164819
C  C176  1  0.47829000  0.09395000  0.94947000  1.0 0.0232164819
C  C177  1  0.47829000  0.94947000  0.47829000  1.0 0.0232164819
C  C178  1  0.47829000  0.09395000  0.47829000  1.0 0.0232164819
C  C179  1  0.09395000  0.47829000  0.94947000  1.0 0.0232164819
C  C180  1  0.94947000  0.47829000  0.09395000  1.0 0.0232164819
C  C181  1  0.52171000  0.52171000  0.90605000  1.0 0.0232164819
C  C182  1  0.52171000  0.52171000  0.05053000  1.0 0.0232164819
C  C183  1  0.05053000  0.90605000  0.52171000  1.0 0.0232164819
C  C184  1  0.90605000  0.05053000  0.52171000  1.0 0.0232164819
C  C185  1  0.05053000  0.52171000  0.90605000  1.0 0.0232164819
C  C186  1  0.90605000  0.52171000  0.05053000  1.0 0.0232164819
C  C187  1  0.52171000  0.05053000  0.52171000  1.0 0.0232164819
C  C188  1  0.52171000  0.90605000  0.52171000  1.0 0.0232164819
C  C189  1  0.52171000  0.05053000  0.90605000  1.0 0.0232164819
C  C190  1  0.52171000  0.90605000  0.05053000  1.0 0.0232164819
C  C191  1  0.90605000  0.52171000  0.52171000  1.0 0.0232164819
C  C192  1  0.05053000  0.52171000  0.52171000  1.0 0.0232164819
C  C193  1  0.50000000  0.50000000  0.91100000  1.0 -0.1853224265
C  C194  1  0.50000000  0.50000000  0.08900000  1.0 -0.1853224265
C  C195  1  0.91100000  0.08900000  0.50000000  1.0 -0.1845488178
C  C196  1  0.08900000  0.91100000  0.50000000  1.0 -0.1853224265
C  C197  1  0.91100000  0.50000000  0.50000000  1.0 -0.1845488178
C  C198  1  0.08900000  0.50000000  0.50000000  1.0 -0.1845488178
C  C199  1  0.50000000  0.91100000  0.08900000  1.0 -0.1853224265
C  C200  1  0.50000000  0.08900000  0.91100000  1.0 -0.1845488178
C  C201  1  0.50000000  0.91100000  0.50000000  1.0 -0.1853224265
C  C202  1  0.50000000  0.08900000  0.50000000  1.0 -0.1853224265
C  C203  1  0.08900000  0.50000000  0.91100000  1.0 -0.1853224265
C  C204  1  0.91100000  0.50000000  0.08900000  1.0 -0.1853224265
C  C205  1  0.47639000  0.47639000  0.98675000  1.0 0.0253123974
C  C206  1  0.47639000  0.47639000  0.06047000  1.0 0.0232164819
C  C207  1  0.98675000  0.06047000  0.47639000  1.0 0.0232164819
C  C208  1  0.06047000  0.98675000  0.47639000  1.0 0.0232164819
C  C209  1  0.98675000  0.47639000  0.47639000  1.0 0.0253123974
C  C210  1  0.06047000  0.47639000  0.47639000  1.0 0.0232164819
C  C211  1  0.47639000  0.98675000  0.06047000  1.0 0.0232164819
C  C212  1  0.47639000  0.06047000  0.98675000  1.0 0.0232164819
C  C213  1  0.47639000  0.98675000  0.47639000  1.0 0.0232164819
C  C214  1  0.47639000  0.06047000  0.47639000  1.0 0.0253123974
C  C215  1  0.06047000  0.47639000  0.98675000  1.0 0.0232164819
C  C216  1  0.98675000  0.47639000  0.06047000  1.0 0.0232164819
C  C217  1  0.52361000  0.52361000  0.93953000  1.0 0.0253123974
C  C218  1  0.52361000  0.52361000  0.01325000  1.0 0.0232164819
C  C219  1  0.01325000  0.93953000  0.52361000  1.0 0.0232164819
C  C220  1  0.93953000  0.01325000  0.52361000  1.0 0.0232164819
C  C221  1  0.01325000  0.52361000  0.93953000  1.0 0.0232164819
C  C222  1  0.93953000  0.52361000  0.01325000  1.0 0.0253123974
C  C223  1  0.52361000  0.01325000  0.52361000  1.0 0.0232164819
C  C224  1  0.52361000  0.93953000  0.52361000  1.0 0.0232164819
C  C225  1  0.52361000  0.01325000  0.93953000  1.0 0.0253123974
C  C226  1  0.52361000  0.93953000  0.01325000  1.0 0.0232164819
C  C227  1  0.93953000  0.52361000  0.52361000  1.0 0.0253123974
C  C228  1  0.01325000  0.52361000  0.52361000  1.0 0.0232164819
C  C229  1  0.45486000  0.45486000  0.02776000  1.0 -0.1608453738
C  C230  1  0.45486000  0.45486000  0.06252000  1.0 -0.1608453738
C  C231  1  0.02776000  0.06252000  0.45486000  1.0 -0.1608453738
C  C232  1  0.06252000  0.02776000  0.45486000  1.0 -0.1608453738
C  C233  1  0.02776000  0.45486000  0.45486000  1.0 -0.1608453738
C  C234  1  0.06252000  0.45486000  0.45486000  1.0 -0.1608453738
C  C235  1  0.45486000  0.02776000  0.06252000  1.0 -0.1608453738
C  C236  1  0.45486000  0.06252000  0.02776000  1.0 -0.1608453738
C  C237  1  0.45486000  0.02776000  0.45486000  1.0 -0.1608453738
C  C238  1  0.45486000  0.06252000  0.45486000  1.0 -0.1608453738
C  C239  1  0.06252000  0.45486000  0.02776000  1.0 -0.1608453738
C  C240  1  0.02776000  0.45486000  0.06252000  1.0 -0.1608453738
C  C241  1  0.54514000  0.54514000  0.93748000  1.0 -0.1608453738
C  C242  1  0.54514000  0.54514000  0.97224000  1.0 -0.1608453738
C  C243  1  0.97224000  0.93748000  0.54514000  1.0 -0.1608453738
C  C244  1  0.93748000  0.97224000  0.54514000  1.0 -0.1608453738
C  C245  1  0.97224000  0.54514000  0.93748000  1.0 -0.1608453738
C  C246  1  0.93748000  0.54514000  0.97224000  1.0 -0.1608453738
C  C247  1  0.54514000  0.97224000  0.54514000  1.0 -0.1608453738
C  C248  1  0.54514000  0.93748000  0.54514000  1.0 -0.1608453738
C  C249  1  0.54514000  0.97224000  0.93748000  1.0 -0.1608453738
C  C250  1  0.54514000  0.93748000  0.97224000  1.0 -0.1608453738
C  C251  1  0.93748000  0.54514000  0.54514000  1.0 -0.1608453738
C  C252  1  0.97224000  0.54514000  0.54514000  1.0 -0.1608453738
C  C253  1  0.50000000  0.50000000  0.98148000  1.0 0.0057596319
C  C254  1  0.50000000  0.50000000  0.01852000  1.0 0.0057596319
C  C255  1  0.98148000  0.01852000  0.50000000  1.0 0.0057596319
C  C256  1  0.01852000  0.98148000  0.50000000  1.0 0.0057596319
C  C257  1  0.98148000  0.50000000  0.50000000  1.0 0.0057596319
C  C258  1  0.01852000  0.50000000  0.50000000  1.0 0.0057596319
C  C259  1  0.50000000  0.98148000  0.01852000  1.0 0.0046670769
C  C260  1  0.50000000  0.01852000  0.98148000  1.0 0.0046670769
C  C261  1  0.50000000  0.98148000  0.50000000  1.0 0.0057596319
C  C262  1  0.50000000  0.01852000  0.50000000  1.0 0.0057596319
C  C263  1  0.01852000  0.50000000  0.98148000  1.0 0.0057596319
C  C264  1  0.98148000  0.50000000  0.01852000  1.0 0.0046670769
O  O1  1  0.40965000  0.35349000  0.95411000  1.0 -0.61125392
O  O2  1  0.35349000  0.40965000  0.28275000  1.0 -0.61125392
O  O3  1  0.95411000  0.28275000  0.40965000  1.0 -0.61125392
O  O4  1  0.28275000  0.95411000  0.35349000  1.0 -0.6157961018
O  O5  1  0.95411000  0.40965000  0.35349000  1.0 -0.61125392
O  O6  1  0.28275000  0.35349000  0.40965000  1.0 -0.6157961018
O  O7  1  0.40965000  0.95411000  0.28275000  1.0 -0.61125392
O  O8  1  0.35349000  0.28275000  0.95411000  1.0 -0.6157961018
O  O9  1  0.35349000  0.95411000  0.40965000  1.0 -0.61125392
O  O10  1  0.40965000  0.28275000  0.35349000  1.0 -0.6157961018
O  O11  1  0.28275000  0.40965000  0.95411000  1.0 -0.61125392
O  O12  1  0.95411000  0.35349000  0.28275000  1.0 -0.61125392
O  O13  1  0.59035000  0.64651000  0.71725000  1.0 -0.61125392
O  O14  1  0.64651000  0.59035000  0.04589000  1.0 -0.61125392
O  O15  1  0.04589000  0.71725000  0.64651000  1.0 -0.61125392
O  O16  1  0.71725000  0.04589000  0.59035000  1.0 -0.61125392
O  O17  1  0.04589000  0.59035000  0.71725000  1.0 -0.61125392
O  O18  1  0.71725000  0.64651000  0.04589000  1.0 -0.61125392
O  O19  1  0.59035000  0.04589000  0.64651000  1.0 -0.61125392
O  O20  1  0.64651000  0.71725000  0.59035000  1.0 -0.61125392
O  O21  1  0.64651000  0.04589000  0.71725000  1.0 -0.61125392
O  O22  1  0.59035000  0.71725000  0.04589000  1.0 -0.61125392
O  O23  1  0.71725000  0.59035000  0.64651000  1.0 -0.61125392
O  O24  1  0.04589000  0.64651000  0.59035000  1.0 -0.61125392
O  O25  1  0.59035000  0.64651000  0.04589000  1.0 -0.61125392
O  O26  1  0.64651000  0.59035000  0.71725000  1.0 -0.61125392
O  O27  1  0.04589000  0.71725000  0.59035000  1.0 -0.61125392
O  O28  1  0.71725000  0.04589000  0.64651000  1.0 -0.61125392
O  O29  1  0.04589000  0.59035000  0.64651000  1.0 -0.61125392
O  O30  1  0.71725000  0.64651000  0.59035000  1.0 -0.61125392
O  O31  1  0.59035000  0.04589000  0.71725000  1.0 -0.61125392
O  O32  1  0.64651000  0.71725000  0.04589000  1.0 -0.61125392
O  O33  1  0.64651000  0.04589000  0.59035000  1.0 -0.61125392
O  O34  1  0.59035000  0.71725000  0.64651000  1.0 -0.61125392
O  O35  1  0.71725000  0.59035000  0.04589000  1.0 -0.61125392
O  O36  1  0.04589000  0.64651000  0.71725000  1.0 -0.61125392
O  O37  1  0.40965000  0.35349000  0.28275000  1.0 -0.61125392
O  O38  1  0.35349000  0.40965000  0.95411000  1.0 -0.61125392
O  O39  1  0.95411000  0.28275000  0.35349000  1.0 -0.61125392
O  O40  1  0.28275000  0.95411000  0.40965000  1.0 -0.61125392
O  O41  1  0.95411000  0.40965000  0.28275000  1.0 -0.61125392
O  O42  1  0.28275000  0.35349000  0.95411000  1.0 -0.61125392
O  O43  1  0.40965000  0.95411000  0.35349000  1.0 -0.61125392
O  O44  1  0.35349000  0.28275000  0.40965000  1.0 -0.6157961018
O  O45  1  0.35349000  0.95411000  0.28275000  1.0 -0.61125392
O  O46  1  0.40965000  0.28275000  0.95411000  1.0 -0.61125392
O  O47  1  0.28275000  0.40965000  0.35349000  1.0 -0.6157961018
O  O48  1  0.95411000  0.35349000  0.40965000  1.0 -0.61125392
