# DDEC6 charges by PACMAN v1.1 (https://github.com/mtap-research/PACMAN-charge/)
data_UPOXEE_ASR_pacman
_symmetry_space_group_name_H-M   'P 1'
_cell_length_a   18.59900000
_cell_length_b   18.59900000
_cell_length_c   17.36200000
_cell_angle_alpha   90.00000000
_cell_angle_beta   90.00000000
_cell_angle_gamma   90.00000000
_symmetry_Int_Tables_number   1
_chemical_formula_structural   La2P10H25(C5O6)6
_chemical_formula_sum   'La8 P40 H100 C120 O144'
_cell_volume   6005.91167096
_cell_formula_units_Z   4
loop_
 _symmetry_equiv_pos_site_id
 _symmetry_equiv_pos_as_xyz
  1  'x, y, z'
loop_
 _atom_site_type_symbol
 _atom_site_label
 _atom_site_symmetry_multiplicity
 _atom_site_fract_x
 _atom_site_fract_y
 _atom_site_fract_z
 _atom_site_occupancy
 _atom_site_charge
La  La1  1  0.29034000  0.37368000  0.16411000  1.0 2.0110879903
La  La2  1  0.70966000  0.62632000  0.16411000  1.0 2.0110879903
La  La3  1  0.62632000  0.29034000  0.83589000  1.0 2.0110879903
La  La4  1  0.37368000  0.70966000  0.83589000  1.0 2.0110879903
La  La5  1  0.20966000  0.87368000  0.16411000  1.0 2.0110879903
La  La6  1  0.79034000  0.12632000  0.16411000  1.0 2.0110879903
La  La7  1  0.87368000  0.79034000  0.83589000  1.0 2.0110879903
La  La8  1  0.12632000  0.20966000  0.83589000  1.0 2.0110879903
P  P1  1  0.32473000  0.17741000  0.22408000  1.0 1.2590365624
P  P2  1  0.61393000  0.22006000  0.16483000  1.0 1.2654880052
P  P3  1  0.21971000  0.38343000  0.37137000  1.0 1.2368901437
P  P4  1  0.95990000  0.25480000  0.43804000  1.0 0.6823432382
P  P5  1  0.24397000  0.53625000  0.03470000  1.0 1.2790068303
P  P6  1  0.67527000  0.82259000  0.22408000  1.0 1.2590365624
P  P7  1  0.38607000  0.77994000  0.16483000  1.0 1.2654880052
P  P8  1  0.78029000  0.61657000  0.37137000  1.0 1.2368901437
P  P9  1  0.04010000  0.74520000  0.43804000  1.0 0.6861016517
P  P10  1  0.75603000  0.46375000  0.03470000  1.0 1.2790068303
P  P11  1  0.82259000  0.32473000  0.77592000  1.0 1.2590365624
P  P12  1  0.77994000  0.61393000  0.83517000  1.0 1.2654880052
P  P13  1  0.61657000  0.21971000  0.62863000  1.0 1.2368901437
P  P14  1  0.74520000  0.95990000  0.56196000  1.0 0.6823432382
P  P15  1  0.46375000  0.24397000  0.96530000  1.0 1.2790068303
P  P16  1  0.17741000  0.67527000  0.77592000  1.0 1.2590365624
P  P17  1  0.22006000  0.38607000  0.83517000  1.0 1.2654880052
P  P18  1  0.38343000  0.78029000  0.62863000  1.0 1.2368901437
P  P19  1  0.25480000  0.04010000  0.56196000  1.0 0.6823432382
P  P20  1  0.53625000  0.75603000  0.96530000  1.0 1.2790068303
P  P21  1  0.17527000  0.67741000  0.22408000  1.0 1.2590365624
P  P22  1  0.88607000  0.72006000  0.16483000  1.0 1.2654880052
P  P23  1  0.28029000  0.88343000  0.37137000  1.0 1.2368901437
P  P24  1  0.54010000  0.75480000  0.43804000  1.0 0.6823432382
P  P25  1  0.25603000  0.03625000  0.03470000  1.0 1.2790068303
P  P26  1  0.82473000  0.32259000  0.22408000  1.0 1.2590365624
P  P27  1  0.11393000  0.27994000  0.16483000  1.0 1.2654880052
P  P28  1  0.71971000  0.11657000  0.37137000  1.0 1.2368901437
P  P29  1  0.45990000  0.24520000  0.43804000  1.0 0.6823432382
P  P30  1  0.74397000  0.96375000  0.03470000  1.0 1.2790068303
P  P31  1  0.67741000  0.82473000  0.77592000  1.0 1.2590365624
P  P32  1  0.72006000  0.11393000  0.83517000  1.0 1.2654880052
P  P33  1  0.88343000  0.71971000  0.62863000  1.0 1.2368901437
P  P34  1  0.75480000  0.45990000  0.56196000  1.0 0.6823432382
P  P35  1  0.03625000  0.74397000  0.96530000  1.0 1.2790068303
P  P36  1  0.32259000  0.17527000  0.77592000  1.0 1.2590365624
P  P37  1  0.27994000  0.88607000  0.83517000  1.0 1.2654880052
P  P38  1  0.11657000  0.28029000  0.62863000  1.0 1.2368901437
P  P39  1  0.24520000  0.54010000  0.56196000  1.0 0.6823432382
P  P40  1  0.96375000  0.25603000  0.96530000  1.0 1.2790068303
H  H1  1  0.33370000  0.14510000  0.33370000  1.0 0.3625647472
H  H2  1  0.65040000  0.29620000  0.23760000  1.0 0.3919062381
H  H3  1  0.23190000  0.28880000  0.42670000  1.0 0.3673822553
H  H4  1  0.31930000  0.55640000  0.95560000  1.0 0.3625647472
H  H5  1  0.26780000  0.63950000  0.05140000  1.0 0.3673822553
H  H6  1  0.46270000  0.23850000  0.19560000  1.0 0.1010083664
H  H7  1  0.59700000  0.06830000  0.17550000  1.0 0.1080559724
H  H8  1  0.38500000  0.03770000  0.22170000  1.0 0.1080559724
H  H9  1  0.10810000  0.28470000  0.41100000  1.0 0.1010083664
H  H10  1  0.92780000  0.40290000  0.42120000  1.0 0.0915804123
H  H11  1  0.12040000  0.49830000  0.37860000  1.0 0.1010083664
H  H12  1  0.11340000  0.46300000  0.02620000  1.0 0.1191740612
H  H13  1  0.66630000  0.85490000  0.33370000  1.0 0.3625647472
H  H14  1  0.34960000  0.70380000  0.23760000  1.0 0.3919062381
H  H15  1  0.76810000  0.71120000  0.42670000  1.0 0.3673822553
H  H16  1  0.68070000  0.44360000  0.95560000  1.0 0.3625647472
H  H17  1  0.73220000  0.36050000  0.05140000  1.0 0.3673822553
H  H18  1  0.53730000  0.76150000  0.19560000  1.0 0.1010083664
H  H19  1  0.40300000  0.93170000  0.17550000  1.0 0.1080559724
H  H20  1  0.61500000  0.96230000  0.22170000  1.0 0.1080559724
H  H21  1  0.89190000  0.71530000  0.41100000  1.0 0.1010083664
H  H22  1  0.07220000  0.59710000  0.42120000  1.0 0.0915804123
H  H23  1  0.87960000  0.50170000  0.37860000  1.0 0.1010083664
H  H24  1  0.88660000  0.53700000  0.02620000  1.0 0.1191740612
H  H25  1  0.85490000  0.33370000  0.66630000  1.0 0.3625647472
H  H26  1  0.70380000  0.65040000  0.76240000  1.0 0.3919062381
H  H27  1  0.71120000  0.23190000  0.57330000  1.0 0.3673822553
H  H28  1  0.44360000  0.31930000  0.04440000  1.0 0.3625647472
H  H29  1  0.36050000  0.26780000  0.94860000  1.0 0.3673822553
H  H30  1  0.76150000  0.46270000  0.80440000  1.0 0.1010083664
H  H31  1  0.93170000  0.59700000  0.82450000  1.0 0.1080559724
H  H32  1  0.96230000  0.38500000  0.77830000  1.0 0.1080559724
H  H33  1  0.71530000  0.10810000  0.58900000  1.0 0.1010083664
H  H34  1  0.59710000  0.92780000  0.57880000  1.0 0.0915804123
H  H35  1  0.50170000  0.12040000  0.62140000  1.0 0.1010083664
H  H36  1  0.53700000  0.11340000  0.97380000  1.0 0.1191740612
H  H37  1  0.14510000  0.66630000  0.66630000  1.0 0.3625647472
H  H38  1  0.29620000  0.34960000  0.76240000  1.0 0.3919062381
H  H39  1  0.28880000  0.76810000  0.57330000  1.0 0.3673822553
H  H40  1  0.55640000  0.68070000  0.04440000  1.0 0.3625647472
H  H41  1  0.63950000  0.73220000  0.94860000  1.0 0.3673822553
H  H42  1  0.23850000  0.53730000  0.80440000  1.0 0.1010083664
H  H43  1  0.06830000  0.40300000  0.82450000  1.0 0.1080559724
H  H44  1  0.03770000  0.61500000  0.77830000  1.0 0.1080559724
H  H45  1  0.28470000  0.89190000  0.58900000  1.0 0.1010083664
H  H46  1  0.40290000  0.07220000  0.57880000  1.0 0.0915804123
H  H47  1  0.49830000  0.87960000  0.62140000  1.0 0.1010083664
H  H48  1  0.46300000  0.88660000  0.97380000  1.0 0.1191740612
H  H49  1  0.16630000  0.64510000  0.33370000  1.0 0.3625647472
H  H50  1  0.84960000  0.79620000  0.23760000  1.0 0.3919062381
H  H51  1  0.26810000  0.78880000  0.42670000  1.0 0.3673822553
H  H52  1  0.18070000  0.05640000  0.95560000  1.0 0.3625647472
H  H53  1  0.23220000  0.13950000  0.05140000  1.0 0.3673822553
H  H54  1  0.03730000  0.73850000  0.19560000  1.0 0.1010083664
H  H55  1  0.90300000  0.56830000  0.17550000  1.0 0.1080559724
H  H56  1  0.11500000  0.53770000  0.22170000  1.0 0.1080559724
H  H57  1  0.39190000  0.78470000  0.41100000  1.0 0.1010083664
H  H58  1  0.57220000  0.90290000  0.42120000  1.0 0.0915804123
H  H59  1  0.37960000  0.99830000  0.37860000  1.0 0.1010083664
H  H60  1  0.38660000  0.96300000  0.02620000  1.0 0.1191740612
H  H61  1  0.83370000  0.35490000  0.33370000  1.0 0.3625647472
H  H62  1  0.15040000  0.20380000  0.23760000  1.0 0.3919062381
H  H63  1  0.73190000  0.21120000  0.42670000  1.0 0.3673822553
H  H64  1  0.81930000  0.94360000  0.95560000  1.0 0.3625647472
H  H65  1  0.76780000  0.86050000  0.05140000  1.0 0.3673822553
H  H66  1  0.96270000  0.26150000  0.19560000  1.0 0.1010083664
H  H67  1  0.09700000  0.43170000  0.17550000  1.0 0.1080559724
H  H68  1  0.88500000  0.46230000  0.22170000  1.0 0.1080559724
H  H69  1  0.60810000  0.21530000  0.41100000  1.0 0.1010083664
H  H70  1  0.42780000  0.09710000  0.42120000  1.0 0.0915804123
H  H71  1  0.62040000  0.00170000  0.37860000  1.0 0.1010083664
H  H72  1  0.61340000  0.03700000  0.02620000  1.0 0.1191740612
H  H73  1  0.64510000  0.83370000  0.66630000  1.0 0.3625647472
H  H74  1  0.79620000  0.15040000  0.76240000  1.0 0.3919062381
H  H75  1  0.78880000  0.73190000  0.57330000  1.0 0.3673822553
H  H76  1  0.05640000  0.81930000  0.04440000  1.0 0.3625647472
H  H77  1  0.13950000  0.76780000  0.94860000  1.0 0.3673822553
H  H78  1  0.73850000  0.96270000  0.80440000  1.0 0.1010083664
H  H79  1  0.56830000  0.09700000  0.82450000  1.0 0.1080559724
H  H80  1  0.53770000  0.88500000  0.77830000  1.0 0.1080559724
H  H81  1  0.78470000  0.60810000  0.58900000  1.0 0.1010083664
H  H82  1  0.90290000  0.42780000  0.57880000  1.0 0.0915804123
H  H83  1  0.99830000  0.62040000  0.62140000  1.0 0.1010083664
H  H84  1  0.96300000  0.61340000  0.97380000  1.0 0.1191740612
H  H85  1  0.35490000  0.16630000  0.66630000  1.0 0.3625647472
H  H86  1  0.20380000  0.84960000  0.76240000  1.0 0.3919062381
H  H87  1  0.21120000  0.26810000  0.57330000  1.0 0.3673822553
H  H88  1  0.94360000  0.18070000  0.04440000  1.0 0.3625647472
H  H89  1  0.86050000  0.23220000  0.94860000  1.0 0.3673822553
H  H90  1  0.26150000  0.03730000  0.80440000  1.0 0.1010083664
H  H91  1  0.43170000  0.90300000  0.82450000  1.0 0.1080559724
H  H92  1  0.46230000  0.11500000  0.77830000  1.0 0.1080559724
H  H93  1  0.21530000  0.39190000  0.58900000  1.0 0.1010083664
H  H94  1  0.09710000  0.57220000  0.57880000  1.0 0.0915804123
H  H95  1  0.00170000  0.37960000  0.62140000  1.0 0.1010083664
H  H96  1  0.03700000  0.38660000  0.97380000  1.0 0.1191740612
H  H97  1  0.17060000  0.67060000  0.00000000  1.0 0.0777154629
H  H98  1  0.82940000  0.32940000  0.00000000  1.0 0.0777154629
H  H99  1  0.32940000  0.17060000  0.00000000  1.0 0.0777154629
H  H100  1  0.67060000  0.82940000  0.00000000  1.0 0.0777154629
C  C1  1  0.41360000  0.14200000  0.20940000  1.0 -0.2117098394
C  C2  1  0.47050000  0.18800000  0.19640000  1.0 -0.0711862055
C  C3  1  0.53990000  0.16060000  0.18430000  1.0 -0.1668599351
C  C4  1  0.55030000  0.08700000  0.18500000  1.0 -0.109977663
C  C5  1  0.49310000  0.03900000  0.19950000  1.0 0.061457397
C  C6  1  0.42450000  0.06870000  0.21170000  1.0 -0.1242220137
C  C7  1  0.12460000  0.38980000  0.39170000  1.0 -0.1570163603
C  C8  1  0.08490000  0.33000000  0.40720000  1.0 -0.0829034625
C  C9  1  0.01100000  0.33450000  0.41740000  1.0 -0.1979832088
C  C10  1  0.97840000  0.40000000  0.41420000  1.0 -0.1242220137
C  C11  1  0.01780000  0.46430000  0.40060000  1.0 0.070120885
C  C12  1  0.09200000  0.45690000  0.38880000  1.0 -0.1264645132
C  C13  1  0.15280000  0.56330000  0.01400000  1.0 -0.1979832088
C  C14  1  0.10050000  0.51130000  0.01510000  1.0 -0.0943129147
C  C15  1  0.58640000  0.85800000  0.20940000  1.0 -0.2117098394
C  C16  1  0.52950000  0.81200000  0.19640000  1.0 -0.0711862055
C  C17  1  0.46010000  0.83940000  0.18430000  1.0 -0.1668599351
C  C18  1  0.44970000  0.91300000  0.18500000  1.0 -0.109977663
C  C19  1  0.50690000  0.96100000  0.19950000  1.0 0.061457397
C  C20  1  0.57550000  0.93130000  0.21170000  1.0 -0.1242220137
C  C21  1  0.87540000  0.61020000  0.39170000  1.0 -0.1570163603
C  C22  1  0.91510000  0.67000000  0.40720000  1.0 -0.0829034625
C  C23  1  0.98900000  0.66550000  0.41740000  1.0 -0.1979832088
C  C24  1  0.02160000  0.60000000  0.41420000  1.0 -0.1242220137
C  C25  1  0.98220000  0.53570000  0.40060000  1.0 0.070120885
C  C26  1  0.90800000  0.54310000  0.38880000  1.0 -0.1264645132
C  C27  1  0.84720000  0.43670000  0.01400000  1.0 -0.1979832088
C  C28  1  0.89950000  0.48870000  0.01510000  1.0 -0.0943129147
C  C29  1  0.85800000  0.41360000  0.79060000  1.0 -0.2117098394
C  C30  1  0.81200000  0.47050000  0.80360000  1.0 -0.0711862055
C  C31  1  0.83940000  0.53990000  0.81570000  1.0 -0.1668599351
C  C32  1  0.91300000  0.55030000  0.81500000  1.0 -0.109977663
C  C33  1  0.96100000  0.49310000  0.80050000  1.0 0.061457397
C  C34  1  0.93130000  0.42450000  0.78830000  1.0 -0.1242220137
C  C35  1  0.61020000  0.12460000  0.60830000  1.0 -0.1570163603
C  C36  1  0.67000000  0.08490000  0.59280000  1.0 -0.0829034625
C  C37  1  0.66550000  0.01100000  0.58260000  1.0 -0.1979832088
C  C38  1  0.60000000  0.97840000  0.58580000  1.0 -0.1242220137
C  C39  1  0.53570000  0.01780000  0.59940000  1.0 0.070120885
C  C40  1  0.54310000  0.09200000  0.61120000  1.0 -0.1264645132
C  C41  1  0.43670000  0.15280000  0.98600000  1.0 -0.1979832088
C  C42  1  0.48870000  0.10050000  0.98490000  1.0 -0.0943129147
C  C43  1  0.14200000  0.58640000  0.79060000  1.0 -0.2117098394
C  C44  1  0.18800000  0.52950000  0.80360000  1.0 -0.0711862055
C  C45  1  0.16060000  0.46010000  0.81570000  1.0 -0.1668599351
C  C46  1  0.08700000  0.44970000  0.81500000  1.0 -0.109977663
C  C47  1  0.03900000  0.50690000  0.80050000  1.0 0.061457397
C  C48  1  0.06870000  0.57550000  0.78830000  1.0 -0.1242220137
C  C49  1  0.38980000  0.87540000  0.60830000  1.0 -0.1570163603
C  C50  1  0.33000000  0.91510000  0.59280000  1.0 -0.0829034625
C  C51  1  0.33450000  0.98900000  0.58260000  1.0 -0.1979832088
C  C52  1  0.40000000  0.02160000  0.58580000  1.0 -0.1242220137
C  C53  1  0.46430000  0.98220000  0.59940000  1.0 0.070120885
C  C54  1  0.45690000  0.90800000  0.61120000  1.0 -0.1264645132
C  C55  1  0.56330000  0.84720000  0.98600000  1.0 -0.1979832088
C  C56  1  0.51130000  0.89950000  0.98490000  1.0 -0.0943129147
C  C57  1  0.08640000  0.64200000  0.20940000  1.0 -0.2117098394
C  C58  1  0.02950000  0.68800000  0.19640000  1.0 -0.0711862055
C  C59  1  0.96010000  0.66060000  0.18430000  1.0 -0.1668599351
C  C60  1  0.94970000  0.58700000  0.18500000  1.0 -0.109977663
C  C61  1  0.00690000  0.53900000  0.19950000  1.0 0.061457397
C  C62  1  0.07550000  0.56870000  0.21170000  1.0 -0.1242220137
C  C63  1  0.37540000  0.88980000  0.39170000  1.0 -0.1570163603
C  C64  1  0.41510000  0.83000000  0.40720000  1.0 -0.0829034625
C  C65  1  0.48900000  0.83450000  0.41740000  1.0 -0.1979832088
C  C66  1  0.52160000  0.90000000  0.41420000  1.0 -0.1242220137
C  C67  1  0.48220000  0.96430000  0.40060000  1.0 0.070120885
C  C68  1  0.40800000  0.95690000  0.38880000  1.0 -0.1264645132
C  C69  1  0.34720000  0.06330000  0.01400000  1.0 -0.1979832088
C  C70  1  0.39950000  0.01130000  0.01510000  1.0 -0.0943129147
C  C71  1  0.91360000  0.35800000  0.20940000  1.0 -0.2117098394
C  C72  1  0.97050000  0.31200000  0.19640000  1.0 -0.0711862055
C  C73  1  0.03990000  0.33940000  0.18430000  1.0 -0.1668599351
C  C74  1  0.05030000  0.41300000  0.18500000  1.0 -0.109977663
C  C75  1  0.99310000  0.46100000  0.19950000  1.0 0.061457397
C  C76  1  0.92450000  0.43130000  0.21170000  1.0 -0.1242220137
C  C77  1  0.62460000  0.11020000  0.39170000  1.0 -0.1570163603
C  C78  1  0.58490000  0.17000000  0.40720000  1.0 -0.0829034625
C  C79  1  0.51100000  0.16550000  0.41740000  1.0 -0.1979832088
C  C80  1  0.47840000  0.10000000  0.41420000  1.0 -0.1242220137
C  C81  1  0.51780000  0.03570000  0.40060000  1.0 0.070120885
C  C82  1  0.59200000  0.04310000  0.38880000  1.0 -0.1264645132
C  C83  1  0.65280000  0.93670000  0.01400000  1.0 -0.1979832088
C  C84  1  0.60050000  0.98870000  0.01510000  1.0 -0.0943129147
C  C85  1  0.64200000  0.91360000  0.79060000  1.0 -0.2117098394
C  C86  1  0.68800000  0.97050000  0.80360000  1.0 -0.0711862055
C  C87  1  0.66060000  0.03990000  0.81570000  1.0 -0.1668599351
C  C88  1  0.58700000  0.05030000  0.81500000  1.0 -0.109977663
C  C89  1  0.53900000  0.99310000  0.80050000  1.0 0.061457397
C  C90  1  0.56870000  0.92450000  0.78830000  1.0 -0.1242220137
C  C91  1  0.88980000  0.62460000  0.60830000  1.0 -0.1570163603
C  C92  1  0.83000000  0.58490000  0.59280000  1.0 -0.0829034625
C  C93  1  0.83450000  0.51100000  0.58260000  1.0 -0.1979832088
C  C94  1  0.90000000  0.47840000  0.58580000  1.0 -0.1242220137
C  C95  1  0.96430000  0.51780000  0.59940000  1.0 0.070120885
C  C96  1  0.95690000  0.59200000  0.61120000  1.0 -0.1264645132
C  C97  1  0.06330000  0.65280000  0.98600000  1.0 -0.1979832088
C  C98  1  0.01130000  0.60050000  0.98490000  1.0 -0.0943129147
C  C99  1  0.35800000  0.08640000  0.79060000  1.0 -0.2117098394
C  C100  1  0.31200000  0.02950000  0.80360000  1.0 -0.0711862055
C  C101  1  0.33940000  0.96010000  0.81570000  1.0 -0.1668599351
C  C102  1  0.41300000  0.94970000  0.81500000  1.0 -0.109977663
C  C103  1  0.46100000  0.00690000  0.80050000  1.0 0.061457397
C  C104  1  0.43130000  0.07550000  0.78830000  1.0 -0.1242220137
C  C105  1  0.11020000  0.37540000  0.60830000  1.0 -0.1570163603
C  C106  1  0.17000000  0.41510000  0.59280000  1.0 -0.0829034625
C  C107  1  0.16550000  0.48900000  0.58260000  1.0 -0.1979832088
C  C108  1  0.10000000  0.52160000  0.58580000  1.0 -0.1242220137
C  C109  1  0.03570000  0.48220000  0.59940000  1.0 0.070120885
C  C110  1  0.04310000  0.40800000  0.61120000  1.0 -0.1264645132
C  C111  1  0.93670000  0.34720000  0.98600000  1.0 -0.1979832088
C  C112  1  0.98870000  0.39950000  0.98490000  1.0 -0.0943129147
C  C113  1  0.02820000  0.52820000  0.00000000  1.0 0.061457397
C  C114  1  0.13450000  0.63450000  0.00000000  1.0 -0.109977663
C  C115  1  0.97180000  0.47180000  0.00000000  1.0 0.061457397
C  C116  1  0.86550000  0.36550000  0.00000000  1.0 -0.109977663
C  C117  1  0.47180000  0.02820000  0.00000000  1.0 0.061457397
C  C118  1  0.36550000  0.13450000  0.00000000  1.0 -0.109977663
C  C119  1  0.52820000  0.97180000  0.00000000  1.0 0.061457397
C  C120  1  0.63450000  0.86550000  0.00000000  1.0 -0.109977663
O  O1  1  0.31600000  0.18210000  0.31330000  1.0 -0.6012288267
O  O2  1  0.26900000  0.12350000  0.19920000  1.0 -0.7211044441
O  O3  1  0.31980000  0.24930000  0.18710000  1.0 -0.8845930706
O  O4  1  0.63840000  0.25310000  0.24400000  1.0 -0.6114501516
O  O5  1  0.58750000  0.28150000  0.11640000  1.0 -0.7064697082
O  O6  1  0.67340000  0.17540000  0.13270000  1.0 -0.8384547542
O  O7  1  0.22770000  0.35300000  0.29090000  1.0 -0.8338525529
O  O8  1  0.25090000  0.32940000  0.43280000  1.0 -0.6496117051
O  O9  1  0.25550000  0.45510000  0.38250000  1.0 -0.676323847
O  O10  1  0.01620000  0.18830000  0.42430000  1.0 -0.1979832088
O  O11  1  0.94240000  0.25110000  0.52290000  1.0 0.1267443923
O  O12  1  0.89780000  0.24070000  0.38740000  1.0 -0.0609969153
O  O13  1  0.24120000  0.47000000  0.08180000  1.0 -0.8384547542
O  O14  1  0.28510000  0.52700000  0.95740000  1.0 -0.5921319659
O  O15  1  0.28150000  0.60140000  0.07290000  1.0 -0.5557423542
O  O16  1  0.00180000  0.20440000  0.48680000  1.0 0.1191740612
O  O17  1  0.90350000  0.29160000  0.49980000  1.0 -0.2403375014
O  O18  1  0.92030000  0.23200000  0.37280000  1.0 -0.0294369225
O  O19  1  0.68400000  0.81790000  0.31330000  1.0 -0.6012288267
O  O20  1  0.73100000  0.87650000  0.19920000  1.0 -0.7211044441
O  O21  1  0.68020000  0.75070000  0.18710000  1.0 -0.8845930706
O  O22  1  0.36160000  0.74690000  0.24400000  1.0 -0.6114501516
O  O23  1  0.41250000  0.71850000  0.11640000  1.0 -0.7064697082
O  O24  1  0.32660000  0.82460000  0.13270000  1.0 -0.8384547542
O  O25  1  0.77230000  0.64700000  0.29090000  1.0 -0.8338525529
O  O26  1  0.74910000  0.67060000  0.43280000  1.0 -0.6496117051
O  O27  1  0.74450000  0.54490000  0.38250000  1.0 -0.676323847
O  O28  1  0.98380000  0.81170000  0.42430000  1.0 -0.1979832088
O  O29  1  0.05760000  0.74890000  0.52290000  1.0 0.1267443923
O  O30  1  0.10220000  0.75930000  0.38740000  1.0 -0.0609969153
O  O31  1  0.75880000  0.53000000  0.08180000  1.0 -0.8384547542
O  O32  1  0.71490000  0.47300000  0.95740000  1.0 -0.5921319659
O  O33  1  0.71850000  0.39860000  0.07290000  1.0 -0.5557423542
O  O34  1  0.99820000  0.79560000  0.48680000  1.0 0.1191740612
O  O35  1  0.09650000  0.70840000  0.49980000  1.0 -0.2403375014
O  O36  1  0.07970000  0.76800000  0.37280000  1.0 -0.0294369225
O  O37  1  0.81790000  0.31600000  0.68670000  1.0 -0.6012288267
O  O38  1  0.87650000  0.26900000  0.80080000  1.0 -0.7211044441
O  O39  1  0.75070000  0.31980000  0.81290000  1.0 -0.8845930706
O  O40  1  0.74690000  0.63840000  0.75600000  1.0 -0.6114501516
O  O41  1  0.71850000  0.58750000  0.88360000  1.0 -0.7064697082
O  O42  1  0.82460000  0.67340000  0.86730000  1.0 -0.8384547542
O  O43  1  0.64700000  0.22770000  0.70910000  1.0 -0.8338525529
O  O44  1  0.67060000  0.25090000  0.56720000  1.0 -0.6496117051
O  O45  1  0.54490000  0.25550000  0.61750000  1.0 -0.676323847
O  O46  1  0.81170000  0.01620000  0.57570000  1.0 -0.1979832088
O  O47  1  0.74890000  0.94240000  0.47710000  1.0 0.1267443923
O  O48  1  0.75930000  0.89780000  0.61260000  1.0 -0.0711862055
O  O49  1  0.53000000  0.24120000  0.91820000  1.0 -0.8384547542
O  O50  1  0.47300000  0.28510000  0.04260000  1.0 -0.5921319659
O  O51  1  0.39860000  0.28150000  0.92710000  1.0 -0.5557423542
O  O52  1  0.79560000  0.00180000  0.51320000  1.0 0.1191740612
O  O53  1  0.70840000  0.90350000  0.50020000  1.0 -0.2403375014
O  O54  1  0.76800000  0.92030000  0.62720000  1.0 -0.0294369225
O  O55  1  0.18210000  0.68400000  0.68670000  1.0 -0.6012288267
O  O56  1  0.12350000  0.73100000  0.80080000  1.0 -0.7211044441
O  O57  1  0.24930000  0.68020000  0.81290000  1.0 -0.8845930706
O  O58  1  0.25310000  0.36160000  0.75600000  1.0 -0.6114501516
O  O59  1  0.28150000  0.41250000  0.88360000  1.0 -0.7064697082
O  O60  1  0.17540000  0.32660000  0.86730000  1.0 -0.8384547542
O  O61  1  0.35300000  0.77230000  0.70910000  1.0 -0.8338525529
O  O62  1  0.32940000  0.74910000  0.56720000  1.0 -0.6496117051
O  O63  1  0.45510000  0.74450000  0.61750000  1.0 -0.676323847
O  O64  1  0.18830000  0.98380000  0.57570000  1.0 -0.1979832088
O  O65  1  0.25110000  0.05760000  0.47710000  1.0 0.1267443923
O  O66  1  0.24070000  0.10220000  0.61260000  1.0 -0.0711862055
O  O67  1  0.47000000  0.75880000  0.91820000  1.0 -0.8384547542
O  O68  1  0.52700000  0.71490000  0.04260000  1.0 -0.5921319659
O  O69  1  0.60140000  0.71850000  0.92710000  1.0 -0.5557423542
O  O70  1  0.20440000  0.99820000  0.51320000  1.0 0.1191740612
O  O71  1  0.29160000  0.09650000  0.50020000  1.0 -0.2403375014
O  O72  1  0.23200000  0.07970000  0.62720000  1.0 -0.0294369225
O  O73  1  0.18400000  0.68210000  0.31330000  1.0 -0.6012288267
O  O74  1  0.23100000  0.62350000  0.19920000  1.0 -0.7211044441
O  O75  1  0.18020000  0.74930000  0.18710000  1.0 -0.8845930706
O  O76  1  0.86160000  0.75310000  0.24400000  1.0 -0.6114501516
O  O77  1  0.91250000  0.78150000  0.11640000  1.0 -0.7064697082
O  O78  1  0.82660000  0.67540000  0.13270000  1.0 -0.8384547542
O  O79  1  0.27230000  0.85300000  0.29090000  1.0 -0.8338525529
O  O80  1  0.24910000  0.82940000  0.43280000  1.0 -0.6496117051
O  O81  1  0.24450000  0.95510000  0.38250000  1.0 -0.676323847
O  O82  1  0.48380000  0.68830000  0.42430000  1.0 -0.1979832088
O  O83  1  0.55760000  0.75110000  0.52290000  1.0 0.1267443923
O  O84  1  0.60220000  0.74070000  0.38740000  1.0 -0.0609969153
O  O85  1  0.25880000  0.97000000  0.08180000  1.0 -0.8384547542
O  O86  1  0.21490000  0.02700000  0.95740000  1.0 -0.5921319659
O  O87  1  0.21850000  0.10140000  0.07290000  1.0 -0.5557423542
O  O88  1  0.49820000  0.70440000  0.48680000  1.0 0.1191740612
O  O89  1  0.59650000  0.79160000  0.49980000  1.0 -0.2403375014
O  O90  1  0.57970000  0.73200000  0.37280000  1.0 -0.0294369225
O  O91  1  0.81600000  0.31790000  0.31330000  1.0 -0.6012288267
O  O92  1  0.76900000  0.37650000  0.19920000  1.0 -0.7211044441
O  O93  1  0.81980000  0.25070000  0.18710000  1.0 -0.8845930706
O  O94  1  0.13840000  0.24690000  0.24400000  1.0 -0.6114501516
O  O95  1  0.08750000  0.21850000  0.11640000  1.0 -0.7064697082
O  O96  1  0.17340000  0.32460000  0.13270000  1.0 -0.8384547542
O  O97  1  0.72770000  0.14700000  0.29090000  1.0 -0.8338525529
O  O98  1  0.75090000  0.17060000  0.43280000  1.0 -0.6496117051
O  O99  1  0.75550000  0.04490000  0.38250000  1.0 -0.676323847
O  O100  1  0.51620000  0.31170000  0.42430000  1.0 -0.1979832088
O  O101  1  0.44240000  0.24890000  0.52290000  1.0 0.1267443923
O  O102  1  0.39780000  0.25930000  0.38740000  1.0 -0.0609969153
O  O103  1  0.74120000  0.03000000  0.08180000  1.0 -0.8384547542
O  O104  1  0.78510000  0.97300000  0.95740000  1.0 -0.5921319659
O  O105  1  0.78150000  0.89860000  0.07290000  1.0 -0.5557423542
O  O106  1  0.50180000  0.29560000  0.48680000  1.0 0.1191740612
O  O107  1  0.40350000  0.20840000  0.49980000  1.0 -0.2403375014
O  O108  1  0.42030000  0.26800000  0.37280000  1.0 -0.0294369225
O  O109  1  0.68210000  0.81600000  0.68670000  1.0 -0.6012288267
O  O110  1  0.62350000  0.76900000  0.80080000  1.0 -0.7211044441
O  O111  1  0.74930000  0.81980000  0.81290000  1.0 -0.8845930706
O  O112  1  0.75310000  0.13840000  0.75600000  1.0 -0.6114501516
O  O113  1  0.78150000  0.08750000  0.88360000  1.0 -0.7064697082
O  O114  1  0.67540000  0.17340000  0.86730000  1.0 -0.8384547542
O  O115  1  0.85300000  0.72770000  0.70910000  1.0 -0.8338525529
O  O116  1  0.82940000  0.75090000  0.56720000  1.0 -0.6496117051
O  O117  1  0.95510000  0.75550000  0.61750000  1.0 -0.676323847
O  O118  1  0.68830000  0.51620000  0.57570000  1.0 -0.1979832088
O  O119  1  0.75110000  0.44240000  0.47710000  1.0 0.1267443923
O  O120  1  0.74070000  0.39780000  0.61260000  1.0 -0.0711862055
O  O121  1  0.97000000  0.74120000  0.91820000  1.0 -0.8384547542
O  O122  1  0.02700000  0.78510000  0.04260000  1.0 -0.5921319659
O  O123  1  0.10140000  0.78150000  0.92710000  1.0 -0.5557423542
O  O124  1  0.70440000  0.50180000  0.51320000  1.0 0.1191740612
O  O125  1  0.79160000  0.40350000  0.50020000  1.0 -0.2403375014
O  O126  1  0.73200000  0.42030000  0.62720000  1.0 -0.0294369225
O  O127  1  0.31790000  0.18400000  0.68670000  1.0 -0.6012288267
O  O128  1  0.37650000  0.23100000  0.80080000  1.0 -0.7211044441
O  O129  1  0.25070000  0.18020000  0.81290000  1.0 -0.8845930706
O  O130  1  0.24690000  0.86160000  0.75600000  1.0 -0.6114501516
O  O131  1  0.21850000  0.91250000  0.88360000  1.0 -0.7064697082
O  O132  1  0.32460000  0.82660000  0.86730000  1.0 -0.8384547542
O  O133  1  0.14700000  0.27230000  0.70910000  1.0 -0.8338525529
O  O134  1  0.17060000  0.24910000  0.56720000  1.0 -0.6496117051
O  O135  1  0.04490000  0.24450000  0.61750000  1.0 -0.676323847
O  O136  1  0.31170000  0.48380000  0.57570000  1.0 -0.1979832088
O  O137  1  0.24890000  0.55760000  0.47710000  1.0 0.1267443923
O  O138  1  0.25930000  0.60220000  0.61260000  1.0 -0.0711862055
O  O139  1  0.03000000  0.25880000  0.91820000  1.0 -0.8384547542
O  O140  1  0.97300000  0.21490000  0.04260000  1.0 -0.5921319659
O  O141  1  0.89860000  0.21850000  0.92710000  1.0 -0.5557423542
O  O142  1  0.29560000  0.49820000  0.51320000  1.0 0.1191740612
O  O143  1  0.20840000  0.59650000  0.50020000  1.0 -0.2403375014
O  O144  1  0.26800000  0.57970000  0.62720000  1.0 -0.0294369225
