# DDEC6 charges by PACMAN v1.1 (https://github.com/mtap-research/PACMAN-charge/)
data_UQEGEE_ASR_pacman
_symmetry_space_group_name_H-M   'P 1'
_cell_length_a   16.15400000
_cell_length_b   18.60020000
_cell_length_c   22.32390000
_cell_angle_alpha   80.96060000
_cell_angle_beta   68.78860000
_cell_angle_gamma   64.26290000
_symmetry_Int_Tables_number   1
_chemical_formula_structural   V4Co5Mo12PH72C60S2(N12O29)2
_chemical_formula_sum   'V8 Co10 Mo24 P2 H144 C120 S4 N48 O116'
_cell_volume   5632.84070835
_cell_formula_units_Z   2
loop_
 _symmetry_equiv_pos_site_id
 _symmetry_equiv_pos_as_xyz
  1  'x, y, z'
loop_
 _atom_site_type_symbol
 _atom_site_label
 _atom_site_symmetry_multiplicity
 _atom_site_fract_x
 _atom_site_fract_y
 _atom_site_fract_z
 _atom_site_occupancy
 _atom_site_charge
V  V1  1  0.97211000  0.75000000  0.05578000  1.0 1.6480850432
V  V2  1  0.02789000  0.25000000  0.94422000  1.0 1.6480850432
V  V3  1  0.77789000  0.75000000  0.44422000  1.0 1.6480850432
V  V4  1  0.22211000  0.25000000  0.55578000  1.0 1.6480850432
V  V5  1  0.11672000  0.75000000  0.25000000  1.0 1.5740979566
V  V6  1  0.88328000  0.25000000  0.75000000  1.0 1.5740979566
V  V7  1  0.63328000  0.75000000  0.25000000  1.0 1.5740979566
V  V8  1  0.36672000  0.25000000  0.75000000  1.0 1.5759455416
Co  Co1  1  0.22994000  0.77214000  0.94809000  1.0 0.8100045998
Co  Co2  1  0.77006000  0.22786000  0.05191000  1.0 0.8100045998
Co  Co3  1  0.82197000  0.72786000  0.94809000  1.0 0.8100045998
Co  Co4  1  0.17803000  0.27214000  0.05191000  1.0 0.8100045998
Co  Co5  1  0.49792000  0.77214000  0.55191000  1.0 0.8100045998
Co  Co6  1  0.50208000  0.22786000  0.44809000  1.0 0.8100045998
Co  Co7  1  0.95017000  0.72786000  0.55191000  1.0 0.8100045998
Co  Co8  1  0.04983000  0.27214000  0.44809000  1.0 0.8100045998
Co  Co9  1  0.37500000  0.75000000  0.25000000  1.0 0.7906481975
Co  Co10  1  0.62500000  0.25000000  0.75000000  1.0 0.7906481975
Mo  Mo1  1  0.09595000  0.74211000  0.13163000  1.0 2.1291271601
Mo  Mo2  1  0.90405000  0.25789000  0.86837000  1.0 2.1291271601
Mo  Mo3  1  0.77242000  0.75789000  0.13163000  1.0 2.1291271601
Mo  Mo4  1  0.22758000  0.24211000  0.86837000  1.0 2.1291271601
Mo  Mo5  1  0.66194000  0.74211000  0.36837000  1.0 2.1291271601
Mo  Mo6  1  0.33806000  0.25789000  0.63163000  1.0 2.1291271601
Mo  Mo7  1  0.96969000  0.75789000  0.36837000  1.0 2.1291271601
Mo  Mo8  1  0.03031000  0.24211000  0.63163000  1.0 2.1291271601
Mo  Mo9  1  0.11702000  0.58204000  0.24651000  1.0 2.206109092
Mo  Mo10  1  0.88298000  0.41796000  0.75349000  1.0 2.206109092
Mo  Mo11  1  0.63647000  0.91796000  0.24651000  1.0 2.206109092
Mo  Mo12  1  0.36353000  0.08204000  0.75349000  1.0 2.206109092
Mo  Mo13  1  0.80094000  0.58204000  0.25349000  1.0 2.206109092
Mo  Mo14  1  0.19906000  0.41796000  0.74651000  1.0 2.2022965188
Mo  Mo15  1  0.94557000  0.91796000  0.25349000  1.0 2.2022965188
Mo  Mo16  1  0.05443000  0.08204000  0.74651000  1.0 2.2022965188
Mo  Mo17  1  0.02156000  0.58653000  0.12971000  1.0 2.2022965188
Mo  Mo18  1  0.97844000  0.41347000  0.87029000  1.0 2.2022965188
Mo  Mo19  1  0.84873000  0.91347000  0.12971000  1.0 2.2022965188
Mo  Mo20  1  0.15127000  0.08653000  0.87029000  1.0 2.2022965188
Mo  Mo21  1  0.89191000  0.58653000  0.37029000  1.0 2.2022965188
Mo  Mo22  1  0.10809000  0.41347000  0.62971000  1.0 2.2022965188
Mo  Mo23  1  0.73780000  0.91347000  0.37029000  1.0 2.2022965188
Mo  Mo24  1  0.26220000  0.08653000  0.62971000  1.0 2.2022965188
P  P1  1  0.87500000  0.75000000  0.25000000  1.0 1.5922404978
P  P2  1  0.12500000  0.25000000  0.75000000  1.0 1.5922404978
H  H1  1  0.34699000  0.69485000  0.03533000  1.0 0.1713320468
H  H2  1  0.65301000  0.30515000  0.96467000  1.0 0.1713320468
H  H3  1  0.61769000  0.80515000  0.03533000  1.0 0.1713320468
H  H4  1  0.38231000  0.19485000  0.96467000  1.0 0.1713320468
H  H5  1  0.45816000  0.69485000  0.46467000  1.0 0.1713320468
H  H6  1  0.54184000  0.30515000  0.53533000  1.0 0.1713320468
H  H7  1  0.07716000  0.80515000  0.46467000  1.0 0.1713320468
H  H8  1  0.92284000  0.19485000  0.53533000  1.0 0.1713320468
H  H9  1  0.43626000  0.71745000  0.04670000  1.0 0.1511230562
H  H10  1  0.56374000  0.28255000  0.95330000  1.0 0.1511230562
H  H11  1  0.51704000  0.78255000  0.04670000  1.0 0.1511230562
H  H12  1  0.48296000  0.21745000  0.95330000  1.0 0.1511230562
H  H13  1  0.34628000  0.71745000  0.45330000  1.0 0.1511230562
H  H14  1  0.65372000  0.28255000  0.54670000  1.0 0.1511230562
H  H15  1  0.20041000  0.78255000  0.45330000  1.0 0.1511230562
H  H16  1  0.79959000  0.21745000  0.54670000  1.0 0.1511230562
H  H17  1  0.47384000  0.63344000  0.00067000  1.0 0.138155882
H  H18  1  0.52616000  0.36656000  0.99933000  1.0 0.138155882
H  H19  1  0.52549000  0.86656000  0.00067000  1.0 0.138155882
H  H20  1  0.47451000  0.13344000  0.99933000  1.0 0.138155882
H  H21  1  0.39272000  0.63344000  0.49933000  1.0 0.138155882
H  H22  1  0.60728000  0.36656000  0.50067000  1.0 0.138155882
H  H23  1  0.10794000  0.86656000  0.49933000  1.0 0.138155882
H  H24  1  0.89206000  0.13344000  0.50067000  1.0 0.138155882
H  H25  1  0.69568000  0.43688000  0.87009000  1.0 0.1614437349
H  H26  1  0.30432000  0.56312000  0.12991000  1.0 0.1614437349
H  H27  1  0.43423000  0.06312000  0.87009000  1.0 0.1614437349
H  H28  1  0.56577000  0.93688000  0.12991000  1.0 0.1614437349
H  H29  1  0.36744000  0.43688000  0.62991000  1.0 0.1614437349
H  H30  1  0.63256000  0.56312000  0.37009000  1.0 0.1614437349
H  H31  1  0.00265000  0.06312000  0.62991000  1.0 0.1614437349
H  H32  1  0.99735000  0.93688000  0.37009000  1.0 0.1614437349
H  H33  1  0.58876000  0.46977000  0.93888000  1.0 0.138155882
H  H34  1  0.41124000  0.53023000  0.06112000  1.0 0.138155882
H  H35  1  0.47236000  0.03023000  0.93888000  1.0 0.138155882
H  H36  1  0.52764000  0.96977000  0.06112000  1.0 0.138155882
H  H37  1  0.44148000  0.46977000  0.56112000  1.0 0.138155882
H  H38  1  0.55852000  0.53023000  0.43888000  1.0 0.138155882
H  H39  1  0.99740000  0.03023000  0.56112000  1.0 0.138155882
H  H40  1  0.00260000  0.96977000  0.43888000  1.0 0.138155882
H  H41  1  0.59899000  0.53394000  0.87168000  1.0 0.1300360322
H  H42  1  0.40101000  0.46606000  0.12832000  1.0 0.1300360322
H  H43  1  0.52933000  0.96606000  0.87168000  1.0 0.1300360322
H  H44  1  0.47067000  0.03394000  0.12832000  1.0 0.1300360322
H  H45  1  0.36707000  0.53394000  0.62832000  1.0 0.1300360322
H  H46  1  0.63293000  0.46606000  0.37168000  1.0 0.1300360322
H  H47  1  0.00461000  0.96606000  0.62832000  1.0 0.1300360322
H  H48  1  0.99539000  0.03394000  0.37168000  1.0 0.1300360322
H  H49  1  0.23506000  0.48778000  0.05549000  1.0 0.1511230562
H  H50  1  0.76494000  0.51222000  0.94451000  1.0 0.1511230562
H  H51  1  0.70945000  0.01222000  0.05549000  1.0 0.1511230562
H  H52  1  0.29055000  0.98778000  0.94451000  1.0 0.1511230562
H  H53  1  0.77716000  0.48778000  0.44451000  1.0 0.1511230562
H  H54  1  0.22284000  0.51222000  0.55549000  1.0 0.1511230562
H  H55  1  0.77833000  0.01222000  0.44451000  1.0 0.1511230562
H  H56  1  0.22167000  0.98778000  0.55549000  1.0 0.1511230562
H  H57  1  0.36135000  0.42522000  0.02084000  1.0 0.1300360322
H  H58  1  0.63865000  0.57478000  0.97916000  1.0 0.1300360322
H  H59  1  0.61781000  0.07478000  0.02084000  1.0 0.1300360322
H  H60  1  0.38219000  0.92522000  0.97916000  1.0 0.1300360322
H  H61  1  0.71343000  0.42522000  0.47916000  1.0 0.1300360322
H  H62  1  0.28657000  0.57478000  0.52084000  1.0 0.1300360322
H  H63  1  0.80741000  0.07478000  0.47916000  1.0 0.1300360322
H  H64  1  0.19259000  0.92522000  0.52084000  1.0 0.1300360322
H  H65  1  0.27544000  0.42787000  0.98738000  1.0 0.1614437349
H  H66  1  0.72456000  0.57213000  0.01262000  1.0 0.1614437349
H  H67  1  0.73718000  0.07213000  0.98738000  1.0 0.1614437349
H  H68  1  0.26282000  0.92787000  0.01262000  1.0 0.1614437349
H  H69  1  0.79669000  0.42787000  0.51262000  1.0 0.1614437349
H  H70  1  0.20331000  0.57213000  0.48738000  1.0 0.1614437349
H  H71  1  0.69069000  0.07213000  0.51262000  1.0 0.1614437349
H  H72  1  0.30931000  0.92787000  0.48738000  1.0 0.1614437349
H  H73  1  0.39201000  0.70428000  0.83231000  1.0 0.1300360322
H  H74  1  0.60799000  0.29572000  0.16769000  1.0 0.1300360322
H  H75  1  0.77569000  0.79572000  0.83231000  1.0 0.1300360322
H  H76  1  0.22431000  0.20428000  0.16769000  1.0 0.1300360322
H  H77  1  0.40372000  0.70428000  0.66769000  1.0 0.1300360322
H  H78  1  0.59628000  0.29572000  0.33231000  1.0 0.1300360322
H  H79  1  0.92859000  0.79572000  0.66769000  1.0 0.1300360322
H  H80  1  0.07141000  0.20428000  0.33231000  1.0 0.1300360322
H  H81  1  0.43336000  0.61205000  0.79373000  1.0 0.1511230562
H  H82  1  0.56664000  0.38795000  0.20627000  1.0 0.1511230562
H  H83  1  0.77291000  0.88795000  0.79373000  1.0 0.1511230562
H  H84  1  0.22709000  0.11205000  0.20627000  1.0 0.1511230562
H  H85  1  0.45459000  0.61205000  0.70627000  1.0 0.1511230562
H  H86  1  0.54541000  0.38795000  0.29373000  1.0 0.1511230562
H  H87  1  0.83914000  0.88795000  0.70627000  1.0 0.1511230562
H  H88  1  0.16086000  0.11205000  0.29373000  1.0 0.1511230562
H  H89  1  0.50516000  0.62469000  0.83218000  1.0 0.138155882
H  H90  1  0.49484000  0.37531000  0.16782000  1.0 0.138155882
H  H91  1  0.66266000  0.87531000  0.83218000  1.0 0.138155882
H  H92  1  0.33734000  0.12469000  0.16782000  1.0 0.138155882
H  H93  1  0.37015000  0.62469000  0.66782000  1.0 0.138155882
H  H94  1  0.62985000  0.37531000  0.33218000  1.0 0.138155882
H  H95  1  0.96203000  0.87531000  0.66782000  1.0 0.138155882
H  H96  1  0.03797000  0.12469000  0.33218000  1.0 0.138155882
H  H97  1  0.45187000  0.88719000  0.77796000  1.0 0.1614437349
H  H98  1  0.54813000  0.11281000  0.22204000  1.0 0.1614437349
H  H99  1  0.77017000  0.61281000  0.77796000  1.0 0.1614437349
H  H100  1  0.22983000  0.38719000  0.22204000  1.0 0.1614437349
H  H101  1  0.16094000  0.88719000  0.72204000  1.0 0.1614437349
H  H102  1  0.83906000  0.11281000  0.27796000  1.0 0.1614437349
H  H103  1  0.11702000  0.61281000  0.72204000  1.0 0.1614437349
H  H104  1  0.88298000  0.38719000  0.27796000  1.0 0.1614437349
H  H105  1  0.56731000  0.80516000  0.76522000  1.0 0.138155882
H  H106  1  0.43269000  0.19484000  0.23478000  1.0 0.138155882
H  H107  1  0.66748000  0.69484000  0.76522000  1.0 0.138155882
H  H108  1  0.33252000  0.30516000  0.23478000  1.0 0.138155882
H  H109  1  0.12753000  0.80516000  0.73478000  1.0 0.138155882
H  H110  1  0.87247000  0.19484000  0.26522000  1.0 0.138155882
H  H111  1  0.13768000  0.69484000  0.73478000  1.0 0.138155882
H  H112  1  0.86232000  0.30516000  0.26522000  1.0 0.138155882
H  H113  1  0.53625000  0.88656000  0.81277000  1.0 0.138155882
H  H114  1  0.46375000  0.11344000  0.18723000  1.0 0.138155882
H  H115  1  0.65098000  0.61344000  0.81277000  1.0 0.138155882
H  H116  1  0.34902000  0.38656000  0.18723000  1.0 0.138155882
H  H117  1  0.07719000  0.88656000  0.68723000  1.0 0.138155882
H  H118  1  0.92281000  0.11344000  0.31277000  1.0 0.138155882
H  H119  1  0.23558000  0.61344000  0.68723000  1.0 0.138155882
H  H120  1  0.76442000  0.38656000  0.31277000  1.0 0.138155882
H  H121  1  0.39405000  0.33450000  0.82377000  1.0 0.1511230562
H  H122  1  0.60595000  0.66550000  0.17623000  1.0 0.1511230562
H  H123  1  0.78218000  0.16550000  0.82377000  1.0 0.1511230562
H  H124  1  0.21782000  0.83450000  0.17623000  1.0 0.1511230562
H  H125  1  0.77144000  0.33450000  0.67623000  1.0 0.1511230562
H  H126  1  0.22856000  0.66550000  0.32377000  1.0 0.1511230562
H  H127  1  0.55232000  0.16550000  0.67623000  1.0 0.1511230562
H  H128  1  0.44768000  0.83450000  0.32377000  1.0 0.1511230562
H  H129  1  0.33342000  0.44132000  0.82556000  1.0 0.1614437349
H  H130  1  0.66658000  0.55868000  0.17444000  1.0 0.1614437349
H  H131  1  0.84101000  0.05868000  0.82556000  1.0 0.1614437349
H  H132  1  0.15899000  0.94132000  0.17444000  1.0 0.1614437349
H  H133  1  0.72526000  0.44132000  0.67444000  1.0 0.1614437349
H  H134  1  0.27474000  0.55868000  0.32556000  1.0 0.1614437349
H  H135  1  0.60031000  0.05868000  0.67444000  1.0 0.1614437349
H  H136  1  0.39969000  0.94132000  0.32556000  1.0 0.1614437349
H  H137  1  0.32657000  0.38668000  0.89874000  1.0 0.1511230562
H  H138  1  0.67343000  0.61332000  0.10126000  1.0 0.1511230562
H  H139  1  0.77469000  0.11332000  0.89874000  1.0 0.1511230562
H  H140  1  0.22531000  0.88668000  0.10126000  1.0 0.1511230562
H  H141  1  0.78675000  0.38668000  0.60126000  1.0 0.1511230562
H  H142  1  0.21325000  0.61332000  0.39874000  1.0 0.1511230562
H  H143  1  0.61199000  0.11332000  0.60126000  1.0 0.1511230562
H  H144  1  0.38801000  0.88668000  0.39874000  1.0 0.1511230562
C  C1  1  0.49745000  0.76362000  0.90734000  1.0 -0.1317214571
C  C2  1  0.50255000  0.23638000  0.09266000  1.0 -0.1317214571
C  C3  1  0.59521000  0.73638000  0.90734000  1.0 -0.1317214571
C  C4  1  0.40479000  0.26362000  0.09266000  1.0 -0.1317214571
C  C5  1  0.23894000  0.76362000  0.59266000  1.0 -0.1317214571
C  C6  1  0.76106000  0.23638000  0.40734000  1.0 -0.1317214571
C  C7  1  0.16840000  0.73638000  0.59266000  1.0 -0.1317214571
C  C8  1  0.83160000  0.26362000  0.40734000  1.0 -0.1317214571
C  C9  1  0.41916000  0.69571000  0.01127000  1.0 -0.4317086782
C  C10  1  0.58084000  0.30429000  0.98873000  1.0 -0.4317086782
C  C11  1  0.56957000  0.80429000  0.01127000  1.0 -0.4317086782
C  C12  1  0.43043000  0.19571000  0.98873000  1.0 -0.4317086782
C  C13  1  0.38512000  0.69571000  0.48873000  1.0 -0.4317086782
C  C14  1  0.61488000  0.30429000  0.51127000  1.0 -0.4317086782
C  C15  1  0.12615000  0.80429000  0.48873000  1.0 -0.4317086782
C  C16  1  0.87385000  0.19571000  0.51127000  1.0 -0.4317086782
C  C17  1  0.30920000  0.53190000  0.96809000  1.0 0.2294097863
C  C18  1  0.69080000  0.46810000  0.03191000  1.0 0.2294097863
C  C19  1  0.72271000  0.96810000  0.96809000  1.0 0.2294097863
C  C20  1  0.27729000  0.03190000  0.03191000  1.0 0.2294097863
C  C21  1  0.65891000  0.53190000  0.53191000  1.0 0.2294097863
C  C22  1  0.34109000  0.46810000  0.46809000  1.0 0.2294097863
C  C23  1  0.80918000  0.96810000  0.53191000  1.0 0.2294097863
C  C24  1  0.19082000  0.03190000  0.46809000  1.0 0.2294097863
C  C25  1  0.37683000  0.60763000  0.89499000  1.0 0.2372689791
C  C26  1  0.62317000  0.39237000  0.10501000  1.0 0.2372689791
C  C27  1  0.72818000  0.89237000  0.89499000  1.0 0.2372689791
C  C28  1  0.27182000  0.10763000  0.10501000  1.0 0.2372689791
C  C29  1  0.51553000  0.60763000  0.60501000  1.0 0.2372689791
C  C30  1  0.48447000  0.39237000  0.39499000  1.0 0.2372689791
C  C31  1  0.87946000  0.89237000  0.60501000  1.0 0.2372689791
C  C32  1  0.12054000  0.10763000  0.39499000  1.0 0.2372689791
C  C33  1  0.46511000  0.39208000  0.84830000  1.0 0.2569904033
C  C34  1  0.53489000  0.60792000  0.15170000  1.0 0.2569904033
C  C35  1  0.68660000  0.10792000  0.84830000  1.0 0.2569904033
C  C36  1  0.31340000  0.89208000  0.15170000  1.0 0.2569904033
C  C37  1  0.64282000  0.39208000  0.65170000  1.0 0.2569904033
C  C38  1  0.35718000  0.60792000  0.34830000  1.0 0.2569904033
C  C39  1  0.70548000  0.10792000  0.65170000  1.0 0.2569904033
C  C40  1  0.29452000  0.89208000  0.34830000  1.0 0.2569904033
C  C41  1  0.61622000  0.47076000  0.88566000  1.0 -0.4245484616
C  C42  1  0.38378000  0.52924000  0.11434000  1.0 -0.4245484616
C  C43  1  0.49813000  0.02924000  0.88566000  1.0 -0.4245484616
C  C44  1  0.50187000  0.97076000  0.11434000  1.0 -0.4245484616
C  C45  1  0.41303000  0.47076000  0.61434000  1.0 -0.4245484616
C  C46  1  0.58697000  0.52924000  0.38566000  1.0 -0.4245484616
C  C47  1  0.97263000  0.02924000  0.61434000  1.0 -0.4245484616
C  C48  1  0.02737000  0.97076000  0.38566000  1.0 -0.4245484616
C  C49  1  0.29420000  0.46518000  0.00982000  1.0 -0.4245484616
C  C50  1  0.70580000  0.53482000  0.99018000  1.0 -0.4245484616
C  C51  1  0.69597000  0.03482000  0.00982000  1.0 -0.4245484616
C  C52  1  0.30403000  0.96518000  0.99018000  1.0 -0.4245484616
C  C53  1  0.74062000  0.46518000  0.49018000  1.0 -0.4245484616
C  C54  1  0.25938000  0.53482000  0.50982000  1.0 -0.4245484616
C  C55  1  0.76920000  0.03482000  0.49018000  1.0 -0.4245484616
C  C56  1  0.23080000  0.96518000  0.50982000  1.0 -0.4245484616
C  C57  1  0.45935000  0.81197000  0.85855000  1.0 0.2372689791
C  C58  1  0.54065000  0.18803000  0.14145000  1.0 0.2372689791
C  C59  1  0.68210000  0.68803000  0.85855000  1.0 0.2372689791
C  C60  1  0.31790000  0.31197000  0.14145000  1.0 0.2372689791
C  C61  1  0.22868000  0.81197000  0.64145000  1.0 0.2372689791
C  C62  1  0.77132000  0.18803000  0.35855000  1.0 0.2372689791
C  C63  1  0.12987000  0.68803000  0.64145000  1.0 0.2372689791
C  C64  1  0.87013000  0.31197000  0.35855000  1.0 0.2372689791
C  C65  1  0.42969000  0.63901000  0.83571000  1.0 -0.4357002485
C  C66  1  0.57031000  0.36099000  0.16429000  1.0 -0.4357002485
C  C67  1  0.73460000  0.86099000  0.83571000  1.0 -0.4357002485
C  C68  1  0.26540000  0.13901000  0.16429000  1.0 -0.4357002485
C  C69  1  0.43130000  0.63901000  0.66429000  1.0 -0.4357002485
C  C70  1  0.56870000  0.36099000  0.33571000  1.0 -0.4357002485
C  C71  1  0.90441000  0.86099000  0.66429000  1.0 -0.4357002485
C  C72  1  0.09559000  0.13901000  0.33571000  1.0 -0.4357002485
C  C73  1  0.46854000  0.45634000  0.87476000  1.0 -0.1238117633
C  C74  1  0.53146000  0.54366000  0.12524000  1.0 -0.1238117633
C  C75  1  0.65670000  0.04366000  0.87476000  1.0 -0.1238117633
C  C76  1  0.34330000  0.95634000  0.12524000  1.0 -0.1238117633
C  C77  1  0.57512000  0.45634000  0.62524000  1.0 -0.1238117633
C  C78  1  0.42488000  0.54366000  0.37476000  1.0 -0.1238117633
C  C79  1  0.79964000  0.04366000  0.62524000  1.0 -0.1238117633
C  C80  1  0.20036000  0.95634000  0.37476000  1.0 -0.1238117633
C  C81  1  0.50648000  0.84949000  0.80086000  1.0 -0.4245484616
C  C82  1  0.49352000  0.15051000  0.19914000  1.0 -0.4245484616
C  C83  1  0.69266000  0.65051000  0.80086000  1.0 -0.4245484616
C  C84  1  0.30734000  0.34949000  0.19914000  1.0 -0.4245484616
C  C85  1  0.14403000  0.84949000  0.69914000  1.0 -0.4245484616
C  C86  1  0.85597000  0.15051000  0.30086000  1.0 -0.4245484616
C  C87  1  0.15682000  0.65051000  0.69914000  1.0 -0.4245484616
C  C88  1  0.84318000  0.34949000  0.30086000  1.0 -0.4245484616
C  C89  1  0.39004000  0.52617000  0.90931000  1.0 -0.1068868513
C  C90  1  0.60996000  0.47383000  0.09069000  1.0 -0.1068868513
C  C91  1  0.70064000  0.97383000  0.90931000  1.0 -0.1068868513
C  C92  1  0.29936000  0.02617000  0.09069000  1.0 -0.1068868513
C  C93  1  0.58379000  0.52617000  0.59069000  1.0 -0.1068868513
C  C94  1  0.41621000  0.47383000  0.40931000  1.0 -0.1068868513
C  C95  1  0.82552000  0.97383000  0.59069000  1.0 -0.1068868513
C  C96  1  0.17448000  0.02617000  0.40931000  1.0 -0.1068868513
C  C97  1  0.42033000  0.74642000  0.95233000  1.0 0.2139548887
C  C98  1  0.57967000  0.25358000  0.04767000  1.0 0.2139548887
C  C99  1  0.62734000  0.75358000  0.95233000  1.0 0.2139548887
C  C100  1  0.37266000  0.24642000  0.04767000  1.0 0.2139548887
C  C101  1  0.33325000  0.74642000  0.54767000  1.0 0.2139548887
C  C102  1  0.66675000  0.25358000  0.45233000  1.0 0.2139548887
C  C103  1  0.11908000  0.75358000  0.54767000  1.0 0.2139548887
C  C104  1  0.88092000  0.24642000  0.45233000  1.0 0.2139548887
C  C105  1  0.37523000  0.38813000  0.84918000  1.0 -0.4357002485
C  C106  1  0.62477000  0.61187000  0.15082000  1.0 -0.4357002485
C  C107  1  0.77559000  0.11187000  0.84918000  1.0 -0.4357002485
C  C108  1  0.22441000  0.88813000  0.15082000  1.0 -0.4357002485
C  C109  1  0.73663000  0.38813000  0.65082000  1.0 -0.4357002485
C  C110  1  0.26337000  0.61187000  0.34918000  1.0 -0.4357002485
C  C111  1  0.61255000  0.11187000  0.65082000  1.0 -0.4357002485
C  C112  1  0.38745000  0.88813000  0.34918000  1.0 -0.4357002485
C  C113  1  0.57150000  0.43401000  0.85887000  1.0 0.2207113918
C  C114  1  0.42850000  0.56599000  0.14113000  1.0 0.2207113918
C  C115  1  0.56963000  0.06599000  0.85887000  1.0 0.2207113918
C  C116  1  0.43037000  0.93401000  0.14113000  1.0 0.2207113918
C  C117  1  0.49449000  0.43401000  0.64113000  1.0 0.2207113918
C  C118  1  0.50551000  0.56599000  0.35887000  1.0 0.2207113918
C  C119  1  0.86438000  0.06599000  0.64113000  1.0 0.2207113918
C  C120  1  0.13562000  0.93401000  0.35887000  1.0 0.2207113918
S  S1  1  0.03748000  0.75000000  0.92503000  1.0 0.7906481975
S  S2  1  0.96252000  0.25000000  0.07497000  1.0 0.7906481975
S  S3  1  0.71252000  0.75000000  0.57497000  1.0 0.7906481975
S  S4  1  0.28748000  0.25000000  0.42503000  1.0 0.7906481975
N  N1  1  0.29401000  0.65503000  0.93968000  1.0 -0.2592821583
N  N2  1  0.70599000  0.34497000  0.06032000  1.0 -0.2592821583
N  N3  1  0.76631000  0.84497000  0.93968000  1.0 -0.2592821583
N  N4  1  0.23369000  0.15503000  0.06032000  1.0 -0.2592821583
N  N5  1  0.55096000  0.65503000  0.56032000  1.0 -0.2592821583
N  N6  1  0.44904000  0.34497000  0.43968000  1.0 -0.2592821583
N  N7  1  0.88872000  0.84497000  0.56032000  1.0 -0.2592821583
N  N8  1  0.11128000  0.15503000  0.43968000  1.0 -0.2592821583
N  N9  1  0.25557000  0.60783000  0.98725000  1.0 -0.2213870836
N  N10  1  0.74443000  0.39217000  0.01275000  1.0 -0.2213870836
N  N11  1  0.75718000  0.89217000  0.98725000  1.0 -0.2213870836
N  N12  1  0.24282000  0.10783000  0.01275000  1.0 -0.2213870836
N  N13  1  0.63661000  0.60783000  0.51275000  1.0 -0.2213870836
N  N14  1  0.36339000  0.39217000  0.48725000  1.0 -0.2213870836
N  N15  1  0.85065000  0.89217000  0.51275000  1.0 -0.2213870836
N  N16  1  0.14935000  0.10783000  0.48725000  1.0 -0.2213870836
N  N17  1  0.36580000  0.82517000  0.87337000  1.0 -0.2213870836
N  N18  1  0.63420000  0.17483000  0.12663000  1.0 -0.2213870836
N  N19  1  0.76083000  0.67483000  0.87337000  1.0 -0.2213870836
N  N20  1  0.23917000  0.32517000  0.12663000  1.0 -0.2213870836
N  N21  1  0.30904000  0.82517000  0.62663000  1.0 -0.2213870836
N  N22  1  0.69096000  0.17483000  0.37337000  1.0 -0.2213870836
N  N23  1  0.06434000  0.67483000  0.62663000  1.0 -0.2213870836
N  N24  1  0.93566000  0.32517000  0.37337000  1.0 -0.2213870836
N  N25  1  0.55714000  0.34023000  0.81676000  1.0 -0.2592821583
N  N26  1  0.44286000  0.65977000  0.18324000  1.0 -0.2592821583
N  N27  1  0.62610000  0.15977000  0.81676000  1.0 -0.2592821583
N  N28  1  0.37390000  0.84023000  0.18324000  1.0 -0.2592821583
N  N29  1  0.60263000  0.34023000  0.68324000  1.0 -0.2592821583
N  N30  1  0.39737000  0.65977000  0.31676000  1.0 -0.2592821583
N  N31  1  0.71413000  0.15977000  0.68324000  1.0 -0.2592821583
N  N32  1  0.28587000  0.84023000  0.31676000  1.0 -0.2592821583
N  N33  1  0.62349000  0.36457000  0.82726000  1.0 -0.2213870836
N  N34  1  0.37651000  0.63543000  0.17274000  1.0 -0.2213870836
N  N35  1  0.54925000  0.13543000  0.82726000  1.0 -0.2213870836
N  N36  1  0.45075000  0.86457000  0.17274000  1.0 -0.2213870836
N  N37  1  0.51194000  0.36457000  0.67274000  1.0 -0.2213870836
N  N38  1  0.48806000  0.63543000  0.32726000  1.0 -0.2213870836
N  N39  1  0.81532000  0.13543000  0.67274000  1.0 -0.2213870836
N  N40  1  0.18468000  0.86457000  0.32726000  1.0 -0.2213870836
N  N41  1  0.34513000  0.78164000  0.92813000  1.0 -0.1707435172
N  N42  1  0.65487000  0.21836000  0.07187000  1.0 -0.1707435172
N  N43  1  0.72674000  0.71836000  0.92813000  1.0 -0.1707435172
N  N44  1  0.27326000  0.28164000  0.07187000  1.0 -0.1707435172
N  N45  1  0.37323000  0.78164000  0.57187000  1.0 -0.1707435172
N  N46  1  0.62677000  0.21836000  0.42813000  1.0 -0.1707435172
N  N47  1  0.05490000  0.71836000  0.57187000  1.0 -0.1707435172
N  N48  1  0.94510000  0.28164000  0.42813000  1.0 -0.1707435172
O  O1  1  0.07056000  0.76497000  0.98097000  1.0 -0.586300775
O  O2  1  0.92944000  0.23503000  0.01903000  1.0 -0.586300775
O  O3  1  0.94847000  0.73503000  0.98097000  1.0 -0.586300775
O  O4  1  0.05153000  0.26497000  0.01903000  1.0 -0.586300775
O  O5  1  0.66447000  0.76497000  0.51903000  1.0 -0.586300775
O  O6  1  0.33553000  0.23503000  0.48097000  1.0 -0.586300775
O  O7  1  0.81650000  0.73503000  0.51903000  1.0 -0.586300775
O  O8  1  0.18350000  0.26497000  0.48097000  1.0 -0.586300775
O  O9  1  0.97872000  0.69585000  0.20812000  1.0 -0.927016161
O  O10  1  0.02128000  0.30415000  0.79188000  1.0 -0.927016161
O  O11  1  0.81316000  0.80415000  0.20812000  1.0 -0.927016161
O  O12  1  0.18684000  0.19585000  0.79188000  1.0 -0.927016161
O  O13  1  0.82543000  0.69585000  0.29188000  1.0 -0.927016161
O  O14  1  0.17457000  0.30415000  0.70812000  1.0 -0.927016161
O  O15  1  0.88269000  0.80415000  0.29188000  1.0 -0.927016161
O  O16  1  0.11731000  0.19585000  0.70812000  1.0 -0.927016161
O  O17  1  0.07533000  0.66846000  0.08748000  1.0 -0.9465192925
O  O18  1  0.92467000  0.33154000  0.91252000  1.0 -0.9465192925
O  O19  1  0.83719000  0.83154000  0.08748000  1.0 -0.9465192925
O  O20  1  0.16281000  0.16846000  0.91252000  1.0 -0.9465192925
O  O21  1  0.75621000  0.66846000  0.41252000  1.0 -0.9465192925
O  O22  1  0.24379000  0.33154000  0.58748000  1.0 -0.9465192925
O  O23  1  0.83127000  0.83154000  0.41252000  1.0 -0.9465192925
O  O24  1  0.16873000  0.16846000  0.58748000  1.0 -0.9465192925
O  O25  1  0.06517000  0.51960000  0.07229000  1.0 -0.5502801906
O  O26  1  0.93483000  0.48040000  0.92771000  1.0 -0.5502801906
O  O27  1  0.86254000  0.98040000  0.07229000  1.0 -0.5502801906
O  O28  1  0.13746000  0.01960000  0.92771000  1.0 -0.5502801906
O  O29  1  0.91523000  0.51960000  0.42771000  1.0 -0.5502801906
O  O30  1  0.08477000  0.48040000  0.57229000  1.0 -0.5502801906
O  O31  1  0.65706000  0.98040000  0.42771000  1.0 -0.5502801906
O  O32  1  0.34294000  0.01960000  0.57229000  1.0 -0.5502801906
O  O33  1  0.11085000  0.54323000  0.17557000  1.0 -0.8219950643
O  O34  1  0.88915000  0.45677000  0.82443000  1.0 -0.8219950643
O  O35  1  0.71358000  0.95677000  0.17557000  1.0 -0.8219950643
O  O36  1  0.28642000  0.04323000  0.82443000  1.0 -0.8219950643
O  O37  1  0.84592000  0.54323000  0.32443000  1.0 -0.8219950643
O  O38  1  0.15408000  0.45677000  0.67557000  1.0 -0.8219950643
O  O39  1  0.82965000  0.95677000  0.32443000  1.0 -0.8219950643
O  O40  1  0.17035000  0.04323000  0.67557000  1.0 -0.8219950643
O  O41  1  0.05452000  0.82591000  0.19399000  1.0 -0.95656345
O  O42  1  0.94548000  0.17409000  0.80601000  1.0 -0.95656345
O  O43  1  0.75149000  0.67409000  0.19399000  1.0 -0.95656345
O  O44  1  0.24851000  0.32591000  0.80601000  1.0 -0.95656345
O  O45  1  0.61957000  0.82591000  0.30601000  1.0 -0.95656345
O  O46  1  0.38043000  0.17409000  0.69399000  1.0 -0.95656345
O  O47  1  0.07442000  0.67409000  0.30601000  1.0 -0.95656345
O  O48  1  0.92558000  0.32591000  0.69399000  1.0 -0.95656345
O  O49  1  0.15968000  0.66145000  0.18889000  1.0 -0.937243126
O  O50  1  0.84032000  0.33855000  0.81111000  1.0 -0.937243126
O  O51  1  0.65143000  0.83855000  0.18889000  1.0 -0.937243126
O  O52  1  0.34857000  0.16145000  0.81111000  1.0 -0.937243126
O  O53  1  0.67887000  0.66145000  0.31111000  1.0 -0.937243126
O  O54  1  0.32113000  0.33855000  0.68889000  1.0 -0.937243126
O  O55  1  0.01002000  0.83855000  0.31111000  1.0 -0.937243126
O  O56  1  0.98998000  0.16145000  0.68889000  1.0 -0.937243126
O  O57  1  0.92525000  0.56013000  0.19351000  1.0 -0.8001478683
O  O58  1  0.07475000  0.43987000  0.80649000  1.0 -0.8001478683
O  O59  1  0.88124000  0.93987000  0.19351000  1.0 -0.8001478683
O  O60  1  0.11876000  0.06013000  0.80649000  1.0 -0.8001478683
O  O61  1  0.01462000  0.56013000  0.30649000  1.0 -0.8001478683
O  O62  1  0.98538000  0.43987000  0.69351000  1.0 -0.8001478683
O  O63  1  0.67889000  0.93987000  0.30649000  1.0 -0.8001478683
O  O64  1  0.32111000  0.06013000  0.69351000  1.0 -0.8001478683
O  O65  1  0.22958000  0.79105000  0.86772000  1.0 -0.0740647134
O  O66  1  0.77042000  0.20895000  0.13228000  1.0 -0.0740647134
O  O67  1  0.90270000  0.70895000  0.86772000  1.0 -0.0740647134
O  O68  1  0.09730000  0.29105000  0.13228000  1.0 -0.076891258
O  O69  1  0.47936000  0.79105000  0.63228000  1.0 -0.0740647134
O  O70  1  0.52064000  0.20895000  0.36772000  1.0 -0.076891258
O  O71  1  0.88836000  0.70895000  0.63228000  1.0 -0.0740647134
O  O72  1  0.11164000  0.29105000  0.36772000  1.0 -0.076891258
O  O73  1  0.16102000  0.85214000  0.99215000  1.0 -0.5206632014
O  O74  1  0.83898000  0.14786000  0.00785000  1.0 -0.5206632014
O  O75  1  0.84683000  0.64786000  0.99215000  1.0 -0.5206632014
O  O76  1  0.15317000  0.35214000  0.00785000  1.0 -0.5206632014
O  O77  1  0.48684000  0.85214000  0.50785000  1.0 -0.5206632014
O  O78  1  0.51316000  0.14786000  0.49215000  1.0 -0.5206632014
O  O79  1  0.00531000  0.64786000  0.50785000  1.0 -0.5206632014
O  O80  1  0.99469000  0.35214000  0.49215000  1.0 -0.5206632014
O  O81  1  0.16060000  0.78386000  0.85387000  1.0 -0.1821583766
O  O82  1  0.83940000  0.21614000  0.14613000  1.0 -0.1821583766
O  O83  1  0.98553000  0.71614000  0.85387000  1.0 -0.1821583766
O  O84  1  0.01447000  0.28386000  0.14613000  1.0 -0.1821583766
O  O85  1  0.55554000  0.78386000  0.64613000  1.0 -0.1821583766
O  O86  1  0.44446000  0.21614000  0.35387000  1.0 -0.1821583766
O  O87  1  0.79833000  0.71614000  0.64613000  1.0 -0.1821583766
O  O88  1  0.20167000  0.28386000  0.35387000  1.0 -0.1821583766
O  O89  1  0.98257000  0.81965000  0.10426000  1.0 -0.9465192925
O  O90  1  0.01743000  0.18035000  0.89574000  1.0 -0.9465192925
O  O91  1  0.91317000  0.68035000  0.10426000  1.0 -0.9465192925
O  O92  1  0.08683000  0.31965000  0.89574000  1.0 -0.9465192925
O  O93  1  0.69778000  0.81965000  0.39574000  1.0 -0.9465192925
O  O94  1  0.30222000  0.18035000  0.60426000  1.0 -0.9465192925
O  O95  1  0.90648000  0.68035000  0.39574000  1.0 -0.9465192925
O  O96  1  0.09352000  0.31965000  0.60426000  1.0 -0.9465192925
O  O97  1  0.19611000  0.74905000  0.07892000  1.0 -0.5502801906
O  O98  1  0.80389000  0.25095000  0.92108000  1.0 -0.5502801906
O  O99  1  0.72497000  0.75095000  0.07892000  1.0 -0.5502801906
O  O100  1  0.27503000  0.24905000  0.92108000  1.0 -0.5502801906
O  O101  1  0.55483000  0.74905000  0.42108000  1.0 -0.5502801906
O  O102  1  0.44517000  0.25095000  0.57892000  1.0 -0.5502801906
O  O103  1  0.02409000  0.75095000  0.42108000  1.0 -0.5502801906
O  O104  1  0.97591000  0.24905000  0.57892000  1.0 -0.5502801906
O  O105  1  0.21881000  0.51369000  0.25969000  1.0 -0.5976112183
O  O106  1  0.78119000  0.48631000  0.74031000  1.0 -0.5976112183
O  O107  1  0.52150000  0.98631000  0.25969000  1.0 -0.5976112183
O  O108  1  0.47850000  0.01369000  0.74031000  1.0 -0.5976112183
O  O109  1  0.76750000  0.51369000  0.24031000  1.0 -0.5976112183
O  O110  1  0.23250000  0.48631000  0.75969000  1.0 -0.5976112183
O  O111  1  0.99219000  0.98631000  0.24031000  1.0 -0.5976112183
O  O112  1  0.00781000  0.01369000  0.75969000  1.0 -0.5976112183
O  O113  1  0.21582000  0.75000000  0.25000000  1.0 -0.6132479754
O  O114  1  0.78418000  0.25000000  0.75000000  1.0 -0.6132479754
O  O115  1  0.53418000  0.75000000  0.25000000  1.0 -0.6132479754
O  O116  1  0.46582000  0.25000000  0.75000000  1.0 -0.6132479754
