# DDEC6 charges by PACMAN v1.1 (https://github.com/mtap-research/PACMAN-charge/)
data_UQEGII_ASR_pacman
_symmetry_space_group_name_H-M   'P 1'
_cell_length_a   13.61200000
_cell_length_b   13.61200000
_cell_length_c   29.95600000
_cell_angle_alpha   90.00000000
_cell_angle_beta   90.00000000
_cell_angle_gamma   90.00000000
_symmetry_Int_Tables_number   1
_chemical_formula_structural   V6Ni2Mo12PH48C40(N8O17)2
_chemical_formula_sum   'V12 Ni4 Mo24 P2 H96 C80 N32 O68'
_cell_volume   5550.44371206
_cell_formula_units_Z   2
loop_
 _symmetry_equiv_pos_site_id
 _symmetry_equiv_pos_as_xyz
  1  'x, y, z'
loop_
 _atom_site_type_symbol
 _atom_site_label
 _atom_site_symmetry_multiplicity
 _atom_site_fract_x
 _atom_site_fract_y
 _atom_site_fract_z
 _atom_site_occupancy
 _atom_site_charge
V  V1  1  0.00000000  0.00000000  0.37039000  1.0 1.689845216
V  V2  1  0.50000000  0.50000000  0.12961000  1.0 1.689845216
V  V3  1  0.00000000  0.00000000  0.62961000  1.0 1.689845216
V  V4  1  0.50000000  0.50000000  0.87039000  1.0 1.689845216
V  V5  1  0.24720000  0.16210000  0.50000000  1.0 -0.0718571738
V  V6  1  0.75280000  0.83790000  0.50000000  1.0 -0.0718571738
V  V7  1  0.74720000  0.33790000  0.00000000  1.0 -0.0787311521
V  V8  1  0.25280000  0.66210000  0.00000000  1.0 -0.0787311521
V  V9  1  0.33790000  0.25280000  0.00000000  1.0 -0.0787311521
V  V10  1  0.66210000  0.74720000  0.00000000  1.0 -0.0787311521
V  V11  1  0.16210000  0.75280000  0.50000000  1.0 -0.0718571738
V  V12  1  0.83790000  0.24720000  0.50000000  1.0 -0.0718571738
Ni  Ni1  1  0.00000000  0.00000000  0.24727000  1.0 0.6604135401
Ni  Ni2  1  0.50000000  0.50000000  0.25273000  1.0 0.6604135401
Ni  Ni3  1  0.00000000  0.00000000  0.75273000  1.0 0.6604135401
Ni  Ni4  1  0.50000000  0.50000000  0.74727000  1.0 0.6604135401
Mo  Mo1  1  0.16274000  0.10898000  0.41934000  1.0 1.7025911726
Mo  Mo2  1  0.83726000  0.89102000  0.41934000  1.0 1.7084928073
Mo  Mo3  1  0.66274000  0.39102000  0.08066000  1.0 1.689845216
Mo  Mo4  1  0.33726000  0.60898000  0.08066000  1.0 1.689845216
Mo  Mo5  1  0.39102000  0.33726000  0.08066000  1.0 1.689845216
Mo  Mo6  1  0.60898000  0.66274000  0.08066000  1.0 1.689845216
Mo  Mo7  1  0.10898000  0.83726000  0.41934000  1.0 1.7025911726
Mo  Mo8  1  0.89102000  0.16274000  0.41934000  1.0 1.7084928073
Mo  Mo9  1  0.83726000  0.89102000  0.58066000  1.0 1.689845216
Mo  Mo10  1  0.16274000  0.10898000  0.58066000  1.0 1.6841142691
Mo  Mo11  1  0.33726000  0.60898000  0.91934000  1.0 1.6841142691
Mo  Mo12  1  0.66274000  0.39102000  0.91934000  1.0 1.689845216
Mo  Mo13  1  0.60898000  0.66274000  0.91934000  1.0 1.689845216
Mo  Mo14  1  0.39102000  0.33726000  0.91934000  1.0 1.6841142691
Mo  Mo15  1  0.89102000  0.16274000  0.58066000  1.0 1.689845216
Mo  Mo16  1  0.10898000  0.83726000  0.58066000  1.0 1.6841142691
Mo  Mo17  1  0.26028000  0.94800000  0.50000000  1.0 1.6377966321
Mo  Mo18  1  0.73972000  0.05200000  0.50000000  1.0 1.6377966321
Mo  Mo19  1  0.76028000  0.55200000  0.00000000  1.0 1.6475325144
Mo  Mo20  1  0.23972000  0.44800000  0.00000000  1.0 1.6475325144
Mo  Mo21  1  0.55200000  0.23972000  0.00000000  1.0 1.6475325144
Mo  Mo22  1  0.44800000  0.76028000  0.00000000  1.0 1.6475325144
Mo  Mo23  1  0.94800000  0.73972000  0.50000000  1.0 1.6377966321
Mo  Mo24  1  0.05200000  0.26028000  0.50000000  1.0 1.6377966321
P  P1  1  0.00000000  0.00000000  0.50000000  1.0 0.9279031075
P  P2  1  0.50000000  0.50000000  0.00000000  1.0 0.9279031075
H  H1  1  0.99990000  0.33650000  0.34320000  1.0 0.1404808019
H  H2  1  0.00010000  0.66350000  0.34320000  1.0 0.1404808019
H  H3  1  0.49990000  0.16350000  0.15680000  1.0 0.1404808019
H  H4  1  0.50010000  0.83650000  0.15680000  1.0 0.1404808019
H  H5  1  0.16350000  0.50010000  0.15680000  1.0 0.1404808019
H  H6  1  0.83650000  0.49990000  0.15680000  1.0 0.1404808019
H  H7  1  0.33650000  0.00010000  0.34320000  1.0 0.1404808019
H  H8  1  0.66350000  0.99990000  0.34320000  1.0 0.1404808019
H  H9  1  0.00010000  0.66350000  0.65680000  1.0 0.1404808019
H  H10  1  0.99990000  0.33650000  0.65680000  1.0 0.1404808019
H  H11  1  0.50010000  0.83650000  0.84320000  1.0 0.1404808019
H  H12  1  0.49990000  0.16350000  0.84320000  1.0 0.1404808019
H  H13  1  0.83650000  0.49990000  0.84320000  1.0 0.1404808019
H  H14  1  0.16350000  0.50010000  0.84320000  1.0 0.1404808019
H  H15  1  0.66350000  0.99990000  0.65680000  1.0 0.1404808019
H  H16  1  0.33650000  0.00010000  0.65680000  1.0 0.1404808019
H  H17  1  0.03650000  0.42150000  0.31210000  1.0 0.1332214504
H  H18  1  0.96350000  0.57850000  0.31210000  1.0 0.1332214504
H  H19  1  0.53650000  0.07850000  0.18790000  1.0 0.1332214504
H  H20  1  0.46350000  0.92150000  0.18790000  1.0 0.1332214504
H  H21  1  0.07850000  0.46350000  0.18790000  1.0 0.1332214504
H  H22  1  0.92150000  0.53650000  0.18790000  1.0 0.1332214504
H  H23  1  0.42150000  0.96350000  0.31210000  1.0 0.1332214504
H  H24  1  0.57850000  0.03650000  0.31210000  1.0 0.1332214504
H  H25  1  0.96350000  0.57850000  0.68790000  1.0 0.1332214504
H  H26  1  0.03650000  0.42150000  0.68790000  1.0 0.1332214504
H  H27  1  0.46350000  0.92150000  0.81210000  1.0 0.1332214504
H  H28  1  0.53650000  0.07850000  0.81210000  1.0 0.1332214504
H  H29  1  0.92150000  0.53650000  0.81210000  1.0 0.1332214504
H  H30  1  0.07850000  0.46350000  0.81210000  1.0 0.1332214504
H  H31  1  0.57850000  0.03650000  0.68790000  1.0 0.1332214504
H  H32  1  0.42150000  0.96350000  0.68790000  1.0 0.1332214504
H  H33  1  0.11130000  0.36600000  0.34280000  1.0 0.1404808019
H  H34  1  0.88870000  0.63400000  0.34280000  1.0 0.1404808019
H  H35  1  0.61130000  0.13400000  0.15720000  1.0 0.1404808019
H  H36  1  0.38870000  0.86600000  0.15720000  1.0 0.1404808019
H  H37  1  0.13400000  0.38870000  0.15720000  1.0 0.1404808019
H  H38  1  0.86600000  0.61130000  0.15720000  1.0 0.1404808019
H  H39  1  0.36600000  0.88870000  0.34280000  1.0 0.1404808019
H  H40  1  0.63400000  0.11130000  0.34280000  1.0 0.1404808019
H  H41  1  0.88870000  0.63400000  0.65720000  1.0 0.1404808019
H  H42  1  0.11130000  0.36600000  0.65720000  1.0 0.1404808019
H  H43  1  0.38870000  0.86600000  0.84280000  1.0 0.1404808019
H  H44  1  0.61130000  0.13400000  0.84280000  1.0 0.1404808019
H  H45  1  0.86600000  0.61130000  0.84280000  1.0 0.1404808019
H  H46  1  0.13400000  0.38870000  0.84280000  1.0 0.1404808019
H  H47  1  0.63400000  0.11130000  0.65720000  1.0 0.1404808019
H  H48  1  0.36600000  0.88870000  0.65720000  1.0 0.1404808019
H  H49  1  0.16550000  0.08800000  0.18910000  1.0 0.1404808019
H  H50  1  0.83450000  0.91200000  0.18910000  1.0 0.1404808019
H  H51  1  0.66550000  0.41200000  0.31090000  1.0 0.1404808019
H  H52  1  0.33450000  0.58800000  0.31090000  1.0 0.1404808019
H  H53  1  0.41200000  0.33450000  0.31090000  1.0 0.1404808019
H  H54  1  0.58800000  0.66550000  0.31090000  1.0 0.1404808019
H  H55  1  0.08800000  0.83450000  0.18910000  1.0 0.1404808019
H  H56  1  0.91200000  0.16550000  0.18910000  1.0 0.1404808019
H  H57  1  0.83450000  0.91200000  0.81090000  1.0 0.1404808019
H  H58  1  0.16550000  0.08800000  0.81090000  1.0 0.1404808019
H  H59  1  0.33450000  0.58800000  0.68910000  1.0 0.1404808019
H  H60  1  0.66550000  0.41200000  0.68910000  1.0 0.1404808019
H  H61  1  0.58800000  0.66550000  0.68910000  1.0 0.1404808019
H  H62  1  0.41200000  0.33450000  0.68910000  1.0 0.1404808019
H  H63  1  0.91200000  0.16550000  0.81090000  1.0 0.1404808019
H  H64  1  0.08800000  0.83450000  0.81090000  1.0 0.1404808019
H  H65  1  0.25770000  0.14680000  0.20540000  1.0 0.1508699378
H  H66  1  0.74230000  0.85320000  0.20540000  1.0 0.1508699378
H  H67  1  0.75770000  0.35320000  0.29460000  1.0 0.1508699378
H  H68  1  0.24230000  0.64680000  0.29460000  1.0 0.1508699378
H  H69  1  0.35320000  0.24230000  0.29460000  1.0 0.1508699378
H  H70  1  0.64680000  0.75770000  0.29460000  1.0 0.1508699378
H  H71  1  0.14680000  0.74230000  0.20540000  1.0 0.1508699378
H  H72  1  0.85320000  0.25770000  0.20540000  1.0 0.1508699378
H  H73  1  0.74230000  0.85320000  0.79460000  1.0 0.1508699378
H  H74  1  0.25770000  0.14680000  0.79460000  1.0 0.1508699378
H  H75  1  0.24230000  0.64680000  0.70540000  1.0 0.1508699378
H  H76  1  0.75770000  0.35320000  0.70540000  1.0 0.1508699378
H  H77  1  0.64680000  0.75770000  0.70540000  1.0 0.1508699378
H  H78  1  0.35320000  0.24230000  0.70540000  1.0 0.1508699378
H  H79  1  0.85320000  0.25770000  0.79460000  1.0 0.1508699378
H  H80  1  0.14680000  0.74230000  0.79460000  1.0 0.1508699378
H  H81  1  0.18520000  0.19420000  0.17090000  1.0 0.1508699378
H  H82  1  0.81480000  0.80580000  0.17090000  1.0 0.1508699378
H  H83  1  0.68520000  0.30580000  0.32910000  1.0 0.1508699378
H  H84  1  0.31480000  0.69420000  0.32910000  1.0 0.1508699378
H  H85  1  0.30580000  0.31480000  0.32910000  1.0 0.1508699378
H  H86  1  0.69420000  0.68520000  0.32910000  1.0 0.1508699378
H  H87  1  0.19420000  0.81480000  0.17090000  1.0 0.1508699378
H  H88  1  0.80580000  0.18520000  0.17090000  1.0 0.1508699378
H  H89  1  0.81480000  0.80580000  0.82910000  1.0 0.1508699378
H  H90  1  0.18520000  0.19420000  0.82910000  1.0 0.1508699378
H  H91  1  0.31480000  0.69420000  0.67090000  1.0 0.1508699378
H  H92  1  0.68520000  0.30580000  0.67090000  1.0 0.1508699378
H  H93  1  0.69420000  0.68520000  0.67090000  1.0 0.1508699378
H  H94  1  0.30580000  0.31480000  0.67090000  1.0 0.1508699378
H  H95  1  0.80580000  0.18520000  0.82910000  1.0 0.1508699378
H  H96  1  0.19420000  0.81480000  0.82910000  1.0 0.1508699378
C  C1  1  0.13100000  0.19420000  0.23420000  1.0 0.1850078024
C  C2  1  0.86900000  0.80580000  0.23420000  1.0 0.1841726966
C  C3  1  0.63100000  0.30580000  0.26580000  1.0 0.1841726966
C  C4  1  0.36900000  0.69420000  0.26580000  1.0 0.1841726966
C  C5  1  0.30580000  0.36900000  0.26580000  1.0 0.1841726966
C  C6  1  0.69420000  0.63100000  0.26580000  1.0 0.1841726966
C  C7  1  0.19420000  0.86900000  0.23420000  1.0 0.1850078024
C  C8  1  0.80580000  0.13100000  0.23420000  1.0 0.1850078024
C  C9  1  0.86900000  0.80580000  0.76580000  1.0 0.1841726966
C  C10  1  0.13100000  0.19420000  0.76580000  1.0 0.1850078024
C  C11  1  0.36900000  0.69420000  0.73420000  1.0 0.1850078024
C  C12  1  0.63100000  0.30580000  0.73420000  1.0 0.1850078024
C  C13  1  0.69420000  0.63100000  0.73420000  1.0 0.1850078024
C  C14  1  0.30580000  0.36900000  0.73420000  1.0 0.1850078024
C  C15  1  0.80580000  0.13100000  0.76580000  1.0 0.1850078024
C  C16  1  0.19420000  0.86900000  0.76580000  1.0 0.1850078024
C  C17  1  0.14180000  0.28370000  0.25540000  1.0 -0.1321801606
C  C18  1  0.85820000  0.71630000  0.25540000  1.0 -0.1321801606
C  C19  1  0.64180000  0.21630000  0.24460000  1.0 -0.1321801606
C  C20  1  0.35820000  0.78370000  0.24460000  1.0 -0.1321801606
C  C21  1  0.21630000  0.35820000  0.24460000  1.0 -0.1321801606
C  C22  1  0.78370000  0.64180000  0.24460000  1.0 -0.1321801606
C  C23  1  0.28370000  0.85820000  0.25540000  1.0 -0.1321801606
C  C24  1  0.71630000  0.14180000  0.25540000  1.0 -0.1321801606
C  C25  1  0.85820000  0.71630000  0.74460000  1.0 -0.1321801606
C  C26  1  0.14180000  0.28370000  0.74460000  1.0 -0.1321801606
C  C27  1  0.35820000  0.78370000  0.75540000  1.0 -0.1321801606
C  C28  1  0.64180000  0.21630000  0.75540000  1.0 -0.1321801606
C  C29  1  0.78370000  0.64180000  0.75540000  1.0 -0.1321801606
C  C30  1  0.21630000  0.35820000  0.75540000  1.0 -0.1321801606
C  C31  1  0.71630000  0.14180000  0.74460000  1.0 -0.1321801606
C  C32  1  0.28370000  0.85820000  0.74460000  1.0 -0.1321801606
C  C33  1  0.07210000  0.28590000  0.28820000  1.0 0.1625024165
C  C34  1  0.92790000  0.71410000  0.28820000  1.0 0.1625024165
C  C35  1  0.57210000  0.21410000  0.21180000  1.0 0.1625024165
C  C36  1  0.42790000  0.78590000  0.21180000  1.0 0.1625024165
C  C37  1  0.21410000  0.42790000  0.21180000  1.0 0.1625024165
C  C38  1  0.78590000  0.57210000  0.21180000  1.0 0.1625024165
C  C39  1  0.28590000  0.92790000  0.28820000  1.0 0.1625024165
C  C40  1  0.71410000  0.07210000  0.28820000  1.0 0.1625024165
C  C41  1  0.92790000  0.71410000  0.71180000  1.0 0.1625024165
C  C42  1  0.07210000  0.28590000  0.71180000  1.0 0.1625024165
C  C43  1  0.42790000  0.78590000  0.78820000  1.0 0.1625024165
C  C44  1  0.57210000  0.21410000  0.78820000  1.0 0.1625024165
C  C45  1  0.78590000  0.57210000  0.78820000  1.0 0.1625024165
C  C46  1  0.21410000  0.42790000  0.78820000  1.0 0.1625024165
C  C47  1  0.71410000  0.07210000  0.71180000  1.0 0.1625024165
C  C48  1  0.28590000  0.92790000  0.71180000  1.0 0.1625024165
C  C49  1  0.05320000  0.35910000  0.32490000  1.0 -0.4605865393
C  C50  1  0.94680000  0.64090000  0.32490000  1.0 -0.4605865393
C  C51  1  0.55320000  0.14090000  0.17510000  1.0 -0.4605865393
C  C52  1  0.44680000  0.85910000  0.17510000  1.0 -0.4605865393
C  C53  1  0.14090000  0.44680000  0.17510000  1.0 -0.4605865393
C  C54  1  0.85910000  0.55320000  0.17510000  1.0 -0.4605865393
C  C55  1  0.35910000  0.94680000  0.32490000  1.0 -0.4605865393
C  C56  1  0.64090000  0.05320000  0.32490000  1.0 -0.4605865393
C  C57  1  0.94680000  0.64090000  0.67510000  1.0 -0.4605865393
C  C58  1  0.05320000  0.35910000  0.67510000  1.0 -0.4605865393
C  C59  1  0.44680000  0.85910000  0.82490000  1.0 -0.4605865393
C  C60  1  0.55320000  0.14090000  0.82490000  1.0 -0.4605865393
C  C61  1  0.85910000  0.55320000  0.82490000  1.0 -0.4605865393
C  C62  1  0.14090000  0.44680000  0.82490000  1.0 -0.4605865393
C  C63  1  0.64090000  0.05320000  0.67510000  1.0 -0.4605865393
C  C64  1  0.35910000  0.94680000  0.67510000  1.0 -0.4605865393
C  C65  1  0.19020000  0.15200000  0.19650000  1.0 -0.4678640131
C  C66  1  0.80980000  0.84800000  0.19650000  1.0 -0.4678640131
C  C67  1  0.69020000  0.34800000  0.30350000  1.0 -0.4678640131
C  C68  1  0.30980000  0.65200000  0.30350000  1.0 -0.4678640131
C  C69  1  0.34800000  0.30980000  0.30350000  1.0 -0.4678640131
C  C70  1  0.65200000  0.69020000  0.30350000  1.0 -0.4678640131
C  C71  1  0.15200000  0.80980000  0.19650000  1.0 -0.4678640131
C  C72  1  0.84800000  0.19020000  0.19650000  1.0 -0.4678640131
C  C73  1  0.80980000  0.84800000  0.80350000  1.0 -0.4678640131
C  C74  1  0.19020000  0.15200000  0.80350000  1.0 -0.4678640131
C  C75  1  0.30980000  0.65200000  0.69650000  1.0 -0.4678640131
C  C76  1  0.69020000  0.34800000  0.69650000  1.0 -0.4678640131
C  C77  1  0.65200000  0.69020000  0.69650000  1.0 -0.4678640131
C  C78  1  0.34800000  0.30980000  0.69650000  1.0 -0.4678640131
C  C79  1  0.84800000  0.19020000  0.80350000  1.0 -0.4678640131
C  C80  1  0.15200000  0.80980000  0.80350000  1.0 -0.4678640131
N  N1  1  0.05670000  0.14170000  0.25320000  1.0 -0.2019929698
N  N2  1  0.94330000  0.85830000  0.25320000  1.0 -0.2019929698
N  N3  1  0.55670000  0.35830000  0.24680000  1.0 -0.2019929698
N  N4  1  0.44330000  0.64170000  0.24680000  1.0 -0.2019929698
N  N5  1  0.35830000  0.44330000  0.24680000  1.0 -0.2019929698
N  N6  1  0.64170000  0.55670000  0.24680000  1.0 -0.2019929698
N  N7  1  0.14170000  0.94330000  0.25320000  1.0 -0.2019929698
N  N8  1  0.85830000  0.05670000  0.25320000  1.0 -0.2019929698
N  N9  1  0.94330000  0.85830000  0.74680000  1.0 -0.2019929698
N  N10  1  0.05670000  0.14170000  0.74680000  1.0 -0.2019929698
N  N11  1  0.44330000  0.64170000  0.75320000  1.0 -0.2019929698
N  N12  1  0.55670000  0.35830000  0.75320000  1.0 -0.2019929698
N  N13  1  0.64170000  0.55670000  0.75320000  1.0 -0.2019929698
N  N14  1  0.35830000  0.44330000  0.75320000  1.0 -0.2019929698
N  N15  1  0.85830000  0.05670000  0.74680000  1.0 -0.2019929698
N  N16  1  0.14170000  0.94330000  0.74680000  1.0 -0.2019929698
N  N17  1  0.02170000  0.19990000  0.28630000  1.0 -0.2070651174
N  N18  1  0.97830000  0.80010000  0.28630000  1.0 -0.2070651174
N  N19  1  0.52170000  0.30010000  0.21370000  1.0 -0.2070651174
N  N20  1  0.47830000  0.69990000  0.21370000  1.0 -0.2070651174
N  N21  1  0.30010000  0.47830000  0.21370000  1.0 -0.2070651174
N  N22  1  0.69990000  0.52170000  0.21370000  1.0 -0.2070651174
N  N23  1  0.19990000  0.97830000  0.28630000  1.0 -0.2070651174
N  N24  1  0.80010000  0.02170000  0.28630000  1.0 -0.2070651174
N  N25  1  0.97830000  0.80010000  0.71370000  1.0 -0.2070651174
N  N26  1  0.02170000  0.19990000  0.71370000  1.0 -0.2070651174
N  N27  1  0.47830000  0.69990000  0.78630000  1.0 -0.2070651174
N  N28  1  0.52170000  0.30010000  0.78630000  1.0 -0.2070651174
N  N29  1  0.69990000  0.52170000  0.78630000  1.0 -0.2070651174
N  N30  1  0.30010000  0.47830000  0.78630000  1.0 -0.2070651174
N  N31  1  0.80010000  0.02170000  0.71370000  1.0 -0.2070651174
N  N32  1  0.19990000  0.97830000  0.71370000  1.0 -0.2070651174
O  O1  1  0.08960000  0.98660000  0.47000000  1.0 -0.3584744901
O  O2  1  0.91040000  0.01340000  0.47000000  1.0 -0.3584744901
O  O3  1  0.58960000  0.51340000  0.03000000  1.0 -0.3584744901
O  O4  1  0.41040000  0.48660000  0.03000000  1.0 -0.3584744901
O  O5  1  0.51340000  0.41040000  0.03000000  1.0 -0.3584744901
O  O6  1  0.48660000  0.58960000  0.03000000  1.0 -0.3584744901
O  O7  1  0.98660000  0.91040000  0.47000000  1.0 -0.3584744901
O  O8  1  0.01340000  0.08960000  0.47000000  1.0 -0.3584744901
O  O9  1  0.91040000  0.01340000  0.53000000  1.0 -0.3584744901
O  O10  1  0.08960000  0.98660000  0.53000000  1.0 -0.3584744901
O  O11  1  0.41040000  0.48660000  0.97000000  1.0 -0.3584744901
O  O12  1  0.58960000  0.51340000  0.97000000  1.0 -0.3584744901
O  O13  1  0.48660000  0.58960000  0.97000000  1.0 -0.3584744901
O  O14  1  0.51340000  0.41040000  0.97000000  1.0 -0.3584744901
O  O15  1  0.01340000  0.08960000  0.53000000  1.0 -0.3584744901
O  O16  1  0.98660000  0.91040000  0.53000000  1.0 -0.3584744901
O  O17  1  0.00000000  0.00000000  0.31600000  1.0 -0.6370422326
O  O18  1  0.50000000  0.50000000  0.18400000  1.0 -0.6344853325
O  O19  1  0.00000000  0.00000000  0.68400000  1.0 -0.6344853325
O  O20  1  0.50000000  0.50000000  0.81600000  1.0 -0.6344853325
O  O21  1  0.25140000  0.04890000  0.45550000  1.0 -0.7361617766
O  O22  1  0.74860000  0.95110000  0.45550000  1.0 -0.7361617766
O  O23  1  0.75140000  0.45110000  0.04450000  1.0 -0.7345971905
O  O24  1  0.24860000  0.54890000  0.04450000  1.0 -0.7345971905
O  O25  1  0.45110000  0.24860000  0.04450000  1.0 -0.7345971905
O  O26  1  0.54890000  0.75140000  0.04450000  1.0 -0.7345971905
O  O27  1  0.04890000  0.74860000  0.45550000  1.0 -0.7361617766
O  O28  1  0.95110000  0.25140000  0.45550000  1.0 -0.7361617766
O  O29  1  0.74860000  0.95110000  0.54450000  1.0 -0.7361617766
O  O30  1  0.25140000  0.04890000  0.54450000  1.0 -0.7345971905
O  O31  1  0.24860000  0.54890000  0.95550000  1.0 -0.7345971905
O  O32  1  0.75140000  0.45110000  0.95550000  1.0 -0.7345971905
O  O33  1  0.54890000  0.75140000  0.95550000  1.0 -0.7345971905
O  O34  1  0.45110000  0.24860000  0.95550000  1.0 -0.7345971905
O  O35  1  0.95110000  0.25140000  0.54450000  1.0 -0.7345971905
O  O36  1  0.04890000  0.74860000  0.54450000  1.0 -0.7361617766
O  O37  1  0.14120000  0.21170000  0.45560000  1.0 -0.7226576962
O  O38  1  0.85880000  0.78830000  0.45560000  1.0 -0.7226576962
O  O39  1  0.64120000  0.28830000  0.04440000  1.0 -0.7226576962
O  O40  1  0.35880000  0.71170000  0.04440000  1.0 -0.7226576962
O  O41  1  0.28830000  0.35880000  0.04440000  1.0 -0.7226576962
O  O42  1  0.71170000  0.64120000  0.04440000  1.0 -0.7226576962
O  O43  1  0.21170000  0.85880000  0.45560000  1.0 -0.7226576962
O  O44  1  0.78830000  0.14120000  0.45560000  1.0 -0.7226576962
O  O45  1  0.85880000  0.78830000  0.54440000  1.0 -0.7226576962
O  O46  1  0.14120000  0.21170000  0.54440000  1.0 -0.7226576962
O  O47  1  0.35880000  0.71170000  0.95560000  1.0 -0.7226576962
O  O48  1  0.64120000  0.28830000  0.95560000  1.0 -0.7226576962
O  O49  1  0.71170000  0.64120000  0.95560000  1.0 -0.7226576962
O  O50  1  0.28830000  0.35880000  0.95560000  1.0 -0.7226576962
O  O51  1  0.78830000  0.14120000  0.54440000  1.0 -0.7226576962
O  O52  1  0.21170000  0.85880000  0.54440000  1.0 -0.7226576962
O  O53  1  0.02460000  0.12860000  0.39400000  1.0 -0.9383892052
O  O54  1  0.97540000  0.87140000  0.39400000  1.0 -0.9383892052
O  O55  1  0.52460000  0.37140000  0.10600000  1.0 -0.9383892052
O  O56  1  0.47540000  0.62860000  0.10600000  1.0 -0.9383892052
O  O57  1  0.37140000  0.47540000  0.10600000  1.0 -0.9383892052
O  O58  1  0.62860000  0.52460000  0.10600000  1.0 -0.9383892052
O  O59  1  0.12860000  0.97540000  0.39400000  1.0 -0.9383892052
O  O60  1  0.87140000  0.02460000  0.39400000  1.0 -0.9383892052
O  O61  1  0.97540000  0.87140000  0.60600000  1.0 -0.9383892052
O  O62  1  0.02460000  0.12860000  0.60600000  1.0 -0.9383892052
O  O63  1  0.47540000  0.62860000  0.89400000  1.0 -0.9383892052
O  O64  1  0.52460000  0.37140000  0.89400000  1.0 -0.9383892052
O  O65  1  0.62860000  0.52460000  0.89400000  1.0 -0.9383892052
O  O66  1  0.37140000  0.47540000  0.89400000  1.0 -0.9383892052
O  O67  1  0.87140000  0.02460000  0.60600000  1.0 -0.9383892052
O  O68  1  0.12860000  0.97540000  0.60600000  1.0 -0.9383892052
