# DDEC6 charges by PACMAN v1.1 (https://github.com/mtap-research/PACMAN-charge/)
data_UQEHUW_ASR_pacman
_symmetry_space_group_name_H-M   'P 1'
_cell_length_a   8.95770000
_cell_length_b   14.74590000
_cell_length_c   16.42730000
_cell_angle_alpha   96.75500000
_cell_angle_beta   105.46200000
_cell_angle_gamma   94.73500000
_symmetry_Int_Tables_number   1
_chemical_formula_structural   Zn2H20C36N3O4
_chemical_formula_sum   'Zn4 H40 C72 N6 O8'
_cell_volume   2062.06091545
_cell_formula_units_Z   2
loop_
 _symmetry_equiv_pos_site_id
 _symmetry_equiv_pos_as_xyz
  1  'x, y, z'
loop_
 _atom_site_type_symbol
 _atom_site_label
 _atom_site_symmetry_multiplicity
 _atom_site_fract_x
 _atom_site_fract_y
 _atom_site_fract_z
 _atom_site_occupancy
 _atom_site_charge
Zn  Zn1  1  0.11878000  0.44846000  0.47224000  1.0 0.8340964184
Zn  Zn2  1  0.03175000  0.98512000  0.98942000  1.0 0.3919396267
Zn  Zn3  1  0.88122000  0.55154000  0.52776000  1.0 0.8340964184
Zn  Zn4  1  0.96825000  0.01488000  0.01058000  1.0 0.3919396267
H  H1  1  0.08976000  0.26407000  0.37143000  1.0 0.1125069713
H  H2  1  0.19339000  0.12787000  0.38209000  1.0 0.1404629589
H  H3  1  0.53834000  0.25628000  0.58104000  1.0 0.1404629589
H  H4  1  0.42830000  0.39021000  0.56360000  1.0 0.1202007541
H  H5  1  0.62245000  0.19655000  0.43320000  1.0 0.1125069713
H  H6  1  0.83669000  0.16999000  0.39143000  1.0 0.1125069713
H  H7  1  0.18816000  0.08584000  0.54919000  1.0 0.1125069713
H  H8  1  0.06788000  0.97363000  0.60073000  1.0 0.1125069713
H  H9  1  0.52299000  0.61180000  0.64763000  1.0 0.1202007541
H  H10  1  0.71836000  0.71647000  0.74361000  1.0 0.1125069713
H  H11  1  0.40050000  0.81318000  0.85040000  1.0 0.1202007541
H  H12  1  0.20532000  0.71462000  0.75055000  1.0 0.1202007541
H  H13  1  0.65515000  0.69140000  0.95001000  1.0 0.1277810947
H  H14  1  0.82874000  0.69796000  0.09439000  1.0 0.1277810947
H  H15  1  0.58053000  0.91181000  0.71355000  1.0 0.1202007541
H  H16  1  0.70568000  0.06220000  0.70193000  1.0 0.1202007541
H  H17  1  0.03535000  0.13203000  0.70270000  1.0 0.1125069713
H  H18  1  0.02535000  0.23487000  0.60551000  1.0 0.1202007541
H  H19  1  0.79182000  0.39341000  0.72946000  1.0 0.1202007541
H  H20  1  0.81073000  0.29251000  0.82882000  1.0 0.1202007541
H  H21  1  0.91024000  0.73593000  0.62857000  1.0 0.1125069713
H  H22  1  0.80661000  0.87213000  0.61791000  1.0 0.1404629589
H  H23  1  0.46166000  0.74372000  0.41896000  1.0 0.1404629589
H  H24  1  0.57170000  0.60979000  0.43640000  1.0 0.1202007541
H  H25  1  0.37755000  0.80345000  0.56680000  1.0 0.1125069713
H  H26  1  0.16331000  0.83001000  0.60857000  1.0 0.1125069713
H  H27  1  0.81184000  0.91416000  0.45081000  1.0 0.1125069713
H  H28  1  0.93212000  0.02637000  0.39927000  1.0 0.1125069713
H  H29  1  0.47701000  0.38820000  0.35237000  1.0 0.1202007541
H  H30  1  0.28164000  0.28353000  0.25639000  1.0 0.1125069713
H  H31  1  0.59950000  0.18682000  0.14960000  1.0 0.1202007541
H  H32  1  0.79468000  0.28538000  0.24945000  1.0 0.1202007541
H  H33  1  0.34485000  0.30860000  0.04999000  1.0 0.1277810947
H  H34  1  0.17126000  0.30204000  0.90561000  1.0 0.1277810947
H  H35  1  0.41947000  0.08819000  0.28645000  1.0 0.1202007541
H  H36  1  0.29432000  0.93780000  0.29807000  1.0 0.1202007541
H  H37  1  0.96465000  0.86797000  0.29730000  1.0 0.1125069713
H  H38  1  0.97465000  0.76513000  0.39449000  1.0 0.1202007541
H  H39  1  0.20818000  0.60659000  0.27054000  1.0 0.1202007541
H  H40  1  0.18927000  0.70749000  0.17118000  1.0 0.1202007541
C  C1  1  0.18090000  0.26220000  0.41428000  1.0 0.0692943798
C  C2  1  0.24200000  0.18010000  0.42060000  1.0 -0.1961421503
C  C3  1  0.37660000  0.17560000  0.48470000  1.0 0.1202007541
C  C4  1  0.44650000  0.25620000  0.53810000  1.0 -0.1932877435
C  C5  1  0.37930000  0.33650000  0.52740000  1.0 0.0985204556
C  C6  1  0.44130000  0.08560000  0.49420000  1.0 -0.0394378568
C  C7  1  0.57760000  0.07150000  0.47010000  1.0 0.0337929071
C  C8  1  0.65910000  0.13960000  0.43720000  1.0 -0.1408508851
C  C9  1  0.78620000  0.12410000  0.41220000  1.0 -0.093297994
C  C10  1  0.36310000  0.01660000  0.52430000  1.0 0.0354152748
C  C11  1  0.22800000  0.02970000  0.55210000  1.0 -0.1497820808
C  C12  1  0.15580000  0.96280000  0.58280000  1.0 -0.101309892
C  C13  1  0.21820000  0.59020000  0.62346000  1.0 0.5845931635
C  C14  1  0.34510000  0.65330000  0.68899000  1.0 -0.0394378568
C  C15  1  0.49760000  0.65330000  0.68760000  1.0 -0.101309892
C  C16  1  0.61570000  0.71540000  0.74610000  1.0 -0.1572885587
C  C17  1  0.57880000  0.77520000  0.80742000  1.0 0.0828068048
C  C18  1  0.42580000  0.77360000  0.80900000  1.0 -0.1497820808
C  C19  1  0.30850000  0.71380000  0.74950000  1.0 -0.1096565099
C  C20  1  0.70310000  0.84430000  0.86750000  1.0 -0.0765701479
C  C21  1  0.77650000  0.82170000  0.94820000  1.0 0.1587022857
C  C22  1  0.73340000  0.73840000  0.97920000  1.0 -0.1788767672
C  C23  1  0.82880000  0.74220000  0.05850000  1.0 -0.1788767672
C  C24  1  0.93110000  0.82760000  0.07770000  1.0 0.1659711317
C  C25  1  0.74050000  0.92550000  0.83731000  1.0 0.1659711317
C  C26  1  0.66270000  0.94770000  0.75470000  1.0 -0.1961421503
C  C27  1  0.73150000  0.03030000  0.74840000  1.0 -0.1932877435
C  C28  1  0.85230000  0.05990000  0.82675000  1.0 0.1659711317
C  C29  1  0.95130000  0.14250000  0.84590000  1.0 -0.0765701479
C  C30  1  0.93210000  0.20450000  0.77869000  1.0 0.0828068048
C  C31  1  0.99040000  0.18600000  0.70990000  1.0 -0.1572885587
C  C32  1  0.98260000  0.24710000  0.65080000  1.0 -0.1096565099
C  C33  1  0.91190000  0.32560000  0.65930000  1.0 -0.031754928
C  C34  1  0.84440000  0.34210000  0.72490000  1.0 -0.1096565099
C  C35  1  0.85580000  0.28110000  0.78430000  1.0 -0.1497820808
C  C36  1  0.91600000  0.39640000  0.59990000  1.0 0.5745456086
C  C37  1  0.81910000  0.73780000  0.58572000  1.0 0.0692943798
C  C38  1  0.75800000  0.81990000  0.57940000  1.0 -0.1961421503
C  C39  1  0.62340000  0.82440000  0.51530000  1.0 0.1202007541
C  C40  1  0.55350000  0.74380000  0.46190000  1.0 -0.1932877435
C  C41  1  0.62070000  0.66350000  0.47260000  1.0 0.0985204556
C  C42  1  0.55870000  0.91440000  0.50580000  1.0 -0.0394378568
C  C43  1  0.42240000  0.92850000  0.52990000  1.0 0.0337929071
C  C44  1  0.34090000  0.86040000  0.56280000  1.0 -0.1408508851
C  C45  1  0.21380000  0.87590000  0.58780000  1.0 -0.093297994
C  C46  1  0.63690000  0.98340000  0.47570000  1.0 0.0354152748
C  C47  1  0.77200000  0.97030000  0.44790000  1.0 -0.1572885587
C  C48  1  0.84420000  0.03720000  0.41720000  1.0 -0.101309892
C  C49  1  0.78180000  0.40980000  0.37654000  1.0 0.5845931635
C  C50  1  0.65490000  0.34670000  0.31101000  1.0 -0.0394378568
C  C51  1  0.50240000  0.34670000  0.31240000  1.0 -0.101309892
C  C52  1  0.38430000  0.28460000  0.25390000  1.0 -0.1572885587
C  C53  1  0.42120000  0.22480000  0.19258000  1.0 0.0828068048
C  C54  1  0.57420000  0.22640000  0.19100000  1.0 -0.1497820808
C  C55  1  0.69150000  0.28620000  0.25050000  1.0 -0.1096565099
C  C56  1  0.29690000  0.15570000  0.13250000  1.0 -0.0765701479
C  C57  1  0.22350000  0.17830000  0.05180000  1.0 0.1587022857
C  C58  1  0.26660000  0.26160000  0.02080000  1.0 -0.1788767672
C  C59  1  0.17120000  0.25780000  0.94150000  1.0 -0.1788767672
C  C60  1  0.06890000  0.17240000  0.92230000  1.0 0.1659711317
C  C61  1  0.25950000  0.07450000  0.16269000  1.0 0.1659711317
C  C62  1  0.33730000  0.05230000  0.24530000  1.0 -0.1961421503
C  C63  1  0.26850000  0.96970000  0.25160000  1.0 -0.1932877435
C  C64  1  0.14770000  0.94010000  0.17325000  1.0 0.1659711317
C  C65  1  0.04870000  0.85750000  0.15410000  1.0 -0.0765701479
C  C66  1  0.06790000  0.79550000  0.22131000  1.0 0.0828068048
C  C67  1  0.00960000  0.81400000  0.29010000  1.0 -0.1572885587
C  C68  1  0.01740000  0.75290000  0.34920000  1.0 -0.1096565099
C  C69  1  0.08810000  0.67440000  0.34070000  1.0 -0.031754928
C  C70  1  0.15560000  0.65790000  0.27510000  1.0 -0.1096565099
C  C71  1  0.14420000  0.71890000  0.21570000  1.0 -0.1497820808
C  C72  1  0.08400000  0.60360000  0.40010000  1.0 0.5745456086
N  N1  1  0.24730000  0.34027000  0.46749000  1.0 -0.2184967382
N  N2  1  0.89530000  0.87409000  0.00941000  1.0 -0.3257456853
N  N3  1  0.85380000  0.99476000  0.87939000  1.0 -0.3180484309
N  N4  1  0.75270000  0.65973000  0.53251000  1.0 -0.2184967382
N  N5  1  0.10470000  0.12591000  0.99059000  1.0 -0.3257456853
N  N6  1  0.14620000  0.00524000  0.12061000  1.0 -0.3180484309
O  O1  1  0.25890000  0.52962000  0.57640000  1.0 -0.54146315
O  O2  1  0.08090000  0.60421000  0.62124000  1.0 -0.545043601
O  O3  1  0.83280000  0.46047000  0.60326000  1.0 -0.5312607421
O  O4  1  0.00580000  0.38711000  0.55429000  1.0 -0.5566141738
O  O5  1  0.74110000  0.47038000  0.42360000  1.0 -0.54146315
O  O6  1  0.91910000  0.39579000  0.37876000  1.0 -0.545043601
O  O7  1  0.16720000  0.53953000  0.39674000  1.0 -0.5312607421
O  O8  1  0.99420000  0.61289000  0.44571000  1.0 -0.5566141738
