# DDEC6 charges by PACMAN v1.1 (https://github.com/mtap-research/PACMAN-charge/)
data_UQETOB_FSR_pacman
_symmetry_space_group_name_H-M   'P 1'
_cell_length_a   26.92300000
_cell_length_b   26.92300000
_cell_length_c   39.42200000
_cell_angle_alpha   90.00000000
_cell_angle_beta   90.00000000
_cell_angle_gamma   90.00000000
_symmetry_Int_Tables_number   1
_chemical_formula_structural   Cu6H39C56(N3O10)3
_chemical_formula_sum   'Cu48 H312 C448 N72 O240'
_cell_volume   28574.95505704
_cell_formula_units_Z   8
loop_
 _symmetry_equiv_pos_site_id
 _symmetry_equiv_pos_as_xyz
  1  'x, y, z'
loop_
 _atom_site_type_symbol
 _atom_site_label
 _atom_site_symmetry_multiplicity
 _atom_site_fract_x
 _atom_site_fract_y
 _atom_site_fract_z
 _atom_site_occupancy
 _atom_site_charge
Cu  Cu1  1  0.75259000  0.12802000  0.30256000  1.0 0.8593005365
Cu  Cu2  1  0.24741000  0.87198000  0.30256000  1.0 0.8593005365
Cu  Cu3  1  0.25259000  0.37198000  0.19744000  1.0 0.8593005365
Cu  Cu4  1  0.74741000  0.62802000  0.19744000  1.0 0.8593005365
Cu  Cu5  1  0.37198000  0.74741000  0.19744000  1.0 0.8593005365
Cu  Cu6  1  0.62802000  0.25259000  0.19744000  1.0 0.8593005365
Cu  Cu7  1  0.12802000  0.24741000  0.30256000  1.0 0.8593005365
Cu  Cu8  1  0.87198000  0.75259000  0.30256000  1.0 0.8593005365
Cu  Cu9  1  0.24741000  0.87198000  0.69744000  1.0 0.8593005365
Cu  Cu10  1  0.75259000  0.12802000  0.69744000  1.0 0.8593005365
Cu  Cu11  1  0.74741000  0.62802000  0.80256000  1.0 0.8593005365
Cu  Cu12  1  0.25259000  0.37198000  0.80256000  1.0 0.8593005365
Cu  Cu13  1  0.62802000  0.25259000  0.80256000  1.0 0.8593005365
Cu  Cu14  1  0.37198000  0.74741000  0.80256000  1.0 0.8593005365
Cu  Cu15  1  0.87198000  0.75259000  0.69744000  1.0 0.8593005365
Cu  Cu16  1  0.12802000  0.24741000  0.69744000  1.0 0.8593005365
Cu  Cu17  1  0.81573000  0.09441000  0.34970000  1.0 0.8760757645
Cu  Cu18  1  0.18427000  0.90559000  0.34970000  1.0 0.8760757645
Cu  Cu19  1  0.31573000  0.40559000  0.15030000  1.0 0.8760757645
Cu  Cu20  1  0.68427000  0.59441000  0.15030000  1.0 0.8760757645
Cu  Cu21  1  0.40559000  0.68427000  0.15030000  1.0 0.8760757645
Cu  Cu22  1  0.59441000  0.31573000  0.15030000  1.0 0.8760757645
Cu  Cu23  1  0.09441000  0.18427000  0.34970000  1.0 0.8760757645
Cu  Cu24  1  0.90559000  0.81573000  0.34970000  1.0 0.8760757645
Cu  Cu25  1  0.18427000  0.90559000  0.65030000  1.0 0.8760757645
Cu  Cu26  1  0.81573000  0.09441000  0.65030000  1.0 0.8760757645
Cu  Cu27  1  0.68427000  0.59441000  0.84970000  1.0 0.8760757645
Cu  Cu28  1  0.31573000  0.40559000  0.84970000  1.0 0.8760757645
Cu  Cu29  1  0.59441000  0.31573000  0.84970000  1.0 0.8760757645
Cu  Cu30  1  0.40559000  0.68427000  0.84970000  1.0 0.8760757645
Cu  Cu31  1  0.90559000  0.81573000  0.65030000  1.0 0.8760757645
Cu  Cu32  1  0.09441000  0.18427000  0.65030000  1.0 0.8760757645
Cu  Cu33  1  0.91364000  0.27436000  0.50000000  1.0 0.7986714443
Cu  Cu34  1  0.08636000  0.72564000  0.50000000  1.0 0.7986714443
Cu  Cu35  1  0.41364000  0.22564000  0.00000000  1.0 0.7986714443
Cu  Cu36  1  0.58636000  0.77436000  0.00000000  1.0 0.7986714443
Cu  Cu37  1  0.22564000  0.58636000  0.00000000  1.0 0.7986714443
Cu  Cu38  1  0.77436000  0.41364000  0.00000000  1.0 0.7986714443
Cu  Cu39  1  0.27436000  0.08636000  0.50000000  1.0 0.7986714443
Cu  Cu40  1  0.72564000  0.91364000  0.50000000  1.0 0.7986714443
Cu  Cu41  1  0.88460000  0.36886000  0.50000000  1.0 0.7831517061
Cu  Cu42  1  0.11540000  0.63114000  0.50000000  1.0 0.7831517061
Cu  Cu43  1  0.38460000  0.13114000  0.00000000  1.0 0.7831517061
Cu  Cu44  1  0.61540000  0.86886000  0.00000000  1.0 0.7831517061
Cu  Cu45  1  0.13114000  0.61540000  0.00000000  1.0 0.7831517061
Cu  Cu46  1  0.86886000  0.38460000  0.00000000  1.0 0.7831517061
Cu  Cu47  1  0.36886000  0.11540000  0.50000000  1.0 0.7831517061
Cu  Cu48  1  0.63114000  0.88460000  0.50000000  1.0 0.7831517061
H  H1  1  0.85680000  0.07130000  0.40910000  1.0 0.4118177755
H  H2  1  0.14320000  0.92870000  0.40910000  1.0 0.4118177755
H  H3  1  0.35680000  0.42870000  0.09090000  1.0 0.4118177755
H  H4  1  0.64320000  0.57130000  0.09090000  1.0 0.4118177755
H  H5  1  0.42870000  0.64320000  0.09090000  1.0 0.4118177755
H  H6  1  0.57130000  0.35680000  0.09090000  1.0 0.4118177755
H  H7  1  0.07130000  0.14320000  0.40910000  1.0 0.4118177755
H  H8  1  0.92870000  0.85680000  0.40910000  1.0 0.4118177755
H  H9  1  0.14320000  0.92870000  0.59090000  1.0 0.4118177755
H  H10  1  0.85680000  0.07130000  0.59090000  1.0 0.4118177755
H  H11  1  0.64320000  0.57130000  0.90910000  1.0 0.4118177755
H  H12  1  0.35680000  0.42870000  0.90910000  1.0 0.4118177755
H  H13  1  0.57130000  0.35680000  0.90910000  1.0 0.4118177755
H  H14  1  0.42870000  0.64320000  0.90910000  1.0 0.4118177755
H  H15  1  0.92870000  0.85680000  0.59090000  1.0 0.4118177755
H  H16  1  0.07130000  0.14320000  0.59090000  1.0 0.4118177755
H  H17  1  0.90010000  0.07080000  0.38120000  1.0 0.4118177755
H  H18  1  0.09990000  0.92920000  0.38120000  1.0 0.4118177755
H  H19  1  0.40010000  0.42920000  0.11880000  1.0 0.4118177755
H  H20  1  0.59990000  0.57080000  0.11880000  1.0 0.4118177755
H  H21  1  0.42920000  0.59990000  0.11880000  1.0 0.4118177755
H  H22  1  0.57080000  0.40010000  0.11880000  1.0 0.4118177755
H  H23  1  0.07080000  0.09990000  0.38120000  1.0 0.4118177755
H  H24  1  0.92920000  0.90010000  0.38120000  1.0 0.4118177755
H  H25  1  0.09990000  0.92920000  0.61880000  1.0 0.4118177755
H  H26  1  0.90010000  0.07080000  0.61880000  1.0 0.4118177755
H  H27  1  0.59990000  0.57080000  0.88120000  1.0 0.4118177755
H  H28  1  0.40010000  0.42920000  0.88120000  1.0 0.4118177755
H  H29  1  0.57080000  0.40010000  0.88120000  1.0 0.4118177755
H  H30  1  0.42920000  0.59990000  0.88120000  1.0 0.4118177755
H  H31  1  0.92920000  0.90010000  0.61880000  1.0 0.4118177755
H  H32  1  0.07080000  0.09990000  0.61880000  1.0 0.4118177755
H  H33  1  0.73380000  0.34090000  0.30640000  1.0 0.3025468336
H  H34  1  0.26620000  0.65910000  0.30640000  1.0 0.3025468336
H  H35  1  0.23380000  0.15910000  0.19360000  1.0 0.3025468336
H  H36  1  0.76620000  0.84090000  0.19360000  1.0 0.3050794577
H  H37  1  0.15910000  0.76620000  0.19360000  1.0 0.3025468336
H  H38  1  0.84090000  0.23380000  0.19360000  1.0 0.3025468336
H  H39  1  0.34090000  0.26620000  0.30640000  1.0 0.3025468336
H  H40  1  0.65910000  0.73380000  0.30640000  1.0 0.3050794577
H  H41  1  0.26620000  0.65910000  0.69360000  1.0 0.3050794577
H  H42  1  0.73380000  0.34090000  0.69360000  1.0 0.3050794577
H  H43  1  0.76620000  0.84090000  0.80640000  1.0 0.3050794577
H  H44  1  0.23380000  0.15910000  0.80640000  1.0 0.3025468336
H  H45  1  0.84090000  0.23380000  0.80640000  1.0 0.3050794577
H  H46  1  0.15910000  0.76620000  0.80640000  1.0 0.3025468336
H  H47  1  0.65910000  0.73380000  0.69360000  1.0 0.3050794577
H  H48  1  0.34090000  0.26620000  0.69360000  1.0 0.3025468336
H  H49  1  0.00000000  0.50000000  0.59070000  1.0 0.3025468336
H  H50  1  0.50000000  0.00000000  0.90930000  1.0 0.3025468336
H  H51  1  0.00000000  0.50000000  0.90930000  1.0 0.3025468336
H  H52  1  0.50000000  0.00000000  0.59070000  1.0 0.3025468336
H  H53  1  0.00000000  0.50000000  0.40930000  1.0 0.3025468336
H  H54  1  0.50000000  0.00000000  0.09070000  1.0 0.3025468336
H  H55  1  0.00000000  0.50000000  0.09070000  1.0 0.3025468336
H  H56  1  0.50000000  0.00000000  0.40930000  1.0 0.3025468336
H  H57  1  0.81800000  0.22180000  0.41850000  1.0 0.1334412516
H  H58  1  0.18200000  0.77820000  0.41850000  1.0 0.1334412516
H  H59  1  0.31800000  0.27820000  0.08150000  1.0 0.1334412516
H  H60  1  0.68200000  0.72180000  0.08150000  1.0 0.1334412516
H  H61  1  0.27820000  0.68200000  0.08150000  1.0 0.1334412516
H  H62  1  0.72180000  0.31800000  0.08150000  1.0 0.1334412516
H  H63  1  0.22180000  0.18200000  0.41850000  1.0 0.1334412516
H  H64  1  0.77820000  0.81800000  0.41850000  1.0 0.1334412516
H  H65  1  0.18200000  0.77820000  0.58150000  1.0 0.1334412516
H  H66  1  0.81800000  0.22180000  0.58150000  1.0 0.1334412516
H  H67  1  0.68200000  0.72180000  0.91850000  1.0 0.1334412516
H  H68  1  0.31800000  0.27820000  0.91850000  1.0 0.1334412516
H  H69  1  0.72180000  0.31800000  0.91850000  1.0 0.1334412516
H  H70  1  0.27820000  0.68200000  0.91850000  1.0 0.1334412516
H  H71  1  0.77820000  0.81800000  0.58150000  1.0 0.1334412516
H  H72  1  0.22180000  0.18200000  0.58150000  1.0 0.1334412516
H  H73  1  0.75180000  0.27700000  0.33550000  1.0 0.1334412516
H  H74  1  0.24820000  0.72300000  0.33550000  1.0 0.1334412516
H  H75  1  0.25180000  0.22300000  0.16450000  1.0 0.1334412516
H  H76  1  0.74820000  0.77700000  0.16450000  1.0 0.1334412516
H  H77  1  0.22300000  0.74820000  0.16450000  1.0 0.1334412516
H  H78  1  0.77700000  0.25180000  0.16450000  1.0 0.1334412516
H  H79  1  0.27700000  0.24820000  0.33550000  1.0 0.1334412516
H  H80  1  0.72300000  0.75180000  0.33550000  1.0 0.1334412516
H  H81  1  0.24820000  0.72300000  0.66450000  1.0 0.1334412516
H  H82  1  0.75180000  0.27700000  0.66450000  1.0 0.1334412516
H  H83  1  0.74820000  0.77700000  0.83550000  1.0 0.1334412516
H  H84  1  0.25180000  0.22300000  0.83550000  1.0 0.1334412516
H  H85  1  0.77700000  0.25180000  0.83550000  1.0 0.1334412516
H  H86  1  0.22300000  0.74820000  0.83550000  1.0 0.1334412516
H  H87  1  0.72300000  0.75180000  0.66450000  1.0 0.1334412516
H  H88  1  0.27700000  0.24820000  0.66450000  1.0 0.1334412516
H  H89  1  0.79840000  0.37040000  0.41090000  1.0 0.1334412516
H  H90  1  0.20160000  0.62960000  0.41090000  1.0 0.1334412516
H  H91  1  0.29840000  0.12960000  0.08910000  1.0 0.1334412516
H  H92  1  0.70160000  0.87040000  0.08910000  1.0 0.1334412516
H  H93  1  0.12960000  0.70160000  0.08910000  1.0 0.1334412516
H  H94  1  0.87040000  0.29840000  0.08910000  1.0 0.1334412516
H  H95  1  0.37040000  0.20160000  0.41090000  1.0 0.1334412516
H  H96  1  0.62960000  0.79840000  0.41090000  1.0 0.1334412516
H  H97  1  0.20160000  0.62960000  0.58910000  1.0 0.1334412516
H  H98  1  0.79840000  0.37040000  0.58910000  1.0 0.1334412516
H  H99  1  0.70160000  0.87040000  0.91090000  1.0 0.1334412516
H  H100  1  0.29840000  0.12960000  0.91090000  1.0 0.1334412516
H  H101  1  0.87040000  0.29840000  0.91090000  1.0 0.1334412516
H  H102  1  0.12960000  0.70160000  0.91090000  1.0 0.1334412516
H  H103  1  0.62960000  0.79840000  0.58910000  1.0 0.1334412516
H  H104  1  0.37040000  0.20160000  0.58910000  1.0 0.1334412516
H  H105  1  0.68990000  0.35820000  0.26500000  1.0 0.1334412516
H  H106  1  0.31010000  0.64180000  0.26500000  1.0 0.1334412516
H  H107  1  0.18990000  0.14180000  0.23500000  1.0 0.1334412516
H  H108  1  0.81010000  0.85820000  0.23500000  1.0 0.1334412516
H  H109  1  0.14180000  0.81010000  0.23500000  1.0 0.1334412516
H  H110  1  0.85820000  0.18990000  0.23500000  1.0 0.1334412516
H  H111  1  0.35820000  0.31010000  0.26500000  1.0 0.1334412516
H  H112  1  0.64180000  0.68990000  0.26500000  1.0 0.1334412516
H  H113  1  0.31010000  0.64180000  0.73500000  1.0 0.1334412516
H  H114  1  0.68990000  0.35820000  0.73500000  1.0 0.1334412516
H  H115  1  0.81010000  0.85820000  0.76500000  1.0 0.1334412516
H  H116  1  0.18990000  0.14180000  0.76500000  1.0 0.1334412516
H  H117  1  0.85820000  0.18990000  0.76500000  1.0 0.1334412516
H  H118  1  0.14180000  0.81010000  0.76500000  1.0 0.1334412516
H  H119  1  0.64180000  0.68990000  0.73500000  1.0 0.1334412516
H  H120  1  0.35820000  0.31010000  0.73500000  1.0 0.1334412516
H  H121  1  0.66280000  0.45190000  0.18740000  1.0 0.1334412516
H  H122  1  0.33720000  0.54810000  0.18740000  1.0 0.1334412516
H  H123  1  0.16280000  0.04810000  0.31260000  1.0 0.1334412516
H  H124  1  0.83720000  0.95190000  0.31260000  1.0 0.1334412516
H  H125  1  0.04810000  0.83720000  0.31260000  1.0 0.1334412516
H  H126  1  0.95190000  0.16280000  0.31260000  1.0 0.1334412516
H  H127  1  0.45190000  0.33720000  0.18740000  1.0 0.1334412516
H  H128  1  0.54810000  0.66280000  0.18740000  1.0 0.1334412516
H  H129  1  0.33720000  0.54810000  0.81260000  1.0 0.1383155861
H  H130  1  0.66280000  0.45190000  0.81260000  1.0 0.1334412516
H  H131  1  0.83720000  0.95190000  0.68740000  1.0 0.1383155861
H  H132  1  0.16280000  0.04810000  0.68740000  1.0 0.1334412516
H  H133  1  0.95190000  0.16280000  0.68740000  1.0 0.1334412516
H  H134  1  0.04810000  0.83720000  0.68740000  1.0 0.1383155861
H  H135  1  0.54810000  0.66280000  0.81260000  1.0 0.1383155861
H  H136  1  0.45190000  0.33720000  0.81260000  1.0 0.1383155861
H  H137  1  0.73730000  0.50060000  0.26990000  1.0 0.1383155861
H  H138  1  0.26270000  0.49940000  0.26990000  1.0 0.1383155861
H  H139  1  0.23730000  0.99940000  0.23010000  1.0 0.1383155861
H  H140  1  0.76270000  0.00060000  0.23010000  1.0 0.1383155861
H  H141  1  0.99940000  0.76270000  0.23010000  1.0 0.1383155861
H  H142  1  0.00060000  0.23730000  0.23010000  1.0 0.1383155861
H  H143  1  0.50060000  0.26270000  0.26990000  1.0 0.1383155861
H  H144  1  0.49940000  0.73730000  0.26990000  1.0 0.1383155861
H  H145  1  0.26270000  0.49940000  0.73010000  1.0 0.1383155861
H  H146  1  0.73730000  0.50060000  0.73010000  1.0 0.1383155861
H  H147  1  0.76270000  0.00060000  0.76990000  1.0 0.1383155861
H  H148  1  0.23730000  0.99940000  0.76990000  1.0 0.1383155861
H  H149  1  0.00060000  0.23730000  0.76990000  1.0 0.1383155861
H  H150  1  0.99940000  0.76270000  0.76990000  1.0 0.1383155861
H  H151  1  0.49940000  0.73730000  0.73010000  1.0 0.1383155861
H  H152  1  0.50060000  0.26270000  0.73010000  1.0 0.1383155861
H  H153  1  0.01800000  0.28150000  0.58570000  1.0 0.1383155861
H  H154  1  0.98200000  0.71850000  0.58570000  1.0 0.1383155861
H  H155  1  0.51800000  0.21850000  0.91430000  1.0 0.1383155861
H  H156  1  0.48200000  0.78150000  0.91430000  1.0 0.1383155861
H  H157  1  0.21850000  0.48200000  0.91430000  1.0 0.1383155861
H  H158  1  0.78150000  0.51800000  0.91430000  1.0 0.1383155861
H  H159  1  0.28150000  0.98200000  0.58570000  1.0 0.1383155861
H  H160  1  0.71850000  0.01800000  0.58570000  1.0 0.1383155861
H  H161  1  0.98200000  0.71850000  0.41430000  1.0 0.1383155861
H  H162  1  0.01800000  0.28150000  0.41430000  1.0 0.1383155861
H  H163  1  0.48200000  0.78150000  0.08570000  1.0 0.1383155861
H  H164  1  0.51800000  0.21850000  0.08570000  1.0 0.1383155861
H  H165  1  0.78150000  0.51800000  0.08570000  1.0 0.1383155861
H  H166  1  0.21850000  0.48200000  0.08570000  1.0 0.1383155861
H  H167  1  0.71850000  0.01800000  0.41430000  1.0 0.1383155861
H  H168  1  0.28150000  0.98200000  0.41430000  1.0 0.1383155861
H  H169  1  0.97050000  0.42320000  0.57870000  1.0 0.1198895624
H  H170  1  0.02950000  0.57680000  0.57870000  1.0 0.1198895624
H  H171  1  0.47050000  0.07680000  0.92130000  1.0 0.1198895624
H  H172  1  0.52950000  0.92320000  0.92130000  1.0 0.1198895624
H  H173  1  0.07680000  0.52950000  0.92130000  1.0 0.1198895624
H  H174  1  0.92320000  0.47050000  0.92130000  1.0 0.1198895624
H  H175  1  0.42320000  0.02950000  0.57870000  1.0 0.1198895624
H  H176  1  0.57680000  0.97050000  0.57870000  1.0 0.1198895624
H  H177  1  0.02950000  0.57680000  0.42130000  1.0 0.1198895624
H  H178  1  0.97050000  0.42320000  0.42130000  1.0 0.1198895624
H  H179  1  0.52950000  0.92320000  0.07870000  1.0 0.1198895624
H  H180  1  0.47050000  0.07680000  0.07870000  1.0 0.1198895624
H  H181  1  0.92320000  0.47050000  0.07870000  1.0 0.1198895624
H  H182  1  0.07680000  0.52950000  0.07870000  1.0 0.1198895624
H  H183  1  0.57680000  0.97050000  0.42130000  1.0 0.1198895624
H  H184  1  0.42320000  0.02950000  0.42130000  1.0 0.1198895624
H  H185  1  0.05590000  0.38020000  0.65900000  1.0 0.1383155861
H  H186  1  0.94410000  0.61980000  0.65900000  1.0 0.1383155861
H  H187  1  0.55590000  0.11980000  0.84100000  1.0 0.1383155861
H  H188  1  0.44410000  0.88020000  0.84100000  1.0 0.1383155861
H  H189  1  0.11980000  0.44410000  0.84100000  1.0 0.1383155861
H  H190  1  0.88020000  0.55590000  0.84100000  1.0 0.1383155861
H  H191  1  0.38020000  0.94410000  0.65900000  1.0 0.1383155861
H  H192  1  0.61980000  0.05590000  0.65900000  1.0 0.1383155861
H  H193  1  0.94410000  0.61980000  0.34100000  1.0 0.1383155861
H  H194  1  0.05590000  0.38020000  0.34100000  1.0 0.1383155861
H  H195  1  0.44410000  0.88020000  0.15900000  1.0 0.1383155861
H  H196  1  0.55590000  0.11980000  0.15900000  1.0 0.1383155861
H  H197  1  0.88020000  0.55590000  0.15900000  1.0 0.1383155861
H  H198  1  0.11980000  0.44410000  0.15900000  1.0 0.1383155861
H  H199  1  0.61980000  0.05590000  0.34100000  1.0 0.1383155861
H  H200  1  0.38020000  0.94410000  0.34100000  1.0 0.1383155861
H  H201  1  0.90850000  0.17800000  0.51220000  1.0 0.2445999956
H  H202  1  0.09150000  0.82200000  0.51220000  1.0 0.2445999956
H  H203  1  0.40850000  0.32200000  0.98780000  1.0 0.2445999956
H  H204  1  0.59150000  0.67800000  0.98780000  1.0 0.2501747517
H  H205  1  0.32200000  0.59150000  0.98780000  1.0 0.2445999956
H  H206  1  0.67800000  0.40850000  0.98780000  1.0 0.2501747517
H  H207  1  0.17800000  0.09150000  0.51220000  1.0 0.2445999956
H  H208  1  0.82200000  0.90850000  0.51220000  1.0 0.2501747517
H  H209  1  0.09150000  0.82200000  0.48780000  1.0 0.2445999956
H  H210  1  0.90850000  0.17800000  0.48780000  1.0 0.2445999956
H  H211  1  0.59150000  0.67800000  0.01220000  1.0 0.2445999956
H  H212  1  0.40850000  0.32200000  0.01220000  1.0 0.2445999956
H  H213  1  0.67800000  0.40850000  0.01220000  1.0 0.2445999956
H  H214  1  0.32200000  0.59150000  0.01220000  1.0 0.2445999956
H  H215  1  0.82200000  0.90850000  0.48780000  1.0 0.2501747517
H  H216  1  0.17800000  0.09150000  0.48780000  1.0 0.2445999956
H  H217  1  0.96610000  0.19250000  0.51120000  1.0 0.2595385102
H  H218  1  0.03390000  0.80750000  0.51120000  1.0 0.2595385102
H  H219  1  0.46610000  0.30750000  0.98880000  1.0 0.2595385102
H  H220  1  0.53390000  0.69250000  0.98880000  1.0 0.2595385102
H  H221  1  0.30750000  0.53390000  0.98880000  1.0 0.2595385102
H  H222  1  0.69250000  0.46610000  0.98880000  1.0 0.2595385102
H  H223  1  0.19250000  0.03390000  0.51120000  1.0 0.2595385102
H  H224  1  0.80750000  0.96610000  0.51120000  1.0 0.2595385102
H  H225  1  0.03390000  0.80750000  0.48880000  1.0 0.2595385102
H  H226  1  0.96610000  0.19250000  0.48880000  1.0 0.2595385102
H  H227  1  0.53390000  0.69250000  0.01120000  1.0 0.2595385102
H  H228  1  0.46610000  0.30750000  0.01120000  1.0 0.2595385102
H  H229  1  0.69250000  0.46610000  0.01120000  1.0 0.2595385102
H  H230  1  0.30750000  0.53390000  0.01120000  1.0 0.2595385102
H  H231  1  0.80750000  0.96610000  0.48880000  1.0 0.2595385102
H  H232  1  0.19250000  0.03390000  0.48880000  1.0 0.2595385102
H  H233  1  0.86880000  0.45950000  0.47690000  1.0 0.2181101389
H  H234  1  0.13120000  0.54050000  0.47690000  1.0 0.2181101389
H  H235  1  0.36880000  0.04050000  0.02310000  1.0 0.2181101389
H  H236  1  0.63120000  0.95950000  0.02310000  1.0 0.2181101389
H  H237  1  0.04050000  0.63120000  0.02310000  1.0 0.2181101389
H  H238  1  0.95950000  0.36880000  0.02310000  1.0 0.2181101389
H  H239  1  0.45950000  0.13120000  0.47690000  1.0 0.2181101389
H  H240  1  0.54050000  0.86880000  0.47690000  1.0 0.2181101389
H  H241  1  0.13120000  0.54050000  0.52310000  1.0 0.2181101389
H  H242  1  0.86880000  0.45950000  0.52310000  1.0 0.2181101389
H  H243  1  0.63120000  0.95950000  0.97690000  1.0 0.2181101389
H  H244  1  0.36880000  0.04050000  0.97690000  1.0 0.2181101389
H  H245  1  0.95950000  0.36880000  0.97690000  1.0 0.2181101389
H  H246  1  0.04050000  0.63120000  0.97690000  1.0 0.2181101389
H  H247  1  0.54050000  0.86880000  0.52310000  1.0 0.2181101389
H  H248  1  0.45950000  0.13120000  0.52310000  1.0 0.2181101389
H  H249  1  0.88840000  0.46410000  0.51510000  1.0 0.1147160915
H  H250  1  0.11160000  0.53590000  0.51510000  1.0 0.1147160915
H  H251  1  0.38840000  0.03590000  0.98490000  1.0 0.1147160915
H  H252  1  0.61160000  0.96410000  0.98490000  1.0 0.1147160915
H  H253  1  0.03590000  0.61160000  0.98490000  1.0 0.1147160915
H  H254  1  0.96410000  0.38840000  0.98490000  1.0 0.1147160915
H  H255  1  0.46410000  0.11160000  0.51510000  1.0 0.1147160915
H  H256  1  0.53590000  0.88840000  0.51510000  1.0 0.1147160915
H  H257  1  0.11160000  0.53590000  0.48490000  1.0 0.1147160915
H  H258  1  0.88840000  0.46410000  0.48490000  1.0 0.1147160915
H  H259  1  0.61160000  0.96410000  0.01510000  1.0 0.1147160915
H  H260  1  0.38840000  0.03590000  0.01510000  1.0 0.1147160915
H  H261  1  0.96410000  0.38840000  0.01510000  1.0 0.1147160915
H  H262  1  0.03590000  0.61160000  0.01510000  1.0 0.1147160915
H  H263  1  0.53590000  0.88840000  0.48490000  1.0 0.1147160915
H  H264  1  0.46410000  0.11160000  0.48490000  1.0 0.1147160915
H  H265  1  0.72390000  0.25760000  0.26690000  1.0 0.0815033527
H  H266  1  0.27610000  0.74240000  0.26690000  1.0 0.0815033527
H  H267  1  0.22390000  0.24240000  0.23310000  1.0 0.0815033527
H  H268  1  0.77610000  0.75760000  0.23310000  1.0 0.0815033527
H  H269  1  0.24240000  0.77610000  0.23310000  1.0 0.0815033527
H  H270  1  0.75760000  0.22390000  0.23310000  1.0 0.0815033527
H  H271  1  0.25760000  0.27610000  0.26690000  1.0 0.0815033527
H  H272  1  0.74240000  0.72390000  0.26690000  1.0 0.0815033527
H  H273  1  0.27610000  0.74240000  0.73310000  1.0 0.0815033527
H  H274  1  0.72390000  0.25760000  0.73310000  1.0 0.0815033527
H  H275  1  0.77610000  0.75760000  0.76690000  1.0 0.0815033527
H  H276  1  0.22390000  0.24240000  0.76690000  1.0 0.0815033527
H  H277  1  0.75760000  0.22390000  0.76690000  1.0 0.0815033527
H  H278  1  0.24240000  0.77610000  0.76690000  1.0 0.0815033527
H  H279  1  0.74240000  0.72390000  0.73310000  1.0 0.0815033527
H  H280  1  0.25760000  0.27610000  0.73310000  1.0 0.0815033527
H  H281  1  0.73400000  0.24750000  0.22750000  1.0 0.0870375255
H  H282  1  0.26600000  0.75250000  0.22750000  1.0 0.0870375255
H  H283  1  0.23400000  0.25250000  0.27250000  1.0 0.0870375255
H  H284  1  0.76600000  0.74750000  0.27250000  1.0 0.0870375255
H  H285  1  0.25250000  0.76600000  0.27250000  1.0 0.0870375255
H  H286  1  0.74750000  0.23400000  0.27250000  1.0 0.0870375255
H  H287  1  0.24750000  0.26600000  0.22750000  1.0 0.0870375255
H  H288  1  0.75250000  0.73400000  0.22750000  1.0 0.0870375255
H  H289  1  0.26600000  0.75250000  0.77250000  1.0 0.0870375255
H  H290  1  0.73400000  0.24750000  0.77250000  1.0 0.0870375255
H  H291  1  0.76600000  0.74750000  0.72750000  1.0 0.0870375255
H  H292  1  0.23400000  0.25250000  0.72750000  1.0 0.0870375255
H  H293  1  0.74750000  0.23400000  0.72750000  1.0 0.0870375255
H  H294  1  0.25250000  0.76600000  0.72750000  1.0 0.0870375255
H  H295  1  0.75250000  0.73400000  0.77250000  1.0 0.0870375255
H  H296  1  0.24750000  0.26600000  0.77250000  1.0 0.0870375255
H  H297  1  0.76430000  0.21720000  0.25560000  1.0 0.0815033527
H  H298  1  0.23570000  0.78280000  0.25560000  1.0 0.0815033527
H  H299  1  0.26430000  0.28280000  0.24440000  1.0 0.0815033527
H  H300  1  0.73570000  0.71720000  0.24440000  1.0 0.0815033527
H  H301  1  0.28280000  0.73570000  0.24440000  1.0 0.0815033527
H  H302  1  0.71720000  0.26430000  0.24440000  1.0 0.0815033527
H  H303  1  0.21720000  0.23570000  0.25560000  1.0 0.0815033527
H  H304  1  0.78280000  0.76430000  0.25560000  1.0 0.0815033527
H  H305  1  0.23570000  0.78280000  0.74440000  1.0 0.0815033527
H  H306  1  0.76430000  0.21720000  0.74440000  1.0 0.0815033527
H  H307  1  0.73570000  0.71720000  0.75560000  1.0 0.0815033527
H  H308  1  0.26430000  0.28280000  0.75560000  1.0 0.0815033527
H  H309  1  0.71720000  0.26430000  0.75560000  1.0 0.0815033527
H  H310  1  0.28280000  0.73570000  0.75560000  1.0 0.0815033527
H  H311  1  0.78280000  0.76430000  0.74440000  1.0 0.0815033527
H  H312  1  0.21720000  0.23570000  0.74440000  1.0 0.0815033527
C  C1  1  0.73220000  0.23220000  0.25000000  1.0 -0.4766713033
C  C2  1  0.26780000  0.76780000  0.25000000  1.0 -0.4766713033
C  C3  1  0.23220000  0.26780000  0.25000000  1.0 -0.4766713033
C  C4  1  0.76780000  0.73220000  0.25000000  1.0 -0.4766713033
C  C5  1  0.26780000  0.76780000  0.75000000  1.0 -0.4766713033
C  C6  1  0.73220000  0.23220000  0.75000000  1.0 -0.4766713033
C  C7  1  0.76780000  0.73220000  0.75000000  1.0 -0.4766713033
C  C8  1  0.23220000  0.26780000  0.75000000  1.0 -0.4766713033
C  C9  1  0.69540000  0.19540000  0.25000000  1.0 0.6488742506
C  C10  1  0.30460000  0.80460000  0.25000000  1.0 0.6488742506
C  C11  1  0.19540000  0.30460000  0.25000000  1.0 0.6488742506
C  C12  1  0.80460000  0.69540000  0.25000000  1.0 0.6488742506
C  C13  1  0.30460000  0.80460000  0.75000000  1.0 0.6488742506
C  C14  1  0.69540000  0.19540000  0.75000000  1.0 0.6488742506
C  C15  1  0.80460000  0.69540000  0.75000000  1.0 0.6488742506
C  C16  1  0.19540000  0.30460000  0.75000000  1.0 0.6488742506
C  C17  1  0.83980000  0.30490000  0.45186000  1.0 0.577697025
C  C18  1  0.16020000  0.69510000  0.45186000  1.0 0.577697025
C  C19  1  0.33980000  0.19510000  0.04814000  1.0 0.577697025
C  C20  1  0.66020000  0.80490000  0.04814000  1.0 0.577697025
C  C21  1  0.19510000  0.66020000  0.04814000  1.0 0.577697025
C  C22  1  0.80490000  0.33980000  0.04814000  1.0 0.577697025
C  C23  1  0.30490000  0.16020000  0.45186000  1.0 0.577697025
C  C24  1  0.69510000  0.83980000  0.45186000  1.0 0.577697025
C  C25  1  0.16020000  0.69510000  0.54814000  1.0 0.577697025
C  C26  1  0.83980000  0.30490000  0.54814000  1.0 0.577697025
C  C27  1  0.66020000  0.80490000  0.95186000  1.0 0.577697025
C  C28  1  0.33980000  0.19510000  0.95186000  1.0 0.577697025
C  C29  1  0.80490000  0.33980000  0.95186000  1.0 0.577697025
C  C30  1  0.19510000  0.66020000  0.95186000  1.0 0.577697025
C  C31  1  0.69510000  0.83980000  0.54814000  1.0 0.577697025
C  C32  1  0.30490000  0.16020000  0.54814000  1.0 0.577697025
C  C33  1  0.81160000  0.29650000  0.41969000  1.0 -0.0156895189
C  C34  1  0.18840000  0.70350000  0.41969000  1.0 -0.0156895189
C  C35  1  0.31160000  0.20350000  0.08031000  1.0 -0.0156895189
C  C36  1  0.68840000  0.79650000  0.08031000  1.0 -0.0156895189
C  C37  1  0.20350000  0.68840000  0.08031000  1.0 -0.0156895189
C  C38  1  0.79650000  0.31160000  0.08031000  1.0 -0.0156895189
C  C39  1  0.29650000  0.18840000  0.41969000  1.0 -0.0156895189
C  C40  1  0.70350000  0.81160000  0.41969000  1.0 -0.0156895189
C  C41  1  0.18840000  0.70350000  0.58031000  1.0 -0.0156895189
C  C42  1  0.81160000  0.29650000  0.58031000  1.0 -0.0156895189
C  C43  1  0.68840000  0.79650000  0.91969000  1.0 -0.0156895189
C  C44  1  0.31160000  0.20350000  0.91969000  1.0 -0.0156895189
C  C45  1  0.79650000  0.31160000  0.91969000  1.0 -0.0156895189
C  C46  1  0.20350000  0.68840000  0.91969000  1.0 -0.0156895189
C  C47  1  0.70350000  0.81160000  0.58031000  1.0 -0.0156895189
C  C48  1  0.29650000  0.18840000  0.58031000  1.0 -0.0156895189
C  C49  1  0.80610000  0.24970000  0.40623000  1.0 -0.1108732453
C  C50  1  0.19390000  0.75030000  0.40623000  1.0 -0.1108732453
C  C51  1  0.30610000  0.25030000  0.09377000  1.0 -0.1108732453
C  C52  1  0.69390000  0.74970000  0.09377000  1.0 -0.1108732453
C  C53  1  0.25030000  0.69390000  0.09377000  1.0 -0.1108732453
C  C54  1  0.74970000  0.30610000  0.09377000  1.0 -0.1108732453
C  C55  1  0.24970000  0.19390000  0.40623000  1.0 -0.1108732453
C  C56  1  0.75030000  0.80610000  0.40623000  1.0 -0.1108732453
C  C57  1  0.19390000  0.75030000  0.59377000  1.0 -0.1108732453
C  C58  1  0.80610000  0.24970000  0.59377000  1.0 -0.1108732453
C  C59  1  0.69390000  0.74970000  0.90623000  1.0 -0.1108732453
C  C60  1  0.30610000  0.25030000  0.90623000  1.0 -0.1108732453
C  C61  1  0.74970000  0.30610000  0.90623000  1.0 -0.1108732453
C  C62  1  0.25030000  0.69390000  0.90623000  1.0 -0.1108732453
C  C63  1  0.75030000  0.80610000  0.59377000  1.0 -0.1108732453
C  C64  1  0.24970000  0.19390000  0.59377000  1.0 -0.1108732453
C  C65  1  0.78360000  0.24240000  0.37518000  1.0 -0.0020819411
C  C66  1  0.21640000  0.75760000  0.37518000  1.0 -0.0020819411
C  C67  1  0.28360000  0.25760000  0.12482000  1.0 -0.0020819411
C  C68  1  0.71640000  0.74240000  0.12482000  1.0 -0.0020819411
C  C69  1  0.25760000  0.71640000  0.12482000  1.0 -0.0020819411
C  C70  1  0.74240000  0.28360000  0.12482000  1.0 -0.0020819411
C  C71  1  0.24240000  0.21640000  0.37518000  1.0 -0.0020819411
C  C72  1  0.75760000  0.78360000  0.37518000  1.0 -0.0020819411
C  C73  1  0.21640000  0.75760000  0.62482000  1.0 -0.0020819411
C  C74  1  0.78360000  0.24240000  0.62482000  1.0 -0.0020819411
C  C75  1  0.71640000  0.74240000  0.87518000  1.0 -0.0020819411
C  C76  1  0.28360000  0.25760000  0.87518000  1.0 -0.0020819411
C  C77  1  0.74240000  0.28360000  0.87518000  1.0 -0.0020819411
C  C78  1  0.25760000  0.71640000  0.87518000  1.0 -0.0020819411
C  C79  1  0.75760000  0.78360000  0.62482000  1.0 -0.0020819411
C  C80  1  0.24240000  0.21640000  0.62482000  1.0 -0.0020819411
C  C81  1  0.78060000  0.19130000  0.35928000  1.0 0.577697025
C  C82  1  0.21940000  0.80870000  0.35928000  1.0 0.577697025
C  C83  1  0.28060000  0.30870000  0.14072000  1.0 0.577697025
C  C84  1  0.71940000  0.69130000  0.14072000  1.0 0.577697025
C  C85  1  0.30870000  0.71940000  0.14072000  1.0 0.577697025
C  C86  1  0.69130000  0.28060000  0.14072000  1.0 0.577697025
C  C87  1  0.19130000  0.21940000  0.35928000  1.0 0.577697025
C  C88  1  0.80870000  0.78060000  0.35928000  1.0 0.577697025
C  C89  1  0.21940000  0.80870000  0.64072000  1.0 0.577697025
C  C90  1  0.78060000  0.19130000  0.64072000  1.0 0.577697025
C  C91  1  0.71940000  0.69130000  0.85928000  1.0 0.577697025
C  C92  1  0.28060000  0.30870000  0.85928000  1.0 0.577697025
C  C93  1  0.69130000  0.28060000  0.85928000  1.0 0.577697025
C  C94  1  0.30870000  0.71940000  0.85928000  1.0 0.577697025
C  C95  1  0.80870000  0.78060000  0.64072000  1.0 0.577697025
C  C96  1  0.19130000  0.21940000  0.64072000  1.0 0.577697025
C  C97  1  0.76720000  0.28210000  0.35695000  1.0 -0.1409970183
C  C98  1  0.23280000  0.71790000  0.35695000  1.0 -0.1409970183
C  C99  1  0.26720000  0.21790000  0.14305000  1.0 -0.1409970183
C  C100  1  0.73280000  0.78210000  0.14305000  1.0 -0.1409970183
C  C101  1  0.21790000  0.73280000  0.14305000  1.0 -0.1409970183
C  C102  1  0.78210000  0.26720000  0.14305000  1.0 -0.1409970183
C  C103  1  0.28210000  0.23280000  0.35695000  1.0 -0.1409970183
C  C104  1  0.71790000  0.76720000  0.35695000  1.0 -0.1409970183
C  C105  1  0.23280000  0.71790000  0.64305000  1.0 -0.1409970183
C  C106  1  0.76720000  0.28210000  0.64305000  1.0 -0.1409970183
C  C107  1  0.73280000  0.78210000  0.85695000  1.0 -0.1409970183
C  C108  1  0.26720000  0.21790000  0.85695000  1.0 -0.1409970183
C  C109  1  0.78210000  0.26720000  0.85695000  1.0 -0.1409970183
C  C110  1  0.21790000  0.73280000  0.85695000  1.0 -0.1409970183
C  C111  1  0.71790000  0.76720000  0.64305000  1.0 -0.1409970183
C  C112  1  0.28210000  0.23280000  0.64305000  1.0 -0.1409970183
C  C113  1  0.79490000  0.33800000  0.40165000  1.0 -0.1289848505
C  C114  1  0.20510000  0.66200000  0.40165000  1.0 -0.1289848505
C  C115  1  0.29490000  0.16200000  0.09835000  1.0 -0.1289848505
C  C116  1  0.70510000  0.83800000  0.09835000  1.0 -0.1289848505
C  C117  1  0.16200000  0.70510000  0.09835000  1.0 -0.1289848505
C  C118  1  0.83800000  0.29490000  0.09835000  1.0 -0.1289848505
C  C119  1  0.33800000  0.20510000  0.40165000  1.0 -0.1289848505
C  C120  1  0.66200000  0.79490000  0.40165000  1.0 -0.1289848505
C  C121  1  0.20510000  0.66200000  0.59835000  1.0 -0.1289848505
C  C122  1  0.79490000  0.33800000  0.59835000  1.0 -0.1289848505
C  C123  1  0.70510000  0.83800000  0.90165000  1.0 -0.1289848505
C  C124  1  0.29490000  0.16200000  0.90165000  1.0 -0.1289848505
C  C125  1  0.83800000  0.29490000  0.90165000  1.0 -0.1289848505
C  C126  1  0.16200000  0.70510000  0.90165000  1.0 -0.1289848505
C  C127  1  0.66200000  0.79490000  0.59835000  1.0 -0.1289848505
C  C128  1  0.33800000  0.20510000  0.59835000  1.0 -0.1289848505
C  C129  1  0.77290000  0.33100000  0.36979000  1.0 0.0259064675
C  C130  1  0.22710000  0.66900000  0.36979000  1.0 0.0259064675
C  C131  1  0.27290000  0.16900000  0.13021000  1.0 0.0259064675
C  C132  1  0.72710000  0.83100000  0.13021000  1.0 0.0259064675
C  C133  1  0.16900000  0.72710000  0.13021000  1.0 0.0259064675
C  C134  1  0.83100000  0.27290000  0.13021000  1.0 0.0259064675
C  C135  1  0.33100000  0.22710000  0.36979000  1.0 0.0259064675
C  C136  1  0.66900000  0.77290000  0.36979000  1.0 0.0259064675
C  C137  1  0.22710000  0.66900000  0.63021000  1.0 0.0259064675
C  C138  1  0.77290000  0.33100000  0.63021000  1.0 0.0259064675
C  C139  1  0.72710000  0.83100000  0.86979000  1.0 0.0259064675
C  C140  1  0.27290000  0.16900000  0.86979000  1.0 0.0259064675
C  C141  1  0.83100000  0.27290000  0.86979000  1.0 0.0259064675
C  C142  1  0.16900000  0.72710000  0.86979000  1.0 0.0259064675
C  C143  1  0.66900000  0.77290000  0.63021000  1.0 0.0259064675
C  C144  1  0.33100000  0.22710000  0.63021000  1.0 0.0259064675
C  C145  1  0.75800000  0.37330000  0.34883000  1.0 0.2595385102
C  C146  1  0.24200000  0.62670000  0.34883000  1.0 0.2595385102
C  C147  1  0.25800000  0.12670000  0.15117000  1.0 0.2595385102
C  C148  1  0.74200000  0.87330000  0.15117000  1.0 0.2595385102
C  C149  1  0.12670000  0.74200000  0.15117000  1.0 0.2595385102
C  C150  1  0.87330000  0.25800000  0.15117000  1.0 0.2595385102
C  C151  1  0.37330000  0.24200000  0.34883000  1.0 0.2595385102
C  C152  1  0.62670000  0.75800000  0.34883000  1.0 0.2595385102
C  C153  1  0.24200000  0.62670000  0.65117000  1.0 0.2595385102
C  C154  1  0.75800000  0.37330000  0.65117000  1.0 0.2595385102
C  C155  1  0.74200000  0.87330000  0.84883000  1.0 0.2595385102
C  C156  1  0.25800000  0.12670000  0.84883000  1.0 0.2595385102
C  C157  1  0.87330000  0.25800000  0.84883000  1.0 0.2595385102
C  C158  1  0.12670000  0.74200000  0.84883000  1.0 0.2595385102
C  C159  1  0.62670000  0.75800000  0.65117000  1.0 0.2595385102
C  C160  1  0.37330000  0.24200000  0.65117000  1.0 0.2595385102
C  C161  1  0.73460000  0.41470000  0.30720000  1.0 0.2501747517
C  C162  1  0.26540000  0.58530000  0.30720000  1.0 0.2501747517
C  C163  1  0.23460000  0.08530000  0.19280000  1.0 0.2501747517
C  C164  1  0.76540000  0.91470000  0.19280000  1.0 0.2501747517
C  C165  1  0.08530000  0.76540000  0.19280000  1.0 0.2501747517
C  C166  1  0.91470000  0.23460000  0.19280000  1.0 0.2501747517
C  C167  1  0.41470000  0.26540000  0.30720000  1.0 0.2501747517
C  C168  1  0.58530000  0.73460000  0.30720000  1.0 0.2501747517
C  C169  1  0.26540000  0.58530000  0.69280000  1.0 0.2501747517
C  C170  1  0.73460000  0.41470000  0.69280000  1.0 0.2501747517
C  C171  1  0.76540000  0.91470000  0.80720000  1.0 0.2501747517
C  C172  1  0.23460000  0.08530000  0.80720000  1.0 0.2501747517
C  C173  1  0.91470000  0.23460000  0.80720000  1.0 0.2501747517
C  C174  1  0.08530000  0.76540000  0.80720000  1.0 0.2501747517
C  C175  1  0.58530000  0.73460000  0.69280000  1.0 0.2501747517
C  C176  1  0.41470000  0.26540000  0.69280000  1.0 0.2501747517
C  C177  1  0.71430000  0.42870000  0.27284000  1.0 0.0259064675
C  C178  1  0.28570000  0.57130000  0.27284000  1.0 0.0259064675
C  C179  1  0.21430000  0.07130000  0.22716000  1.0 0.0259064675
C  C180  1  0.78570000  0.92870000  0.22716000  1.0 0.0245376279
C  C181  1  0.07130000  0.78570000  0.22716000  1.0 0.0259064675
C  C182  1  0.92870000  0.21430000  0.22716000  1.0 0.0259064675
C  C183  1  0.42870000  0.28570000  0.27284000  1.0 0.0259064675
C  C184  1  0.57130000  0.71430000  0.27284000  1.0 0.0259064675
C  C185  1  0.28570000  0.57130000  0.72716000  1.0 0.0259064675
C  C186  1  0.71430000  0.42870000  0.72716000  1.0 0.0259064675
C  C187  1  0.78570000  0.92870000  0.77284000  1.0 0.0259064675
C  C188  1  0.21430000  0.07130000  0.77284000  1.0 0.0259064675
C  C189  1  0.92870000  0.21430000  0.77284000  1.0 0.0259064675
C  C190  1  0.07130000  0.78570000  0.77284000  1.0 0.0259064675
C  C191  1  0.57130000  0.71430000  0.72716000  1.0 0.0259064675
C  C192  1  0.42870000  0.28570000  0.72716000  1.0 0.0259064675
C  C193  1  0.69170000  0.39040000  0.25518000  1.0 -0.1289848505
C  C194  1  0.30830000  0.60960000  0.25518000  1.0 -0.1289848505
C  C195  1  0.19170000  0.10960000  0.24482000  1.0 -0.1289848505
C  C196  1  0.80830000  0.89040000  0.24482000  1.0 -0.1289848505
C  C197  1  0.10960000  0.80830000  0.24482000  1.0 -0.1289848505
C  C198  1  0.89040000  0.19170000  0.24482000  1.0 -0.1289848505
C  C199  1  0.39040000  0.30830000  0.25518000  1.0 -0.1289848505
C  C200  1  0.60960000  0.69170000  0.25518000  1.0 -0.1289848505
C  C201  1  0.30830000  0.60960000  0.74482000  1.0 -0.1289848505
C  C202  1  0.69170000  0.39040000  0.74482000  1.0 -0.1289848505
C  C203  1  0.80830000  0.89040000  0.75518000  1.0 -0.1289848505
C  C204  1  0.19170000  0.10960000  0.75518000  1.0 -0.1289848505
C  C205  1  0.89040000  0.19170000  0.75518000  1.0 -0.1289848505
C  C206  1  0.10960000  0.80830000  0.75518000  1.0 -0.1289848505
C  C207  1  0.60960000  0.69170000  0.74482000  1.0 -0.1289848505
C  C208  1  0.39040000  0.30830000  0.74482000  1.0 -0.1289848505
C  C209  1  0.67180000  0.39861000  0.22344000  1.0 -0.0119557226
C  C210  1  0.32820000  0.60139000  0.22344000  1.0 -0.0119557226
C  C211  1  0.17180000  0.10139000  0.27656000  1.0 -0.0119557226
C  C212  1  0.82820000  0.89861000  0.27656000  1.0 -0.0119557226
C  C213  1  0.10139000  0.82820000  0.27656000  1.0 -0.0119557226
C  C214  1  0.89861000  0.17180000  0.27656000  1.0 -0.0119557226
C  C215  1  0.39861000  0.32820000  0.22344000  1.0 -0.0119557226
C  C216  1  0.60139000  0.67180000  0.22344000  1.0 -0.0119557226
C  C217  1  0.32820000  0.60139000  0.77656000  1.0 -0.0119557226
C  C218  1  0.67180000  0.39861000  0.77656000  1.0 -0.0119557226
C  C219  1  0.82820000  0.89861000  0.72344000  1.0 -0.0119557226
C  C220  1  0.17180000  0.10139000  0.72344000  1.0 -0.0119557226
C  C221  1  0.89861000  0.17180000  0.72344000  1.0 -0.0119557226
C  C222  1  0.10139000  0.82820000  0.72344000  1.0 -0.0119557226
C  C223  1  0.60139000  0.67180000  0.77656000  1.0 -0.0119557226
C  C224  1  0.39861000  0.32820000  0.77656000  1.0 -0.0119557226
C  C225  1  0.64750000  0.35675000  0.20468000  1.0 0.577697025
C  C226  1  0.35250000  0.64325000  0.20468000  1.0 0.577697025
C  C227  1  0.14750000  0.14325000  0.29532000  1.0 0.577697025
C  C228  1  0.85250000  0.85675000  0.29532000  1.0 0.577697025
C  C229  1  0.14325000  0.85250000  0.29532000  1.0 0.577697025
C  C230  1  0.85675000  0.14750000  0.29532000  1.0 0.577697025
C  C231  1  0.35675000  0.35250000  0.20468000  1.0 0.577697025
C  C232  1  0.64325000  0.64750000  0.20468000  1.0 0.577697025
C  C233  1  0.35250000  0.64325000  0.79532000  1.0 0.577697025
C  C234  1  0.64750000  0.35675000  0.79532000  1.0 0.577697025
C  C235  1  0.85250000  0.85675000  0.70468000  1.0 0.577697025
C  C236  1  0.14750000  0.14325000  0.70468000  1.0 0.577697025
C  C237  1  0.85675000  0.14750000  0.70468000  1.0 0.577697025
C  C238  1  0.14325000  0.85250000  0.70468000  1.0 0.577697025
C  C239  1  0.64325000  0.64750000  0.79532000  1.0 0.577697025
C  C240  1  0.35675000  0.35250000  0.79532000  1.0 0.577697025
C  C241  1  0.67670000  0.44550000  0.20915000  1.0 -0.116922414
C  C242  1  0.32330000  0.55450000  0.20915000  1.0 -0.116922414
C  C243  1  0.17670000  0.05450000  0.29085000  1.0 -0.116922414
C  C244  1  0.82330000  0.94550000  0.29085000  1.0 -0.116922414
C  C245  1  0.05450000  0.82330000  0.29085000  1.0 -0.116922414
C  C246  1  0.94550000  0.17670000  0.29085000  1.0 -0.116922414
C  C247  1  0.44550000  0.32330000  0.20915000  1.0 -0.116922414
C  C248  1  0.55450000  0.67670000  0.20915000  1.0 -0.116922414
C  C249  1  0.32330000  0.55450000  0.79085000  1.0 -0.116922414
C  C250  1  0.67670000  0.44550000  0.79085000  1.0 -0.116922414
C  C251  1  0.82330000  0.94550000  0.70915000  1.0 -0.116922414
C  C252  1  0.17670000  0.05450000  0.70915000  1.0 -0.116922414
C  C253  1  0.94550000  0.17670000  0.70915000  1.0 -0.116922414
C  C254  1  0.05450000  0.82330000  0.70915000  1.0 -0.116922414
C  C255  1  0.55450000  0.67670000  0.79085000  1.0 -0.116922414
C  C256  1  0.44550000  0.32330000  0.79085000  1.0 -0.116922414
C  C257  1  0.70150000  0.48310000  0.22604000  1.0 -0.0119557226
C  C258  1  0.29850000  0.51690000  0.22604000  1.0 -0.0119557226
C  C259  1  0.20150000  0.01690000  0.27396000  1.0 -0.0119557226
C  C260  1  0.79850000  0.98310000  0.27396000  1.0 -0.0119557226
C  C261  1  0.01690000  0.79850000  0.27396000  1.0 -0.0119557226
C  C262  1  0.98310000  0.20150000  0.27396000  1.0 -0.0119557226
C  C263  1  0.48310000  0.29850000  0.22604000  1.0 -0.0119557226
C  C264  1  0.51690000  0.70150000  0.22604000  1.0 -0.0119557226
C  C265  1  0.29850000  0.51690000  0.77396000  1.0 -0.0119557226
C  C266  1  0.70150000  0.48310000  0.77396000  1.0 -0.0119557226
C  C267  1  0.79850000  0.98310000  0.72604000  1.0 -0.0119557226
C  C268  1  0.20150000  0.01690000  0.72604000  1.0 -0.0119557226
C  C269  1  0.98310000  0.20150000  0.72604000  1.0 -0.0119557226
C  C270  1  0.01690000  0.79850000  0.72604000  1.0 -0.0119557226
C  C271  1  0.51690000  0.70150000  0.77396000  1.0 -0.0119557226
C  C272  1  0.48310000  0.29850000  0.77396000  1.0 -0.0119557226
C  C273  1  0.72040000  0.47490000  0.25814000  1.0 -0.116922414
C  C274  1  0.27960000  0.52510000  0.25814000  1.0 -0.116922414
C  C275  1  0.22040000  0.02510000  0.24186000  1.0 -0.116922414
C  C276  1  0.77960000  0.97490000  0.24186000  1.0 -0.116922414
C  C277  1  0.02510000  0.77960000  0.24186000  1.0 -0.116922414
C  C278  1  0.97490000  0.22040000  0.24186000  1.0 -0.116922414
C  C279  1  0.47490000  0.27960000  0.25814000  1.0 -0.116922414
C  C280  1  0.52510000  0.72040000  0.25814000  1.0 -0.116922414
C  C281  1  0.27960000  0.52510000  0.74186000  1.0 -0.116922414
C  C282  1  0.72040000  0.47490000  0.74186000  1.0 -0.116922414
C  C283  1  0.77960000  0.97490000  0.75814000  1.0 -0.116922414
C  C284  1  0.22040000  0.02510000  0.75814000  1.0 -0.116922414
C  C285  1  0.97490000  0.22040000  0.75814000  1.0 -0.116922414
C  C286  1  0.02510000  0.77960000  0.75814000  1.0 -0.116922414
C  C287  1  0.52510000  0.72040000  0.74186000  1.0 -0.116922414
C  C288  1  0.47490000  0.27960000  0.74186000  1.0 -0.116922414
C  C289  1  0.70810000  0.53233000  0.20787000  1.0 0.577697025
C  C290  1  0.29190000  0.46767000  0.20787000  1.0 0.577697025
C  C291  1  0.20810000  0.96767000  0.29213000  1.0 0.577697025
C  C292  1  0.79190000  0.03233000  0.29213000  1.0 0.577697025
C  C293  1  0.96767000  0.79190000  0.29213000  1.0 0.577697025
C  C294  1  0.03233000  0.20810000  0.29213000  1.0 0.577697025
C  C295  1  0.53233000  0.29190000  0.20787000  1.0 0.577697025
C  C296  1  0.46767000  0.70810000  0.20787000  1.0 0.577697025
C  C297  1  0.29190000  0.46767000  0.79213000  1.0 0.577697025
C  C298  1  0.70810000  0.53233000  0.79213000  1.0 0.577697025
C  C299  1  0.79190000  0.03233000  0.70787000  1.0 0.577697025
C  C300  1  0.20810000  0.96767000  0.70787000  1.0 0.577697025
C  C301  1  0.03233000  0.20810000  0.70787000  1.0 0.577697025
C  C302  1  0.96767000  0.79190000  0.70787000  1.0 0.577697025
C  C303  1  0.46767000  0.70810000  0.79213000  1.0 0.577697025
C  C304  1  0.53233000  0.29190000  0.79213000  1.0 0.577697025
C  C305  1  0.95960000  0.33960000  0.54689000  1.0 0.5710578294
C  C306  1  0.04040000  0.66040000  0.54689000  1.0 0.5710578294
C  C307  1  0.45960000  0.16040000  0.95311000  1.0 0.5710578294
C  C308  1  0.54040000  0.83960000  0.95311000  1.0 0.5710578294
C  C309  1  0.16040000  0.54040000  0.95311000  1.0 0.5710578294
C  C310  1  0.83960000  0.45960000  0.95311000  1.0 0.5710578294
C  C311  1  0.33960000  0.04040000  0.54689000  1.0 0.5710578294
C  C312  1  0.66040000  0.95960000  0.54689000  1.0 0.5710578294
C  C313  1  0.04040000  0.66040000  0.45311000  1.0 0.5710578294
C  C314  1  0.95960000  0.33960000  0.45311000  1.0 0.5710578294
C  C315  1  0.54040000  0.83960000  0.04689000  1.0 0.5710578294
C  C316  1  0.45960000  0.16040000  0.04689000  1.0 0.5710578294
C  C317  1  0.83960000  0.45960000  0.04689000  1.0 0.5710578294
C  C318  1  0.16040000  0.54040000  0.04689000  1.0 0.5710578294
C  C319  1  0.66040000  0.95960000  0.45311000  1.0 0.5710578294
C  C320  1  0.33960000  0.04040000  0.45311000  1.0 0.5710578294
C  C321  1  0.99110000  0.35170000  0.57810000  1.0 0.0035690506
C  C322  1  0.00890000  0.64830000  0.57810000  1.0 0.0035690506
C  C323  1  0.49110000  0.14830000  0.92190000  1.0 0.0035690506
C  C324  1  0.50890000  0.85170000  0.92190000  1.0 0.0035690506
C  C325  1  0.14830000  0.50890000  0.92190000  1.0 0.0035690506
C  C326  1  0.85170000  0.49110000  0.92190000  1.0 0.0035690506
C  C327  1  0.35170000  0.00890000  0.57810000  1.0 0.0035690506
C  C328  1  0.64830000  0.99110000  0.57810000  1.0 0.0035690506
C  C329  1  0.00890000  0.64830000  0.42190000  1.0 0.0035690506
C  C330  1  0.99110000  0.35170000  0.42190000  1.0 0.0035690506
C  C331  1  0.50890000  0.85170000  0.07810000  1.0 0.0035690506
C  C332  1  0.49110000  0.14830000  0.07810000  1.0 0.0035690506
C  C333  1  0.85170000  0.49110000  0.07810000  1.0 0.0035690506
C  C334  1  0.14830000  0.50890000  0.07810000  1.0 0.0035690506
C  C335  1  0.64830000  0.99110000  0.42190000  1.0 0.0035690506
C  C336  1  0.35170000  0.00890000  0.42190000  1.0 0.0035690506
C  C337  1  0.01720000  0.31430000  0.59456000  1.0 -0.1108732453
C  C338  1  0.98280000  0.68570000  0.59456000  1.0 -0.1108732453
C  C339  1  0.51720000  0.18570000  0.90544000  1.0 -0.1108732453
C  C340  1  0.48280000  0.81430000  0.90544000  1.0 -0.1108732453
C  C341  1  0.18570000  0.48280000  0.90544000  1.0 -0.1108732453
C  C342  1  0.81430000  0.51720000  0.90544000  1.0 -0.1108732453
C  C343  1  0.31430000  0.98280000  0.59456000  1.0 -0.1108732453
C  C344  1  0.68570000  0.01720000  0.59456000  1.0 -0.1108732453
C  C345  1  0.98280000  0.68570000  0.40544000  1.0 -0.1108732453
C  C346  1  0.01720000  0.31430000  0.40544000  1.0 -0.1108732453
C  C347  1  0.48280000  0.81430000  0.09456000  1.0 -0.1108732453
C  C348  1  0.51720000  0.18570000  0.09456000  1.0 -0.1108732453
C  C349  1  0.81430000  0.51720000  0.09456000  1.0 -0.1108732453
C  C350  1  0.18570000  0.48280000  0.09456000  1.0 -0.1108732453
C  C351  1  0.68570000  0.01720000  0.40544000  1.0 -0.1108732453
C  C352  1  0.31430000  0.98280000  0.40544000  1.0 -0.1108732453
C  C353  1  0.98850000  0.39830000  0.59064000  1.0 -0.1604444689
C  C354  1  0.01150000  0.60170000  0.59064000  1.0 -0.1604444689
C  C355  1  0.48850000  0.10170000  0.90936000  1.0 -0.1604444689
C  C356  1  0.51150000  0.89830000  0.90936000  1.0 -0.1604444689
C  C357  1  0.10170000  0.51150000  0.90936000  1.0 -0.1604444689
C  C358  1  0.89830000  0.48850000  0.90936000  1.0 -0.1604444689
C  C359  1  0.39830000  0.01150000  0.59064000  1.0 -0.1604444689
C  C360  1  0.60170000  0.98850000  0.59064000  1.0 -0.1604444689
C  C361  1  0.01150000  0.60170000  0.40936000  1.0 -0.1604444689
C  C362  1  0.98850000  0.39830000  0.40936000  1.0 -0.1604444689
C  C363  1  0.51150000  0.89830000  0.09064000  1.0 -0.1604444689
C  C364  1  0.48850000  0.10170000  0.09064000  1.0 -0.1604444689
C  C365  1  0.89830000  0.48850000  0.09064000  1.0 -0.1604444689
C  C366  1  0.10170000  0.51150000  0.09064000  1.0 -0.1604444689
C  C367  1  0.60170000  0.98850000  0.40936000  1.0 -0.1604444689
C  C368  1  0.39830000  0.01150000  0.40936000  1.0 -0.1604444689
C  C369  1  0.01210000  0.40990000  0.62094000  1.0 0.0097455782
C  C370  1  0.98790000  0.59010000  0.62094000  1.0 0.0097455782
C  C371  1  0.51210000  0.09010000  0.87906000  1.0 0.0097455782
C  C372  1  0.48790000  0.90990000  0.87906000  1.0 0.0097455782
C  C373  1  0.09010000  0.48790000  0.87906000  1.0 0.0097455782
C  C374  1  0.90990000  0.51210000  0.87906000  1.0 0.0097455782
C  C375  1  0.40990000  0.98790000  0.62094000  1.0 0.0097455782
C  C376  1  0.59010000  0.01210000  0.62094000  1.0 0.0097455782
C  C377  1  0.98790000  0.59010000  0.37906000  1.0 0.0097455782
C  C378  1  0.01210000  0.40990000  0.37906000  1.0 0.0097455782
C  C379  1  0.48790000  0.90990000  0.12094000  1.0 0.0097455782
C  C380  1  0.51210000  0.09010000  0.12094000  1.0 0.0097455782
C  C381  1  0.90990000  0.51210000  0.12094000  1.0 0.0097455782
C  C382  1  0.09010000  0.48790000  0.12094000  1.0 0.0097455782
C  C383  1  0.59010000  0.01210000  0.37906000  1.0 0.0097455782
C  C384  1  0.40990000  0.98790000  0.37906000  1.0 0.0097455782
C  C385  1  0.03960000  0.37280000  0.63820000  1.0 -0.116922414
C  C386  1  0.96040000  0.62720000  0.63820000  1.0 -0.116922414
C  C387  1  0.53960000  0.12720000  0.86180000  1.0 -0.116922414
C  C388  1  0.46040000  0.87280000  0.86180000  1.0 -0.116922414
C  C389  1  0.12720000  0.46040000  0.86180000  1.0 -0.116922414
C  C390  1  0.87280000  0.53960000  0.86180000  1.0 -0.116922414
C  C391  1  0.37280000  0.96040000  0.63820000  1.0 -0.116922414
C  C392  1  0.62720000  0.03960000  0.63820000  1.0 -0.116922414
C  C393  1  0.96040000  0.62720000  0.36180000  1.0 -0.116922414
C  C394  1  0.03960000  0.37280000  0.36180000  1.0 -0.116922414
C  C395  1  0.46040000  0.87280000  0.13820000  1.0 -0.116922414
C  C396  1  0.53960000  0.12720000  0.13820000  1.0 -0.116922414
C  C397  1  0.87280000  0.53960000  0.13820000  1.0 -0.116922414
C  C398  1  0.12720000  0.46040000  0.13820000  1.0 -0.116922414
C  C399  1  0.62720000  0.03960000  0.36180000  1.0 -0.116922414
C  C400  1  0.37280000  0.96040000  0.36180000  1.0 -0.116922414
C  C401  1  0.04230000  0.32610000  0.62456000  1.0 -0.0119557226
C  C402  1  0.95770000  0.67390000  0.62456000  1.0 -0.0119557226
C  C403  1  0.54230000  0.17390000  0.87544000  1.0 -0.0119557226
C  C404  1  0.45770000  0.82610000  0.87544000  1.0 -0.0119557226
C  C405  1  0.17390000  0.45770000  0.87544000  1.0 -0.0119557226
C  C406  1  0.82610000  0.54230000  0.87544000  1.0 -0.0119557226
C  C407  1  0.32610000  0.95770000  0.62456000  1.0 -0.0119557226
C  C408  1  0.67390000  0.04230000  0.62456000  1.0 -0.0119557226
C  C409  1  0.95770000  0.67390000  0.37544000  1.0 -0.0119557226
C  C410  1  0.04230000  0.32610000  0.37544000  1.0 -0.0119557226
C  C411  1  0.45770000  0.82610000  0.12456000  1.0 -0.0119557226
C  C412  1  0.54230000  0.17390000  0.12456000  1.0 -0.0119557226
C  C413  1  0.82610000  0.54230000  0.12456000  1.0 -0.0119557226
C  C414  1  0.17390000  0.45770000  0.12456000  1.0 -0.0119557226
C  C415  1  0.67390000  0.04230000  0.37544000  1.0 -0.0119557226
C  C416  1  0.32610000  0.95770000  0.37544000  1.0 -0.0119557226
C  C417  1  0.07100000  0.28630000  0.64279000  1.0 0.5710578294
C  C418  1  0.92900000  0.71370000  0.64279000  1.0 0.5710578294
C  C419  1  0.57100000  0.21370000  0.85721000  1.0 0.5710578294
C  C420  1  0.42900000  0.78630000  0.85721000  1.0 0.5710578294
C  C421  1  0.21370000  0.42900000  0.85721000  1.0 0.5710578294
C  C422  1  0.78630000  0.57100000  0.85721000  1.0 0.5710578294
C  C423  1  0.28630000  0.92900000  0.64279000  1.0 0.5710578294
C  C424  1  0.71370000  0.07100000  0.64279000  1.0 0.5710578294
C  C425  1  0.92900000  0.71370000  0.35721000  1.0 0.5710578294
C  C426  1  0.07100000  0.28630000  0.35721000  1.0 0.5710578294
C  C427  1  0.42900000  0.78630000  0.14279000  1.0 0.5710578294
C  C428  1  0.57100000  0.21370000  0.14279000  1.0 0.5710578294
C  C429  1  0.78630000  0.57100000  0.14279000  1.0 0.5710578294
C  C430  1  0.21370000  0.42900000  0.14279000  1.0 0.5710578294
C  C431  1  0.71370000  0.07100000  0.35721000  1.0 0.5710578294
C  C432  1  0.28630000  0.92900000  0.35721000  1.0 0.5710578294
C  C433  1  0.00650000  0.46070000  0.63346000  1.0 0.2501747517
C  C434  1  0.99350000  0.53930000  0.63346000  1.0 0.2501747517
C  C435  1  0.50650000  0.03930000  0.86654000  1.0 0.2501747517
C  C436  1  0.49350000  0.96070000  0.86654000  1.0 0.2501747517
C  C437  1  0.03930000  0.49350000  0.86654000  1.0 0.2501747517
C  C438  1  0.96070000  0.50650000  0.86654000  1.0 0.2501747517
C  C439  1  0.46070000  0.99350000  0.63346000  1.0 0.2501747517
C  C440  1  0.53930000  0.00650000  0.63346000  1.0 0.2501747517
C  C441  1  0.99350000  0.53930000  0.36654000  1.0 0.2501747517
C  C442  1  0.00650000  0.46070000  0.36654000  1.0 0.2501747517
C  C443  1  0.49350000  0.96070000  0.13346000  1.0 0.2501747517
C  C444  1  0.50650000  0.03930000  0.13346000  1.0 0.2501747517
C  C445  1  0.96070000  0.50650000  0.13346000  1.0 0.2501747517
C  C446  1  0.03930000  0.49350000  0.13346000  1.0 0.2501747517
C  C447  1  0.53930000  0.00650000  0.36654000  1.0 0.2501747517
C  C448  1  0.46070000  0.99350000  0.36654000  1.0 0.2501747517
N  N1  1  0.76430000  0.42040000  0.35924000  1.0 -0.297466817
N  N2  1  0.23570000  0.57960000  0.35924000  1.0 -0.297466817
N  N3  1  0.26430000  0.07960000  0.14076000  1.0 -0.297466817
N  N4  1  0.73570000  0.92040000  0.14076000  1.0 -0.297466817
N  N5  1  0.07960000  0.73570000  0.14076000  1.0 -0.297466817
N  N6  1  0.92040000  0.26430000  0.14076000  1.0 -0.297466817
N  N7  1  0.42040000  0.23570000  0.35924000  1.0 -0.297466817
N  N8  1  0.57960000  0.76430000  0.35924000  1.0 -0.297466817
N  N9  1  0.23570000  0.57960000  0.64076000  1.0 -0.297466817
N  N10  1  0.76430000  0.42040000  0.64076000  1.0 -0.297466817
N  N11  1  0.73570000  0.92040000  0.85924000  1.0 -0.297466817
N  N12  1  0.26430000  0.07960000  0.85924000  1.0 -0.297466817
N  N13  1  0.92040000  0.26430000  0.85924000  1.0 -0.297466817
N  N14  1  0.07960000  0.73570000  0.85924000  1.0 -0.297466817
N  N15  1  0.57960000  0.76430000  0.64076000  1.0 -0.297466817
N  N16  1  0.42040000  0.23570000  0.64076000  1.0 -0.297466817
N  N17  1  0.74770000  0.44770000  0.33113000  1.0 -0.1786607314
N  N18  1  0.25230000  0.55230000  0.33113000  1.0 -0.1786607314
N  N19  1  0.24770000  0.05230000  0.16887000  1.0 -0.1786607314
N  N20  1  0.75230000  0.94770000  0.16887000  1.0 -0.1786607314
N  N21  1  0.05230000  0.75230000  0.16887000  1.0 -0.1786607314
N  N22  1  0.94770000  0.24770000  0.16887000  1.0 -0.1786607314
N  N23  1  0.44770000  0.25230000  0.33113000  1.0 -0.1786607314
N  N24  1  0.55230000  0.74770000  0.33113000  1.0 -0.1786607314
N  N25  1  0.25230000  0.55230000  0.66887000  1.0 -0.1786607314
N  N26  1  0.74770000  0.44770000  0.66887000  1.0 -0.1786607314
N  N27  1  0.75230000  0.94770000  0.83113000  1.0 -0.1786607314
N  N28  1  0.24770000  0.05230000  0.83113000  1.0 -0.1786607314
N  N29  1  0.94770000  0.24770000  0.83113000  1.0 -0.1786607314
N  N30  1  0.05230000  0.75230000  0.83113000  1.0 -0.1786607314
N  N31  1  0.55230000  0.74770000  0.66887000  1.0 -0.1786607314
N  N32  1  0.44770000  0.25230000  0.66887000  1.0 -0.1786607314
N  N33  1  0.74030000  0.36848000  0.31755000  1.0 -0.3614897032
N  N34  1  0.25970000  0.63152000  0.31755000  1.0 -0.3614897032
N  N35  1  0.24030000  0.13152000  0.18245000  1.0 -0.3614897032
N  N36  1  0.75970000  0.86848000  0.18245000  1.0 -0.3614897032
N  N37  1  0.13152000  0.75970000  0.18245000  1.0 -0.3614897032
N  N38  1  0.86848000  0.24030000  0.18245000  1.0 -0.3614897032
N  N39  1  0.36848000  0.25970000  0.31755000  1.0 -0.3614897032
N  N40  1  0.63152000  0.74030000  0.31755000  1.0 -0.3614897032
N  N41  1  0.25970000  0.63152000  0.68245000  1.0 -0.3614897032
N  N42  1  0.74030000  0.36848000  0.68245000  1.0 -0.3614897032
N  N43  1  0.75970000  0.86848000  0.81755000  1.0 -0.3614897032
N  N44  1  0.24030000  0.13152000  0.81755000  1.0 -0.3614897032
N  N45  1  0.86848000  0.24030000  0.81755000  1.0 -0.3614897032
N  N46  1  0.13152000  0.75970000  0.81755000  1.0 -0.3614897032
N  N47  1  0.63152000  0.74030000  0.68245000  1.0 -0.3614897032
N  N48  1  0.36848000  0.25970000  0.68245000  1.0 -0.3614897032
N  N49  1  0.00000000  0.50000000  0.61304000  1.0 -0.3614897032
N  N50  1  0.50000000  0.00000000  0.88696000  1.0 -0.3614897032
N  N51  1  0.00000000  0.50000000  0.88696000  1.0 -0.3614897032
N  N52  1  0.50000000  0.00000000  0.61304000  1.0 -0.3614897032
N  N53  1  0.00000000  0.50000000  0.38696000  1.0 -0.3614897032
N  N54  1  0.50000000  0.00000000  0.11304000  1.0 -0.3614897032
N  N55  1  0.00000000  0.50000000  0.11304000  1.0 -0.3614897032
N  N56  1  0.50000000  0.00000000  0.38696000  1.0 -0.3614897032
N  N57  1  0.00580000  0.47580000  0.66568000  1.0 -0.2239515751
N  N58  1  0.99420000  0.52420000  0.66568000  1.0 -0.2239515751
N  N59  1  0.50580000  0.02420000  0.83432000  1.0 -0.2261566276
N  N60  1  0.49420000  0.97580000  0.83432000  1.0 -0.2239515751
N  N61  1  0.02420000  0.49420000  0.83432000  1.0 -0.2239515751
N  N62  1  0.97580000  0.50580000  0.83432000  1.0 -0.2261566276
N  N63  1  0.47580000  0.99420000  0.66568000  1.0 -0.2239515751
N  N64  1  0.52420000  0.00580000  0.66568000  1.0 -0.2261566276
N  N65  1  0.99420000  0.52420000  0.33432000  1.0 -0.2239515751
N  N66  1  0.00580000  0.47580000  0.33432000  1.0 -0.2239515751
N  N67  1  0.49420000  0.97580000  0.16568000  1.0 -0.2239515751
N  N68  1  0.50580000  0.02420000  0.16568000  1.0 -0.2261566276
N  N69  1  0.97580000  0.50580000  0.16568000  1.0 -0.2239515751
N  N70  1  0.02420000  0.49420000  0.16568000  1.0 -0.2239515751
N  N71  1  0.52420000  0.00580000  0.33432000  1.0 -0.2261566276
N  N72  1  0.47580000  0.99420000  0.33432000  1.0 -0.2239515751
O  O1  1  0.83941000  0.34784000  0.46413000  1.0 -0.5028887653
O  O2  1  0.16059000  0.65216000  0.46413000  1.0 -0.5028887653
O  O3  1  0.33941000  0.15216000  0.03587000  1.0 -0.5028887653
O  O4  1  0.66059000  0.84784000  0.03587000  1.0 -0.5028887653
O  O5  1  0.15216000  0.66059000  0.03587000  1.0 -0.5028887653
O  O6  1  0.84784000  0.33941000  0.03587000  1.0 -0.5028887653
O  O7  1  0.34784000  0.16059000  0.46413000  1.0 -0.5028887653
O  O8  1  0.65216000  0.83941000  0.46413000  1.0 -0.5028887653
O  O9  1  0.16059000  0.65216000  0.53587000  1.0 -0.5028887653
O  O10  1  0.83941000  0.34784000  0.53587000  1.0 -0.5028887653
O  O11  1  0.66059000  0.84784000  0.96413000  1.0 -0.5028887653
O  O12  1  0.33941000  0.15216000  0.96413000  1.0 -0.5028887653
O  O13  1  0.84784000  0.33941000  0.96413000  1.0 -0.5028887653
O  O14  1  0.15216000  0.66059000  0.96413000  1.0 -0.5028887653
O  O15  1  0.65216000  0.83941000  0.53587000  1.0 -0.5028887653
O  O16  1  0.34784000  0.16059000  0.53587000  1.0 -0.5028887653
O  O17  1  0.86262000  0.26849000  0.46440000  1.0 -0.5310851337
O  O18  1  0.13738000  0.73151000  0.46440000  1.0 -0.5310851337
O  O19  1  0.36262000  0.23151000  0.03560000  1.0 -0.5310851337
O  O20  1  0.63738000  0.76849000  0.03560000  1.0 -0.5310851337
O  O21  1  0.23151000  0.63738000  0.03560000  1.0 -0.5310851337
O  O22  1  0.76849000  0.36262000  0.03560000  1.0 -0.5310851337
O  O23  1  0.26849000  0.13738000  0.46440000  1.0 -0.5310851337
O  O24  1  0.73151000  0.86262000  0.46440000  1.0 -0.5310851337
O  O25  1  0.13738000  0.73151000  0.53560000  1.0 -0.5310851337
O  O26  1  0.86262000  0.26849000  0.53560000  1.0 -0.5310851337
O  O27  1  0.63738000  0.76849000  0.96440000  1.0 -0.5310851337
O  O28  1  0.36262000  0.23151000  0.96440000  1.0 -0.5310851337
O  O29  1  0.76849000  0.36262000  0.96440000  1.0 -0.5310851337
O  O30  1  0.23151000  0.63738000  0.96440000  1.0 -0.5310851337
O  O31  1  0.73151000  0.86262000  0.53560000  1.0 -0.5310851337
O  O32  1  0.26849000  0.13738000  0.53560000  1.0 -0.5310851337
O  O33  1  0.80505000  0.15763000  0.37356000  1.0 -0.5310851337
O  O34  1  0.19495000  0.84237000  0.37356000  1.0 -0.5310851337
O  O35  1  0.30505000  0.34237000  0.12644000  1.0 -0.5310851337
O  O36  1  0.69495000  0.65763000  0.12644000  1.0 -0.5310851337
O  O37  1  0.34237000  0.69495000  0.12644000  1.0 -0.5310851337
O  O38  1  0.65763000  0.30505000  0.12644000  1.0 -0.5310851337
O  O39  1  0.15763000  0.19495000  0.37356000  1.0 -0.5310851337
O  O40  1  0.84237000  0.80505000  0.37356000  1.0 -0.5310851337
O  O41  1  0.19495000  0.84237000  0.62644000  1.0 -0.5310851337
O  O42  1  0.80505000  0.15763000  0.62644000  1.0 -0.5310851337
O  O43  1  0.69495000  0.65763000  0.87356000  1.0 -0.5310851337
O  O44  1  0.30505000  0.34237000  0.87356000  1.0 -0.5310851337
O  O45  1  0.65763000  0.30505000  0.87356000  1.0 -0.5310851337
O  O46  1  0.34237000  0.69495000  0.87356000  1.0 -0.5310851337
O  O47  1  0.84237000  0.80505000  0.62644000  1.0 -0.5310851337
O  O48  1  0.15763000  0.19495000  0.62644000  1.0 -0.5310851337
O  O49  1  0.75593000  0.18680000  0.33266000  1.0 -0.5310851337
O  O50  1  0.24407000  0.81320000  0.33266000  1.0 -0.5310851337
O  O51  1  0.25593000  0.31320000  0.16734000  1.0 -0.5310851337
O  O52  1  0.74407000  0.68680000  0.16734000  1.0 -0.5310851337
O  O53  1  0.31320000  0.74407000  0.16734000  1.0 -0.5310851337
O  O54  1  0.68680000  0.25593000  0.16734000  1.0 -0.5310851337
O  O55  1  0.18680000  0.24407000  0.33266000  1.0 -0.5310851337
O  O56  1  0.81320000  0.75593000  0.33266000  1.0 -0.5310851337
O  O57  1  0.24407000  0.81320000  0.66734000  1.0 -0.5310851337
O  O58  1  0.75593000  0.18680000  0.66734000  1.0 -0.5310851337
O  O59  1  0.74407000  0.68680000  0.83266000  1.0 -0.5310851337
O  O60  1  0.25593000  0.31320000  0.83266000  1.0 -0.5310851337
O  O61  1  0.68680000  0.25593000  0.83266000  1.0 -0.5310851337
O  O62  1  0.31320000  0.74407000  0.83266000  1.0 -0.5310851337
O  O63  1  0.81320000  0.75593000  0.66734000  1.0 -0.5310851337
O  O64  1  0.18680000  0.24407000  0.66734000  1.0 -0.5310851337
O  O65  1  0.65035000  0.31502000  0.21810000  1.0 -0.5214103435
O  O66  1  0.34965000  0.68498000  0.21810000  1.0 -0.5214103435
O  O67  1  0.15035000  0.18498000  0.28190000  1.0 -0.5214103435
O  O68  1  0.84965000  0.81502000  0.28190000  1.0 -0.5214103435
O  O69  1  0.18498000  0.84965000  0.28190000  1.0 -0.5214103435
O  O70  1  0.81502000  0.15035000  0.28190000  1.0 -0.5214103435
O  O71  1  0.31502000  0.34965000  0.21810000  1.0 -0.5214103435
O  O72  1  0.68498000  0.65035000  0.21810000  1.0 -0.5214103435
O  O73  1  0.34965000  0.68498000  0.78190000  1.0 -0.5214103435
O  O74  1  0.65035000  0.31502000  0.78190000  1.0 -0.5214103435
O  O75  1  0.84965000  0.81502000  0.71810000  1.0 -0.5214103435
O  O76  1  0.15035000  0.18498000  0.71810000  1.0 -0.5214103435
O  O77  1  0.81502000  0.15035000  0.71810000  1.0 -0.5214103435
O  O78  1  0.18498000  0.84965000  0.71810000  1.0 -0.5214103435
O  O79  1  0.68498000  0.65035000  0.78190000  1.0 -0.5214103435
O  O80  1  0.31502000  0.34965000  0.78190000  1.0 -0.5214103435
O  O81  1  0.62711000  0.36704000  0.17701000  1.0 -0.5214103435
O  O82  1  0.37289000  0.63296000  0.17701000  1.0 -0.5214103435
O  O83  1  0.12711000  0.13296000  0.32299000  1.0 -0.5214103435
O  O84  1  0.87289000  0.86704000  0.32299000  1.0 -0.5214103435
O  O85  1  0.13296000  0.87289000  0.32299000  1.0 -0.5214103435
O  O86  1  0.86704000  0.12711000  0.32299000  1.0 -0.5214103435
O  O87  1  0.36704000  0.37289000  0.17701000  1.0 -0.5214103435
O  O88  1  0.63296000  0.62711000  0.17701000  1.0 -0.5214103435
O  O89  1  0.37289000  0.63296000  0.82299000  1.0 -0.5214103435
O  O90  1  0.62711000  0.36704000  0.82299000  1.0 -0.5214103435
O  O91  1  0.87289000  0.86704000  0.67701000  1.0 -0.5214103435
O  O92  1  0.12711000  0.13296000  0.67701000  1.0 -0.5214103435
O  O93  1  0.86704000  0.12711000  0.67701000  1.0 -0.5214103435
O  O94  1  0.13296000  0.87289000  0.67701000  1.0 -0.5214103435
O  O95  1  0.63296000  0.62711000  0.82299000  1.0 -0.5214103435
O  O96  1  0.36704000  0.37289000  0.82299000  1.0 -0.5214103435
O  O97  1  0.73740000  0.56318000  0.22089000  1.0 -0.5028887653
O  O98  1  0.26260000  0.43682000  0.22089000  1.0 -0.5028887653
O  O99  1  0.23740000  0.93682000  0.27911000  1.0 -0.5028887653
O  O100  1  0.76260000  0.06318000  0.27911000  1.0 -0.5028887653
O  O101  1  0.93682000  0.76260000  0.27911000  1.0 -0.5028887653
O  O102  1  0.06318000  0.23740000  0.27911000  1.0 -0.5028887653
O  O103  1  0.56318000  0.26260000  0.22089000  1.0 -0.5028887653
O  O104  1  0.43682000  0.73740000  0.22089000  1.0 -0.5028887653
O  O105  1  0.26260000  0.43682000  0.77911000  1.0 -0.5028887653
O  O106  1  0.73740000  0.56318000  0.77911000  1.0 -0.5028887653
O  O107  1  0.76260000  0.06318000  0.72089000  1.0 -0.5028887653
O  O108  1  0.23740000  0.93682000  0.72089000  1.0 -0.5028887653
O  O109  1  0.06318000  0.23740000  0.72089000  1.0 -0.5028887653
O  O110  1  0.93682000  0.76260000  0.72089000  1.0 -0.5028887653
O  O111  1  0.43682000  0.73740000  0.77911000  1.0 -0.5028887653
O  O112  1  0.56318000  0.26260000  0.77911000  1.0 -0.5028887653
O  O113  1  0.68234000  0.53863000  0.18193000  1.0 -0.5310851337
O  O114  1  0.31766000  0.46137000  0.18193000  1.0 -0.5310851337
O  O115  1  0.18234000  0.96137000  0.31807000  1.0 -0.5310851337
O  O116  1  0.81766000  0.03863000  0.31807000  1.0 -0.5310851337
O  O117  1  0.96137000  0.81766000  0.31807000  1.0 -0.5310851337
O  O118  1  0.03863000  0.18234000  0.31807000  1.0 -0.5310851337
O  O119  1  0.53863000  0.31766000  0.18193000  1.0 -0.5310851337
O  O120  1  0.46137000  0.68234000  0.18193000  1.0 -0.5310851337
O  O121  1  0.31766000  0.46137000  0.81807000  1.0 -0.5310851337
O  O122  1  0.68234000  0.53863000  0.81807000  1.0 -0.5310851337
O  O123  1  0.81766000  0.03863000  0.68193000  1.0 -0.5310851337
O  O124  1  0.18234000  0.96137000  0.68193000  1.0 -0.5310851337
O  O125  1  0.03863000  0.18234000  0.68193000  1.0 -0.5310851337
O  O126  1  0.96137000  0.81766000  0.68193000  1.0 -0.5310851337
O  O127  1  0.46137000  0.68234000  0.81807000  1.0 -0.5310851337
O  O128  1  0.53863000  0.31766000  0.81807000  1.0 -0.5310851337
O  O129  1  0.93651000  0.37513000  0.53492000  1.0 -0.5028887653
O  O130  1  0.06349000  0.62487000  0.53492000  1.0 -0.5028887653
O  O131  1  0.43651000  0.12487000  0.96508000  1.0 -0.5028887653
O  O132  1  0.56349000  0.87513000  0.96508000  1.0 -0.5028887653
O  O133  1  0.12487000  0.56349000  0.96508000  1.0 -0.5028887653
O  O134  1  0.87513000  0.43651000  0.96508000  1.0 -0.5028887653
O  O135  1  0.37513000  0.06349000  0.53492000  1.0 -0.5028887653
O  O136  1  0.62487000  0.93651000  0.53492000  1.0 -0.5028887653
O  O137  1  0.06349000  0.62487000  0.46508000  1.0 -0.5028887653
O  O138  1  0.93651000  0.37513000  0.46508000  1.0 -0.5028887653
O  O139  1  0.56349000  0.87513000  0.03492000  1.0 -0.5028887653
O  O140  1  0.43651000  0.12487000  0.03492000  1.0 -0.5028887653
O  O141  1  0.87513000  0.43651000  0.03492000  1.0 -0.5028887653
O  O142  1  0.12487000  0.56349000  0.03492000  1.0 -0.5028887653
O  O143  1  0.62487000  0.93651000  0.46508000  1.0 -0.5028887653
O  O144  1  0.37513000  0.06349000  0.46508000  1.0 -0.5028887653
O  O145  1  0.96042000  0.29577000  0.53603000  1.0 -0.5214103435
O  O146  1  0.03958000  0.70423000  0.53603000  1.0 -0.5214103435
O  O147  1  0.46042000  0.20423000  0.96397000  1.0 -0.5214103435
O  O148  1  0.53958000  0.79577000  0.96397000  1.0 -0.5214103435
O  O149  1  0.20423000  0.53958000  0.96397000  1.0 -0.5214103435
O  O150  1  0.79577000  0.46042000  0.96397000  1.0 -0.5214103435
O  O151  1  0.29577000  0.03958000  0.53603000  1.0 -0.5214103435
O  O152  1  0.70423000  0.96042000  0.53603000  1.0 -0.5214103435
O  O153  1  0.03958000  0.70423000  0.46397000  1.0 -0.5214103435
O  O154  1  0.96042000  0.29577000  0.46397000  1.0 -0.5214103435
O  O155  1  0.53958000  0.79577000  0.03603000  1.0 -0.5214103435
O  O156  1  0.46042000  0.20423000  0.03603000  1.0 -0.5214103435
O  O157  1  0.79577000  0.46042000  0.03603000  1.0 -0.5214103435
O  O158  1  0.20423000  0.53958000  0.03603000  1.0 -0.5214103435
O  O159  1  0.70423000  0.96042000  0.46397000  1.0 -0.5214103435
O  O160  1  0.29577000  0.03958000  0.46397000  1.0 -0.5214103435
O  O161  1  0.09541000  0.29825000  0.66846000  1.0 -0.5028887653
O  O162  1  0.90459000  0.70175000  0.66846000  1.0 -0.5028887653
O  O163  1  0.59541000  0.20175000  0.83154000  1.0 -0.5028887653
O  O164  1  0.40459000  0.79825000  0.83154000  1.0 -0.5028887653
O  O165  1  0.20175000  0.40459000  0.83154000  1.0 -0.5028887653
O  O166  1  0.79825000  0.59541000  0.83154000  1.0 -0.5028887653
O  O167  1  0.29825000  0.90459000  0.66846000  1.0 -0.5028887653
O  O168  1  0.70175000  0.09541000  0.66846000  1.0 -0.5028887653
O  O169  1  0.90459000  0.70175000  0.33154000  1.0 -0.5028887653
O  O170  1  0.09541000  0.29825000  0.33154000  1.0 -0.5028887653
O  O171  1  0.40459000  0.79825000  0.16846000  1.0 -0.5028887653
O  O172  1  0.59541000  0.20175000  0.16846000  1.0 -0.5028887653
O  O173  1  0.79825000  0.59541000  0.16846000  1.0 -0.5028887653
O  O174  1  0.20175000  0.40459000  0.16846000  1.0 -0.5028887653
O  O175  1  0.70175000  0.09541000  0.33154000  1.0 -0.5028887653
O  O176  1  0.29825000  0.90459000  0.33154000  1.0 -0.5028887653
O  O177  1  0.06673000  0.24345000  0.63004000  1.0 -0.547908167
O  O178  1  0.93327000  0.75655000  0.63004000  1.0 -0.547908167
O  O179  1  0.56673000  0.25655000  0.86996000  1.0 -0.547908167
O  O180  1  0.43327000  0.74345000  0.86996000  1.0 -0.547908167
O  O181  1  0.25655000  0.43327000  0.86996000  1.0 -0.547908167
O  O182  1  0.74345000  0.56673000  0.86996000  1.0 -0.547908167
O  O183  1  0.24345000  0.93327000  0.63004000  1.0 -0.547908167
O  O184  1  0.75655000  0.06673000  0.63004000  1.0 -0.547908167
O  O185  1  0.93327000  0.75655000  0.36996000  1.0 -0.547908167
O  O186  1  0.06673000  0.24345000  0.36996000  1.0 -0.547908167
O  O187  1  0.43327000  0.74345000  0.13004000  1.0 -0.547908167
O  O188  1  0.56673000  0.25655000  0.13004000  1.0 -0.547908167
O  O189  1  0.74345000  0.56673000  0.13004000  1.0 -0.547908167
O  O190  1  0.25655000  0.43327000  0.13004000  1.0 -0.547908167
O  O191  1  0.75655000  0.06673000  0.36996000  1.0 -0.547908167
O  O192  1  0.24345000  0.93327000  0.36996000  1.0 -0.547908167
O  O193  1  0.70018000  0.15615000  0.26750000  1.0 -0.5310851337
O  O194  1  0.29982000  0.84385000  0.26750000  1.0 -0.5310851337
O  O195  1  0.20018000  0.34385000  0.23250000  1.0 -0.5310851337
O  O196  1  0.79982000  0.65615000  0.23250000  1.0 -0.5310851337
O  O197  1  0.34385000  0.79982000  0.23250000  1.0 -0.5310851337
O  O198  1  0.65615000  0.20018000  0.23250000  1.0 -0.5310851337
O  O199  1  0.15615000  0.29982000  0.26750000  1.0 -0.5310851337
O  O200  1  0.84385000  0.70018000  0.26750000  1.0 -0.5310851337
O  O201  1  0.29982000  0.84385000  0.73250000  1.0 -0.5310851337
O  O202  1  0.70018000  0.15615000  0.73250000  1.0 -0.5310851337
O  O203  1  0.79982000  0.65615000  0.76750000  1.0 -0.5310851337
O  O204  1  0.20018000  0.34385000  0.76750000  1.0 -0.5310851337
O  O205  1  0.65615000  0.20018000  0.76750000  1.0 -0.5310851337
O  O206  1  0.34385000  0.79982000  0.76750000  1.0 -0.5310851337
O  O207  1  0.84385000  0.70018000  0.73250000  1.0 -0.5310851337
O  O208  1  0.15615000  0.29982000  0.73250000  1.0 -0.5310851337
O  O209  1  0.86590000  0.06040000  0.38617000  1.0 -0.7487724001
O  O210  1  0.13410000  0.93960000  0.38617000  1.0 -0.7487724001
O  O211  1  0.36590000  0.43960000  0.11383000  1.0 -0.7487724001
O  O212  1  0.63410000  0.56040000  0.11383000  1.0 -0.7487724001
O  O213  1  0.43960000  0.63410000  0.11383000  1.0 -0.7487724001
O  O214  1  0.56040000  0.36590000  0.11383000  1.0 -0.7487724001
O  O215  1  0.06040000  0.13410000  0.38617000  1.0 -0.7487724001
O  O216  1  0.93960000  0.86590000  0.38617000  1.0 -0.7487724001
O  O217  1  0.13410000  0.93960000  0.61383000  1.0 -0.7487724001
O  O218  1  0.86590000  0.06040000  0.61383000  1.0 -0.7487724001
O  O219  1  0.63410000  0.56040000  0.88617000  1.0 -0.7487724001
O  O220  1  0.36590000  0.43960000  0.88617000  1.0 -0.7487724001
O  O221  1  0.56040000  0.36590000  0.88617000  1.0 -0.7487724001
O  O222  1  0.43960000  0.63410000  0.88617000  1.0 -0.7487724001
O  O223  1  0.93960000  0.86590000  0.61383000  1.0 -0.7487724001
O  O224  1  0.06040000  0.13410000  0.61383000  1.0 -0.7487724001
O  O225  1  0.93390000  0.19690000  0.50000000  1.0 -0.5413818235
O  O226  1  0.06610000  0.80310000  0.50000000  1.0 -0.5413818235
O  O227  1  0.43390000  0.30310000  0.00000000  1.0 -0.5413818235
O  O228  1  0.56610000  0.69690000  0.00000000  1.0 -0.5413818235
O  O229  1  0.30310000  0.56610000  0.00000000  1.0 -0.5413818235
O  O230  1  0.69690000  0.43390000  0.00000000  1.0 -0.5413818235
O  O231  1  0.19690000  0.06610000  0.50000000  1.0 -0.5413818235
O  O232  1  0.80310000  0.93390000  0.50000000  1.0 -0.5413818235
O  O233  1  0.86560000  0.44630000  0.50000000  1.0 -0.4672117556
O  O234  1  0.13440000  0.55370000  0.50000000  1.0 -0.4672117556
O  O235  1  0.36560000  0.05370000  0.00000000  1.0 -0.4672117556
O  O236  1  0.63440000  0.94630000  0.00000000  1.0 -0.4672117556
O  O237  1  0.05370000  0.63440000  0.00000000  1.0 -0.4672117556
O  O238  1  0.94630000  0.36560000  0.00000000  1.0 -0.4672117556
O  O239  1  0.44630000  0.13440000  0.50000000  1.0 -0.4672117556
O  O240  1  0.55370000  0.86560000  0.50000000  1.0 -0.4672117556
