# DDEC6 charges by PACMAN v1.1 (https://github.com/mtap-research/PACMAN-charge/)
data_UQOWUU_FSR_pacman
_symmetry_space_group_name_H-M   'P 1'
_cell_length_a   13.98760000
_cell_length_b   13.98760000
_cell_length_c   16.30930000
_cell_angle_alpha   90.00000000
_cell_angle_beta   90.00000000
_cell_angle_gamma   120.00000000
_symmetry_Int_Tables_number   1
_chemical_formula_structural   Cu4H9(CN2)9
_chemical_formula_sum   'Cu16 H36 C36 N72'
_cell_volume   2763.45477697
_cell_formula_units_Z   4
loop_
 _symmetry_equiv_pos_site_id
 _symmetry_equiv_pos_as_xyz
  1  'x, y, z'
loop_
 _atom_site_type_symbol
 _atom_site_label
 _atom_site_symmetry_multiplicity
 _atom_site_fract_x
 _atom_site_fract_y
 _atom_site_fract_z
 _atom_site_occupancy
 _atom_site_charge
Cu  Cu1  1  0.33333333  0.66666667  0.63032000  1.0 0.2976671097
Cu  Cu2  1  0.66666667  0.33333333  0.13032000  1.0 0.2976671097
Cu  Cu3  1  0.66666667  0.33333333  0.36968000  1.0 0.2976671097
Cu  Cu4  1  0.33333333  0.66666667  0.86968000  1.0 0.2943547604
Cu  Cu5  1  0.37349000  0.44462000  0.55991000  1.0 0.2758256325
Cu  Cu6  1  0.92887000  0.37349000  0.05991000  1.0 0.2758256325
Cu  Cu7  1  0.55538000  0.92887000  0.55991000  1.0 0.2758256325
Cu  Cu8  1  0.62651000  0.55538000  0.05991000  1.0 0.2758256325
Cu  Cu9  1  0.07113000  0.62651000  0.55991000  1.0 0.2758256325
Cu  Cu10  1  0.44462000  0.07113000  0.05991000  1.0 0.2758256325
Cu  Cu11  1  0.62651000  0.55538000  0.44009000  1.0 0.2758256325
Cu  Cu12  1  0.07113000  0.62651000  0.94009000  1.0 0.2758256325
Cu  Cu13  1  0.44462000  0.07113000  0.44009000  1.0 0.2758256325
Cu  Cu14  1  0.37349000  0.44462000  0.94009000  1.0 0.2758256325
Cu  Cu15  1  0.92887000  0.37349000  0.44009000  1.0 0.2747363982
Cu  Cu16  1  0.55538000  0.92887000  0.94009000  1.0 0.2758256325
H  H1  1  0.18770000  0.27730000  0.43340000  1.0 0.160190902
H  H2  1  0.91040000  0.18770000  0.93340000  1.0 0.160190902
H  H3  1  0.72270000  0.91040000  0.43340000  1.0 0.160190902
H  H4  1  0.81230000  0.72270000  0.93340000  1.0 0.160190902
H  H5  1  0.08960000  0.81230000  0.43340000  1.0 0.160190902
H  H6  1  0.27730000  0.08960000  0.93340000  1.0 0.160190902
H  H7  1  0.81230000  0.72270000  0.56660000  1.0 0.160190902
H  H8  1  0.08960000  0.81230000  0.06660000  1.0 0.160190902
H  H9  1  0.27730000  0.08960000  0.56660000  1.0 0.160190902
H  H10  1  0.18770000  0.27730000  0.06660000  1.0 0.160190902
H  H11  1  0.91040000  0.18770000  0.56660000  1.0 0.160190902
H  H12  1  0.72270000  0.91040000  0.06660000  1.0 0.160190902
H  H13  1  0.07530000  0.26040000  0.39970000  1.0 0.160190902
H  H14  1  0.81490000  0.07530000  0.89970000  1.0 0.160190902
H  H15  1  0.73960000  0.81490000  0.39970000  1.0 0.160190902
H  H16  1  0.92470000  0.73960000  0.89970000  1.0 0.160190902
H  H17  1  0.18510000  0.92470000  0.39970000  1.0 0.160190902
H  H18  1  0.26040000  0.18510000  0.89970000  1.0 0.160190902
H  H19  1  0.92470000  0.73960000  0.60030000  1.0 0.160190902
H  H20  1  0.18510000  0.92470000  0.10030000  1.0 0.160190902
H  H21  1  0.26040000  0.18510000  0.60030000  1.0 0.160190902
H  H22  1  0.07530000  0.26040000  0.10030000  1.0 0.160190902
H  H23  1  0.81490000  0.07530000  0.60030000  1.0 0.160190902
H  H24  1  0.73960000  0.81490000  0.10030000  1.0 0.160190902
H  H25  1  0.08000000  0.21390000  0.48610000  1.0 0.149359338
H  H26  1  0.86610000  0.08000000  0.98610000  1.0 0.149359338
H  H27  1  0.78610000  0.86610000  0.48610000  1.0 0.149359338
H  H28  1  0.92000000  0.78610000  0.98610000  1.0 0.149359338
H  H29  1  0.13390000  0.92000000  0.48610000  1.0 0.149359338
H  H30  1  0.21390000  0.13390000  0.98610000  1.0 0.149359338
H  H31  1  0.92000000  0.78610000  0.51390000  1.0 0.149359338
H  H32  1  0.13390000  0.92000000  0.01390000  1.0 0.149359338
H  H33  1  0.21390000  0.13390000  0.51390000  1.0 0.149359338
H  H34  1  0.08000000  0.21390000  0.01390000  1.0 0.149359338
H  H35  1  0.86610000  0.08000000  0.51390000  1.0 0.149359338
H  H36  1  0.78610000  0.86610000  0.01390000  1.0 0.149359338
C  C1  1  0.14270000  0.38120000  0.48730000  1.0 0.3601320647
C  C2  1  0.76150000  0.14270000  0.98730000  1.0 0.3601320647
C  C3  1  0.61880000  0.76150000  0.48730000  1.0 0.3601320647
C  C4  1  0.85730000  0.61880000  0.98730000  1.0 0.3601320647
C  C5  1  0.23850000  0.85730000  0.48730000  1.0 0.3601320647
C  C6  1  0.38120000  0.23850000  0.98730000  1.0 0.3601320647
C  C7  1  0.85730000  0.61880000  0.51270000  1.0 0.3601320647
C  C8  1  0.23850000  0.85730000  0.01270000  1.0 0.3601320647
C  C9  1  0.38120000  0.23850000  0.51270000  1.0 0.3601320647
C  C10  1  0.14270000  0.38120000  0.01270000  1.0 0.3601320647
C  C11  1  0.76150000  0.14270000  0.51270000  1.0 0.3601320647
C  C12  1  0.61880000  0.76150000  0.01270000  1.0 0.3601320647
C  C13  1  0.11930000  0.27330000  0.44800000  1.0 -0.4910340321
C  C14  1  0.84600000  0.11930000  0.94800000  1.0 -0.4910340321
C  C15  1  0.72670000  0.84600000  0.44800000  1.0 -0.4910340321
C  C16  1  0.88070000  0.72670000  0.94800000  1.0 -0.4910340321
C  C17  1  0.15400000  0.88070000  0.44800000  1.0 -0.4910340321
C  C18  1  0.27330000  0.15400000  0.94800000  1.0 -0.4910340321
C  C19  1  0.88070000  0.72670000  0.55200000  1.0 -0.4910340321
C  C20  1  0.15400000  0.88070000  0.05200000  1.0 -0.4910340321
C  C21  1  0.27330000  0.15400000  0.55200000  1.0 -0.4910340321
C  C22  1  0.11930000  0.27330000  0.05200000  1.0 -0.4910340321
C  C23  1  0.84600000  0.11930000  0.55200000  1.0 -0.4910340321
C  C24  1  0.72670000  0.84600000  0.05200000  1.0 -0.4910340321
C  C25  1  0.04590000  0.61800000  0.75000000  1.0 0.3404314108
C  C26  1  0.42790000  0.04590000  0.25000000  1.0 0.3404314108
C  C27  1  0.38200000  0.42790000  0.75000000  1.0 0.3404314108
C  C28  1  0.95410000  0.38200000  0.25000000  1.0 0.3404314108
C  C29  1  0.57210000  0.95410000  0.75000000  1.0 0.3404314108
C  C30  1  0.61800000  0.57210000  0.25000000  1.0 0.3404314108
C  C31  1  0.92870000  0.60000000  0.75000000  1.0 -0.3282063665
C  C32  1  0.32870000  0.92870000  0.25000000  1.0 -0.3282063665
C  C33  1  0.40000000  0.32870000  0.75000000  1.0 -0.3379994395
C  C34  1  0.07130000  0.40000000  0.25000000  1.0 -0.3282063665
C  C35  1  0.67130000  0.07130000  0.75000000  1.0 -0.3379994395
C  C36  1  0.60000000  0.67130000  0.25000000  1.0 -0.3282063665
N  N1  1  0.07440000  0.42170000  0.48630000  1.0 -0.2471991107
N  N2  1  0.65270000  0.07440000  0.98630000  1.0 -0.2471991107
N  N3  1  0.57830000  0.65270000  0.48630000  1.0 -0.2471991107
N  N4  1  0.92560000  0.57830000  0.98630000  1.0 -0.2471991107
N  N5  1  0.34730000  0.92560000  0.48630000  1.0 -0.2471991107
N  N6  1  0.42170000  0.34730000  0.98630000  1.0 -0.2471991107
N  N7  1  0.92560000  0.57830000  0.51370000  1.0 -0.2471991107
N  N8  1  0.34730000  0.92560000  0.01370000  1.0 -0.2471991107
N  N9  1  0.42170000  0.34730000  0.51370000  1.0 -0.2471991107
N  N10  1  0.07440000  0.42170000  0.01370000  1.0 -0.2471991107
N  N11  1  0.65270000  0.07440000  0.51370000  1.0 -0.2471991107
N  N12  1  0.57830000  0.65270000  0.01370000  1.0 -0.2471991107
N  N13  1  0.12690000  0.51690000  0.53070000  1.0 -0.0119052603
N  N14  1  0.61000000  0.12690000  0.03070000  1.0 -0.0119052603
N  N15  1  0.48310000  0.61000000  0.53070000  1.0 -0.0119052603
N  N16  1  0.87310000  0.48310000  0.03070000  1.0 -0.0119052603
N  N17  1  0.39000000  0.87310000  0.53070000  1.0 -0.0119052603
N  N18  1  0.51690000  0.39000000  0.03070000  1.0 -0.0119052603
N  N19  1  0.87310000  0.48310000  0.46930000  1.0 -0.0119052603
N  N20  1  0.39000000  0.87310000  0.96930000  1.0 -0.0119052603
N  N21  1  0.51690000  0.39000000  0.46930000  1.0 -0.0119052603
N  N22  1  0.12690000  0.51690000  0.96930000  1.0 -0.0119052603
N  N23  1  0.61000000  0.12690000  0.46930000  1.0 -0.0119052603
N  N24  1  0.48310000  0.61000000  0.96930000  1.0 -0.0119052603
N  N25  1  0.22090000  0.52970000  0.55650000  1.0 0.0021037496
N  N26  1  0.69120000  0.22090000  0.05650000  1.0 0.0021037496
N  N27  1  0.47030000  0.69120000  0.55650000  1.0 0.0021037496
N  N28  1  0.77910000  0.47030000  0.05650000  1.0 0.0021037496
N  N29  1  0.30880000  0.77910000  0.55650000  1.0 0.0021037496
N  N30  1  0.52970000  0.30880000  0.05650000  1.0 0.0021037496
N  N31  1  0.77910000  0.47030000  0.44350000  1.0 0.0021037496
N  N32  1  0.30880000  0.77910000  0.94350000  1.0 0.0021037496
N  N33  1  0.52970000  0.30880000  0.44350000  1.0 0.0021037496
N  N34  1  0.22090000  0.52970000  0.94350000  1.0 0.0021037496
N  N35  1  0.69120000  0.22090000  0.44350000  1.0 0.0021037496
N  N36  1  0.47030000  0.69120000  0.94350000  1.0 0.0021037496
N  N37  1  0.23390000  0.44790000  0.53010000  1.0 -0.2101904502
N  N38  1  0.78600000  0.23390000  0.03010000  1.0 -0.2101904502
N  N39  1  0.55210000  0.78600000  0.53010000  1.0 -0.2101904502
N  N40  1  0.76610000  0.55210000  0.03010000  1.0 -0.2101904502
N  N41  1  0.21400000  0.76610000  0.53010000  1.0 -0.2101904502
N  N42  1  0.44790000  0.21400000  0.03010000  1.0 -0.2101904502
N  N43  1  0.76610000  0.55210000  0.46990000  1.0 -0.2101904502
N  N44  1  0.21400000  0.76610000  0.96990000  1.0 -0.2101904502
N  N45  1  0.44790000  0.21400000  0.46990000  1.0 -0.2101904502
N  N46  1  0.23390000  0.44790000  0.96990000  1.0 -0.2101904502
N  N47  1  0.78600000  0.23390000  0.46990000  1.0 -0.2101904502
N  N48  1  0.55210000  0.78600000  0.96990000  1.0 -0.2101904502
N  N49  1  0.19990000  0.64540000  0.70990000  1.0 -0.0203304918
N  N50  1  0.55450000  0.19990000  0.20990000  1.0 -0.0203304918
N  N51  1  0.35460000  0.55450000  0.70990000  1.0 -0.0203304918
N  N52  1  0.80010000  0.35460000  0.20990000  1.0 -0.0203304918
N  N53  1  0.44550000  0.80010000  0.70990000  1.0 -0.0203304918
N  N54  1  0.64540000  0.44550000  0.20990000  1.0 -0.0203304918
N  N55  1  0.80010000  0.35460000  0.29010000  1.0 -0.0203304918
N  N56  1  0.44550000  0.80010000  0.79010000  1.0 -0.0203304918
N  N57  1  0.64540000  0.44550000  0.29010000  1.0 -0.0203304918
N  N58  1  0.19990000  0.64540000  0.79010000  1.0 -0.0203304918
N  N59  1  0.55450000  0.19990000  0.29010000  1.0 -0.0203304918
N  N60  1  0.35460000  0.55450000  0.79010000  1.0 -0.0203304918
N  N61  1  0.10240000  0.62790000  0.68340000  1.0 -0.2304791584
N  N62  1  0.47450000  0.10240000  0.18340000  1.0 -0.2304791584
N  N63  1  0.37210000  0.47450000  0.68340000  1.0 -0.2304791584
N  N64  1  0.89760000  0.37210000  0.18340000  1.0 -0.2304791584
N  N65  1  0.52550000  0.89760000  0.68340000  1.0 -0.2304791584
N  N66  1  0.62790000  0.52550000  0.18340000  1.0 -0.2304791584
N  N67  1  0.89760000  0.37210000  0.31660000  1.0 -0.2304791584
N  N68  1  0.52550000  0.89760000  0.81660000  1.0 -0.2304791584
N  N69  1  0.62790000  0.52550000  0.31660000  1.0 -0.2304791584
N  N70  1  0.10240000  0.62790000  0.81660000  1.0 -0.2304791584
N  N71  1  0.47450000  0.10240000  0.31660000  1.0 -0.2304791584
N  N72  1  0.37210000  0.47450000  0.81660000  1.0 -0.2304791584
