# DDEC6 charges by PACMAN v1.1 (https://github.com/mtap-research/PACMAN-charge/)
data_URONOG_ASR_pacman
_symmetry_space_group_name_H-M   'P 1'
_cell_length_a   17.56500000
_cell_length_b   20.30900000
_cell_length_c   17.66000000
_cell_angle_alpha   90.00000000
_cell_angle_beta   115.92600000
_cell_angle_gamma   90.00000000
_symmetry_Int_Tables_number   1
_chemical_formula_structural   Tb6Ge7H34C27NO31
_chemical_formula_sum   'Tb24 Ge28 H136 C108 N4 O124'
_cell_volume   5665.79303170
_cell_formula_units_Z   4
loop_
 _symmetry_equiv_pos_site_id
 _symmetry_equiv_pos_as_xyz
  1  'x, y, z'
loop_
 _atom_site_type_symbol
 _atom_site_label
 _atom_site_symmetry_multiplicity
 _atom_site_fract_x
 _atom_site_fract_y
 _atom_site_fract_z
 _atom_site_occupancy
 _atom_site_charge
Tb  Tb1  1  0.87913000  0.34792000  0.58097000  1.0 1.8153737817
Tb  Tb2  1  0.62087000  0.84792000  0.41903000  1.0 1.8153737817
Tb  Tb3  1  0.12087000  0.65208000  0.41903000  1.0 1.8122760091
Tb  Tb4  1  0.37913000  0.15208000  0.58097000  1.0 1.8122760091
Tb  Tb5  1  0.35908000  0.50371000  0.93632000  1.0 0.9476645623
Tb  Tb6  1  0.14092000  0.00371000  0.06368000  1.0 0.9476645623
Tb  Tb7  1  0.64092000  0.49629000  0.06368000  1.0 0.9476645623
Tb  Tb8  1  0.85908000  0.99629000  0.93632000  1.0 0.9476645623
Tb  Tb9  1  0.18536000  0.49728000  0.71337000  1.0 2.1835532222
Tb  Tb10  1  0.31464000  0.99728000  0.28663000  1.0 2.1835532222
Tb  Tb11  1  0.81464000  0.50272000  0.28663000  1.0 2.1835532222
Tb  Tb12  1  0.68536000  0.00272000  0.71337000  1.0 2.1835532222
Tb  Tb13  1  0.00170000  0.61017000  0.66841000  1.0 2.2077701126
Tb  Tb14  1  0.49830000  0.11017000  0.33159000  1.0 2.2077701126
Tb  Tb15  1  0.99830000  0.38983000  0.33159000  1.0 2.2077701126
Tb  Tb16  1  0.50170000  0.88983000  0.66841000  1.0 2.2077701126
Tb  Tb17  1  0.81183000  0.61449000  0.45269000  1.0 2.2471116815
Tb  Tb18  1  0.68817000  0.11449000  0.54731000  1.0 2.2471116815
Tb  Tb19  1  0.18817000  0.38551000  0.54731000  1.0 2.2471116815
Tb  Tb20  1  0.31183000  0.88551000  0.45269000  1.0 2.2471116815
Tb  Tb21  1  0.36920000  0.47560000  0.92430000  1.0 0.8261891339
Tb  Tb22  1  0.13080000  0.97560000  0.07570000  1.0 0.8191399906
Tb  Tb23  1  0.63080000  0.52440000  0.07570000  1.0 0.8191399906
Tb  Tb24  1  0.86920000  0.02440000  0.92430000  1.0 0.8261891339
Ge  Ge1  1  0.01446000  0.28147000  0.50293000  1.0 1.4898235608
Ge  Ge2  1  0.48554000  0.78147000  0.49707000  1.0 1.4898235608
Ge  Ge3  1  0.98554000  0.71853000  0.49707000  1.0 1.4898235608
Ge  Ge4  1  0.51446000  0.21853000  0.50293000  1.0 1.4898235608
Ge  Ge5  1  0.83182000  0.33469000  0.37059000  1.0 1.4744523797
Ge  Ge6  1  0.66818000  0.83469000  0.62941000  1.0 1.4744523797
Ge  Ge7  1  0.16818000  0.66531000  0.62941000  1.0 1.4744523797
Ge  Ge8  1  0.33182000  0.16531000  0.37059000  1.0 1.4744523797
Ge  Ge9  1  0.72769000  0.44427000  0.41856000  1.0 1.4898235608
Ge  Ge10  1  0.77231000  0.94427000  0.58144000  1.0 1.4898235608
Ge  Ge11  1  0.27231000  0.55573000  0.58144000  1.0 1.4898235608
Ge  Ge12  1  0.22769000  0.05573000  0.41856000  1.0 1.4898235608
Ge  Ge13  1  0.81209000  0.50621000  0.60644000  1.0 1.4898235608
Ge  Ge14  1  0.68791000  0.00621000  0.39356000  1.0 1.4898235608
Ge  Ge15  1  0.18791000  0.49379000  0.39356000  1.0 1.4898235608
Ge  Ge16  1  0.31209000  0.99379000  0.60644000  1.0 1.4898235608
Ge  Ge17  1  0.99387000  0.45309000  0.74029000  1.0 1.4819522832
Ge  Ge18  1  0.50613000  0.95309000  0.25971000  1.0 1.4819522832
Ge  Ge19  1  0.00613000  0.54691000  0.25971000  1.0 1.4819522832
Ge  Ge20  1  0.49387000  0.04691000  0.74029000  1.0 1.4819522832
Ge  Ge21  1  0.09811000  0.34094000  0.69472000  1.0 1.4898235608
Ge  Ge22  1  0.40189000  0.84094000  0.30528000  1.0 1.4898235608
Ge  Ge23  1  0.90189000  0.65906000  0.30528000  1.0 1.4898235608
Ge  Ge24  1  0.59811000  0.15906000  0.69472000  1.0 1.4898235608
Ge  Ge25  1  0.38104000  0.39736000  0.78415000  1.0 1.2675233716
Ge  Ge26  1  0.11896000  0.89736000  0.21585000  1.0 1.2675233716
Ge  Ge27  1  0.61896000  0.60264000  0.21585000  1.0 1.2831466232
Ge  Ge28  1  0.88104000  0.10264000  0.78415000  1.0 1.2675233716
H  H1  1  0.47060000  0.45390000  0.10190000  1.0 0.363741893
H  H2  1  0.02940000  0.95390000  0.89810000  1.0 0.363741893
H  H3  1  0.52940000  0.54610000  0.89810000  1.0 0.363741893
H  H4  1  0.97060000  0.04610000  0.10190000  1.0 0.363741893
H  H5  1  0.39260000  0.44400000  0.10120000  1.0 0.3547876511
H  H6  1  0.10740000  0.94400000  0.89880000  1.0 0.3547876511
H  H7  1  0.60740000  0.55600000  0.89880000  1.0 0.3547876511
H  H8  1  0.89260000  0.05600000  0.10120000  1.0 0.3547876511
H  H9  1  0.99970000  0.16510000  0.47020000  1.0 0.1388722886
H  H10  1  0.50030000  0.66510000  0.52980000  1.0 0.1388722886
H  H11  1  0.00030000  0.83490000  0.52980000  1.0 0.1388722886
H  H12  1  0.49970000  0.33490000  0.47020000  1.0 0.1388722886
H  H13  1  0.05860000  0.19670000  0.43440000  1.0 0.1388722886
H  H14  1  0.44140000  0.69670000  0.56560000  1.0 0.1388722886
H  H15  1  0.94140000  0.80330000  0.56560000  1.0 0.1388722886
H  H16  1  0.55860000  0.30330000  0.43440000  1.0 0.1388722886
H  H17  1  0.11070000  0.16120000  0.60530000  1.0 0.1296083956
H  H18  1  0.38930000  0.66120000  0.39470000  1.0 0.1296083956
H  H19  1  0.88930000  0.83880000  0.39470000  1.0 0.1296083956
H  H20  1  0.61070000  0.33880000  0.60530000  1.0 0.1296083956
H  H21  1  0.13970000  0.12550000  0.54350000  1.0 0.1296083956
H  H22  1  0.36030000  0.62550000  0.45650000  1.0 0.1296083956
H  H23  1  0.86030000  0.87450000  0.45650000  1.0 0.1296083956
H  H24  1  0.63970000  0.37450000  0.54350000  1.0 0.1296083956
H  H25  1  0.71280000  0.26340000  0.29480000  1.0 0.1480659703
H  H26  1  0.78720000  0.76340000  0.70520000  1.0 0.1480659703
H  H27  1  0.28720000  0.73660000  0.70520000  1.0 0.1480659703
H  H28  1  0.21280000  0.23660000  0.29480000  1.0 0.1480659703
H  H29  1  0.73250000  0.30410000  0.22990000  1.0 0.1480659703
H  H30  1  0.76750000  0.80410000  0.77010000  1.0 0.1480659703
H  H31  1  0.26750000  0.69590000  0.77010000  1.0 0.1480659703
H  H32  1  0.23250000  0.19590000  0.22990000  1.0 0.1480659703
H  H33  1  0.81440000  0.18730000  0.31220000  1.0 0.1205763869
H  H34  1  0.68560000  0.68730000  0.68780000  1.0 0.1205763869
H  H35  1  0.18560000  0.81270000  0.68780000  1.0 0.1205763869
H  H36  1  0.31440000  0.31270000  0.31220000  1.0 0.1205763869
H  H37  1  0.76900000  0.19920000  0.21450000  1.0 0.1388722886
H  H38  1  0.73100000  0.69920000  0.78550000  1.0 0.1388722886
H  H39  1  0.23100000  0.80080000  0.78550000  1.0 0.1388722886
H  H40  1  0.26900000  0.30080000  0.21450000  1.0 0.1388722886
H  H41  1  0.58430000  0.41900000  0.39550000  1.0 0.1388722886
H  H42  1  0.91570000  0.91900000  0.60450000  1.0 0.1388722886
H  H43  1  0.41570000  0.58100000  0.60450000  1.0 0.1388722886
H  H44  1  0.08430000  0.08100000  0.39550000  1.0 0.1388722886
H  H45  1  0.58370000  0.48520000  0.34990000  1.0 0.1388722886
H  H46  1  0.91630000  0.98520000  0.65010000  1.0 0.1388722886
H  H47  1  0.41630000  0.51480000  0.65010000  1.0 0.1388722886
H  H48  1  0.08370000  0.01480000  0.34990000  1.0 0.1388722886
H  H49  1  0.57590000  0.35690000  0.28470000  1.0 0.1480659703
H  H50  1  0.92410000  0.85690000  0.71530000  1.0 0.1480659703
H  H51  1  0.42410000  0.64310000  0.71530000  1.0 0.1480659703
H  H52  1  0.07590000  0.14310000  0.28470000  1.0 0.1480659703
H  H53  1  0.51280000  0.41510000  0.24150000  1.0 0.1205763869
H  H54  1  0.98720000  0.91510000  0.75850000  1.0 0.1205763869
H  H55  1  0.48720000  0.58490000  0.75850000  1.0 0.1205763869
H  H56  1  0.01280000  0.08490000  0.24150000  1.0 0.1205763869
H  H57  1  0.73970000  0.51170000  0.69600000  1.0 0.1388722886
H  H58  1  0.76030000  0.01170000  0.30400000  1.0 0.1388722886
H  H59  1  0.26030000  0.48830000  0.30400000  1.0 0.1388722886
H  H60  1  0.23970000  0.98830000  0.69600000  1.0 0.1388722886
H  H61  1  0.76010000  0.58350000  0.67780000  1.0 0.1388722886
H  H62  1  0.73990000  0.08350000  0.32220000  1.0 0.1388722886
H  H63  1  0.23990000  0.41650000  0.32220000  1.0 0.1388722886
H  H64  1  0.26010000  0.91650000  0.67780000  1.0 0.1388722886
H  H65  1  0.61680000  0.57600000  0.61020000  1.0 0.1296083956
H  H66  1  0.88320000  0.07600000  0.38980000  1.0 0.1296083956
H  H67  1  0.38320000  0.42400000  0.38980000  1.0 0.1296083956
H  H68  1  0.11680000  0.92400000  0.61020000  1.0 0.1296083956
H  H69  1  0.61990000  0.50660000  0.57290000  1.0 0.1296083956
H  H70  1  0.88010000  0.00660000  0.42710000  1.0 0.1296083956
H  H71  1  0.38010000  0.49340000  0.42710000  1.0 0.1296083956
H  H72  1  0.11990000  0.99340000  0.57290000  1.0 0.1296083956
H  H73  1  0.01130000  0.41210000  0.87600000  1.0 0.1388722886
H  H74  1  0.48870000  0.91210000  0.12400000  1.0 0.1388722886
H  H75  1  0.98870000  0.58790000  0.12400000  1.0 0.1388722886
H  H76  1  0.51130000  0.08790000  0.87600000  1.0 0.1388722886
H  H77  1  0.07640000  0.46910000  0.89070000  1.0 0.1388722886
H  H78  1  0.42360000  0.96910000  0.10930000  1.0 0.1388722886
H  H79  1  0.92360000  0.53090000  0.10930000  1.0 0.1388722886
H  H80  1  0.57640000  0.03090000  0.89070000  1.0 0.1388722886
H  H81  1  0.90610000  0.48260000  0.86350000  1.0 0.1205763869
H  H82  1  0.59390000  0.98260000  0.13650000  1.0 0.1205763869
H  H83  1  0.09390000  0.51740000  0.13650000  1.0 0.1205763869
H  H84  1  0.40610000  0.01740000  0.86350000  1.0 0.1205763869
H  H85  1  0.98570000  0.51560000  0.93530000  1.0 0.1296083956
H  H86  1  0.51430000  0.01560000  0.06470000  1.0 0.1296083956
H  H87  1  0.01430000  0.48440000  0.06470000  1.0 0.1296083956
H  H88  1  0.48570000  0.98440000  0.93530000  1.0 0.1296083956
H  H89  1  0.13920000  0.24130000  0.78020000  1.0 0.1388722886
H  H90  1  0.36080000  0.74130000  0.21980000  1.0 0.1388722886
H  H91  1  0.86080000  0.75870000  0.21980000  1.0 0.1388722886
H  H92  1  0.63920000  0.25870000  0.78020000  1.0 0.1388722886
H  H93  1  0.21960000  0.27110000  0.77610000  1.0 0.1296083956
H  H94  1  0.28040000  0.77110000  0.22390000  1.0 0.1296083956
H  H95  1  0.78040000  0.72890000  0.22390000  1.0 0.1296083956
H  H96  1  0.71960000  0.22890000  0.77610000  1.0 0.1296083956
H  H97  1  0.15380000  0.30440000  0.89050000  1.0 0.1296083956
H  H98  1  0.34620000  0.80440000  0.10950000  1.0 0.1296083956
H  H99  1  0.84620000  0.69560000  0.10950000  1.0 0.1296083956
H  H100  1  0.65380000  0.19560000  0.89050000  1.0 0.1296083956
H  H101  1  0.24820000  0.28770000  0.91180000  1.0 0.1388722886
H  H102  1  0.25180000  0.78770000  0.08820000  1.0 0.1388722886
H  H103  1  0.75180000  0.71230000  0.08820000  1.0 0.1388722886
H  H104  1  0.74820000  0.21230000  0.91180000  1.0 0.1388722886
H  H105  1  0.36070000  0.30180000  0.85430000  1.0 0.1205763869
H  H106  1  0.13930000  0.80180000  0.14570000  1.0 0.1205763869
H  H107  1  0.63930000  0.69820000  0.14570000  1.0 0.1205763869
H  H108  1  0.86070000  0.19820000  0.85430000  1.0 0.1205763869
H  H109  1  0.42370000  0.28400000  0.81670000  1.0 0.1296083956
H  H110  1  0.07630000  0.78400000  0.18330000  1.0 0.1296083956
H  H111  1  0.57630000  0.71600000  0.18330000  1.0 0.1296083956
H  H112  1  0.92370000  0.21600000  0.81670000  1.0 0.1296083956
H  H113  1  0.46130000  0.30240000  0.97180000  1.0 0.1388722886
H  H114  1  0.03870000  0.80240000  0.02820000  1.0 0.1388722886
H  H115  1  0.53870000  0.69760000  0.02820000  1.0 0.1388722886
H  H116  1  0.96130000  0.19760000  0.97180000  1.0 0.1388722886
H  H117  1  0.52470000  0.29130000  0.93330000  1.0 0.1388722886
H  H118  1  0.97530000  0.79130000  0.06670000  1.0 0.1388722886
H  H119  1  0.47530000  0.70870000  0.06670000  1.0 0.1388722886
H  H120  1  0.02470000  0.20870000  0.93330000  1.0 0.1388722886
H  H121  1  0.10520000  0.65230000  0.95010000  1.0 0.1388722886
H  H122  1  0.39480000  0.15230000  0.04990000  1.0 0.1388722886
H  H123  1  0.89480000  0.34770000  0.04990000  1.0 0.1388722886
H  H124  1  0.60520000  0.84770000  0.95010000  1.0 0.1388722886
H  H125  1  0.14380000  0.66020000  0.09340000  1.0 0.1205763869
H  H126  1  0.35620000  0.16020000  0.90660000  1.0 0.1205763869
H  H127  1  0.85620000  0.33980000  0.90660000  1.0 0.1205763869
H  H128  1  0.64380000  0.83980000  0.09340000  1.0 0.1205763869
H  H129  1  0.26360000  0.59980000  0.18480000  1.0 0.1205763869
H  H130  1  0.23640000  0.09980000  0.81520000  1.0 0.1205763869
H  H131  1  0.73640000  0.40020000  0.81520000  1.0 0.1205763869
H  H132  1  0.76360000  0.90020000  0.18480000  1.0 0.1205763869
H  H133  1  0.33720000  0.53750000  0.12970000  1.0 0.0954558064
H  H134  1  0.16280000  0.03750000  0.87030000  1.0 0.0954558064
H  H135  1  0.66280000  0.46250000  0.87030000  1.0 0.0954558064
H  H136  1  0.83720000  0.96250000  0.12970000  1.0 0.0954558064
C  C1  1  0.04680000  0.19500000  0.48310000  1.0 -0.5377413373
C  C2  1  0.45320000  0.69500000  0.51690000  1.0 -0.5377413373
C  C3  1  0.95320000  0.80500000  0.51690000  1.0 -0.5377413373
C  C4  1  0.54680000  0.30500000  0.48310000  1.0 -0.5377413373
C  C5  1  0.12480000  0.16790000  0.55850000  1.0 -0.2984063592
C  C6  1  0.37520000  0.66790000  0.44150000  1.0 -0.2984063592
C  C7  1  0.87520000  0.83210000  0.44150000  1.0 -0.2984063592
C  C8  1  0.62480000  0.33210000  0.55850000  1.0 -0.2984063592
C  C9  1  0.20020000  0.21340000  0.58600000  1.0 0.7147059475
C  C10  1  0.29980000  0.71340000  0.41400000  1.0 0.7147059475
C  C11  1  0.79980000  0.78660000  0.41400000  1.0 0.7147059475
C  C12  1  0.70020000  0.28660000  0.58600000  1.0 0.7147059475
C  C13  1  0.75800000  0.27880000  0.28170000  1.0 -0.5028004761
C  C14  1  0.74200000  0.77880000  0.71830000  1.0 -0.5028004761
C  C15  1  0.24200000  0.72120000  0.71830000  1.0 -0.5028004761
C  C16  1  0.25800000  0.22120000  0.28170000  1.0 -0.5028004761
C  C17  1  0.80420000  0.21960000  0.26830000  1.0 -0.2810609232
C  C18  1  0.69580000  0.71960000  0.73170000  1.0 -0.2810609232
C  C19  1  0.19580000  0.78040000  0.73170000  1.0 -0.2810609232
C  C20  1  0.30420000  0.28040000  0.26830000  1.0 -0.2810609232
C  C21  1  0.88790000  0.24030000  0.26990000  1.0 0.6563799415
C  C22  1  0.61210000  0.74030000  0.73010000  1.0 0.6563799415
C  C23  1  0.11210000  0.75970000  0.73010000  1.0 0.6563799415
C  C24  1  0.38790000  0.25970000  0.26990000  1.0 0.6563799415
C  C25  1  0.60570000  0.44060000  0.35970000  1.0 -0.5266790754
C  C26  1  0.89430000  0.94060000  0.64030000  1.0 -0.5266790754
C  C27  1  0.39430000  0.55940000  0.64030000  1.0 -0.5266790754
C  C28  1  0.10570000  0.05940000  0.35970000  1.0 -0.5266790754
C  C29  1  0.57200000  0.40400000  0.27470000  1.0 -0.309479047
C  C30  1  0.92800000  0.90400000  0.72530000  1.0 -0.309479047
C  C31  1  0.42800000  0.59600000  0.72530000  1.0 -0.309479047
C  C32  1  0.07200000  0.09600000  0.27470000  1.0 -0.309479047
C  C33  1  0.62140000  0.42220000  0.22650000  1.0 0.6710430641
C  C34  1  0.87860000  0.92220000  0.77350000  1.0 0.6710430641
C  C35  1  0.37860000  0.57780000  0.77350000  1.0 0.6710430641
C  C36  1  0.12140000  0.07780000  0.22650000  1.0 0.6710430641
C  C37  1  0.73840000  0.54100000  0.65210000  1.0 -0.5266790754
C  C38  1  0.76160000  0.04100000  0.34790000  1.0 -0.5214861597
C  C39  1  0.26160000  0.45900000  0.34790000  1.0 -0.5266790754
C  C40  1  0.23840000  0.95900000  0.65210000  1.0 -0.5266790754
C  C41  1  0.64690000  0.54940000  0.58650000  1.0 -0.2810609232
C  C42  1  0.85310000  0.04940000  0.41350000  1.0 -0.2810609232
C  C43  1  0.35310000  0.45060000  0.41350000  1.0 -0.2810609232
C  C44  1  0.14690000  0.95060000  0.58650000  1.0 -0.2810609232
C  C45  1  0.64010000  0.58230000  0.50520000  1.0 0.6369885836
C  C46  1  0.85990000  0.08230000  0.49480000  1.0 0.6369885836
C  C47  1  0.35990000  0.41770000  0.49480000  1.0 0.6369885836
C  C48  1  0.14010000  0.91770000  0.50520000  1.0 0.6369885836
C  C49  1  0.01790000  0.45590000  0.85790000  1.0 -0.5214861597
C  C50  1  0.48210000  0.95590000  0.14210000  1.0 -0.5214861597
C  C51  1  0.98210000  0.54410000  0.14210000  1.0 -0.5214861597
C  C52  1  0.51790000  0.04410000  0.85790000  1.0 -0.5214861597
C  C53  1  0.95960000  0.50410000  0.87600000  1.0 -0.2810609232
C  C54  1  0.54040000  0.00410000  0.12400000  1.0 -0.2810609232
C  C55  1  0.04040000  0.49590000  0.12400000  1.0 -0.2810609232
C  C56  1  0.45960000  0.99590000  0.87600000  1.0 -0.2810609232
C  C57  1  0.94320000  0.56700000  0.82330000  1.0 0.6473287378
C  C58  1  0.55680000  0.06700000  0.17670000  1.0 0.6473287378
C  C59  1  0.05680000  0.43300000  0.17670000  1.0 0.6473287378
C  C60  1  0.44320000  0.93300000  0.82330000  1.0 0.6473287378
C  C61  1  0.16980000  0.28190000  0.78420000  1.0 -0.5377413373
C  C62  1  0.33020000  0.78190000  0.21580000  1.0 -0.5377413373
C  C63  1  0.83020000  0.71810000  0.21580000  1.0 -0.5377413373
C  C64  1  0.66980000  0.21810000  0.78420000  1.0 -0.5377413373
C  C65  1  0.19820000  0.31090000  0.87270000  1.0 -0.2984063592
C  C66  1  0.30180000  0.81090000  0.12730000  1.0 -0.2984063592
C  C67  1  0.80180000  0.68910000  0.12730000  1.0 -0.2984063592
C  C68  1  0.69820000  0.18910000  0.87270000  1.0 -0.2984063592
C  C69  1  0.21800000  0.38370000  0.87530000  1.0 0.6710430641
C  C70  1  0.28200000  0.88370000  0.12470000  1.0 0.6710430641
C  C71  1  0.78200000  0.61630000  0.12470000  1.0 0.6710430641
C  C72  1  0.71800000  0.11630000  0.87530000  1.0 0.6710430641
C  C73  1  0.41030000  0.31700000  0.84860000  1.0 -0.4796685468
C  C74  1  0.08970000  0.81700000  0.15140000  1.0 -0.4796685468
C  C75  1  0.58970000  0.68300000  0.15140000  1.0 -0.4796685468
C  C76  1  0.91030000  0.18300000  0.84860000  1.0 -0.4796685468
C  C77  1  0.48120000  0.32080000  0.93300000  1.0 -0.3219405789
C  C78  1  0.01880000  0.82080000  0.06700000  1.0 -0.3219405789
C  C79  1  0.51880000  0.67920000  0.06700000  1.0 -0.3219405789
C  C80  1  0.98120000  0.17920000  0.93300000  1.0 -0.3219405789
C  C81  1  0.52280000  0.38290000  0.96920000  1.0 0.6196079288
C  C82  1  0.97720000  0.88290000  0.03080000  1.0 0.6196079288
C  C83  1  0.47720000  0.61710000  0.03080000  1.0 0.6196079288
C  C84  1  0.02280000  0.11710000  0.96920000  1.0 0.6196079288
C  C85  1  0.17820000  0.58800000  0.86880000  1.0 0.6196079288
C  C86  1  0.32180000  0.08800000  0.13120000  1.0 0.6196079288
C  C87  1  0.82180000  0.41200000  0.13120000  1.0 0.6196079288
C  C88  1  0.67820000  0.91200000  0.86880000  1.0 0.6196079288
C  C89  1  0.19920000  0.59160000  0.95890000  1.0 0.0893876736
C  C90  1  0.30080000  0.09160000  0.04110000  1.0 0.0893876736
C  C91  1  0.80080000  0.40840000  0.04110000  1.0 0.0893876736
C  C92  1  0.69920000  0.90840000  0.95890000  1.0 0.0893876736
C  C93  1  0.15240000  0.62960000  0.98830000  1.0 -0.1286113973
C  C94  1  0.34760000  0.12960000  0.01170000  1.0 -0.1286113973
C  C95  1  0.84760000  0.37040000  0.01170000  1.0 -0.1286113973
C  C96  1  0.65240000  0.87040000  0.98830000  1.0 -0.1286113973
C  C97  1  0.17450000  0.63440000  0.07300000  1.0 -0.0584638169
C  C98  1  0.32550000  0.13440000  0.92700000  1.0 -0.0584638169
C  C99  1  0.82550000  0.36560000  0.92700000  1.0 -0.0584638169
C  C100  1  0.67450000  0.86560000  0.07300000  1.0 -0.0584638169
C  C101  1  0.24580000  0.59850000  0.12690000  1.0 -0.1573689733
C  C102  1  0.25420000  0.09850000  0.87310000  1.0 -0.1573689733
C  C103  1  0.75420000  0.40150000  0.87310000  1.0 -0.1573689733
C  C104  1  0.74580000  0.90150000  0.12690000  1.0 -0.1573689733
C  C105  1  0.28980000  0.56070000  0.09290000  1.0 0.0893876736
C  C106  1  0.21020000  0.06070000  0.90710000  1.0 0.0893876736
C  C107  1  0.71020000  0.43930000  0.90710000  1.0 0.0893876736
C  C108  1  0.78980000  0.93930000  0.09290000  1.0 0.0893876736
N  N1  1  0.26770000  0.55600000  0.01070000  1.0 -0.3219405789
N  N2  1  0.23230000  0.05600000  0.98930000  1.0 -0.3219405789
N  N3  1  0.73230000  0.44400000  0.98930000  1.0 -0.3219405789
N  N4  1  0.76770000  0.94400000  0.01070000  1.0 -0.3219405789
O  O1  1  0.90170000  0.29280000  0.46480000  1.0 -0.849329955
O  O2  1  0.59830000  0.79280000  0.53520000  1.0 -0.849329955
O  O3  1  0.09830000  0.70720000  0.53520000  1.0 -0.849329955
O  O4  1  0.40170000  0.20720000  0.46480000  1.0 -0.849329955
O  O5  1  0.77700000  0.36550000  0.43060000  1.0 -0.849329955
O  O6  1  0.72300000  0.86550000  0.56940000  1.0 -0.849329955
O  O7  1  0.22300000  0.63450000  0.56940000  1.0 -0.849329955
O  O8  1  0.27700000  0.13450000  0.43060000  1.0 -0.849329955
O  O9  1  0.75840000  0.44570000  0.52950000  1.0 -0.8078222241
O  O10  1  0.74160000  0.94570000  0.47050000  1.0 -0.8078222241
O  O11  1  0.24160000  0.55430000  0.47050000  1.0 -0.8078222241
O  O12  1  0.25840000  0.05430000  0.52950000  1.0 -0.8078222241
O  O13  1  0.88310000  0.44310000  0.67130000  1.0 -0.849329955
O  O14  1  0.61690000  0.94310000  0.32870000  1.0 -0.849329955
O  O15  1  0.11690000  0.55690000  0.32870000  1.0 -0.849329955
O  O16  1  0.38310000  0.05690000  0.67130000  1.0 -0.849329955
O  O17  1  0.00860000  0.37070000  0.70860000  1.0 -0.8754238452
O  O18  1  0.49140000  0.87070000  0.29140000  1.0 -0.8754238452
O  O19  1  0.99140000  0.62930000  0.29140000  1.0 -0.8754238452
O  O20  1  0.50860000  0.12930000  0.70860000  1.0 -0.8754238452
O  O21  1  0.02790000  0.29200000  0.60700000  1.0 -0.8278552856
O  O22  1  0.47210000  0.79200000  0.39300000  1.0 -0.8278552856
O  O23  1  0.97210000  0.70800000  0.39300000  1.0 -0.8278552856
O  O24  1  0.52790000  0.20800000  0.60700000  1.0 -0.8278552856
O  O25  1  0.05290000  0.34670000  0.46640000  1.0 -1.1121400858
O  O26  1  0.44710000  0.84670000  0.53360000  1.0 -1.1121400858
O  O27  1  0.94710000  0.65330000  0.53360000  1.0 -1.1121400858
O  O28  1  0.55290000  0.15330000  0.46640000  1.0 -1.1121400858
O  O29  1  0.87970000  0.40530000  0.35540000  1.0 -1.0575573709
O  O30  1  0.62030000  0.90530000  0.64460000  1.0 -1.0575573709
O  O31  1  0.12030000  0.59470000  0.64460000  1.0 -1.0575573709
O  O32  1  0.37970000  0.09470000  0.35540000  1.0 -1.0575573709
O  O33  1  0.78360000  0.50840000  0.40070000  1.0 -1.0893712755
O  O34  1  0.71640000  0.00840000  0.59930000  1.0 -1.0893712755
O  O35  1  0.21640000  0.49160000  0.59930000  1.0 -1.0893712755
O  O36  1  0.28360000  0.99160000  0.40070000  1.0 -1.0893712755
O  O37  1  0.87410000  0.55840000  0.57970000  1.0 -1.0825468268
O  O38  1  0.62590000  0.05840000  0.42030000  1.0 -1.0825468268
O  O39  1  0.12590000  0.44160000  0.42030000  1.0 -1.0825468268
O  O40  1  0.37410000  0.94160000  0.57970000  1.0 -1.0825468268
O  O41  1  0.04580000  0.50140000  0.69700000  1.0 -1.0485795702
O  O42  1  0.45420000  0.00140000  0.30300000  1.0 -1.0485795702
O  O43  1  0.95420000  0.49860000  0.30300000  1.0 -1.0485795702
O  O44  1  0.54580000  0.99860000  0.69700000  1.0 -1.0485795702
O  O45  1  0.14290000  0.39590000  0.65050000  1.0 -1.0893712755
O  O46  1  0.35710000  0.89590000  0.34950000  1.0 -1.0893712755
O  O47  1  0.85710000  0.60410000  0.34950000  1.0 -1.0893712755
O  O48  1  0.64290000  0.10410000  0.65050000  1.0 -1.0893712755
O  O49  1  0.18860000  0.27390000  0.59000000  1.0 -0.7037830319
O  O50  1  0.31140000  0.77390000  0.41000000  1.0 -0.7037830319
O  O51  1  0.81140000  0.72610000  0.41000000  1.0 -0.7037830319
O  O52  1  0.68860000  0.22610000  0.59000000  1.0 -0.7037830319
O  O53  1  0.27190000  0.18750000  0.60920000  1.0 -0.684923407
O  O54  1  0.22810000  0.68750000  0.39080000  1.0 -0.684923407
O  O55  1  0.72810000  0.81250000  0.39080000  1.0 -0.684923407
O  O56  1  0.77190000  0.31250000  0.60920000  1.0 -0.684923407
O  O57  1  0.92560000  0.28670000  0.31970000  1.0 -0.7058016624
O  O58  1  0.57440000  0.78670000  0.68030000  1.0 -0.7058016624
O  O59  1  0.07440000  0.71330000  0.68030000  1.0 -0.7058016624
O  O60  1  0.42560000  0.21330000  0.31970000  1.0 -0.7058016624
O  O61  1  0.92060000  0.21030000  0.23050000  1.0 -0.5266790754
O  O62  1  0.57940000  0.71030000  0.76950000  1.0 -0.5266790754
O  O63  1  0.07940000  0.78970000  0.76950000  1.0 -0.5266790754
O  O64  1  0.42060000  0.28970000  0.23050000  1.0 -0.5266790754
O  O65  1  0.70110000  0.42550000  0.26920000  1.0 -0.6891997572
O  O66  1  0.79890000  0.92550000  0.73080000  1.0 -0.6891997572
O  O67  1  0.29890000  0.57450000  0.73080000  1.0 -0.6891997572
O  O68  1  0.20110000  0.07450000  0.26920000  1.0 -0.6891997572
O  O69  1  0.58410000  0.43450000  0.14880000  1.0 -0.6160545166
O  O70  1  0.91590000  0.93450000  0.85120000  1.0 -0.6160545166
O  O71  1  0.41590000  0.56550000  0.85120000  1.0 -0.6160545166
O  O72  1  0.08410000  0.06550000  0.14880000  1.0 -0.6160545166
O  O73  1  0.57100000  0.60780000  0.45770000  1.0 -0.5214861597
O  O74  1  0.92900000  0.10780000  0.54230000  1.0 -0.5214861597
O  O75  1  0.42900000  0.39220000  0.54230000  1.0 -0.5214861597
O  O76  1  0.07100000  0.89220000  0.45770000  1.0 -0.5214861597
O  O77  1  0.69950000  0.57790000  0.48680000  1.0 -0.6497121419
O  O78  1  0.80050000  0.07790000  0.51320000  1.0 -0.6497121419
O  O79  1  0.30050000  0.42210000  0.51320000  1.0 -0.6497121419
O  O80  1  0.19950000  0.92210000  0.48680000  1.0 -0.6497121419
O  O81  1  0.94410000  0.55980000  0.75390000  1.0 -0.6891997572
O  O82  1  0.55590000  0.05980000  0.24610000  1.0 -0.6891997572
O  O83  1  0.05590000  0.44020000  0.24610000  1.0 -0.6891997572
O  O84  1  0.44410000  0.94020000  0.75390000  1.0 -0.6891997572
O  O85  1  0.92830000  0.61850000  0.85220000  1.0 -0.5266790754
O  O86  1  0.57170000  0.11850000  0.14780000  1.0 -0.5266790754
O  O87  1  0.07170000  0.38150000  0.14780000  1.0 -0.5266790754
O  O88  1  0.42830000  0.88150000  0.85220000  1.0 -0.5266790754
O  O89  1  0.16790000  0.41640000  0.81130000  1.0 -0.671692368
O  O90  1  0.33210000  0.91640000  0.18870000  1.0 -0.671692368
O  O91  1  0.83210000  0.58360000  0.18870000  1.0 -0.671692368
O  O92  1  0.66790000  0.08360000  0.81130000  1.0 -0.671692368
O  O93  1  0.27850000  0.40790000  0.93760000  1.0 -0.656130534
O  O94  1  0.22150000  0.90790000  0.06240000  1.0 -0.656130534
O  O95  1  0.72150000  0.59210000  0.06240000  1.0 -0.656130534
O  O96  1  0.77850000  0.09210000  0.93760000  1.0 -0.656130534
O  O97  1  0.47880000  0.43550000  0.95680000  1.0 -0.7158638205
O  O98  1  0.02120000  0.93550000  0.04320000  1.0 -0.7158638205
O  O99  1  0.52120000  0.56450000  0.04320000  1.0 -0.7158638205
O  O100  1  0.97880000  0.06450000  0.95680000  1.0 -0.7158638205
O  O101  1  0.59980000  0.38450000  0.00960000  1.0 -0.5214861597
O  O102  1  0.90020000  0.88450000  0.99040000  1.0 -0.5214861597
O  O103  1  0.40020000  0.61550000  0.99040000  1.0 -0.5214861597
O  O104  1  0.09980000  0.11550000  0.00960000  1.0 -0.5214861597
O  O105  1  0.11360000  0.61540000  0.81770000  1.0 -0.5991231467
O  O106  1  0.38640000  0.11540000  0.18230000  1.0 -0.5991231467
O  O107  1  0.88640000  0.38460000  0.18230000  1.0 -0.5991231467
O  O108  1  0.61360000  0.88460000  0.81770000  1.0 -0.5991231467
O  O109  1  0.22800000  0.55270000  0.84820000  1.0 -0.7574775036
O  O110  1  0.27200000  0.05270000  0.15180000  1.0 -0.7574775036
O  O111  1  0.77200000  0.44730000  0.15180000  1.0 -0.7574775036
O  O112  1  0.72800000  0.94730000  0.84820000  1.0 -0.7574775036
O  O113  1  0.31740000  0.45090000  0.80470000  1.0 -0.9894326742
O  O114  1  0.18260000  0.95090000  0.19530000  1.0 -0.9894326742
O  O115  1  0.68260000  0.54910000  0.19530000  1.0 -0.9894326742
O  O116  1  0.81740000  0.04910000  0.80470000  1.0 -0.9894326742
O  O117  1  0.32970000  0.37440000  0.67430000  1.0 -0.8977608796
O  O118  1  0.17030000  0.87440000  0.32570000  1.0 -0.8977608796
O  O119  1  0.67030000  0.62560000  0.32570000  1.0 -0.8977608796
O  O120  1  0.82970000  0.12560000  0.67430000  1.0 -0.8977608796
O  O121  1  0.41870000  0.46480000  0.07780000  1.0 -0.7574775036
O  O122  1  0.08130000  0.96480000  0.92220000  1.0 -0.7574775036
O  O123  1  0.58130000  0.53520000  0.92220000  1.0 -0.7574775036
O  O124  1  0.91870000  0.03520000  0.07780000  1.0 -0.7574775036
