# DDEC6 charges by PACMAN v1.1 (https://github.com/mtap-research/PACMAN-charge/)
data_UROXOR_FSR_pacman
_symmetry_space_group_name_H-M   'P 1'
_cell_length_a   34.81080000
_cell_length_b   34.81080000
_cell_length_c   13.56300000
_cell_angle_alpha   90.00000000
_cell_angle_beta   90.00000000
_cell_angle_gamma   120.00000000
_symmetry_Int_Tables_number   1
_chemical_formula_structural   Ba3H38C44(NO5)4
_chemical_formula_sum   'Ba18 H228 C264 N24 O120'
_cell_volume   14233.58835607
_cell_formula_units_Z   6
loop_
 _symmetry_equiv_pos_site_id
 _symmetry_equiv_pos_as_xyz
  1  'x, y, z'
loop_
 _atom_site_type_symbol
 _atom_site_label
 _atom_site_symmetry_multiplicity
 _atom_site_fract_x
 _atom_site_fract_y
 _atom_site_fract_z
 _atom_site_occupancy
 _atom_site_charge
Ba  Ba1  1  0.43266000  0.49065000  0.04411000  1.0 1.49147017
Ba  Ba2  1  0.05799000  0.56734000  0.04411000  1.0 1.49147017
Ba  Ba3  1  0.50935000  0.94201000  0.04411000  1.0 1.49147017
Ba  Ba4  1  0.94201000  0.50935000  0.45589000  1.0 1.49147017
Ba  Ba5  1  0.49065000  0.43266000  0.45589000  1.0 1.49147017
Ba  Ba6  1  0.56734000  0.05799000  0.45589000  1.0 1.49147017
Ba  Ba7  1  0.56734000  0.50935000  0.95589000  1.0 1.49147017
Ba  Ba8  1  0.94201000  0.43266000  0.95589000  1.0 1.49147017
Ba  Ba9  1  0.49065000  0.05799000  0.95589000  1.0 1.49147017
Ba  Ba10  1  0.05799000  0.49065000  0.54411000  1.0 1.49147017
Ba  Ba11  1  0.50935000  0.56734000  0.54411000  1.0 1.49147017
Ba  Ba12  1  0.43266000  0.94201000  0.54411000  1.0 1.49147017
Ba  Ba13  1  0.45591000  0.45591000  0.75000000  1.0 1.3664061546
Ba  Ba14  1  0.00000000  0.54409000  0.75000000  1.0 1.3664061546
Ba  Ba15  1  0.54409000  0.00000000  0.75000000  1.0 1.3664061546
Ba  Ba16  1  0.54409000  0.54409000  0.25000000  1.0 1.3664061546
Ba  Ba17  1  0.00000000  0.45591000  0.25000000  1.0 1.3664061546
Ba  Ba18  1  0.45591000  0.00000000  0.25000000  1.0 1.3664061546
H  H1  1  0.34780000  0.50010000  0.93650000  1.0 0.1300202057
H  H2  1  0.31200000  0.52930000  0.02730000  1.0 0.1578276202
H  H3  1  0.26010000  0.50310000  0.03240000  1.0 0.1397399351
H  H4  1  0.28440000  0.54130000  0.95510000  1.0 0.1397399351
H  H5  1  0.28510000  0.40640000  0.72840000  1.0 0.1300202057
H  H6  1  0.21970000  0.40860000  0.75600000  1.0 0.1397399351
H  H7  1  0.12570000  0.49910000  0.74840000  1.0 0.1397399351
H  H8  1  0.10620000  0.43560000  0.06400000  1.0 0.1490174105
H  H9  1  0.32740000  0.41150000  0.04930000  1.0 0.3980407834
H  H10  1  0.34050000  0.41360000  0.15010000  1.0 0.3889332657
H  H11  1  0.42100000  0.59760000  0.27020000  1.0 0.1300202057
H  H12  1  0.47150000  0.61780000  0.24620000  1.0 0.1397399351
H  H13  1  0.43720000  0.56980000  0.21030000  1.0 0.1397399351
H  H14  1  0.38780000  0.61730000  0.96920000  1.0 0.1578276202
H  H15  1  0.40450000  0.59000000  0.90890000  1.0 0.1490174105
H  H16  1  0.43840000  0.63810000  0.94510000  1.0 0.1397399351
H  H17  1  0.44130000  0.67750000  0.07510000  1.0 0.1300202057
H  H18  1  0.48660000  0.68210000  0.10790000  1.0 0.1300202057
H  H19  1  0.45190000  0.67750000  0.18750000  1.0 0.1490174105
H  H20  1  0.15230000  0.65220000  0.93650000  1.0 0.1300202057
H  H21  1  0.21730000  0.68800000  0.02730000  1.0 0.1578276202
H  H22  1  0.24300000  0.73990000  0.03240000  1.0 0.1397399351
H  H23  1  0.25690000  0.71560000  0.95510000  1.0 0.1397399351
H  H24  1  0.12130000  0.71490000  0.72840000  1.0 0.1300202057
H  H25  1  0.18890000  0.78030000  0.75600000  1.0 0.1397399351
H  H26  1  0.37340000  0.87430000  0.74840000  1.0 0.1397399351
H  H27  1  0.32940000  0.89380000  0.06400000  1.0 0.1490174105
H  H28  1  0.08410000  0.67260000  0.04930000  1.0 0.3980407834
H  H29  1  0.07310000  0.65950000  0.15010000  1.0 0.3889332657
H  H30  1  0.17660000  0.57900000  0.27020000  1.0 0.1300202057
H  H31  1  0.14630000  0.52850000  0.24620000  1.0 0.1397399351
H  H32  1  0.13260000  0.56280000  0.21030000  1.0 0.1397399351
H  H33  1  0.22950000  0.61220000  0.96920000  1.0 0.1578276202
H  H34  1  0.18550000  0.59550000  0.90890000  1.0 0.1490174105
H  H35  1  0.19970000  0.56160000  0.94510000  1.0 0.1397399351
H  H36  1  0.23620000  0.55870000  0.07510000  1.0 0.1300202057
H  H37  1  0.19550000  0.51340000  0.10790000  1.0 0.1300202057
H  H38  1  0.22560000  0.54810000  0.18750000  1.0 0.1490174105
H  H39  1  0.49990000  0.84770000  0.93650000  1.0 0.1300202057
H  H40  1  0.47070000  0.78270000  0.02730000  1.0 0.1578276202
H  H41  1  0.49690000  0.75700000  0.03240000  1.0 0.1397399351
H  H42  1  0.45870000  0.74310000  0.95510000  1.0 0.1397399351
H  H43  1  0.59360000  0.87870000  0.72840000  1.0 0.1300202057
H  H44  1  0.59140000  0.81110000  0.75600000  1.0 0.1397399351
H  H45  1  0.50090000  0.62660000  0.74840000  1.0 0.1397399351
H  H46  1  0.56440000  0.67060000  0.06400000  1.0 0.1490174105
H  H47  1  0.58850000  0.91590000  0.04930000  1.0 0.3980407834
H  H48  1  0.58640000  0.92690000  0.15010000  1.0 0.3889332657
H  H49  1  0.40240000  0.82340000  0.27020000  1.0 0.1300202057
H  H50  1  0.38220000  0.85370000  0.24620000  1.0 0.1397399351
H  H51  1  0.43020000  0.86740000  0.21030000  1.0 0.1397399351
H  H52  1  0.38270000  0.77050000  0.96920000  1.0 0.1578276202
H  H53  1  0.41000000  0.81450000  0.90890000  1.0 0.1490174105
H  H54  1  0.36190000  0.80030000  0.94510000  1.0 0.1397399351
H  H55  1  0.32250000  0.76380000  0.07510000  1.0 0.1300202057
H  H56  1  0.31790000  0.80450000  0.10790000  1.0 0.1300202057
H  H57  1  0.32250000  0.77440000  0.18750000  1.0 0.1490174105
H  H58  1  0.84770000  0.49990000  0.56350000  1.0 0.1300202057
H  H59  1  0.78270000  0.47070000  0.47270000  1.0 0.1578276202
H  H60  1  0.75700000  0.49690000  0.46760000  1.0 0.1397399351
H  H61  1  0.74310000  0.45870000  0.54490000  1.0 0.1397399351
H  H62  1  0.87870000  0.59360000  0.77160000  1.0 0.1300202057
H  H63  1  0.81110000  0.59140000  0.74400000  1.0 0.1397399351
H  H64  1  0.62660000  0.50090000  0.75160000  1.0 0.1397399351
H  H65  1  0.67060000  0.56440000  0.43600000  1.0 0.1490174105
H  H66  1  0.91590000  0.58850000  0.45070000  1.0 0.3980407834
H  H67  1  0.92690000  0.58640000  0.34990000  1.0 0.3889332657
H  H68  1  0.82340000  0.40240000  0.22980000  1.0 0.1300202057
H  H69  1  0.85370000  0.38220000  0.25380000  1.0 0.1397399351
H  H70  1  0.86740000  0.43020000  0.28970000  1.0 0.1397399351
H  H71  1  0.77050000  0.38270000  0.53080000  1.0 0.1578276202
H  H72  1  0.81450000  0.41000000  0.59110000  1.0 0.1490174105
H  H73  1  0.80030000  0.36190000  0.55490000  1.0 0.1397399351
H  H74  1  0.76380000  0.32250000  0.42490000  1.0 0.1300202057
H  H75  1  0.80450000  0.31790000  0.39210000  1.0 0.1300202057
H  H76  1  0.77440000  0.32250000  0.31250000  1.0 0.1490174105
H  H77  1  0.50010000  0.34780000  0.56350000  1.0 0.1300202057
H  H78  1  0.52930000  0.31200000  0.47270000  1.0 0.1578276202
H  H79  1  0.50310000  0.26010000  0.46760000  1.0 0.1397399351
H  H80  1  0.54130000  0.28440000  0.54490000  1.0 0.1397399351
H  H81  1  0.40640000  0.28510000  0.77160000  1.0 0.1300202057
H  H82  1  0.40860000  0.21970000  0.74400000  1.0 0.1397399351
H  H83  1  0.49910000  0.12570000  0.75160000  1.0 0.1397399351
H  H84  1  0.43560000  0.10620000  0.43600000  1.0 0.1490174105
H  H85  1  0.41150000  0.32740000  0.45070000  1.0 0.3980407834
H  H86  1  0.41360000  0.34050000  0.34990000  1.0 0.3889332657
H  H87  1  0.59760000  0.42100000  0.22980000  1.0 0.1300202057
H  H88  1  0.61780000  0.47150000  0.25380000  1.0 0.1397399351
H  H89  1  0.56980000  0.43720000  0.28970000  1.0 0.1397399351
H  H90  1  0.61730000  0.38780000  0.53080000  1.0 0.1578276202
H  H91  1  0.59000000  0.40450000  0.59110000  1.0 0.1490174105
H  H92  1  0.63810000  0.43840000  0.55490000  1.0 0.1397399351
H  H93  1  0.67750000  0.44130000  0.42490000  1.0 0.1300202057
H  H94  1  0.68210000  0.48660000  0.39210000  1.0 0.1300202057
H  H95  1  0.67750000  0.45190000  0.31250000  1.0 0.1490174105
H  H96  1  0.65220000  0.15230000  0.56350000  1.0 0.1300202057
H  H97  1  0.68800000  0.21730000  0.47270000  1.0 0.1578276202
H  H98  1  0.73990000  0.24300000  0.46760000  1.0 0.1397399351
H  H99  1  0.71560000  0.25690000  0.54490000  1.0 0.1397399351
H  H100  1  0.71490000  0.12130000  0.77160000  1.0 0.1300202057
H  H101  1  0.78030000  0.18890000  0.74400000  1.0 0.1397399351
H  H102  1  0.87430000  0.37340000  0.75160000  1.0 0.1397399351
H  H103  1  0.89380000  0.32940000  0.43600000  1.0 0.1490174105
H  H104  1  0.67260000  0.08410000  0.45070000  1.0 0.3980407834
H  H105  1  0.65950000  0.07310000  0.34990000  1.0 0.3889332657
H  H106  1  0.57900000  0.17660000  0.22980000  1.0 0.1300202057
H  H107  1  0.52850000  0.14630000  0.25380000  1.0 0.1397399351
H  H108  1  0.56280000  0.13260000  0.28970000  1.0 0.1397399351
H  H109  1  0.61220000  0.22950000  0.53080000  1.0 0.1578276202
H  H110  1  0.59550000  0.18550000  0.59110000  1.0 0.1490174105
H  H111  1  0.56160000  0.19970000  0.55490000  1.0 0.1397399351
H  H112  1  0.55870000  0.23620000  0.42490000  1.0 0.1300202057
H  H113  1  0.51340000  0.19550000  0.39210000  1.0 0.1300202057
H  H114  1  0.54810000  0.22560000  0.31250000  1.0 0.1490174105
H  H115  1  0.65220000  0.49990000  0.06350000  1.0 0.1300202057
H  H116  1  0.68800000  0.47070000  0.97270000  1.0 0.1578276202
H  H117  1  0.73990000  0.49690000  0.96760000  1.0 0.1397399351
H  H118  1  0.71560000  0.45870000  0.04490000  1.0 0.1397399351
H  H119  1  0.71490000  0.59360000  0.27160000  1.0 0.1300202057
H  H120  1  0.78030000  0.59140000  0.24400000  1.0 0.1397399351
H  H121  1  0.87430000  0.50090000  0.25160000  1.0 0.1397399351
H  H122  1  0.89380000  0.56440000  0.93600000  1.0 0.1490174105
H  H123  1  0.67260000  0.58850000  0.95070000  1.0 0.3980407834
H  H124  1  0.65950000  0.58640000  0.84990000  1.0 0.3889332657
H  H125  1  0.57900000  0.40240000  0.72980000  1.0 0.1300202057
H  H126  1  0.52850000  0.38220000  0.75380000  1.0 0.1397399351
H  H127  1  0.56280000  0.43020000  0.78970000  1.0 0.1397399351
H  H128  1  0.61220000  0.38270000  0.03080000  1.0 0.1578276202
H  H129  1  0.59550000  0.41000000  0.09110000  1.0 0.1490174105
H  H130  1  0.56160000  0.36190000  0.05490000  1.0 0.1397399351
H  H131  1  0.55870000  0.32250000  0.92490000  1.0 0.1300202057
H  H132  1  0.51340000  0.31790000  0.89210000  1.0 0.1300202057
H  H133  1  0.54810000  0.32250000  0.81250000  1.0 0.1490174105
H  H134  1  0.84770000  0.34780000  0.06350000  1.0 0.1300202057
H  H135  1  0.78270000  0.31200000  0.97270000  1.0 0.1578276202
H  H136  1  0.75700000  0.26010000  0.96760000  1.0 0.1397399351
H  H137  1  0.74310000  0.28440000  0.04490000  1.0 0.1397399351
H  H138  1  0.87870000  0.28510000  0.27160000  1.0 0.1300202057
H  H139  1  0.81110000  0.21970000  0.24400000  1.0 0.1397399351
H  H140  1  0.62660000  0.12570000  0.25160000  1.0 0.1397399351
H  H141  1  0.67060000  0.10620000  0.93600000  1.0 0.1490174105
H  H142  1  0.91590000  0.32740000  0.95070000  1.0 0.3980407834
H  H143  1  0.92690000  0.34050000  0.84990000  1.0 0.3889332657
H  H144  1  0.82340000  0.42100000  0.72980000  1.0 0.1300202057
H  H145  1  0.85370000  0.47150000  0.75380000  1.0 0.1397399351
H  H146  1  0.86740000  0.43720000  0.78970000  1.0 0.1397399351
H  H147  1  0.77050000  0.38780000  0.03080000  1.0 0.1578276202
H  H148  1  0.81450000  0.40450000  0.09110000  1.0 0.1490174105
H  H149  1  0.80030000  0.43840000  0.05490000  1.0 0.1397399351
H  H150  1  0.76380000  0.44130000  0.92490000  1.0 0.1300202057
H  H151  1  0.80450000  0.48660000  0.89210000  1.0 0.1300202057
H  H152  1  0.77440000  0.45190000  0.81250000  1.0 0.1490174105
H  H153  1  0.50010000  0.15230000  0.06350000  1.0 0.1300202057
H  H154  1  0.52930000  0.21730000  0.97270000  1.0 0.1578276202
H  H155  1  0.50310000  0.24300000  0.96760000  1.0 0.1397399351
H  H156  1  0.54130000  0.25690000  0.04490000  1.0 0.1397399351
H  H157  1  0.40640000  0.12130000  0.27160000  1.0 0.1300202057
H  H158  1  0.40860000  0.18890000  0.24400000  1.0 0.1397399351
H  H159  1  0.49910000  0.37340000  0.25160000  1.0 0.1397399351
H  H160  1  0.43560000  0.32940000  0.93600000  1.0 0.1490174105
H  H161  1  0.41150000  0.08410000  0.95070000  1.0 0.3980407834
H  H162  1  0.41360000  0.07310000  0.84990000  1.0 0.3889332657
H  H163  1  0.59760000  0.17660000  0.72980000  1.0 0.1300202057
H  H164  1  0.61780000  0.14630000  0.75380000  1.0 0.1397399351
H  H165  1  0.56980000  0.13260000  0.78970000  1.0 0.1397399351
H  H166  1  0.61730000  0.22950000  0.03080000  1.0 0.1578276202
H  H167  1  0.59000000  0.18550000  0.09110000  1.0 0.1490174105
H  H168  1  0.63810000  0.19970000  0.05490000  1.0 0.1397399351
H  H169  1  0.67750000  0.23620000  0.92490000  1.0 0.1300202057
H  H170  1  0.68210000  0.19550000  0.89210000  1.0 0.1300202057
H  H171  1  0.67750000  0.22560000  0.81250000  1.0 0.1490174105
H  H172  1  0.15230000  0.50010000  0.43650000  1.0 0.1300202057
H  H173  1  0.21730000  0.52930000  0.52730000  1.0 0.1578276202
H  H174  1  0.24300000  0.50310000  0.53240000  1.0 0.1397399351
H  H175  1  0.25690000  0.54130000  0.45510000  1.0 0.1397399351
H  H176  1  0.12130000  0.40640000  0.22840000  1.0 0.1300202057
H  H177  1  0.18890000  0.40860000  0.25600000  1.0 0.1397399351
H  H178  1  0.37340000  0.49910000  0.24840000  1.0 0.1397399351
H  H179  1  0.32940000  0.43560000  0.56400000  1.0 0.1490174105
H  H180  1  0.08410000  0.41150000  0.54930000  1.0 0.3980407834
H  H181  1  0.07310000  0.41360000  0.65010000  1.0 0.3889332657
H  H182  1  0.17660000  0.59760000  0.77020000  1.0 0.1300202057
H  H183  1  0.14630000  0.61780000  0.74620000  1.0 0.1397399351
H  H184  1  0.13260000  0.56980000  0.71030000  1.0 0.1397399351
H  H185  1  0.22950000  0.61730000  0.46920000  1.0 0.1578276202
H  H186  1  0.18550000  0.59000000  0.40890000  1.0 0.1490174105
H  H187  1  0.19970000  0.63810000  0.44510000  1.0 0.1397399351
H  H188  1  0.23620000  0.67750000  0.57510000  1.0 0.1300202057
H  H189  1  0.19550000  0.68210000  0.60790000  1.0 0.1300202057
H  H190  1  0.22560000  0.67750000  0.68750000  1.0 0.1490174105
H  H191  1  0.49990000  0.65220000  0.43650000  1.0 0.1300202057
H  H192  1  0.47070000  0.68800000  0.52730000  1.0 0.1578276202
H  H193  1  0.49690000  0.73990000  0.53240000  1.0 0.1397399351
H  H194  1  0.45870000  0.71560000  0.45510000  1.0 0.1397399351
H  H195  1  0.59360000  0.71490000  0.22840000  1.0 0.1300202057
H  H196  1  0.59140000  0.78030000  0.25600000  1.0 0.1397399351
H  H197  1  0.50090000  0.87430000  0.24840000  1.0 0.1397399351
H  H198  1  0.56440000  0.89380000  0.56400000  1.0 0.1490174105
H  H199  1  0.58850000  0.67260000  0.54930000  1.0 0.3980407834
H  H200  1  0.58640000  0.65950000  0.65010000  1.0 0.3889332657
H  H201  1  0.40240000  0.57900000  0.77020000  1.0 0.1300202057
H  H202  1  0.38220000  0.52850000  0.74620000  1.0 0.1397399351
H  H203  1  0.43020000  0.56280000  0.71030000  1.0 0.1397399351
H  H204  1  0.38270000  0.61220000  0.46920000  1.0 0.1578276202
H  H205  1  0.41000000  0.59550000  0.40890000  1.0 0.1490174105
H  H206  1  0.36190000  0.56160000  0.44510000  1.0 0.1397399351
H  H207  1  0.32250000  0.55870000  0.57510000  1.0 0.1300202057
H  H208  1  0.31790000  0.51340000  0.60790000  1.0 0.1300202057
H  H209  1  0.32250000  0.54810000  0.68750000  1.0 0.1490174105
H  H210  1  0.34780000  0.84770000  0.43650000  1.0 0.1300202057
H  H211  1  0.31200000  0.78270000  0.52730000  1.0 0.1578276202
H  H212  1  0.26010000  0.75700000  0.53240000  1.0 0.1397399351
H  H213  1  0.28440000  0.74310000  0.45510000  1.0 0.1397399351
H  H214  1  0.28510000  0.87870000  0.22840000  1.0 0.1300202057
H  H215  1  0.21970000  0.81110000  0.25600000  1.0 0.1397399351
H  H216  1  0.12570000  0.62660000  0.24840000  1.0 0.1397399351
H  H217  1  0.10620000  0.67060000  0.56400000  1.0 0.1490174105
H  H218  1  0.32740000  0.91590000  0.54930000  1.0 0.3980407834
H  H219  1  0.34050000  0.92690000  0.65010000  1.0 0.3889332657
H  H220  1  0.42100000  0.82340000  0.77020000  1.0 0.1300202057
H  H221  1  0.47150000  0.85370000  0.74620000  1.0 0.1397399351
H  H222  1  0.43720000  0.86740000  0.71030000  1.0 0.1397399351
H  H223  1  0.38780000  0.77050000  0.46920000  1.0 0.1578276202
H  H224  1  0.40450000  0.81450000  0.40890000  1.0 0.1490174105
H  H225  1  0.43840000  0.80030000  0.44510000  1.0 0.1397399351
H  H226  1  0.44130000  0.76380000  0.57510000  1.0 0.1300202057
H  H227  1  0.48660000  0.80450000  0.60790000  1.0 0.1300202057
H  H228  1  0.45190000  0.77440000  0.68750000  1.0 0.1490174105
C  C1  1  0.32220000  0.45110000  0.83270000  1.0 -0.0445394546
C  C2  1  0.36390000  0.45040000  0.81420000  1.0 0.5656688928
C  C3  1  0.15040000  0.47410000  0.84890000  1.0 -0.0534459038
C  C4  1  0.28400000  0.48430000  0.91500000  1.0 0.1076528512
C  C5  1  0.32230000  0.48180000  0.90090000  1.0 -0.1639901728
C  C6  1  0.14450000  0.45450000  0.94080000  1.0 -0.0695570961
C  C7  1  0.24610000  0.45640000  0.86040000  1.0 0.1300202057
C  C8  1  0.28520000  0.51750000  0.98930000  1.0 -0.447962312
C  C9  1  0.19240000  0.47910000  0.80570000  1.0 0.4494939566
C  C10  1  0.28450000  0.42520000  0.77650000  1.0 -0.0924345508
C  C11  1  0.24530000  0.42680000  0.79150000  1.0 -0.1525832631
C  C12  1  0.08240000  0.46420000  0.96740000  1.0 0.0039263122
C  C13  1  0.08660000  0.48180000  0.87350000  1.0 -0.055532518
C  C14  1  0.12200000  0.48730000  0.81150000  1.0 -0.0993333452
C  C15  1  0.11040000  0.44890000  0.00240000  1.0 -0.0801509531
C  C16  1  0.17920000  0.44290000  0.95730000  1.0 0.4419366091
C  C17  1  0.05430000  0.49490000  0.83300000  1.0 0.6047012329
C  C18  1  0.04830000  0.46250000  0.04100000  1.0 0.5906993071
C  C19  1  0.41910000  0.58960000  0.06950000  1.0 0.4419366091
C  C20  1  0.44190000  0.59900000  0.22200000  1.0 -0.4268950403
C  C21  1  0.41160000  0.61110000  0.96100000  1.0 -0.6458622694
C  C22  1  0.45560000  0.66850000  0.12300000  1.0 -0.3455466509
C  C23  1  0.12890000  0.67780000  0.83270000  1.0 -0.0445394546
C  C24  1  0.08650000  0.63610000  0.81420000  1.0 0.5656688928
C  C25  1  0.32370000  0.84960000  0.84890000  1.0 -0.0534459038
C  C26  1  0.20030000  0.71600000  0.91500000  1.0 0.1076528512
C  C27  1  0.15950000  0.67770000  0.90090000  1.0 -0.1639901728
C  C28  1  0.31000000  0.85550000  0.94080000  1.0 -0.0695570961
C  C29  1  0.21030000  0.75390000  0.86040000  1.0 0.1300202057
C  C30  1  0.23230000  0.71480000  0.98930000  1.0 -0.447962312
C  C31  1  0.28670000  0.80760000  0.80570000  1.0 0.4494939566
C  C32  1  0.14070000  0.71550000  0.77650000  1.0 -0.0924345508
C  C33  1  0.18150000  0.75470000  0.79150000  1.0 -0.1525832631
C  C34  1  0.38180000  0.91760000  0.96740000  1.0 0.0039263122
C  C35  1  0.39520000  0.91340000  0.87350000  1.0 -0.055532518
C  C36  1  0.36530000  0.87800000  0.81150000  1.0 -0.0993333452
C  C37  1  0.33850000  0.88960000  0.00240000  1.0 -0.0801509531
C  C38  1  0.26370000  0.82080000  0.95730000  1.0 0.4419366091
C  C39  1  0.44060000  0.94570000  0.83300000  1.0 0.6047012329
C  C40  1  0.41420000  0.95170000  0.04100000  1.0 0.5906993071
C  C41  1  0.17050000  0.58090000  0.06950000  1.0 0.4419366091
C  C42  1  0.15710000  0.55810000  0.22200000  1.0 -0.4268950403
C  C43  1  0.19950000  0.58840000  0.96100000  1.0 -0.6458622694
C  C44  1  0.21290000  0.54440000  0.12300000  1.0 -0.3455466509
C  C45  1  0.54890000  0.87110000  0.83270000  1.0 -0.0445394546
C  C46  1  0.54960000  0.91350000  0.81420000  1.0 0.5656688928
C  C47  1  0.52590000  0.67630000  0.84890000  1.0 -0.0534459038
C  C48  1  0.51570000  0.79970000  0.91500000  1.0 0.1076528512
C  C49  1  0.51820000  0.84050000  0.90090000  1.0 -0.1639901728
C  C50  1  0.54550000  0.69000000  0.94080000  1.0 -0.0695570961
C  C51  1  0.54360000  0.78970000  0.86040000  1.0 0.1300202057
C  C52  1  0.48250000  0.76770000  0.98930000  1.0 -0.447962312
C  C53  1  0.52090000  0.71330000  0.80570000  1.0 0.4494939566
C  C54  1  0.57480000  0.85930000  0.77650000  1.0 -0.0924345508
C  C55  1  0.57320000  0.81850000  0.79150000  1.0 -0.1525832631
C  C56  1  0.53580000  0.61820000  0.96740000  1.0 0.0039263122
C  C57  1  0.51820000  0.60480000  0.87350000  1.0 -0.055532518
C  C58  1  0.51270000  0.63470000  0.81150000  1.0 -0.0993333452
C  C59  1  0.55110000  0.66150000  0.00240000  1.0 -0.0801509531
C  C60  1  0.55710000  0.73630000  0.95730000  1.0 0.4419366091
C  C61  1  0.50510000  0.55940000  0.83300000  1.0 0.6047012329
C  C62  1  0.53750000  0.58580000  0.04100000  1.0 0.5906993071
C  C63  1  0.41040000  0.82950000  0.06950000  1.0 0.4419366091
C  C64  1  0.40100000  0.84290000  0.22200000  1.0 -0.4268950403
C  C65  1  0.38890000  0.80050000  0.96100000  1.0 -0.6458622694
C  C66  1  0.33150000  0.78710000  0.12300000  1.0 -0.3455466509
C  C67  1  0.87110000  0.54890000  0.66730000  1.0 -0.0445394546
C  C68  1  0.91350000  0.54960000  0.68580000  1.0 0.5656688928
C  C69  1  0.67630000  0.52590000  0.65110000  1.0 -0.0534459038
C  C70  1  0.79970000  0.51570000  0.58500000  1.0 0.1076528512
C  C71  1  0.84050000  0.51820000  0.59910000  1.0 -0.1639901728
C  C72  1  0.69000000  0.54550000  0.55920000  1.0 -0.0695570961
C  C73  1  0.78970000  0.54360000  0.63960000  1.0 0.1300202057
C  C74  1  0.76770000  0.48250000  0.51070000  1.0 -0.447962312
C  C75  1  0.71330000  0.52090000  0.69430000  1.0 0.4494939566
C  C76  1  0.85930000  0.57480000  0.72350000  1.0 -0.0924345508
C  C77  1  0.81850000  0.57320000  0.70850000  1.0 -0.1525832631
C  C78  1  0.61820000  0.53580000  0.53260000  1.0 0.0039263122
C  C79  1  0.60480000  0.51820000  0.62650000  1.0 -0.055532518
C  C80  1  0.63470000  0.51270000  0.68850000  1.0 -0.0993333452
C  C81  1  0.66150000  0.55110000  0.49760000  1.0 -0.0801509531
C  C82  1  0.73630000  0.55710000  0.54270000  1.0 0.4419366091
C  C83  1  0.55940000  0.50510000  0.66700000  1.0 0.6047012329
C  C84  1  0.58580000  0.53750000  0.45900000  1.0 0.5906993071
C  C85  1  0.82950000  0.41040000  0.43050000  1.0 0.4419366091
C  C86  1  0.84290000  0.40100000  0.27800000  1.0 -0.4268950403
C  C87  1  0.80050000  0.38890000  0.53900000  1.0 -0.6458622694
C  C88  1  0.78710000  0.33150000  0.37700000  1.0 -0.3455466509
C  C89  1  0.45110000  0.32220000  0.66730000  1.0 -0.0445394546
C  C90  1  0.45040000  0.36390000  0.68580000  1.0 0.5656688928
C  C91  1  0.47410000  0.15040000  0.65110000  1.0 -0.0534459038
C  C92  1  0.48430000  0.28400000  0.58500000  1.0 0.1076528512
C  C93  1  0.48180000  0.32230000  0.59910000  1.0 -0.1639901728
C  C94  1  0.45450000  0.14450000  0.55920000  1.0 -0.0695570961
C  C95  1  0.45640000  0.24610000  0.63960000  1.0 0.1300202057
C  C96  1  0.51750000  0.28520000  0.51070000  1.0 -0.447962312
C  C97  1  0.47910000  0.19240000  0.69430000  1.0 0.4494939566
C  C98  1  0.42520000  0.28450000  0.72350000  1.0 -0.0924345508
C  C99  1  0.42680000  0.24530000  0.70850000  1.0 -0.1525832631
C  C100  1  0.46420000  0.08240000  0.53260000  1.0 0.0039263122
C  C101  1  0.48180000  0.08660000  0.62650000  1.0 -0.055532518
C  C102  1  0.48730000  0.12200000  0.68850000  1.0 -0.0993333452
C  C103  1  0.44890000  0.11040000  0.49760000  1.0 -0.0801509531
C  C104  1  0.44290000  0.17920000  0.54270000  1.0 0.4419366091
C  C105  1  0.49490000  0.05430000  0.66700000  1.0 0.6047012329
C  C106  1  0.46250000  0.04830000  0.45900000  1.0 0.5906993071
C  C107  1  0.58960000  0.41910000  0.43050000  1.0 0.4419366091
C  C108  1  0.59900000  0.44190000  0.27800000  1.0 -0.4268950403
C  C109  1  0.61110000  0.41160000  0.53900000  1.0 -0.6458622694
C  C110  1  0.66850000  0.45560000  0.37700000  1.0 -0.3455466509
C  C111  1  0.67780000  0.12890000  0.66730000  1.0 -0.0445394546
C  C112  1  0.63610000  0.08650000  0.68580000  1.0 0.5656688928
C  C113  1  0.84960000  0.32370000  0.65110000  1.0 -0.0534459038
C  C114  1  0.71600000  0.20030000  0.58500000  1.0 0.1076528512
C  C115  1  0.67770000  0.15950000  0.59910000  1.0 -0.1639901728
C  C116  1  0.85550000  0.31000000  0.55920000  1.0 -0.0695570961
C  C117  1  0.75390000  0.21030000  0.63960000  1.0 0.1300202057
C  C118  1  0.71480000  0.23230000  0.51070000  1.0 -0.447962312
C  C119  1  0.80760000  0.28670000  0.69430000  1.0 0.4494939566
C  C120  1  0.71550000  0.14070000  0.72350000  1.0 -0.0924345508
C  C121  1  0.75470000  0.18150000  0.70850000  1.0 -0.1525832631
C  C122  1  0.91760000  0.38180000  0.53260000  1.0 0.0039263122
C  C123  1  0.91340000  0.39520000  0.62650000  1.0 -0.055532518
C  C124  1  0.87800000  0.36530000  0.68850000  1.0 -0.0993333452
C  C125  1  0.88960000  0.33850000  0.49760000  1.0 -0.0801509531
C  C126  1  0.82080000  0.26370000  0.54270000  1.0 0.4419366091
C  C127  1  0.94570000  0.44060000  0.66700000  1.0 0.6047012329
C  C128  1  0.95170000  0.41420000  0.45900000  1.0 0.5906993071
C  C129  1  0.58090000  0.17050000  0.43050000  1.0 0.4419366091
C  C130  1  0.55810000  0.15710000  0.27800000  1.0 -0.4268950403
C  C131  1  0.58840000  0.19950000  0.53900000  1.0 -0.6458622694
C  C132  1  0.54440000  0.21290000  0.37700000  1.0 -0.3455466509
C  C133  1  0.67780000  0.54890000  0.16730000  1.0 -0.0445394546
C  C134  1  0.63610000  0.54960000  0.18580000  1.0 0.5656688928
C  C135  1  0.84960000  0.52590000  0.15110000  1.0 -0.0534459038
C  C136  1  0.71600000  0.51570000  0.08500000  1.0 0.1076528512
C  C137  1  0.67770000  0.51820000  0.09910000  1.0 -0.1639901728
C  C138  1  0.85550000  0.54550000  0.05920000  1.0 -0.0695570961
C  C139  1  0.75390000  0.54360000  0.13960000  1.0 0.1300202057
C  C140  1  0.71480000  0.48250000  0.01070000  1.0 -0.447962312
C  C141  1  0.80760000  0.52090000  0.19430000  1.0 0.4494939566
C  C142  1  0.71550000  0.57480000  0.22350000  1.0 -0.0924345508
C  C143  1  0.75470000  0.57320000  0.20850000  1.0 -0.1525832631
C  C144  1  0.91760000  0.53580000  0.03260000  1.0 0.0039263122
C  C145  1  0.91340000  0.51820000  0.12650000  1.0 -0.055532518
C  C146  1  0.87800000  0.51270000  0.18850000  1.0 -0.0993333452
C  C147  1  0.88960000  0.55110000  0.99760000  1.0 -0.0801509531
C  C148  1  0.82080000  0.55710000  0.04270000  1.0 0.4419366091
C  C149  1  0.94570000  0.50510000  0.16700000  1.0 0.6047012329
C  C150  1  0.95170000  0.53750000  0.95900000  1.0 0.5906993071
C  C151  1  0.58090000  0.41040000  0.93050000  1.0 0.4419366091
C  C152  1  0.55810000  0.40100000  0.77800000  1.0 -0.4268950403
C  C153  1  0.58840000  0.38890000  0.03900000  1.0 -0.6458622694
C  C154  1  0.54440000  0.33150000  0.87700000  1.0 -0.3455466509
C  C155  1  0.87110000  0.32220000  0.16730000  1.0 -0.0445394546
C  C156  1  0.91350000  0.36390000  0.18580000  1.0 0.5656688928
C  C157  1  0.67630000  0.15040000  0.15110000  1.0 -0.0534459038
C  C158  1  0.79970000  0.28400000  0.08500000  1.0 0.1076528512
C  C159  1  0.84050000  0.32230000  0.09910000  1.0 -0.1639901728
C  C160  1  0.69000000  0.14450000  0.05920000  1.0 -0.0695570961
C  C161  1  0.78970000  0.24610000  0.13960000  1.0 0.1300202057
C  C162  1  0.76770000  0.28520000  0.01070000  1.0 -0.447962312
C  C163  1  0.71330000  0.19240000  0.19430000  1.0 0.4494939566
C  C164  1  0.85930000  0.28450000  0.22350000  1.0 -0.0924345508
C  C165  1  0.81850000  0.24530000  0.20850000  1.0 -0.1525832631
C  C166  1  0.61820000  0.08240000  0.03260000  1.0 0.0039263122
C  C167  1  0.60480000  0.08660000  0.12650000  1.0 -0.055532518
C  C168  1  0.63470000  0.12200000  0.18850000  1.0 -0.0993333452
C  C169  1  0.66150000  0.11040000  0.99760000  1.0 -0.0801509531
C  C170  1  0.73630000  0.17920000  0.04270000  1.0 0.4419366091
C  C171  1  0.55940000  0.05430000  0.16700000  1.0 0.6047012329
C  C172  1  0.58580000  0.04830000  0.95900000  1.0 0.5906993071
C  C173  1  0.82950000  0.41910000  0.93050000  1.0 0.4419366091
C  C174  1  0.84290000  0.44190000  0.77800000  1.0 -0.4268950403
C  C175  1  0.80050000  0.41160000  0.03900000  1.0 -0.6458622694
C  C176  1  0.78710000  0.45560000  0.87700000  1.0 -0.3455466509
C  C177  1  0.45110000  0.12890000  0.16730000  1.0 -0.0445394546
C  C178  1  0.45040000  0.08650000  0.18580000  1.0 0.5656688928
C  C179  1  0.47410000  0.32370000  0.15110000  1.0 -0.0534459038
C  C180  1  0.48430000  0.20030000  0.08500000  1.0 0.1076528512
C  C181  1  0.48180000  0.15950000  0.09910000  1.0 -0.1639901728
C  C182  1  0.45450000  0.31000000  0.05920000  1.0 -0.0695570961
C  C183  1  0.45640000  0.21030000  0.13960000  1.0 0.1300202057
C  C184  1  0.51750000  0.23230000  0.01070000  1.0 -0.447962312
C  C185  1  0.47910000  0.28670000  0.19430000  1.0 0.4494939566
C  C186  1  0.42520000  0.14070000  0.22350000  1.0 -0.0924345508
C  C187  1  0.42680000  0.18150000  0.20850000  1.0 -0.1525832631
C  C188  1  0.46420000  0.38180000  0.03260000  1.0 0.0039263122
C  C189  1  0.48180000  0.39520000  0.12650000  1.0 -0.055532518
C  C190  1  0.48730000  0.36530000  0.18850000  1.0 -0.0993333452
C  C191  1  0.44890000  0.33850000  0.99760000  1.0 -0.0801509531
C  C192  1  0.44290000  0.26370000  0.04270000  1.0 0.4419366091
C  C193  1  0.49490000  0.44060000  0.16700000  1.0 0.6047012329
C  C194  1  0.46250000  0.41420000  0.95900000  1.0 0.5906993071
C  C195  1  0.58960000  0.17050000  0.93050000  1.0 0.4419366091
C  C196  1  0.59900000  0.15710000  0.77800000  1.0 -0.4268950403
C  C197  1  0.61110000  0.19950000  0.03900000  1.0 -0.6458622694
C  C198  1  0.66850000  0.21290000  0.87700000  1.0 -0.3455466509
C  C199  1  0.12890000  0.45110000  0.33270000  1.0 -0.0445394546
C  C200  1  0.08650000  0.45040000  0.31420000  1.0 0.5656688928
C  C201  1  0.32370000  0.47410000  0.34890000  1.0 -0.0534459038
C  C202  1  0.20030000  0.48430000  0.41500000  1.0 0.1076528512
C  C203  1  0.15950000  0.48180000  0.40090000  1.0 -0.1639901728
C  C204  1  0.31000000  0.45450000  0.44080000  1.0 -0.0695570961
C  C205  1  0.21030000  0.45640000  0.36040000  1.0 0.1300202057
C  C206  1  0.23230000  0.51750000  0.48930000  1.0 -0.447962312
C  C207  1  0.28670000  0.47910000  0.30570000  1.0 0.4494939566
C  C208  1  0.14070000  0.42520000  0.27650000  1.0 -0.0924345508
C  C209  1  0.18150000  0.42680000  0.29150000  1.0 -0.1525832631
C  C210  1  0.38180000  0.46420000  0.46740000  1.0 0.0039263122
C  C211  1  0.39520000  0.48180000  0.37350000  1.0 -0.055532518
C  C212  1  0.36530000  0.48730000  0.31150000  1.0 -0.0993333452
C  C213  1  0.33850000  0.44890000  0.50240000  1.0 -0.0801509531
C  C214  1  0.26370000  0.44290000  0.45730000  1.0 0.4419366091
C  C215  1  0.44060000  0.49490000  0.33300000  1.0 0.6047012329
C  C216  1  0.41420000  0.46250000  0.54100000  1.0 0.5906993071
C  C217  1  0.17050000  0.58960000  0.56950000  1.0 0.4419366091
C  C218  1  0.15710000  0.59900000  0.72200000  1.0 -0.4268950403
C  C219  1  0.19950000  0.61110000  0.46100000  1.0 -0.6458622694
C  C220  1  0.21290000  0.66850000  0.62300000  1.0 -0.3455466509
C  C221  1  0.54890000  0.67780000  0.33270000  1.0 -0.0445394546
C  C222  1  0.54960000  0.63610000  0.31420000  1.0 0.5656688928
C  C223  1  0.52590000  0.84960000  0.34890000  1.0 -0.0534459038
C  C224  1  0.51570000  0.71600000  0.41500000  1.0 0.1076528512
C  C225  1  0.51820000  0.67770000  0.40090000  1.0 -0.1639901728
C  C226  1  0.54550000  0.85550000  0.44080000  1.0 -0.0695570961
C  C227  1  0.54360000  0.75390000  0.36040000  1.0 0.1300202057
C  C228  1  0.48250000  0.71480000  0.48930000  1.0 -0.447962312
C  C229  1  0.52090000  0.80760000  0.30570000  1.0 0.4494939566
C  C230  1  0.57480000  0.71550000  0.27650000  1.0 -0.0924345508
C  C231  1  0.57320000  0.75470000  0.29150000  1.0 -0.1525832631
C  C232  1  0.53580000  0.91760000  0.46740000  1.0 0.0039263122
C  C233  1  0.51820000  0.91340000  0.37350000  1.0 -0.055532518
C  C234  1  0.51270000  0.87800000  0.31150000  1.0 -0.0993333452
C  C235  1  0.55110000  0.88960000  0.50240000  1.0 -0.0801509531
C  C236  1  0.55710000  0.82080000  0.45730000  1.0 0.4419366091
C  C237  1  0.50510000  0.94570000  0.33300000  1.0 0.6047012329
C  C238  1  0.53750000  0.95170000  0.54100000  1.0 0.5906993071
C  C239  1  0.41040000  0.58090000  0.56950000  1.0 0.4419366091
C  C240  1  0.40100000  0.55810000  0.72200000  1.0 -0.4268950403
C  C241  1  0.38890000  0.58840000  0.46100000  1.0 -0.6458622694
C  C242  1  0.33150000  0.54440000  0.62300000  1.0 -0.3455466509
C  C243  1  0.32220000  0.87110000  0.33270000  1.0 -0.0445394546
C  C244  1  0.36390000  0.91350000  0.31420000  1.0 0.5656688928
C  C245  1  0.15040000  0.67630000  0.34890000  1.0 -0.0534459038
C  C246  1  0.28400000  0.79970000  0.41500000  1.0 0.1076528512
C  C247  1  0.32230000  0.84050000  0.40090000  1.0 -0.1639901728
C  C248  1  0.14450000  0.69000000  0.44080000  1.0 -0.0695570961
C  C249  1  0.24610000  0.78970000  0.36040000  1.0 0.1300202057
C  C250  1  0.28520000  0.76770000  0.48930000  1.0 -0.447962312
C  C251  1  0.19240000  0.71330000  0.30570000  1.0 0.4494939566
C  C252  1  0.28450000  0.85930000  0.27650000  1.0 -0.0924345508
C  C253  1  0.24530000  0.81850000  0.29150000  1.0 -0.1525832631
C  C254  1  0.08240000  0.61820000  0.46740000  1.0 0.0039263122
C  C255  1  0.08660000  0.60480000  0.37350000  1.0 -0.055532518
C  C256  1  0.12200000  0.63470000  0.31150000  1.0 -0.0993333452
C  C257  1  0.11040000  0.66150000  0.50240000  1.0 -0.0801509531
C  C258  1  0.17920000  0.73630000  0.45730000  1.0 0.4419366091
C  C259  1  0.05430000  0.55940000  0.33300000  1.0 0.6047012329
C  C260  1  0.04830000  0.58580000  0.54100000  1.0 0.5906993071
C  C261  1  0.41910000  0.82950000  0.56950000  1.0 0.4419366091
C  C262  1  0.44190000  0.84290000  0.72200000  1.0 -0.4268950403
C  C263  1  0.41160000  0.80050000  0.46100000  1.0 -0.6458622694
C  C264  1  0.45560000  0.78710000  0.62300000  1.0 -0.3455466509
N  N1  1  0.20650000  0.45890000  0.87290000  1.0 -0.2295325764
N  N2  1  0.43520000  0.61930000  0.12000000  1.0 0.0625347657
N  N3  1  0.25240000  0.79350000  0.87290000  1.0 -0.2295325764
N  N4  1  0.18410000  0.56480000  0.12000000  1.0 0.0625347657
N  N5  1  0.54110000  0.74760000  0.87290000  1.0 -0.2295325764
N  N6  1  0.38070000  0.81590000  0.12000000  1.0 0.0625347657
N  N7  1  0.74760000  0.54110000  0.62710000  1.0 -0.2295325764
N  N8  1  0.81590000  0.38070000  0.38000000  1.0 0.0625347657
N  N9  1  0.45890000  0.20650000  0.62710000  1.0 -0.2295325764
N  N10  1  0.61930000  0.43520000  0.38000000  1.0 0.0625347657
N  N11  1  0.79350000  0.25240000  0.62710000  1.0 -0.2295325764
N  N12  1  0.56480000  0.18410000  0.38000000  1.0 0.0625347657
N  N13  1  0.79350000  0.54110000  0.12710000  1.0 -0.2295325764
N  N14  1  0.56480000  0.38070000  0.88000000  1.0 0.0625347657
N  N15  1  0.74760000  0.20650000  0.12710000  1.0 -0.2295325764
N  N16  1  0.81590000  0.43520000  0.88000000  1.0 0.0625347657
N  N17  1  0.45890000  0.25240000  0.12710000  1.0 -0.2295325764
N  N18  1  0.61930000  0.18410000  0.88000000  1.0 0.0625347657
N  N19  1  0.25240000  0.45890000  0.37290000  1.0 -0.2295325764
N  N20  1  0.18410000  0.61930000  0.62000000  1.0 0.0625347657
N  N21  1  0.54110000  0.79350000  0.37290000  1.0 -0.2295325764
N  N22  1  0.38070000  0.56480000  0.62000000  1.0 0.0625347657
N  N23  1  0.20650000  0.74760000  0.37290000  1.0 -0.2295325764
N  N24  1  0.43520000  0.81590000  0.62000000  1.0 0.0625347657
O  O1  1  0.39870000  0.47820000  0.86030000  1.0 -0.6706783752
O  O2  1  0.36320000  0.42300000  0.75330000  1.0 -0.5604822814
O  O3  1  0.21150000  0.49840000  0.73190000  1.0 -0.3976366103
O  O4  1  0.18550000  0.42540000  0.02810000  1.0 -0.4075428873
O  O5  1  0.05430000  0.50070000  0.74260000  1.0 -0.6055407405
O  O6  1  0.03034000  0.50008000  0.89540000  1.0 -0.6706783752
O  O7  1  0.06210000  0.49500000  0.09710000  1.0 -0.618857193
O  O8  1  0.01090000  0.42870000  0.04270000  1.0 -0.5986378074
O  O9  1  0.35070000  0.42570000  0.09030000  1.0 -0.7533034265
O  O10  1  0.40460000  0.54960000  0.06670000  1.0 -0.5604822814
O  O11  1  0.07950000  0.60130000  0.86030000  1.0 -0.6706783752
O  O12  1  0.05980000  0.63680000  0.75330000  1.0 -0.5604822814
O  O13  1  0.28690000  0.78850000  0.73190000  1.0 -0.3976366103
O  O14  1  0.23990000  0.81450000  0.02810000  1.0 -0.4075428873
O  O15  1  0.44640000  0.94570000  0.74260000  1.0 -0.6055407405
O  O16  1  0.46974000  0.96966000  0.89540000  1.0 -0.6706783752
O  O17  1  0.43290000  0.93790000  0.09710000  1.0 -0.618857193
O  O18  1  0.41780000  0.98910000  0.04270000  1.0 -0.5986378074
O  O19  1  0.07500000  0.64930000  0.09030000  1.0 -0.7533034265
O  O20  1  0.14500000  0.59540000  0.06670000  1.0 -0.5604822814
O  O21  1  0.52180000  0.92050000  0.86030000  1.0 -0.6706783752
O  O22  1  0.57700000  0.94020000  0.75330000  1.0 -0.5604822814
O  O23  1  0.50160000  0.71310000  0.73190000  1.0 -0.3976366103
O  O24  1  0.57460000  0.76010000  0.02810000  1.0 -0.4075428873
O  O25  1  0.49930000  0.55360000  0.74260000  1.0 -0.6055407405
O  O26  1  0.49992000  0.53026000  0.89540000  1.0 -0.6706783752
O  O27  1  0.50500000  0.56710000  0.09710000  1.0 -0.618857193
O  O28  1  0.57130000  0.58220000  0.04270000  1.0 -0.5986378074
O  O29  1  0.57430000  0.92500000  0.09030000  1.0 -0.7533034265
O  O30  1  0.45040000  0.85500000  0.06670000  1.0 -0.5604822814
O  O31  1  0.92050000  0.52180000  0.63970000  1.0 -0.6706783752
O  O32  1  0.94020000  0.57700000  0.74670000  1.0 -0.5604822814
O  O33  1  0.71310000  0.50160000  0.76810000  1.0 -0.3976366103
O  O34  1  0.76010000  0.57460000  0.47190000  1.0 -0.4075428873
O  O35  1  0.55360000  0.49930000  0.75740000  1.0 -0.6055407405
O  O36  1  0.53026000  0.49992000  0.60460000  1.0 -0.6706783752
O  O37  1  0.56710000  0.50500000  0.40290000  1.0 -0.618857193
O  O38  1  0.58220000  0.57130000  0.45730000  1.0 -0.5986378074
O  O39  1  0.92500000  0.57430000  0.40970000  1.0 -0.7533034265
O  O40  1  0.85500000  0.45040000  0.43330000  1.0 -0.5604822814
O  O41  1  0.47820000  0.39870000  0.63970000  1.0 -0.6706783752
O  O42  1  0.42300000  0.36320000  0.74670000  1.0 -0.5604822814
O  O43  1  0.49840000  0.21150000  0.76810000  1.0 -0.3976366103
O  O44  1  0.42540000  0.18550000  0.47190000  1.0 -0.4075428873
O  O45  1  0.50070000  0.05430000  0.75740000  1.0 -0.6055407405
O  O46  1  0.50008000  0.03034000  0.60460000  1.0 -0.6706783752
O  O47  1  0.49500000  0.06210000  0.40290000  1.0 -0.618857193
O  O48  1  0.42870000  0.01090000  0.45730000  1.0 -0.5986378074
O  O49  1  0.42570000  0.35070000  0.40970000  1.0 -0.7533034265
O  O50  1  0.54960000  0.40460000  0.43330000  1.0 -0.5604822814
O  O51  1  0.60130000  0.07950000  0.63970000  1.0 -0.6706783752
O  O52  1  0.63680000  0.05980000  0.74670000  1.0 -0.5604822814
O  O53  1  0.78850000  0.28690000  0.76810000  1.0 -0.3976366103
O  O54  1  0.81450000  0.23990000  0.47190000  1.0 -0.4075428873
O  O55  1  0.94570000  0.44640000  0.75740000  1.0 -0.6055407405
O  O56  1  0.96966000  0.46974000  0.60460000  1.0 -0.6706783752
O  O57  1  0.93790000  0.43290000  0.40290000  1.0 -0.618857193
O  O58  1  0.98910000  0.41780000  0.45730000  1.0 -0.5986378074
O  O59  1  0.64930000  0.07500000  0.40970000  1.0 -0.7533034265
O  O60  1  0.59540000  0.14500000  0.43330000  1.0 -0.5604822814
O  O61  1  0.60130000  0.52180000  0.13970000  1.0 -0.6706783752
O  O62  1  0.63680000  0.57700000  0.24670000  1.0 -0.5604822814
O  O63  1  0.78850000  0.50160000  0.26810000  1.0 -0.3976366103
O  O64  1  0.81450000  0.57460000  0.97190000  1.0 -0.4075428873
O  O65  1  0.94570000  0.49930000  0.25740000  1.0 -0.6055407405
O  O66  1  0.96966000  0.49992000  0.10460000  1.0 -0.6706783752
O  O67  1  0.93790000  0.50500000  0.90290000  1.0 -0.618857193
O  O68  1  0.98910000  0.57130000  0.95730000  1.0 -0.5986378074
O  O69  1  0.64930000  0.57430000  0.90970000  1.0 -0.7533034265
O  O70  1  0.59540000  0.45040000  0.93330000  1.0 -0.5604822814
O  O71  1  0.92050000  0.39870000  0.13970000  1.0 -0.6706783752
O  O72  1  0.94020000  0.36320000  0.24670000  1.0 -0.5604822814
O  O73  1  0.71310000  0.21150000  0.26810000  1.0 -0.3976366103
O  O74  1  0.76010000  0.18550000  0.97190000  1.0 -0.4075428873
O  O75  1  0.55360000  0.05430000  0.25740000  1.0 -0.6055407405
O  O76  1  0.53026000  0.03034000  0.10460000  1.0 -0.6706783752
O  O77  1  0.56710000  0.06210000  0.90290000  1.0 -0.618857193
O  O78  1  0.58220000  0.01090000  0.95730000  1.0 -0.5986378074
O  O79  1  0.92500000  0.35070000  0.90970000  1.0 -0.7533034265
O  O80  1  0.85500000  0.40460000  0.93330000  1.0 -0.5604822814
O  O81  1  0.47820000  0.07950000  0.13970000  1.0 -0.6706783752
O  O82  1  0.42300000  0.05980000  0.24670000  1.0 -0.5604822814
O  O83  1  0.49840000  0.28690000  0.26810000  1.0 -0.3976366103
O  O84  1  0.42540000  0.23990000  0.97190000  1.0 -0.4075428873
O  O85  1  0.50070000  0.44640000  0.25740000  1.0 -0.6055407405
O  O86  1  0.50008000  0.46974000  0.10460000  1.0 -0.6706783752
O  O87  1  0.49500000  0.43290000  0.90290000  1.0 -0.618857193
O  O88  1  0.42870000  0.41780000  0.95730000  1.0 -0.5986378074
O  O89  1  0.42570000  0.07500000  0.90970000  1.0 -0.7533034265
O  O90  1  0.54960000  0.14500000  0.93330000  1.0 -0.5604822814
O  O91  1  0.07950000  0.47820000  0.36030000  1.0 -0.6706783752
O  O92  1  0.05980000  0.42300000  0.25330000  1.0 -0.5604822814
O  O93  1  0.28690000  0.49840000  0.23190000  1.0 -0.3976366103
O  O94  1  0.23990000  0.42540000  0.52810000  1.0 -0.4075428873
O  O95  1  0.44640000  0.50070000  0.24260000  1.0 -0.6055407405
O  O96  1  0.46974000  0.50008000  0.39540000  1.0 -0.6706783752
O  O97  1  0.43290000  0.49500000  0.59710000  1.0 -0.618857193
O  O98  1  0.41780000  0.42870000  0.54270000  1.0 -0.5986378074
O  O99  1  0.07500000  0.42570000  0.59030000  1.0 -0.7533034265
O  O100  1  0.14500000  0.54960000  0.56670000  1.0 -0.5604822814
O  O101  1  0.52180000  0.60130000  0.36030000  1.0 -0.6706783752
O  O102  1  0.57700000  0.63680000  0.25330000  1.0 -0.5604822814
O  O103  1  0.50160000  0.78850000  0.23190000  1.0 -0.3976366103
O  O104  1  0.57460000  0.81450000  0.52810000  1.0 -0.4075428873
O  O105  1  0.49930000  0.94570000  0.24260000  1.0 -0.6055407405
O  O106  1  0.49992000  0.96966000  0.39540000  1.0 -0.6706783752
O  O107  1  0.50500000  0.93790000  0.59710000  1.0 -0.618857193
O  O108  1  0.57130000  0.98910000  0.54270000  1.0 -0.5986378074
O  O109  1  0.57430000  0.64930000  0.59030000  1.0 -0.7533034265
O  O110  1  0.45040000  0.59540000  0.56670000  1.0 -0.5604822814
O  O111  1  0.39870000  0.92050000  0.36030000  1.0 -0.6706783752
O  O112  1  0.36320000  0.94020000  0.25330000  1.0 -0.5604822814
O  O113  1  0.21150000  0.71310000  0.23190000  1.0 -0.3976366103
O  O114  1  0.18550000  0.76010000  0.52810000  1.0 -0.4075428873
O  O115  1  0.05430000  0.55360000  0.24260000  1.0 -0.6055407405
O  O116  1  0.03034000  0.53026000  0.39540000  1.0 -0.6706783752
O  O117  1  0.06210000  0.56710000  0.59710000  1.0 -0.618857193
O  O118  1  0.01090000  0.58220000  0.54270000  1.0 -0.5986378074
O  O119  1  0.35070000  0.92500000  0.59030000  1.0 -0.7533034265
O  O120  1  0.40460000  0.85500000  0.56670000  1.0 -0.5604822814
