# DDEC6 charges by PACMAN v1.1 (https://github.com/mtap-research/PACMAN-charge/)
data_UROXOR_ASR_pacman
_symmetry_space_group_name_H-M   'P 1'
_cell_length_a   34.81080000
_cell_length_b   34.81080000
_cell_length_c   13.56300000
_cell_angle_alpha   90.00000000
_cell_angle_beta   90.00000000
_cell_angle_gamma   120.00000000
_symmetry_Int_Tables_number   1
_chemical_formula_structural   Ba3H16C36(NO8)2
_chemical_formula_sum   'Ba18 H96 C216 N12 O96'
_cell_volume   14233.58835607
_cell_formula_units_Z   6
loop_
 _symmetry_equiv_pos_site_id
 _symmetry_equiv_pos_as_xyz
  1  'x, y, z'
loop_
 _atom_site_type_symbol
 _atom_site_label
 _atom_site_symmetry_multiplicity
 _atom_site_fract_x
 _atom_site_fract_y
 _atom_site_fract_z
 _atom_site_occupancy
 _atom_site_charge
Ba  Ba1  1  0.43266000  0.49065000  0.04411000  1.0 1.4818454209
Ba  Ba2  1  0.05799000  0.56734000  0.04411000  1.0 1.4818454209
Ba  Ba3  1  0.50935000  0.94201000  0.04411000  1.0 1.4818454209
Ba  Ba4  1  0.94201000  0.50935000  0.45589000  1.0 1.4818454209
Ba  Ba5  1  0.49065000  0.43266000  0.45589000  1.0 1.4818454209
Ba  Ba6  1  0.56734000  0.05799000  0.45589000  1.0 1.4818454209
Ba  Ba7  1  0.56734000  0.50935000  0.95589000  1.0 1.4818454209
Ba  Ba8  1  0.94201000  0.43266000  0.95589000  1.0 1.4818454209
Ba  Ba9  1  0.49065000  0.05799000  0.95589000  1.0 1.4818454209
Ba  Ba10  1  0.05799000  0.49065000  0.54411000  1.0 1.4818454209
Ba  Ba11  1  0.50935000  0.56734000  0.54411000  1.0 1.4818454209
Ba  Ba12  1  0.43266000  0.94201000  0.54411000  1.0 1.4818454209
Ba  Ba13  1  0.45591000  0.45591000  0.75000000  1.0 1.3578718527
Ba  Ba14  1  0.00000000  0.54409000  0.75000000  1.0 1.3578718527
Ba  Ba15  1  0.54409000  0.00000000  0.75000000  1.0 1.3578718527
Ba  Ba16  1  0.54409000  0.54409000  0.25000000  1.0 1.3578718527
Ba  Ba17  1  0.00000000  0.45591000  0.25000000  1.0 1.3578718527
Ba  Ba18  1  0.45591000  0.00000000  0.25000000  1.0 1.3578718527
H  H1  1  0.34780000  0.50010000  0.93650000  1.0 0.1011421145
H  H2  1  0.31200000  0.52930000  0.02730000  1.0 0.1334487447
H  H3  1  0.26010000  0.50310000  0.03240000  1.0 0.1334487447
H  H4  1  0.28440000  0.54130000  0.95510000  1.0 0.1368938907
H  H5  1  0.28510000  0.40640000  0.72840000  1.0 0.1180063038
H  H6  1  0.21970000  0.40860000  0.75600000  1.0 0.1368938907
H  H7  1  0.12570000  0.49910000  0.74840000  1.0 0.1180063038
H  H8  1  0.10620000  0.43560000  0.06400000  1.0 0.1368938907
H  H9  1  0.15230000  0.65220000  0.93650000  1.0 0.1011421145
H  H10  1  0.21730000  0.68800000  0.02730000  1.0 0.1334487447
H  H11  1  0.24300000  0.73990000  0.03240000  1.0 0.1334487447
H  H12  1  0.25690000  0.71560000  0.95510000  1.0 0.1368938907
H  H13  1  0.12130000  0.71490000  0.72840000  1.0 0.1180063038
H  H14  1  0.18890000  0.78030000  0.75600000  1.0 0.1368938907
H  H15  1  0.37340000  0.87430000  0.74840000  1.0 0.1180063038
H  H16  1  0.32940000  0.89380000  0.06400000  1.0 0.1368938907
H  H17  1  0.49990000  0.84770000  0.93650000  1.0 0.1011421145
H  H18  1  0.47070000  0.78270000  0.02730000  1.0 0.1334487447
H  H19  1  0.49690000  0.75700000  0.03240000  1.0 0.1334487447
H  H20  1  0.45870000  0.74310000  0.95510000  1.0 0.1368938907
H  H21  1  0.59360000  0.87870000  0.72840000  1.0 0.1180063038
H  H22  1  0.59140000  0.81110000  0.75600000  1.0 0.1368938907
H  H23  1  0.50090000  0.62660000  0.74840000  1.0 0.1180063038
H  H24  1  0.56440000  0.67060000  0.06400000  1.0 0.1368938907
H  H25  1  0.84770000  0.49990000  0.56350000  1.0 0.1011421145
H  H26  1  0.78270000  0.47070000  0.47270000  1.0 0.1334487447
H  H27  1  0.75700000  0.49690000  0.46760000  1.0 0.1334487447
H  H28  1  0.74310000  0.45870000  0.54490000  1.0 0.1368938907
H  H29  1  0.87870000  0.59360000  0.77160000  1.0 0.1180063038
H  H30  1  0.81110000  0.59140000  0.74400000  1.0 0.1368938907
H  H31  1  0.62660000  0.50090000  0.75160000  1.0 0.1180063038
H  H32  1  0.67060000  0.56440000  0.43600000  1.0 0.1368938907
H  H33  1  0.50010000  0.34780000  0.56350000  1.0 0.1011421145
H  H34  1  0.52930000  0.31200000  0.47270000  1.0 0.1334487447
H  H35  1  0.50310000  0.26010000  0.46760000  1.0 0.1334487447
H  H36  1  0.54130000  0.28440000  0.54490000  1.0 0.1368938907
H  H37  1  0.40640000  0.28510000  0.77160000  1.0 0.1180063038
H  H38  1  0.40860000  0.21970000  0.74400000  1.0 0.1368938907
H  H39  1  0.49910000  0.12570000  0.75160000  1.0 0.1180063038
H  H40  1  0.43560000  0.10620000  0.43600000  1.0 0.1368938907
H  H41  1  0.65220000  0.15230000  0.56350000  1.0 0.1011421145
H  H42  1  0.68800000  0.21730000  0.47270000  1.0 0.1334487447
H  H43  1  0.73990000  0.24300000  0.46760000  1.0 0.1334487447
H  H44  1  0.71560000  0.25690000  0.54490000  1.0 0.1368938907
H  H45  1  0.71490000  0.12130000  0.77160000  1.0 0.1180063038
H  H46  1  0.78030000  0.18890000  0.74400000  1.0 0.1368938907
H  H47  1  0.87430000  0.37340000  0.75160000  1.0 0.1180063038
H  H48  1  0.89380000  0.32940000  0.43600000  1.0 0.1368938907
H  H49  1  0.65220000  0.49990000  0.06350000  1.0 0.1011421145
H  H50  1  0.68800000  0.47070000  0.97270000  1.0 0.1334487447
H  H51  1  0.73990000  0.49690000  0.96760000  1.0 0.1334487447
H  H52  1  0.71560000  0.45870000  0.04490000  1.0 0.1368938907
H  H53  1  0.71490000  0.59360000  0.27160000  1.0 0.1180063038
H  H54  1  0.78030000  0.59140000  0.24400000  1.0 0.1368938907
H  H55  1  0.87430000  0.50090000  0.25160000  1.0 0.1180063038
H  H56  1  0.89380000  0.56440000  0.93600000  1.0 0.1368938907
H  H57  1  0.84770000  0.34780000  0.06350000  1.0 0.1011421145
H  H58  1  0.78270000  0.31200000  0.97270000  1.0 0.1334487447
H  H59  1  0.75700000  0.26010000  0.96760000  1.0 0.1334487447
H  H60  1  0.74310000  0.28440000  0.04490000  1.0 0.1368938907
H  H61  1  0.87870000  0.28510000  0.27160000  1.0 0.1180063038
H  H62  1  0.81110000  0.21970000  0.24400000  1.0 0.1368938907
H  H63  1  0.62660000  0.12570000  0.25160000  1.0 0.1180063038
H  H64  1  0.67060000  0.10620000  0.93600000  1.0 0.1368938907
H  H65  1  0.50010000  0.15230000  0.06350000  1.0 0.1011421145
H  H66  1  0.52930000  0.21730000  0.97270000  1.0 0.1334487447
H  H67  1  0.50310000  0.24300000  0.96760000  1.0 0.1334487447
H  H68  1  0.54130000  0.25690000  0.04490000  1.0 0.1368938907
H  H69  1  0.40640000  0.12130000  0.27160000  1.0 0.1180063038
H  H70  1  0.40860000  0.18890000  0.24400000  1.0 0.1368938907
H  H71  1  0.49910000  0.37340000  0.25160000  1.0 0.1180063038
H  H72  1  0.43560000  0.32940000  0.93600000  1.0 0.1368938907
H  H73  1  0.15230000  0.50010000  0.43650000  1.0 0.1011421145
H  H74  1  0.21730000  0.52930000  0.52730000  1.0 0.1334487447
H  H75  1  0.24300000  0.50310000  0.53240000  1.0 0.1334487447
H  H76  1  0.25690000  0.54130000  0.45510000  1.0 0.1368938907
H  H77  1  0.12130000  0.40640000  0.22840000  1.0 0.1180063038
H  H78  1  0.18890000  0.40860000  0.25600000  1.0 0.1368938907
H  H79  1  0.37340000  0.49910000  0.24840000  1.0 0.1180063038
H  H80  1  0.32940000  0.43560000  0.56400000  1.0 0.1368938907
H  H81  1  0.49990000  0.65220000  0.43650000  1.0 0.1011421145
H  H82  1  0.47070000  0.68800000  0.52730000  1.0 0.1334487447
H  H83  1  0.49690000  0.73990000  0.53240000  1.0 0.1334487447
H  H84  1  0.45870000  0.71560000  0.45510000  1.0 0.1368938907
H  H85  1  0.59360000  0.71490000  0.22840000  1.0 0.1180063038
H  H86  1  0.59140000  0.78030000  0.25600000  1.0 0.1368938907
H  H87  1  0.50090000  0.87430000  0.24840000  1.0 0.1180063038
H  H88  1  0.56440000  0.89380000  0.56400000  1.0 0.1368938907
H  H89  1  0.34780000  0.84770000  0.43650000  1.0 0.1011421145
H  H90  1  0.31200000  0.78270000  0.52730000  1.0 0.1334487447
H  H91  1  0.26010000  0.75700000  0.53240000  1.0 0.1334487447
H  H92  1  0.28440000  0.74310000  0.45510000  1.0 0.1368938907
H  H93  1  0.28510000  0.87870000  0.22840000  1.0 0.1180063038
H  H94  1  0.21970000  0.81110000  0.25600000  1.0 0.1368938907
H  H95  1  0.12570000  0.62660000  0.24840000  1.0 0.1180063038
H  H96  1  0.10620000  0.67060000  0.56400000  1.0 0.1368938907
C  C1  1  0.32220000  0.45110000  0.83270000  1.0 -0.0383278368
C  C2  1  0.36390000  0.45040000  0.81420000  1.0 0.5750424885
C  C3  1  0.15040000  0.47410000  0.84890000  1.0 -0.0501174307
C  C4  1  0.28400000  0.48430000  0.91500000  1.0 0.1011421145
C  C5  1  0.32230000  0.48180000  0.90090000  1.0 -0.1531620598
C  C6  1  0.14450000  0.45450000  0.94080000  1.0 -0.0668350546
C  C7  1  0.24610000  0.45640000  0.86040000  1.0 0.1180063038
C  C8  1  0.28520000  0.51750000  0.98930000  1.0 -0.4295450277
C  C9  1  0.19240000  0.47910000  0.80570000  1.0 0.4302105033
C  C10  1  0.28450000  0.42520000  0.77650000  1.0 -0.0751890144
C  C11  1  0.24530000  0.42680000  0.79150000  1.0 -0.155702452
C  C12  1  0.08240000  0.46420000  0.96740000  1.0 -0.0111380643
C  C13  1  0.08660000  0.48180000  0.87350000  1.0 -0.0668350546
C  C14  1  0.12200000  0.48730000  0.81150000  1.0 -0.1007203734
C  C15  1  0.11040000  0.44890000  0.00240000  1.0 -0.0860819421
C  C16  1  0.17920000  0.44290000  0.95730000  1.0 0.4302105033
C  C17  1  0.05430000  0.49490000  0.83300000  1.0 0.6069654796
C  C18  1  0.04830000  0.46250000  0.04100000  1.0 0.5897145891
C  C19  1  0.12890000  0.67780000  0.83270000  1.0 -0.0383278368
C  C20  1  0.08650000  0.63610000  0.81420000  1.0 0.5750424885
C  C21  1  0.32370000  0.84960000  0.84890000  1.0 -0.0501174307
C  C22  1  0.20030000  0.71600000  0.91500000  1.0 0.1011421145
C  C23  1  0.15950000  0.67770000  0.90090000  1.0 -0.1531620598
C  C24  1  0.31000000  0.85550000  0.94080000  1.0 -0.0668350546
C  C25  1  0.21030000  0.75390000  0.86040000  1.0 0.1180063038
C  C26  1  0.23230000  0.71480000  0.98930000  1.0 -0.4295450277
C  C27  1  0.28670000  0.80760000  0.80570000  1.0 0.4302105033
C  C28  1  0.14070000  0.71550000  0.77650000  1.0 -0.0751890144
C  C29  1  0.18150000  0.75470000  0.79150000  1.0 -0.155702452
C  C30  1  0.38180000  0.91760000  0.96740000  1.0 -0.0111380643
C  C31  1  0.39520000  0.91340000  0.87350000  1.0 -0.0668350546
C  C32  1  0.36530000  0.87800000  0.81150000  1.0 -0.1007203734
C  C33  1  0.33850000  0.88960000  0.00240000  1.0 -0.0860819421
C  C34  1  0.26370000  0.82080000  0.95730000  1.0 0.4302105033
C  C35  1  0.44060000  0.94570000  0.83300000  1.0 0.6069654796
C  C36  1  0.41420000  0.95170000  0.04100000  1.0 0.5897145891
C  C37  1  0.54890000  0.87110000  0.83270000  1.0 -0.0383278368
C  C38  1  0.54960000  0.91350000  0.81420000  1.0 0.5750424885
C  C39  1  0.52590000  0.67630000  0.84890000  1.0 -0.0501174307
C  C40  1  0.51570000  0.79970000  0.91500000  1.0 0.1011421145
C  C41  1  0.51820000  0.84050000  0.90090000  1.0 -0.1531620598
C  C42  1  0.54550000  0.69000000  0.94080000  1.0 -0.0668350546
C  C43  1  0.54360000  0.78970000  0.86040000  1.0 0.1180063038
C  C44  1  0.48250000  0.76770000  0.98930000  1.0 -0.4295450277
C  C45  1  0.52090000  0.71330000  0.80570000  1.0 0.4302105033
C  C46  1  0.57480000  0.85930000  0.77650000  1.0 -0.0751890144
C  C47  1  0.57320000  0.81850000  0.79150000  1.0 -0.155702452
C  C48  1  0.53580000  0.61820000  0.96740000  1.0 -0.0111380643
C  C49  1  0.51820000  0.60480000  0.87350000  1.0 -0.0668350546
C  C50  1  0.51270000  0.63470000  0.81150000  1.0 -0.1007203734
C  C51  1  0.55110000  0.66150000  0.00240000  1.0 -0.0860819421
C  C52  1  0.55710000  0.73630000  0.95730000  1.0 0.4302105033
C  C53  1  0.50510000  0.55940000  0.83300000  1.0 0.6069654796
C  C54  1  0.53750000  0.58580000  0.04100000  1.0 0.5897145891
C  C55  1  0.87110000  0.54890000  0.66730000  1.0 -0.0383278368
C  C56  1  0.91350000  0.54960000  0.68580000  1.0 0.5750424885
C  C57  1  0.67630000  0.52590000  0.65110000  1.0 -0.0501174307
C  C58  1  0.79970000  0.51570000  0.58500000  1.0 0.1011421145
C  C59  1  0.84050000  0.51820000  0.59910000  1.0 -0.1531620598
C  C60  1  0.69000000  0.54550000  0.55920000  1.0 -0.0668350546
C  C61  1  0.78970000  0.54360000  0.63960000  1.0 0.1180063038
C  C62  1  0.76770000  0.48250000  0.51070000  1.0 -0.4295450277
C  C63  1  0.71330000  0.52090000  0.69430000  1.0 0.4302105033
C  C64  1  0.85930000  0.57480000  0.72350000  1.0 -0.0751890144
C  C65  1  0.81850000  0.57320000  0.70850000  1.0 -0.155702452
C  C66  1  0.61820000  0.53580000  0.53260000  1.0 -0.0111380643
C  C67  1  0.60480000  0.51820000  0.62650000  1.0 -0.0668350546
C  C68  1  0.63470000  0.51270000  0.68850000  1.0 -0.1007203734
C  C69  1  0.66150000  0.55110000  0.49760000  1.0 -0.0860819421
C  C70  1  0.73630000  0.55710000  0.54270000  1.0 0.4302105033
C  C71  1  0.55940000  0.50510000  0.66700000  1.0 0.6069654796
C  C72  1  0.58580000  0.53750000  0.45900000  1.0 0.5897145891
C  C73  1  0.45110000  0.32220000  0.66730000  1.0 -0.0383278368
C  C74  1  0.45040000  0.36390000  0.68580000  1.0 0.5750424885
C  C75  1  0.47410000  0.15040000  0.65110000  1.0 -0.0501174307
C  C76  1  0.48430000  0.28400000  0.58500000  1.0 0.1011421145
C  C77  1  0.48180000  0.32230000  0.59910000  1.0 -0.1531620598
C  C78  1  0.45450000  0.14450000  0.55920000  1.0 -0.0668350546
C  C79  1  0.45640000  0.24610000  0.63960000  1.0 0.1180063038
C  C80  1  0.51750000  0.28520000  0.51070000  1.0 -0.4295450277
C  C81  1  0.47910000  0.19240000  0.69430000  1.0 0.4302105033
C  C82  1  0.42520000  0.28450000  0.72350000  1.0 -0.0751890144
C  C83  1  0.42680000  0.24530000  0.70850000  1.0 -0.155702452
C  C84  1  0.46420000  0.08240000  0.53260000  1.0 -0.0111380643
C  C85  1  0.48180000  0.08660000  0.62650000  1.0 -0.0668350546
C  C86  1  0.48730000  0.12200000  0.68850000  1.0 -0.1007203734
C  C87  1  0.44890000  0.11040000  0.49760000  1.0 -0.0860819421
C  C88  1  0.44290000  0.17920000  0.54270000  1.0 0.4302105033
C  C89  1  0.49490000  0.05430000  0.66700000  1.0 0.6069654796
C  C90  1  0.46250000  0.04830000  0.45900000  1.0 0.5897145891
C  C91  1  0.67780000  0.12890000  0.66730000  1.0 -0.0383278368
C  C92  1  0.63610000  0.08650000  0.68580000  1.0 0.5750424885
C  C93  1  0.84960000  0.32370000  0.65110000  1.0 -0.0501174307
C  C94  1  0.71600000  0.20030000  0.58500000  1.0 0.1011421145
C  C95  1  0.67770000  0.15950000  0.59910000  1.0 -0.1531620598
C  C96  1  0.85550000  0.31000000  0.55920000  1.0 -0.0668350546
C  C97  1  0.75390000  0.21030000  0.63960000  1.0 0.1180063038
C  C98  1  0.71480000  0.23230000  0.51070000  1.0 -0.4295450277
C  C99  1  0.80760000  0.28670000  0.69430000  1.0 0.4302105033
C  C100  1  0.71550000  0.14070000  0.72350000  1.0 -0.0751890144
C  C101  1  0.75470000  0.18150000  0.70850000  1.0 -0.155702452
C  C102  1  0.91760000  0.38180000  0.53260000  1.0 -0.0111380643
C  C103  1  0.91340000  0.39520000  0.62650000  1.0 -0.0668350546
C  C104  1  0.87800000  0.36530000  0.68850000  1.0 -0.1007203734
C  C105  1  0.88960000  0.33850000  0.49760000  1.0 -0.0860819421
C  C106  1  0.82080000  0.26370000  0.54270000  1.0 0.4302105033
C  C107  1  0.94570000  0.44060000  0.66700000  1.0 0.6069654796
C  C108  1  0.95170000  0.41420000  0.45900000  1.0 0.5897145891
C  C109  1  0.67780000  0.54890000  0.16730000  1.0 -0.0383278368
C  C110  1  0.63610000  0.54960000  0.18580000  1.0 0.5750424885
C  C111  1  0.84960000  0.52590000  0.15110000  1.0 -0.0501174307
C  C112  1  0.71600000  0.51570000  0.08500000  1.0 0.1011421145
C  C113  1  0.67770000  0.51820000  0.09910000  1.0 -0.1531620598
C  C114  1  0.85550000  0.54550000  0.05920000  1.0 -0.0668350546
C  C115  1  0.75390000  0.54360000  0.13960000  1.0 0.1180063038
C  C116  1  0.71480000  0.48250000  0.01070000  1.0 -0.4295450277
C  C117  1  0.80760000  0.52090000  0.19430000  1.0 0.4302105033
C  C118  1  0.71550000  0.57480000  0.22350000  1.0 -0.0751890144
C  C119  1  0.75470000  0.57320000  0.20850000  1.0 -0.155702452
C  C120  1  0.91760000  0.53580000  0.03260000  1.0 -0.0111380643
C  C121  1  0.91340000  0.51820000  0.12650000  1.0 -0.0668350546
C  C122  1  0.87800000  0.51270000  0.18850000  1.0 -0.1007203734
C  C123  1  0.88960000  0.55110000  0.99760000  1.0 -0.0860819421
C  C124  1  0.82080000  0.55710000  0.04270000  1.0 0.4302105033
C  C125  1  0.94570000  0.50510000  0.16700000  1.0 0.6069654796
C  C126  1  0.95170000  0.53750000  0.95900000  1.0 0.5897145891
C  C127  1  0.87110000  0.32220000  0.16730000  1.0 -0.0383278368
C  C128  1  0.91350000  0.36390000  0.18580000  1.0 0.5750424885
C  C129  1  0.67630000  0.15040000  0.15110000  1.0 -0.0501174307
C  C130  1  0.79970000  0.28400000  0.08500000  1.0 0.1011421145
C  C131  1  0.84050000  0.32230000  0.09910000  1.0 -0.1531620598
C  C132  1  0.69000000  0.14450000  0.05920000  1.0 -0.0668350546
C  C133  1  0.78970000  0.24610000  0.13960000  1.0 0.1180063038
C  C134  1  0.76770000  0.28520000  0.01070000  1.0 -0.4295450277
C  C135  1  0.71330000  0.19240000  0.19430000  1.0 0.4302105033
C  C136  1  0.85930000  0.28450000  0.22350000  1.0 -0.0751890144
C  C137  1  0.81850000  0.24530000  0.20850000  1.0 -0.155702452
C  C138  1  0.61820000  0.08240000  0.03260000  1.0 -0.0111380643
C  C139  1  0.60480000  0.08660000  0.12650000  1.0 -0.0668350546
C  C140  1  0.63470000  0.12200000  0.18850000  1.0 -0.1007203734
C  C141  1  0.66150000  0.11040000  0.99760000  1.0 -0.0860819421
C  C142  1  0.73630000  0.17920000  0.04270000  1.0 0.4302105033
C  C143  1  0.55940000  0.05430000  0.16700000  1.0 0.6069654796
C  C144  1  0.58580000  0.04830000  0.95900000  1.0 0.5897145891
C  C145  1  0.45110000  0.12890000  0.16730000  1.0 -0.0383278368
C  C146  1  0.45040000  0.08650000  0.18580000  1.0 0.5750424885
C  C147  1  0.47410000  0.32370000  0.15110000  1.0 -0.0501174307
C  C148  1  0.48430000  0.20030000  0.08500000  1.0 0.1011421145
C  C149  1  0.48180000  0.15950000  0.09910000  1.0 -0.1531620598
C  C150  1  0.45450000  0.31000000  0.05920000  1.0 -0.0668350546
C  C151  1  0.45640000  0.21030000  0.13960000  1.0 0.1180063038
C  C152  1  0.51750000  0.23230000  0.01070000  1.0 -0.4295450277
C  C153  1  0.47910000  0.28670000  0.19430000  1.0 0.4302105033
C  C154  1  0.42520000  0.14070000  0.22350000  1.0 -0.0751890144
C  C155  1  0.42680000  0.18150000  0.20850000  1.0 -0.155702452
C  C156  1  0.46420000  0.38180000  0.03260000  1.0 -0.0111380643
C  C157  1  0.48180000  0.39520000  0.12650000  1.0 -0.0668350546
C  C158  1  0.48730000  0.36530000  0.18850000  1.0 -0.1007203734
C  C159  1  0.44890000  0.33850000  0.99760000  1.0 -0.0860819421
C  C160  1  0.44290000  0.26370000  0.04270000  1.0 0.4302105033
C  C161  1  0.49490000  0.44060000  0.16700000  1.0 0.6069654796
C  C162  1  0.46250000  0.41420000  0.95900000  1.0 0.5897145891
C  C163  1  0.12890000  0.45110000  0.33270000  1.0 -0.0383278368
C  C164  1  0.08650000  0.45040000  0.31420000  1.0 0.5750424885
C  C165  1  0.32370000  0.47410000  0.34890000  1.0 -0.0501174307
C  C166  1  0.20030000  0.48430000  0.41500000  1.0 0.1011421145
C  C167  1  0.15950000  0.48180000  0.40090000  1.0 -0.1531620598
C  C168  1  0.31000000  0.45450000  0.44080000  1.0 -0.0668350546
C  C169  1  0.21030000  0.45640000  0.36040000  1.0 0.1180063038
C  C170  1  0.23230000  0.51750000  0.48930000  1.0 -0.4295450277
C  C171  1  0.28670000  0.47910000  0.30570000  1.0 0.4302105033
C  C172  1  0.14070000  0.42520000  0.27650000  1.0 -0.0751890144
C  C173  1  0.18150000  0.42680000  0.29150000  1.0 -0.155702452
C  C174  1  0.38180000  0.46420000  0.46740000  1.0 -0.0111380643
C  C175  1  0.39520000  0.48180000  0.37350000  1.0 -0.0668350546
C  C176  1  0.36530000  0.48730000  0.31150000  1.0 -0.1007203734
C  C177  1  0.33850000  0.44890000  0.50240000  1.0 -0.0860819421
C  C178  1  0.26370000  0.44290000  0.45730000  1.0 0.4302105033
C  C179  1  0.44060000  0.49490000  0.33300000  1.0 0.6069654796
C  C180  1  0.41420000  0.46250000  0.54100000  1.0 0.5897145891
C  C181  1  0.54890000  0.67780000  0.33270000  1.0 -0.0383278368
C  C182  1  0.54960000  0.63610000  0.31420000  1.0 0.5750424885
C  C183  1  0.52590000  0.84960000  0.34890000  1.0 -0.0501174307
C  C184  1  0.51570000  0.71600000  0.41500000  1.0 0.1011421145
C  C185  1  0.51820000  0.67770000  0.40090000  1.0 -0.1531620598
C  C186  1  0.54550000  0.85550000  0.44080000  1.0 -0.0668350546
C  C187  1  0.54360000  0.75390000  0.36040000  1.0 0.1180063038
C  C188  1  0.48250000  0.71480000  0.48930000  1.0 -0.4295450277
C  C189  1  0.52090000  0.80760000  0.30570000  1.0 0.4302105033
C  C190  1  0.57480000  0.71550000  0.27650000  1.0 -0.0751890144
C  C191  1  0.57320000  0.75470000  0.29150000  1.0 -0.155702452
C  C192  1  0.53580000  0.91760000  0.46740000  1.0 -0.0111380643
C  C193  1  0.51820000  0.91340000  0.37350000  1.0 -0.0668350546
C  C194  1  0.51270000  0.87800000  0.31150000  1.0 -0.1007203734
C  C195  1  0.55110000  0.88960000  0.50240000  1.0 -0.0860819421
C  C196  1  0.55710000  0.82080000  0.45730000  1.0 0.4302105033
C  C197  1  0.50510000  0.94570000  0.33300000  1.0 0.6069654796
C  C198  1  0.53750000  0.95170000  0.54100000  1.0 0.5897145891
C  C199  1  0.32220000  0.87110000  0.33270000  1.0 -0.0383278368
C  C200  1  0.36390000  0.91350000  0.31420000  1.0 0.5750424885
C  C201  1  0.15040000  0.67630000  0.34890000  1.0 -0.0501174307
C  C202  1  0.28400000  0.79970000  0.41500000  1.0 0.1011421145
C  C203  1  0.32230000  0.84050000  0.40090000  1.0 -0.1531620598
C  C204  1  0.14450000  0.69000000  0.44080000  1.0 -0.0668350546
C  C205  1  0.24610000  0.78970000  0.36040000  1.0 0.1180063038
C  C206  1  0.28520000  0.76770000  0.48930000  1.0 -0.4295450277
C  C207  1  0.19240000  0.71330000  0.30570000  1.0 0.4302105033
C  C208  1  0.28450000  0.85930000  0.27650000  1.0 -0.0751890144
C  C209  1  0.24530000  0.81850000  0.29150000  1.0 -0.155702452
C  C210  1  0.08240000  0.61820000  0.46740000  1.0 -0.0111380643
C  C211  1  0.08660000  0.60480000  0.37350000  1.0 -0.0668350546
C  C212  1  0.12200000  0.63470000  0.31150000  1.0 -0.1007203734
C  C213  1  0.11040000  0.66150000  0.50240000  1.0 -0.0860819421
C  C214  1  0.17920000  0.73630000  0.45730000  1.0 0.4302105033
C  C215  1  0.05430000  0.55940000  0.33300000  1.0 0.6069654796
C  C216  1  0.04830000  0.58580000  0.54100000  1.0 0.5897145891
N  N1  1  0.20650000  0.45890000  0.87290000  1.0 -0.2326415779
N  N2  1  0.25240000  0.79350000  0.87290000  1.0 -0.2326415779
N  N3  1  0.54110000  0.74760000  0.87290000  1.0 -0.2326415779
N  N4  1  0.74760000  0.54110000  0.62710000  1.0 -0.2326415779
N  N5  1  0.45890000  0.20650000  0.62710000  1.0 -0.2326415779
N  N6  1  0.79350000  0.25240000  0.62710000  1.0 -0.2326415779
N  N7  1  0.79350000  0.54110000  0.12710000  1.0 -0.2326415779
N  N8  1  0.74760000  0.20650000  0.12710000  1.0 -0.2326415779
N  N9  1  0.45890000  0.25240000  0.12710000  1.0 -0.2326415779
N  N10  1  0.25240000  0.45890000  0.37290000  1.0 -0.2326415779
N  N11  1  0.54110000  0.79350000  0.37290000  1.0 -0.2326415779
N  N12  1  0.20650000  0.74760000  0.37290000  1.0 -0.2326415779
O  O1  1  0.39870000  0.47820000  0.86030000  1.0 -0.6889861799
O  O2  1  0.36320000  0.42300000  0.75330000  1.0 -0.5526638355
O  O3  1  0.21150000  0.49840000  0.73190000  1.0 -0.3989279433
O  O4  1  0.18550000  0.42540000  0.02810000  1.0 -0.3989279433
O  O5  1  0.05430000  0.50070000  0.74260000  1.0 -0.6120551205
O  O6  1  0.03034000  0.50008000  0.89540000  1.0 -0.6743133243
O  O7  1  0.06210000  0.49500000  0.09710000  1.0 -0.630491155
O  O8  1  0.01090000  0.42870000  0.04270000  1.0 -0.6041458226
O  O9  1  0.07950000  0.60130000  0.86030000  1.0 -0.6889861799
O  O10  1  0.05980000  0.63680000  0.75330000  1.0 -0.5526638355
O  O11  1  0.28690000  0.78850000  0.73190000  1.0 -0.3989279433
O  O12  1  0.23990000  0.81450000  0.02810000  1.0 -0.3989279433
O  O13  1  0.44640000  0.94570000  0.74260000  1.0 -0.6120551205
O  O14  1  0.46974000  0.96966000  0.89540000  1.0 -0.6743133243
O  O15  1  0.43290000  0.93790000  0.09710000  1.0 -0.630491155
O  O16  1  0.41780000  0.98910000  0.04270000  1.0 -0.6041458226
O  O17  1  0.52180000  0.92050000  0.86030000  1.0 -0.6889861799
O  O18  1  0.57700000  0.94020000  0.75330000  1.0 -0.5526638355
O  O19  1  0.50160000  0.71310000  0.73190000  1.0 -0.3989279433
O  O20  1  0.57460000  0.76010000  0.02810000  1.0 -0.3989279433
O  O21  1  0.49930000  0.55360000  0.74260000  1.0 -0.6120551205
O  O22  1  0.49992000  0.53026000  0.89540000  1.0 -0.6743133243
O  O23  1  0.50500000  0.56710000  0.09710000  1.0 -0.630491155
O  O24  1  0.57130000  0.58220000  0.04270000  1.0 -0.6041458226
O  O25  1  0.92050000  0.52180000  0.63970000  1.0 -0.6889861799
O  O26  1  0.94020000  0.57700000  0.74670000  1.0 -0.5526638355
O  O27  1  0.71310000  0.50160000  0.76810000  1.0 -0.3989279433
O  O28  1  0.76010000  0.57460000  0.47190000  1.0 -0.3989279433
O  O29  1  0.55360000  0.49930000  0.75740000  1.0 -0.6120551205
O  O30  1  0.53026000  0.49992000  0.60460000  1.0 -0.6743133243
O  O31  1  0.56710000  0.50500000  0.40290000  1.0 -0.630491155
O  O32  1  0.58220000  0.57130000  0.45730000  1.0 -0.6041458226
O  O33  1  0.47820000  0.39870000  0.63970000  1.0 -0.6889861799
O  O34  1  0.42300000  0.36320000  0.74670000  1.0 -0.5526638355
O  O35  1  0.49840000  0.21150000  0.76810000  1.0 -0.3989279433
O  O36  1  0.42540000  0.18550000  0.47190000  1.0 -0.3989279433
O  O37  1  0.50070000  0.05430000  0.75740000  1.0 -0.6120551205
O  O38  1  0.50008000  0.03034000  0.60460000  1.0 -0.6743133243
O  O39  1  0.49500000  0.06210000  0.40290000  1.0 -0.630491155
O  O40  1  0.42870000  0.01090000  0.45730000  1.0 -0.6041458226
O  O41  1  0.60130000  0.07950000  0.63970000  1.0 -0.6889861799
O  O42  1  0.63680000  0.05980000  0.74670000  1.0 -0.5526638355
O  O43  1  0.78850000  0.28690000  0.76810000  1.0 -0.3989279433
O  O44  1  0.81450000  0.23990000  0.47190000  1.0 -0.3989279433
O  O45  1  0.94570000  0.44640000  0.75740000  1.0 -0.6120551205
O  O46  1  0.96966000  0.46974000  0.60460000  1.0 -0.6743133243
O  O47  1  0.93790000  0.43290000  0.40290000  1.0 -0.630491155
O  O48  1  0.98910000  0.41780000  0.45730000  1.0 -0.6041458226
O  O49  1  0.60130000  0.52180000  0.13970000  1.0 -0.6889861799
O  O50  1  0.63680000  0.57700000  0.24670000  1.0 -0.5526638355
O  O51  1  0.78850000  0.50160000  0.26810000  1.0 -0.3989279433
O  O52  1  0.81450000  0.57460000  0.97190000  1.0 -0.3989279433
O  O53  1  0.94570000  0.49930000  0.25740000  1.0 -0.6120551205
O  O54  1  0.96966000  0.49992000  0.10460000  1.0 -0.6743133243
O  O55  1  0.93790000  0.50500000  0.90290000  1.0 -0.630491155
O  O56  1  0.98910000  0.57130000  0.95730000  1.0 -0.6041458226
O  O57  1  0.92050000  0.39870000  0.13970000  1.0 -0.6889861799
O  O58  1  0.94020000  0.36320000  0.24670000  1.0 -0.5526638355
O  O59  1  0.71310000  0.21150000  0.26810000  1.0 -0.3989279433
O  O60  1  0.76010000  0.18550000  0.97190000  1.0 -0.3989279433
O  O61  1  0.55360000  0.05430000  0.25740000  1.0 -0.6120551205
O  O62  1  0.53026000  0.03034000  0.10460000  1.0 -0.6743133243
O  O63  1  0.56710000  0.06210000  0.90290000  1.0 -0.630491155
O  O64  1  0.58220000  0.01090000  0.95730000  1.0 -0.6041458226
O  O65  1  0.47820000  0.07950000  0.13970000  1.0 -0.6889861799
O  O66  1  0.42300000  0.05980000  0.24670000  1.0 -0.5526638355
O  O67  1  0.49840000  0.28690000  0.26810000  1.0 -0.3989279433
O  O68  1  0.42540000  0.23990000  0.97190000  1.0 -0.3989279433
O  O69  1  0.50070000  0.44640000  0.25740000  1.0 -0.6120551205
O  O70  1  0.50008000  0.46974000  0.10460000  1.0 -0.6743133243
O  O71  1  0.49500000  0.43290000  0.90290000  1.0 -0.630491155
O  O72  1  0.42870000  0.41780000  0.95730000  1.0 -0.6041458226
O  O73  1  0.07950000  0.47820000  0.36030000  1.0 -0.6889861799
O  O74  1  0.05980000  0.42300000  0.25330000  1.0 -0.5526638355
O  O75  1  0.28690000  0.49840000  0.23190000  1.0 -0.3989279433
O  O76  1  0.23990000  0.42540000  0.52810000  1.0 -0.3989279433
O  O77  1  0.44640000  0.50070000  0.24260000  1.0 -0.6120551205
O  O78  1  0.46974000  0.50008000  0.39540000  1.0 -0.6743133243
O  O79  1  0.43290000  0.49500000  0.59710000  1.0 -0.630491155
O  O80  1  0.41780000  0.42870000  0.54270000  1.0 -0.6041458226
O  O81  1  0.52180000  0.60130000  0.36030000  1.0 -0.6889861799
O  O82  1  0.57700000  0.63680000  0.25330000  1.0 -0.5526638355
O  O83  1  0.50160000  0.78850000  0.23190000  1.0 -0.3989279433
O  O84  1  0.57460000  0.81450000  0.52810000  1.0 -0.3989279433
O  O85  1  0.49930000  0.94570000  0.24260000  1.0 -0.6120551205
O  O86  1  0.49992000  0.96966000  0.39540000  1.0 -0.6743133243
O  O87  1  0.50500000  0.93790000  0.59710000  1.0 -0.630491155
O  O88  1  0.57130000  0.98910000  0.54270000  1.0 -0.6041458226
O  O89  1  0.39870000  0.92050000  0.36030000  1.0 -0.6889861799
O  O90  1  0.36320000  0.94020000  0.25330000  1.0 -0.5526638355
O  O91  1  0.21150000  0.71310000  0.23190000  1.0 -0.3989279433
O  O92  1  0.18550000  0.76010000  0.52810000  1.0 -0.3989279433
O  O93  1  0.05430000  0.55360000  0.24260000  1.0 -0.6120551205
O  O94  1  0.03034000  0.53026000  0.39540000  1.0 -0.6743133243
O  O95  1  0.06210000  0.56710000  0.59710000  1.0 -0.630491155
O  O96  1  0.01090000  0.58220000  0.54270000  1.0 -0.6041458226
