# DDEC6 charges by PACMAN v1.1 (https://github.com/mtap-research/PACMAN-charge/)
data_USAHAZ_ASR_pacman
_symmetry_space_group_name_H-M   'P 1'
_cell_length_a   26.08520000
_cell_length_b   26.08520000
_cell_length_c   17.63080000
_cell_angle_alpha   90.00000000
_cell_angle_beta   90.00000000
_cell_angle_gamma   90.00000000
_symmetry_Int_Tables_number   1
_chemical_formula_structural   ZnH9C13O5
_chemical_formula_sum   'Zn16 H144 C208 O80'
_cell_volume   11996.66027900
_cell_formula_units_Z   16
loop_
 _symmetry_equiv_pos_site_id
 _symmetry_equiv_pos_as_xyz
  1  'x, y, z'
loop_
 _atom_site_type_symbol
 _atom_site_label
 _atom_site_symmetry_multiplicity
 _atom_site_fract_x
 _atom_site_fract_y
 _atom_site_fract_z
 _atom_site_occupancy
 _atom_site_charge
Zn  Zn1  1  0.25144000  0.76106000  0.16745000  1.0 0.9476678148
Zn  Zn2  1  0.74856000  0.23894000  0.16745000  1.0 0.9476678148
Zn  Zn3  1  0.76106000  0.74856000  0.66745000  1.0 0.9476678148
Zn  Zn4  1  0.23894000  0.25144000  0.66745000  1.0 0.9476678148
Zn  Zn5  1  0.75144000  0.73894000  0.83255000  1.0 0.9476678148
Zn  Zn6  1  0.24856000  0.26106000  0.83255000  1.0 0.9476678148
Zn  Zn7  1  0.26106000  0.75144000  0.33255000  1.0 0.9476678148
Zn  Zn8  1  0.73894000  0.24856000  0.33255000  1.0 0.9476678148
Zn  Zn9  1  0.74856000  0.23894000  0.83255000  1.0 0.9476678148
Zn  Zn10  1  0.25144000  0.76106000  0.83255000  1.0 0.9476678148
Zn  Zn11  1  0.23894000  0.25144000  0.33255000  1.0 0.9476678148
Zn  Zn12  1  0.76106000  0.74856000  0.33255000  1.0 0.9476678148
Zn  Zn13  1  0.24856000  0.26106000  0.16745000  1.0 0.9476678148
Zn  Zn14  1  0.75144000  0.73894000  0.16745000  1.0 0.9476678148
Zn  Zn15  1  0.73894000  0.24856000  0.66745000  1.0 0.9476678148
Zn  Zn16  1  0.26106000  0.75144000  0.66745000  1.0 0.9476678148
H  H1  1  0.25540000  0.59780000  0.10920000  1.0 0.1402908396
H  H2  1  0.74460000  0.40220000  0.10920000  1.0 0.1402908396
H  H3  1  0.59780000  0.74460000  0.60920000  1.0 0.1402908396
H  H4  1  0.40220000  0.25540000  0.60920000  1.0 0.1402908396
H  H5  1  0.75540000  0.90220000  0.89080000  1.0 0.1402908396
H  H6  1  0.24460000  0.09780000  0.89080000  1.0 0.1402908396
H  H7  1  0.09780000  0.75540000  0.39080000  1.0 0.1402908396
H  H8  1  0.90220000  0.24460000  0.39080000  1.0 0.1402908396
H  H9  1  0.74460000  0.40220000  0.89080000  1.0 0.1402908396
H  H10  1  0.25540000  0.59780000  0.89080000  1.0 0.1402908396
H  H11  1  0.40220000  0.25540000  0.39080000  1.0 0.1402908396
H  H12  1  0.59780000  0.74460000  0.39080000  1.0 0.1402908396
H  H13  1  0.24460000  0.09780000  0.10920000  1.0 0.1402908396
H  H14  1  0.75540000  0.90220000  0.10920000  1.0 0.1402908396
H  H15  1  0.90220000  0.24460000  0.60920000  1.0 0.1402908396
H  H16  1  0.09780000  0.75540000  0.60920000  1.0 0.1402908396
H  H17  1  0.25230000  0.51000000  0.09880000  1.0 0.1162053682
H  H18  1  0.74770000  0.49000000  0.09880000  1.0 0.1162053682
H  H19  1  0.51000000  0.74770000  0.59880000  1.0 0.1162053682
H  H20  1  0.49000000  0.25230000  0.59880000  1.0 0.1162053682
H  H21  1  0.75230000  0.99000000  0.90120000  1.0 0.1162053682
H  H22  1  0.24770000  0.01000000  0.90120000  1.0 0.1162053682
H  H23  1  0.01000000  0.75230000  0.40120000  1.0 0.1162053682
H  H24  1  0.99000000  0.24770000  0.40120000  1.0 0.1162053682
H  H25  1  0.74770000  0.49000000  0.90120000  1.0 0.1162053682
H  H26  1  0.25230000  0.51000000  0.90120000  1.0 0.1162053682
H  H27  1  0.49000000  0.25230000  0.40120000  1.0 0.1162053682
H  H28  1  0.51000000  0.74770000  0.40120000  1.0 0.1162053682
H  H29  1  0.24770000  0.01000000  0.09880000  1.0 0.1162053682
H  H30  1  0.75230000  0.99000000  0.09880000  1.0 0.1162053682
H  H31  1  0.99000000  0.24770000  0.59880000  1.0 0.1162053682
H  H32  1  0.01000000  0.75230000  0.59880000  1.0 0.1162053682
H  H33  1  0.24810000  0.42370000  0.16150000  1.0 0.1333008409
H  H34  1  0.75190000  0.57630000  0.16150000  1.0 0.1333008409
H  H35  1  0.42370000  0.75190000  0.66150000  1.0 0.1333008409
H  H36  1  0.57630000  0.24810000  0.66150000  1.0 0.1333008409
H  H37  1  0.74810000  0.07630000  0.83850000  1.0 0.1333008409
H  H38  1  0.25190000  0.92370000  0.83850000  1.0 0.1333008409
H  H39  1  0.92370000  0.74810000  0.33850000  1.0 0.1333008409
H  H40  1  0.07630000  0.25190000  0.33850000  1.0 0.1333008409
H  H41  1  0.75190000  0.57630000  0.83850000  1.0 0.1333008409
H  H42  1  0.24810000  0.42370000  0.83850000  1.0 0.1333008409
H  H43  1  0.57630000  0.24810000  0.33850000  1.0 0.1333008409
H  H44  1  0.42370000  0.75190000  0.33850000  1.0 0.1333008409
H  H45  1  0.25190000  0.92370000  0.16150000  1.0 0.1333008409
H  H46  1  0.74810000  0.07630000  0.16150000  1.0 0.1333008409
H  H47  1  0.07630000  0.25190000  0.66150000  1.0 0.1333008409
H  H48  1  0.92370000  0.74810000  0.66150000  1.0 0.1333008409
H  H49  1  0.24780000  0.41460000  0.39000000  1.0 0.1402908396
H  H50  1  0.75220000  0.58540000  0.39000000  1.0 0.1402908396
H  H51  1  0.41460000  0.75220000  0.89000000  1.0 0.1402908396
H  H52  1  0.58540000  0.24780000  0.89000000  1.0 0.1402908396
H  H53  1  0.74780000  0.08540000  0.61000000  1.0 0.1402908396
H  H54  1  0.25220000  0.91460000  0.61000000  1.0 0.1402908396
H  H55  1  0.91460000  0.74780000  0.11000000  1.0 0.1402908396
H  H56  1  0.08540000  0.25220000  0.11000000  1.0 0.1402908396
H  H57  1  0.75220000  0.58540000  0.61000000  1.0 0.1402908396
H  H58  1  0.24780000  0.41460000  0.61000000  1.0 0.1402908396
H  H59  1  0.58540000  0.24780000  0.11000000  1.0 0.1402908396
H  H60  1  0.41460000  0.75220000  0.11000000  1.0 0.1402908396
H  H61  1  0.25220000  0.91460000  0.39000000  1.0 0.1402908396
H  H62  1  0.74780000  0.08540000  0.39000000  1.0 0.1402908396
H  H63  1  0.08540000  0.25220000  0.89000000  1.0 0.1402908396
H  H64  1  0.91460000  0.74780000  0.89000000  1.0 0.1402908396
H  H65  1  0.25050000  0.50300000  0.39990000  1.0 0.1162053682
H  H66  1  0.74950000  0.49700000  0.39990000  1.0 0.1162053682
H  H67  1  0.50300000  0.74950000  0.89990000  1.0 0.1162053682
H  H68  1  0.49700000  0.25050000  0.89990000  1.0 0.1162053682
H  H69  1  0.75050000  0.99700000  0.60010000  1.0 0.1162053682
H  H70  1  0.24950000  0.00300000  0.60010000  1.0 0.1162053682
H  H71  1  0.00300000  0.75050000  0.10010000  1.0 0.1162053682
H  H72  1  0.99700000  0.24950000  0.10010000  1.0 0.1162053682
H  H73  1  0.74950000  0.49700000  0.60010000  1.0 0.1162053682
H  H74  1  0.25050000  0.50300000  0.60010000  1.0 0.1162053682
H  H75  1  0.49700000  0.25050000  0.10010000  1.0 0.1162053682
H  H76  1  0.50300000  0.74950000  0.10010000  1.0 0.1162053682
H  H77  1  0.24950000  0.00300000  0.39990000  1.0 0.1162053682
H  H78  1  0.75050000  0.99700000  0.39990000  1.0 0.1162053682
H  H79  1  0.99700000  0.24950000  0.89990000  1.0 0.1162053682
H  H80  1  0.00300000  0.75050000  0.89990000  1.0 0.1162053682
H  H81  1  0.25330000  0.58880000  0.33750000  1.0 0.1402908396
H  H82  1  0.74670000  0.41120000  0.33750000  1.0 0.1402908396
H  H83  1  0.58880000  0.74670000  0.83750000  1.0 0.1402908396
H  H84  1  0.41120000  0.25330000  0.83750000  1.0 0.1402908396
H  H85  1  0.75330000  0.91120000  0.66250000  1.0 0.1402908396
H  H86  1  0.24670000  0.08880000  0.66250000  1.0 0.1402908396
H  H87  1  0.08880000  0.75330000  0.16250000  1.0 0.1402908396
H  H88  1  0.91120000  0.24670000  0.16250000  1.0 0.1402908396
H  H89  1  0.74670000  0.41120000  0.66250000  1.0 0.1402908396
H  H90  1  0.25330000  0.58880000  0.66250000  1.0 0.1402908396
H  H91  1  0.41120000  0.25330000  0.16250000  1.0 0.1402908396
H  H92  1  0.58880000  0.74670000  0.16250000  1.0 0.1402908396
H  H93  1  0.24670000  0.08880000  0.33750000  1.0 0.1402908396
H  H94  1  0.75330000  0.91120000  0.33750000  1.0 0.1402908396
H  H95  1  0.91120000  0.24670000  0.83750000  1.0 0.1402908396
H  H96  1  0.08880000  0.75330000  0.83750000  1.0 0.1402908396
H  H97  1  0.30090000  0.70920000  0.05240000  1.0 0.0498609732
H  H98  1  0.69910000  0.29080000  0.05240000  1.0 0.0498609732
H  H99  1  0.70920000  0.69910000  0.55240000  1.0 0.0498609732
H  H100  1  0.29080000  0.30090000  0.55240000  1.0 0.0498609732
H  H101  1  0.80090000  0.79080000  0.94760000  1.0 0.0498609732
H  H102  1  0.19910000  0.20920000  0.94760000  1.0 0.0498609732
H  H103  1  0.20920000  0.80090000  0.44760000  1.0 0.0498609732
H  H104  1  0.79080000  0.19910000  0.44760000  1.0 0.0498609732
H  H105  1  0.69910000  0.29080000  0.94760000  1.0 0.0498609732
H  H106  1  0.30090000  0.70920000  0.94760000  1.0 0.0498609732
H  H107  1  0.29080000  0.30090000  0.44760000  1.0 0.0498609732
H  H108  1  0.70920000  0.69910000  0.44760000  1.0 0.0498609732
H  H109  1  0.19910000  0.20920000  0.05240000  1.0 0.0498609732
H  H110  1  0.80090000  0.79080000  0.05240000  1.0 0.0498609732
H  H111  1  0.79080000  0.19910000  0.55240000  1.0 0.0498609732
H  H112  1  0.20920000  0.80090000  0.55240000  1.0 0.0498609732
H  H113  1  0.28070000  0.68930000  0.97180000  1.0 0.0694984252
H  H114  1  0.71930000  0.31070000  0.97180000  1.0 0.0694984252
H  H115  1  0.68930000  0.71930000  0.47180000  1.0 0.0694984252
H  H116  1  0.31070000  0.28070000  0.47180000  1.0 0.0694984252
H  H117  1  0.78070000  0.81070000  0.02820000  1.0 0.0694984252
H  H118  1  0.21930000  0.18930000  0.02820000  1.0 0.0694984252
H  H119  1  0.18930000  0.78070000  0.52820000  1.0 0.0694984252
H  H120  1  0.81070000  0.21930000  0.52820000  1.0 0.0694984252
H  H121  1  0.71930000  0.31070000  0.02820000  1.0 0.0694984252
H  H122  1  0.28070000  0.68930000  0.02820000  1.0 0.0694984252
H  H123  1  0.31070000  0.28070000  0.52820000  1.0 0.0694984252
H  H124  1  0.68930000  0.71930000  0.52820000  1.0 0.0694984252
H  H125  1  0.21930000  0.18930000  0.97180000  1.0 0.0694984252
H  H126  1  0.78070000  0.81070000  0.97180000  1.0 0.0694984252
H  H127  1  0.81070000  0.21930000  0.47180000  1.0 0.0694984252
H  H128  1  0.18930000  0.78070000  0.47180000  1.0 0.0694984252
H  H129  1  0.32430000  0.73230000  0.97580000  1.0 0.0694984252
H  H130  1  0.67570000  0.26770000  0.97580000  1.0 0.0694984252
H  H131  1  0.73230000  0.67570000  0.47580000  1.0 0.0694984252
H  H132  1  0.26770000  0.32430000  0.47580000  1.0 0.0694984252
H  H133  1  0.82430000  0.76770000  0.02420000  1.0 0.0694984252
H  H134  1  0.17570000  0.23230000  0.02420000  1.0 0.0694984252
H  H135  1  0.23230000  0.82430000  0.52420000  1.0 0.0694984252
H  H136  1  0.76770000  0.17570000  0.52420000  1.0 0.0694984252
H  H137  1  0.67570000  0.26770000  0.02420000  1.0 0.0694984252
H  H138  1  0.32430000  0.73230000  0.02420000  1.0 0.0694984252
H  H139  1  0.26770000  0.32430000  0.52420000  1.0 0.0694984252
H  H140  1  0.73230000  0.67570000  0.52420000  1.0 0.0694984252
H  H141  1  0.17570000  0.23230000  0.97580000  1.0 0.0694984252
H  H142  1  0.82430000  0.76770000  0.97580000  1.0 0.0694984252
H  H143  1  0.76770000  0.17570000  0.47580000  1.0 0.0694984252
H  H144  1  0.23230000  0.82430000  0.47580000  1.0 0.0694984252
C  C1  1  0.24402000  0.35368000  0.26813000  1.0 0.5840339139
C  C2  1  0.75598000  0.64632000  0.26813000  1.0 0.5840339139
C  C3  1  0.35368000  0.75598000  0.76813000  1.0 0.5840339139
C  C4  1  0.64632000  0.24402000  0.76813000  1.0 0.5840339139
C  C5  1  0.74402000  0.14632000  0.73187000  1.0 0.5840339139
C  C6  1  0.25598000  0.85368000  0.73187000  1.0 0.5840339139
C  C7  1  0.85368000  0.74402000  0.23187000  1.0 0.5840339139
C  C8  1  0.14632000  0.25598000  0.23187000  1.0 0.5840339139
C  C9  1  0.75598000  0.64632000  0.73187000  1.0 0.5840339139
C  C10  1  0.24402000  0.35368000  0.73187000  1.0 0.5840339139
C  C11  1  0.64632000  0.24402000  0.23187000  1.0 0.5840339139
C  C12  1  0.35368000  0.75598000  0.23187000  1.0 0.5840339139
C  C13  1  0.25598000  0.85368000  0.26813000  1.0 0.5840339139
C  C14  1  0.74402000  0.14632000  0.26813000  1.0 0.5840339139
C  C15  1  0.14632000  0.25598000  0.76813000  1.0 0.5840339139
C  C16  1  0.85368000  0.74402000  0.76813000  1.0 0.5840339139
C  C17  1  0.25442000  0.65889000  0.23111000  1.0 0.5840339139
C  C18  1  0.74558000  0.34111000  0.23111000  1.0 0.5840339139
C  C19  1  0.65889000  0.74558000  0.73111000  1.0 0.5840339139
C  C20  1  0.34111000  0.25442000  0.73111000  1.0 0.5840339139
C  C21  1  0.75442000  0.84111000  0.76889000  1.0 0.5840339139
C  C22  1  0.24558000  0.15889000  0.76889000  1.0 0.5840339139
C  C23  1  0.15889000  0.75442000  0.26889000  1.0 0.5840339139
C  C24  1  0.84111000  0.24558000  0.26889000  1.0 0.5840339139
C  C25  1  0.74558000  0.34111000  0.76889000  1.0 0.5840339139
C  C26  1  0.25442000  0.65889000  0.76889000  1.0 0.5840339139
C  C27  1  0.34111000  0.25442000  0.26889000  1.0 0.5840339139
C  C28  1  0.65889000  0.74558000  0.26889000  1.0 0.5840339139
C  C29  1  0.24558000  0.15889000  0.23111000  1.0 0.5840339139
C  C30  1  0.75442000  0.84111000  0.23111000  1.0 0.5840339139
C  C31  1  0.84111000  0.24558000  0.73111000  1.0 0.5840339139
C  C32  1  0.15889000  0.75442000  0.73111000  1.0 0.5840339139
C  C33  1  0.25361000  0.60129000  0.22484000  1.0 -0.0100255696
C  C34  1  0.74639000  0.39871000  0.22484000  1.0 -0.0100255696
C  C35  1  0.60129000  0.74639000  0.72484000  1.0 -0.0100255696
C  C36  1  0.39871000  0.25361000  0.72484000  1.0 -0.0100255696
C  C37  1  0.75361000  0.89871000  0.77516000  1.0 -0.0100255696
C  C38  1  0.24639000  0.10129000  0.77516000  1.0 -0.0100255696
C  C39  1  0.10129000  0.75361000  0.27516000  1.0 -0.0100255696
C  C40  1  0.89871000  0.24639000  0.27516000  1.0 -0.0100255696
C  C41  1  0.74639000  0.39871000  0.77516000  1.0 -0.0100255696
C  C42  1  0.25361000  0.60129000  0.77516000  1.0 -0.0100255696
C  C43  1  0.39871000  0.25361000  0.27516000  1.0 -0.0100255696
C  C44  1  0.60129000  0.74639000  0.27516000  1.0 -0.0100255696
C  C45  1  0.24639000  0.10129000  0.22484000  1.0 -0.0100255696
C  C46  1  0.75361000  0.89871000  0.22484000  1.0 -0.0100255696
C  C47  1  0.89871000  0.24639000  0.72484000  1.0 -0.0100255696
C  C48  1  0.10129000  0.75361000  0.72484000  1.0 -0.0100255696
C  C49  1  0.25400000  0.57738000  0.15376000  1.0 -0.0907864636
C  C50  1  0.74600000  0.42262000  0.15376000  1.0 -0.0907864636
C  C51  1  0.57738000  0.74600000  0.65376000  1.0 -0.0907864636
C  C52  1  0.42262000  0.25400000  0.65376000  1.0 -0.0907864636
C  C53  1  0.75400000  0.92262000  0.84624000  1.0 -0.0907864636
C  C54  1  0.24600000  0.07738000  0.84624000  1.0 -0.0907864636
C  C55  1  0.07738000  0.75400000  0.34624000  1.0 -0.0907864636
C  C56  1  0.92262000  0.24600000  0.34624000  1.0 -0.0907864636
C  C57  1  0.74600000  0.42262000  0.84624000  1.0 -0.0907864636
C  C58  1  0.25400000  0.57738000  0.84624000  1.0 -0.0907864636
C  C59  1  0.42262000  0.25400000  0.34624000  1.0 -0.0907864636
C  C60  1  0.57738000  0.74600000  0.34624000  1.0 -0.0907864636
C  C61  1  0.24600000  0.07738000  0.15376000  1.0 -0.0907864636
C  C62  1  0.75400000  0.92262000  0.15376000  1.0 -0.0907864636
C  C63  1  0.92262000  0.24600000  0.65376000  1.0 -0.0907864636
C  C64  1  0.07738000  0.75400000  0.65376000  1.0 -0.0907864636
C  C65  1  0.25239000  0.52550000  0.14755000  1.0 -0.1404736973
C  C66  1  0.74761000  0.47450000  0.14755000  1.0 -0.1404736973
C  C67  1  0.52550000  0.74761000  0.64755000  1.0 -0.1404736973
C  C68  1  0.47450000  0.25239000  0.64755000  1.0 -0.1404736973
C  C69  1  0.75239000  0.97450000  0.85245000  1.0 -0.1404736973
C  C70  1  0.24761000  0.02550000  0.85245000  1.0 -0.1404736973
C  C71  1  0.02550000  0.75239000  0.35245000  1.0 -0.1404736973
C  C72  1  0.97450000  0.24761000  0.35245000  1.0 -0.1404736973
C  C73  1  0.74761000  0.47450000  0.85245000  1.0 -0.1404736973
C  C74  1  0.25239000  0.52550000  0.85245000  1.0 -0.1404736973
C  C75  1  0.47450000  0.25239000  0.35245000  1.0 -0.1404736973
C  C76  1  0.52550000  0.74761000  0.35245000  1.0 -0.1404736973
C  C77  1  0.24761000  0.02550000  0.14755000  1.0 -0.1404736973
C  C78  1  0.75239000  0.97450000  0.14755000  1.0 -0.1404736973
C  C79  1  0.97450000  0.24761000  0.64755000  1.0 -0.1404736973
C  C80  1  0.02550000  0.75239000  0.64755000  1.0 -0.1404736973
C  C81  1  0.25083000  0.49433000  0.21355000  1.0 0.0694984252
C  C82  1  0.74917000  0.50567000  0.21355000  1.0 0.0694984252
C  C83  1  0.49433000  0.74917000  0.71355000  1.0 0.0694984252
C  C84  1  0.50567000  0.25083000  0.71355000  1.0 0.0694984252
C  C85  1  0.75083000  0.00567000  0.78645000  1.0 0.0694984252
C  C86  1  0.24917000  0.99433000  0.78645000  1.0 0.0694984252
C  C87  1  0.99433000  0.75083000  0.28645000  1.0 0.0694984252
C  C88  1  0.00567000  0.24917000  0.28645000  1.0 0.0694984252
C  C89  1  0.74917000  0.50567000  0.78645000  1.0 0.0694984252
C  C90  1  0.25083000  0.49433000  0.78645000  1.0 0.0694984252
C  C91  1  0.50567000  0.25083000  0.28645000  1.0 0.0694984252
C  C92  1  0.49433000  0.74917000  0.28645000  1.0 0.0694984252
C  C93  1  0.24917000  0.99433000  0.21355000  1.0 0.0694984252
C  C94  1  0.75083000  0.00567000  0.21355000  1.0 0.0694984252
C  C95  1  0.00567000  0.24917000  0.71355000  1.0 0.0694984252
C  C96  1  0.99433000  0.75083000  0.71355000  1.0 0.0694984252
C  C97  1  0.24836000  0.44009000  0.20961000  1.0 -0.1404736973
C  C98  1  0.75164000  0.55991000  0.20961000  1.0 -0.1404736973
C  C99  1  0.44009000  0.75164000  0.70961000  1.0 -0.1404736973
C  C100  1  0.55991000  0.24836000  0.70961000  1.0 -0.1404736973
C  C101  1  0.74836000  0.05991000  0.79039000  1.0 -0.1404736973
C  C102  1  0.25164000  0.94009000  0.79039000  1.0 -0.1404736973
C  C103  1  0.94009000  0.74836000  0.29039000  1.0 -0.1404736973
C  C104  1  0.05991000  0.25164000  0.29039000  1.0 -0.1404736973
C  C105  1  0.75164000  0.55991000  0.79039000  1.0 -0.1404736973
C  C106  1  0.24836000  0.44009000  0.79039000  1.0 -0.1404736973
C  C107  1  0.55991000  0.24836000  0.29039000  1.0 -0.1404736973
C  C108  1  0.44009000  0.75164000  0.29039000  1.0 -0.1404736973
C  C109  1  0.25164000  0.94009000  0.20961000  1.0 -0.1404736973
C  C110  1  0.74836000  0.05991000  0.20961000  1.0 -0.1404736973
C  C111  1  0.05991000  0.25164000  0.70961000  1.0 -0.1404736973
C  C112  1  0.94009000  0.74836000  0.70961000  1.0 -0.1404736973
C  C113  1  0.24633000  0.41107000  0.27361000  1.0 -0.0100255696
C  C114  1  0.75367000  0.58893000  0.27361000  1.0 -0.0100255696
C  C115  1  0.41107000  0.75367000  0.77361000  1.0 -0.0100255696
C  C116  1  0.58893000  0.24633000  0.77361000  1.0 -0.0100255696
C  C117  1  0.74633000  0.08893000  0.72639000  1.0 -0.0100255696
C  C118  1  0.25367000  0.91107000  0.72639000  1.0 -0.0100255696
C  C119  1  0.91107000  0.74633000  0.22639000  1.0 -0.0100255696
C  C120  1  0.08893000  0.25367000  0.22639000  1.0 -0.0100255696
C  C121  1  0.75367000  0.58893000  0.72639000  1.0 -0.0100255696
C  C122  1  0.24633000  0.41107000  0.72639000  1.0 -0.0100255696
C  C123  1  0.58893000  0.24633000  0.22639000  1.0 -0.0100255696
C  C124  1  0.41107000  0.75367000  0.22639000  1.0 -0.0100255696
C  C125  1  0.25367000  0.91107000  0.27361000  1.0 -0.0100255696
C  C126  1  0.74633000  0.08893000  0.27361000  1.0 -0.0100255696
C  C127  1  0.08893000  0.25367000  0.77361000  1.0 -0.0100255696
C  C128  1  0.91107000  0.74633000  0.77361000  1.0 -0.0100255696
C  C129  1  0.24797000  0.43500000  0.34531000  1.0 -0.0837040599
C  C130  1  0.75203000  0.56500000  0.34531000  1.0 -0.0837040599
C  C131  1  0.43500000  0.75203000  0.84531000  1.0 -0.0837040599
C  C132  1  0.56500000  0.24797000  0.84531000  1.0 -0.0837040599
C  C133  1  0.74797000  0.06500000  0.65469000  1.0 -0.0837040599
C  C134  1  0.25203000  0.93500000  0.65469000  1.0 -0.0837040599
C  C135  1  0.93500000  0.74797000  0.15469000  1.0 -0.0837040599
C  C136  1  0.06500000  0.25203000  0.15469000  1.0 -0.0837040599
C  C137  1  0.75203000  0.56500000  0.65469000  1.0 -0.0837040599
C  C138  1  0.24797000  0.43500000  0.65469000  1.0 -0.0837040599
C  C139  1  0.56500000  0.24797000  0.15469000  1.0 -0.0837040599
C  C140  1  0.43500000  0.75203000  0.15469000  1.0 -0.0837040599
C  C141  1  0.25203000  0.93500000  0.34531000  1.0 -0.0837040599
C  C142  1  0.74797000  0.06500000  0.34531000  1.0 -0.0837040599
C  C143  1  0.06500000  0.25203000  0.84531000  1.0 -0.0837040599
C  C144  1  0.93500000  0.74797000  0.84531000  1.0 -0.0837040599
C  C145  1  0.24980000  0.48732000  0.35125000  1.0 -0.1404736973
C  C146  1  0.75020000  0.51268000  0.35125000  1.0 -0.1404736973
C  C147  1  0.48732000  0.75020000  0.85125000  1.0 -0.1404736973
C  C148  1  0.51268000  0.24980000  0.85125000  1.0 -0.1404736973
C  C149  1  0.74980000  0.01268000  0.64875000  1.0 -0.1404736973
C  C150  1  0.25020000  0.98732000  0.64875000  1.0 -0.1404736973
C  C151  1  0.98732000  0.74980000  0.14875000  1.0 -0.1404736973
C  C152  1  0.01268000  0.25020000  0.14875000  1.0 -0.1404736973
C  C153  1  0.75020000  0.51268000  0.64875000  1.0 -0.1404736973
C  C154  1  0.24980000  0.48732000  0.64875000  1.0 -0.1404736973
C  C155  1  0.51268000  0.24980000  0.14875000  1.0 -0.1404736973
C  C156  1  0.48732000  0.75020000  0.14875000  1.0 -0.1404736973
C  C157  1  0.25020000  0.98732000  0.35125000  1.0 -0.1404736973
C  C158  1  0.74980000  0.01268000  0.35125000  1.0 -0.1404736973
C  C159  1  0.01268000  0.25020000  0.85125000  1.0 -0.1404736973
C  C160  1  0.98732000  0.74980000  0.85125000  1.0 -0.1404736973
C  C161  1  0.25062000  0.51797000  0.28563000  1.0 0.0694984252
C  C162  1  0.74938000  0.48203000  0.28563000  1.0 0.0694984252
C  C163  1  0.51797000  0.74938000  0.78563000  1.0 0.0694984252
C  C164  1  0.48203000  0.25062000  0.78563000  1.0 0.0694984252
C  C165  1  0.75062000  0.98203000  0.71437000  1.0 0.0694984252
C  C166  1  0.24938000  0.01797000  0.71437000  1.0 0.0694984252
C  C167  1  0.01797000  0.75062000  0.21437000  1.0 0.0694984252
C  C168  1  0.98203000  0.24938000  0.21437000  1.0 0.0694984252
C  C169  1  0.74938000  0.48203000  0.71437000  1.0 0.0694984252
C  C170  1  0.25062000  0.51797000  0.71437000  1.0 0.0694984252
C  C171  1  0.48203000  0.25062000  0.21437000  1.0 0.0694984252
C  C172  1  0.51797000  0.74938000  0.21437000  1.0 0.0694984252
C  C173  1  0.24938000  0.01797000  0.28563000  1.0 0.0694984252
C  C174  1  0.75062000  0.98203000  0.28563000  1.0 0.0694984252
C  C175  1  0.98203000  0.24938000  0.78563000  1.0 0.0694984252
C  C176  1  0.01797000  0.75062000  0.78563000  1.0 0.0694984252
C  C177  1  0.25265000  0.57233000  0.28939000  1.0 -0.1404736973
C  C178  1  0.74735000  0.42767000  0.28939000  1.0 -0.1404736973
C  C179  1  0.57233000  0.74735000  0.78939000  1.0 -0.1404736973
C  C180  1  0.42767000  0.25265000  0.78939000  1.0 -0.1404736973
C  C181  1  0.75265000  0.92767000  0.71061000  1.0 -0.1404736973
C  C182  1  0.24735000  0.07233000  0.71061000  1.0 -0.1404736973
C  C183  1  0.07233000  0.75265000  0.21061000  1.0 -0.1404736973
C  C184  1  0.92767000  0.24735000  0.21061000  1.0 -0.1404736973
C  C185  1  0.74735000  0.42767000  0.71061000  1.0 -0.1404736973
C  C186  1  0.25265000  0.57233000  0.71061000  1.0 -0.1404736973
C  C187  1  0.42767000  0.25265000  0.21061000  1.0 -0.1404736973
C  C188  1  0.57233000  0.74735000  0.21061000  1.0 -0.1404736973
C  C189  1  0.24735000  0.07233000  0.28939000  1.0 -0.1404736973
C  C190  1  0.75265000  0.92767000  0.28939000  1.0 -0.1404736973
C  C191  1  0.92767000  0.24735000  0.78939000  1.0 -0.1404736973
C  C192  1  0.07233000  0.75265000  0.78939000  1.0 -0.1404736973
C  C193  1  0.25310000  0.75983000  0.00000000  1.0 0.6975008473
C  C194  1  0.74690000  0.24017000  0.00000000  1.0 0.6975008473
C  C195  1  0.75983000  0.74690000  0.50000000  1.0 0.6975008473
C  C196  1  0.24017000  0.25310000  0.50000000  1.0 0.6975008473
C  C197  1  0.75310000  0.74017000  0.00000000  1.0 0.6975008473
C  C198  1  0.24690000  0.25983000  0.00000000  1.0 0.6975008473
C  C199  1  0.25983000  0.75310000  0.50000000  1.0 0.6975008473
C  C200  1  0.74017000  0.24690000  0.50000000  1.0 0.6975008473
C  C201  1  0.29316000  0.71916000  0.00000000  1.0 -0.4228535704
C  C202  1  0.70684000  0.28084000  0.00000000  1.0 -0.4228535704
C  C203  1  0.71916000  0.70684000  0.50000000  1.0 -0.4228535704
C  C204  1  0.28084000  0.29316000  0.50000000  1.0 -0.4228535704
C  C205  1  0.79316000  0.78084000  0.00000000  1.0 -0.4228535704
C  C206  1  0.20684000  0.21916000  0.00000000  1.0 -0.4228535704
C  C207  1  0.21916000  0.79316000  0.50000000  1.0 -0.4228535704
C  C208  1  0.78084000  0.20684000  0.50000000  1.0 -0.4228535704
O  O1  1  0.25725000  0.67739000  0.29624000  1.0 -0.5102911368
O  O2  1  0.74275000  0.32261000  0.29624000  1.0 -0.5102911368
O  O3  1  0.67739000  0.74275000  0.79624000  1.0 -0.5102911368
O  O4  1  0.32261000  0.25725000  0.79624000  1.0 -0.5102911368
O  O5  1  0.75725000  0.82261000  0.70376000  1.0 -0.5102911368
O  O6  1  0.24275000  0.17739000  0.70376000  1.0 -0.5102911368
O  O7  1  0.17739000  0.75725000  0.20376000  1.0 -0.5102911368
O  O8  1  0.82261000  0.24275000  0.20376000  1.0 -0.5102911368
O  O9  1  0.74275000  0.32261000  0.70376000  1.0 -0.5102911368
O  O10  1  0.25725000  0.67739000  0.70376000  1.0 -0.5102911368
O  O11  1  0.32261000  0.25725000  0.20376000  1.0 -0.5102911368
O  O12  1  0.67739000  0.74275000  0.20376000  1.0 -0.5102911368
O  O13  1  0.24275000  0.17739000  0.29624000  1.0 -0.5102911368
O  O14  1  0.75725000  0.82261000  0.29624000  1.0 -0.5102911368
O  O15  1  0.82261000  0.24275000  0.79624000  1.0 -0.5102911368
O  O16  1  0.17739000  0.75725000  0.79624000  1.0 -0.5102911368
O  O17  1  0.25309000  0.68350000  0.17059000  1.0 -0.5306734273
O  O18  1  0.74691000  0.31650000  0.17059000  1.0 -0.5306734273
O  O19  1  0.68350000  0.74691000  0.67059000  1.0 -0.5306734273
O  O20  1  0.31650000  0.25309000  0.67059000  1.0 -0.5306734273
O  O21  1  0.75309000  0.81650000  0.82941000  1.0 -0.5306734273
O  O22  1  0.24691000  0.18350000  0.82941000  1.0 -0.5306734273
O  O23  1  0.18350000  0.75309000  0.32941000  1.0 -0.5306734273
O  O24  1  0.81650000  0.24691000  0.32941000  1.0 -0.5306734273
O  O25  1  0.74691000  0.31650000  0.82941000  1.0 -0.5306734273
O  O26  1  0.25309000  0.68350000  0.82941000  1.0 -0.5306734273
O  O27  1  0.31650000  0.25309000  0.32941000  1.0 -0.5306734273
O  O28  1  0.68350000  0.74691000  0.32941000  1.0 -0.5306734273
O  O29  1  0.24691000  0.18350000  0.17059000  1.0 -0.5306734273
O  O30  1  0.75309000  0.81650000  0.17059000  1.0 -0.5306734273
O  O31  1  0.81650000  0.24691000  0.67059000  1.0 -0.5306734273
O  O32  1  0.18350000  0.75309000  0.67059000  1.0 -0.5306734273
O  O33  1  0.24029000  0.32918000  0.32825000  1.0 -0.5306734273
O  O34  1  0.75971000  0.67082000  0.32825000  1.0 -0.5306734273
O  O35  1  0.32918000  0.75971000  0.82825000  1.0 -0.5306734273
O  O36  1  0.67082000  0.24029000  0.82825000  1.0 -0.5306734273
O  O37  1  0.74029000  0.17082000  0.67175000  1.0 -0.5306734273
O  O38  1  0.25971000  0.82918000  0.67175000  1.0 -0.5306734273
O  O39  1  0.82918000  0.74029000  0.17175000  1.0 -0.5306734273
O  O40  1  0.17082000  0.25971000  0.17175000  1.0 -0.5306734273
O  O41  1  0.75971000  0.67082000  0.67175000  1.0 -0.5306734273
O  O42  1  0.24029000  0.32918000  0.67175000  1.0 -0.5306734273
O  O43  1  0.67082000  0.24029000  0.17175000  1.0 -0.5306734273
O  O44  1  0.32918000  0.75971000  0.17175000  1.0 -0.5306734273
O  O45  1  0.25971000  0.82918000  0.32825000  1.0 -0.5306734273
O  O46  1  0.74029000  0.17082000  0.32825000  1.0 -0.5306734273
O  O47  1  0.17082000  0.25971000  0.82825000  1.0 -0.5306734273
O  O48  1  0.82918000  0.74029000  0.82825000  1.0 -0.5306734273
O  O49  1  0.24645000  0.33502000  0.20323000  1.0 -0.5102911368
O  O50  1  0.75355000  0.66498000  0.20323000  1.0 -0.5102911368
O  O51  1  0.33502000  0.75355000  0.70323000  1.0 -0.5102911368
O  O52  1  0.66498000  0.24645000  0.70323000  1.0 -0.5102911368
O  O53  1  0.74645000  0.16498000  0.79677000  1.0 -0.5102911368
O  O54  1  0.25355000  0.83502000  0.79677000  1.0 -0.5102911368
O  O55  1  0.83502000  0.74645000  0.29677000  1.0 -0.5102911368
O  O56  1  0.16498000  0.25355000  0.29677000  1.0 -0.5102911368
O  O57  1  0.75355000  0.66498000  0.79677000  1.0 -0.5102911368
O  O58  1  0.24645000  0.33502000  0.79677000  1.0 -0.5102911368
O  O59  1  0.66498000  0.24645000  0.29677000  1.0 -0.5102911368
O  O60  1  0.33502000  0.75355000  0.29677000  1.0 -0.5102911368
O  O61  1  0.25355000  0.83502000  0.20323000  1.0 -0.5102911368
O  O62  1  0.74645000  0.16498000  0.20323000  1.0 -0.5102911368
O  O63  1  0.16498000  0.25355000  0.70323000  1.0 -0.5102911368
O  O64  1  0.83502000  0.74645000  0.70323000  1.0 -0.5102911368
O  O65  1  0.23574000  0.77717000  0.06160000  1.0 -0.5306734273
O  O66  1  0.76426000  0.22283000  0.06160000  1.0 -0.5245096013
O  O67  1  0.77717000  0.76426000  0.56160000  1.0 -0.5306734273
O  O68  1  0.22283000  0.23574000  0.56160000  1.0 -0.5306734273
O  O69  1  0.73574000  0.72283000  0.93840000  1.0 -0.5245096013
O  O70  1  0.26426000  0.27717000  0.93840000  1.0 -0.5245096013
O  O71  1  0.27717000  0.73574000  0.43840000  1.0 -0.5306734273
O  O72  1  0.72283000  0.26426000  0.43840000  1.0 -0.5306734273
O  O73  1  0.76426000  0.22283000  0.93840000  1.0 -0.5245096013
O  O74  1  0.23574000  0.77717000  0.93840000  1.0 -0.5306734273
O  O75  1  0.22283000  0.23574000  0.43840000  1.0 -0.5306734273
O  O76  1  0.77717000  0.76426000  0.43840000  1.0 -0.5306734273
O  O77  1  0.26426000  0.27717000  0.06160000  1.0 -0.5306734273
O  O78  1  0.73574000  0.72283000  0.06160000  1.0 -0.5306734273
O  O79  1  0.72283000  0.26426000  0.56160000  1.0 -0.5306734273
O  O80  1  0.27717000  0.73574000  0.56160000  1.0 -0.5306734273
