# DDEC6 charges by PACMAN v1.1 (https://github.com/mtap-research/PACMAN-charge/)
data_USIRUL_ASR_pacman
_symmetry_space_group_name_H-M   'P 1'
_cell_length_a   8.73110000
_cell_length_b   19.24110000
_cell_length_c   22.00230000
_cell_angle_alpha   90.00000000
_cell_angle_beta   90.00000000
_cell_angle_gamma   90.00000000
_symmetry_Int_Tables_number   1
_chemical_formula_structural   CuH12C19N7
_chemical_formula_sum   'Cu8 H96 C152 N56'
_cell_volume   3696.29769135
_cell_formula_units_Z   8
loop_
 _symmetry_equiv_pos_site_id
 _symmetry_equiv_pos_as_xyz
  1  'x, y, z'
loop_
 _atom_site_type_symbol
 _atom_site_label
 _atom_site_symmetry_multiplicity
 _atom_site_fract_x
 _atom_site_fract_y
 _atom_site_fract_z
 _atom_site_occupancy
 _atom_site_charge
Cu  Cu1  1  0.75000000  0.39502000  0.00000000  1.0 0.3789262006
Cu  Cu2  1  0.75000000  0.89502000  0.50000000  1.0 0.3789262006
Cu  Cu3  1  0.25000000  0.26854000  0.00000000  1.0 0.1735644767
Cu  Cu4  1  0.25000000  0.76854000  0.50000000  1.0 0.1735644767
Cu  Cu5  1  0.25000000  0.10498000  0.50000000  1.0 0.3789262006
Cu  Cu6  1  0.25000000  0.60498000  0.00000000  1.0 0.3789262006
Cu  Cu7  1  0.75000000  0.23146000  0.50000000  1.0 0.1735644767
Cu  Cu8  1  0.75000000  0.73146000  0.00000000  1.0 0.1735644767
H  H1  1  0.62870000  0.54290000  0.03540000  1.0 0.1085170441
H  H2  1  0.87130000  0.54290000  0.96460000  1.0 0.1085170441
H  H3  1  0.87130000  0.04290000  0.53540000  1.0 0.1085170441
H  H4  1  0.62870000  0.04290000  0.46460000  1.0 0.1085170441
H  H5  1  0.68190000  0.62690000  0.10740000  1.0 0.1085170441
H  H6  1  0.81810000  0.62690000  0.89260000  1.0 0.1085170441
H  H7  1  0.81810000  0.12690000  0.60740000  1.0 0.1085170441
H  H8  1  0.68190000  0.12690000  0.39260000  1.0 0.1085170441
H  H9  1  0.87480000  0.40760000  0.12830000  1.0 0.1085170441
H  H10  1  0.62520000  0.40760000  0.87170000  1.0 0.1085170441
H  H11  1  0.62520000  0.90760000  0.62830000  1.0 0.1085170441
H  H12  1  0.87480000  0.90760000  0.37170000  1.0 0.1085170441
H  H13  1  0.97660000  0.58910000  0.24870000  1.0 0.1242799589
H  H14  1  0.52340000  0.58910000  0.75130000  1.0 0.1242799589
H  H15  1  0.52340000  0.08910000  0.74870000  1.0 0.1242799589
H  H16  1  0.97660000  0.08910000  0.25130000  1.0 0.1242799589
H  H17  1  0.95550000  0.65140000  0.33250000  1.0 0.1242799589
H  H18  1  0.54450000  0.65140000  0.66750000  1.0 0.1242799589
H  H19  1  0.54450000  0.15140000  0.83250000  1.0 0.1242799589
H  H20  1  0.95550000  0.15140000  0.16750000  1.0 0.1242799589
H  H21  1  0.02790000  0.73850000  0.39880000  1.0 0.1005998904
H  H22  1  0.47210000  0.73850000  0.60120000  1.0 0.1005998904
H  H23  1  0.47210000  0.23850000  0.89880000  1.0 0.1005998904
H  H24  1  0.02790000  0.23850000  0.10120000  1.0 0.1005998904
H  H25  1  0.38900000  0.63250000  0.45090000  1.0 0.1005998904
H  H26  1  0.11100000  0.63250000  0.54910000  1.0 0.1005998904
H  H27  1  0.11100000  0.13250000  0.95090000  1.0 0.1005998904
H  H28  1  0.38900000  0.13250000  0.04910000  1.0 0.1005998904
H  H29  1  0.32430000  0.54030000  0.38800000  1.0 0.1292371045
H  H30  1  0.17570000  0.54030000  0.61200000  1.0 0.1292371045
H  H31  1  0.17570000  0.04030000  0.88800000  1.0 0.1292371045
H  H32  1  0.32430000  0.04030000  0.11200000  1.0 0.1292371045
H  H33  1  0.17500000  0.44610000  0.35930000  1.0 0.1292371045
H  H34  1  0.32500000  0.44610000  0.64070000  1.0 0.1292371045
H  H35  1  0.32500000  0.94610000  0.85930000  1.0 0.1292371045
H  H36  1  0.17500000  0.94610000  0.14070000  1.0 0.1292371045
H  H37  1  0.20290000  0.23630000  0.40680000  1.0 0.1085170441
H  H38  1  0.29710000  0.23630000  0.59320000  1.0 0.1085170441
H  H39  1  0.29710000  0.73630000  0.90680000  1.0 0.1085170441
H  H40  1  0.20290000  0.73630000  0.09320000  1.0 0.1085170441
H  H41  1  0.08500000  0.15160000  0.34950000  1.0 0.1085170441
H  H42  1  0.41500000  0.15160000  0.65050000  1.0 0.1085170441
H  H43  1  0.41500000  0.65160000  0.84950000  1.0 0.1085170441
H  H44  1  0.08500000  0.65160000  0.15050000  1.0 0.1085170441
H  H45  1  0.95440000  0.29260000  0.23150000  1.0 0.1085170441
H  H46  1  0.54560000  0.29260000  0.76850000  1.0 0.1085170441
H  H47  1  0.54560000  0.79260000  0.73150000  1.0 0.1085170441
H  H48  1  0.95440000  0.79260000  0.26850000  1.0 0.1085170441
H  H49  1  0.12870000  0.95710000  0.46460000  1.0 0.1085170441
H  H50  1  0.37130000  0.95710000  0.53540000  1.0 0.1085170441
H  H51  1  0.37130000  0.45710000  0.96460000  1.0 0.1085170441
H  H52  1  0.12870000  0.45710000  0.03540000  1.0 0.1085170441
H  H53  1  0.18190000  0.87310000  0.39260000  1.0 0.1085170441
H  H54  1  0.31810000  0.87310000  0.60740000  1.0 0.1085170441
H  H55  1  0.31810000  0.37310000  0.89260000  1.0 0.1085170441
H  H56  1  0.18190000  0.37310000  0.10740000  1.0 0.1085170441
H  H57  1  0.37480000  0.09240000  0.37170000  1.0 0.1085170441
H  H58  1  0.12520000  0.09240000  0.62830000  1.0 0.1085170441
H  H59  1  0.12520000  0.59240000  0.87170000  1.0 0.1085170441
H  H60  1  0.37480000  0.59240000  0.12830000  1.0 0.1085170441
H  H61  1  0.47660000  0.91090000  0.25130000  1.0 0.1242799589
H  H62  1  0.02340000  0.91090000  0.74870000  1.0 0.1242799589
H  H63  1  0.02340000  0.41090000  0.75130000  1.0 0.1242799589
H  H64  1  0.47660000  0.41090000  0.24870000  1.0 0.1242799589
H  H65  1  0.45550000  0.84860000  0.16750000  1.0 0.1242799589
H  H66  1  0.04450000  0.84860000  0.83250000  1.0 0.1242799589
H  H67  1  0.04450000  0.34860000  0.66750000  1.0 0.1242799589
H  H68  1  0.45550000  0.34860000  0.33250000  1.0 0.1242799589
H  H69  1  0.52790000  0.76150000  0.10120000  1.0 0.1005998904
H  H70  1  0.97210000  0.76150000  0.89880000  1.0 0.1005998904
H  H71  1  0.97210000  0.26150000  0.60120000  1.0 0.1005998904
H  H72  1  0.52790000  0.26150000  0.39880000  1.0 0.1005998904
H  H73  1  0.88900000  0.86750000  0.04910000  1.0 0.1005998904
H  H74  1  0.61100000  0.86750000  0.95090000  1.0 0.1005998904
H  H75  1  0.61100000  0.36750000  0.54910000  1.0 0.1005998904
H  H76  1  0.88900000  0.36750000  0.45090000  1.0 0.1005998904
H  H77  1  0.82430000  0.95970000  0.11200000  1.0 0.1292371045
H  H78  1  0.67570000  0.95970000  0.88800000  1.0 0.1292371045
H  H79  1  0.67570000  0.45970000  0.61200000  1.0 0.1292371045
H  H80  1  0.82430000  0.45970000  0.38800000  1.0 0.1292371045
H  H81  1  0.67500000  0.05390000  0.14070000  1.0 0.1292371045
H  H82  1  0.82500000  0.05390000  0.85930000  1.0 0.1292371045
H  H83  1  0.82500000  0.55390000  0.64070000  1.0 0.1292371045
H  H84  1  0.67500000  0.55390000  0.35930000  1.0 0.1292371045
H  H85  1  0.70290000  0.26370000  0.09320000  1.0 0.1085170441
H  H86  1  0.79710000  0.26370000  0.90680000  1.0 0.1085170441
H  H87  1  0.79710000  0.76370000  0.59320000  1.0 0.1085170441
H  H88  1  0.70290000  0.76370000  0.40680000  1.0 0.1085170441
H  H89  1  0.58500000  0.34840000  0.15050000  1.0 0.1085170441
H  H90  1  0.91500000  0.34840000  0.84950000  1.0 0.1085170441
H  H91  1  0.91500000  0.84840000  0.65050000  1.0 0.1085170441
H  H92  1  0.58500000  0.84840000  0.34950000  1.0 0.1085170441
H  H93  1  0.45440000  0.20740000  0.26850000  1.0 0.1085170441
H  H94  1  0.04560000  0.20740000  0.73150000  1.0 0.1085170441
H  H95  1  0.04560000  0.70740000  0.76850000  1.0 0.1085170441
H  H96  1  0.45440000  0.70740000  0.23150000  1.0 0.1085170441
C  C1  1  0.05690000  0.31676000  0.99857000  1.0 -0.1188662399
C  C2  1  0.44310000  0.31676000  0.00143000  1.0 -0.1188662399
C  C3  1  0.44310000  0.81676000  0.49857000  1.0 -0.1188662399
C  C4  1  0.05690000  0.81676000  0.50143000  1.0 -0.1188662399
C  C5  1  0.69230000  0.53146000  0.06902000  1.0 0.0058914989
C  C6  1  0.80770000  0.53146000  0.93098000  1.0 0.0058914989
C  C7  1  0.80770000  0.03146000  0.56902000  1.0 0.0058914989
C  C8  1  0.69230000  0.03146000  0.43098000  1.0 0.0058914989
C  C9  1  0.72180000  0.58144000  0.11289000  1.0 0.0420624593
C  C10  1  0.77820000  0.58144000  0.88711000  1.0 0.0420624593
C  C11  1  0.77820000  0.08144000  0.61289000  1.0 0.0420624593
C  C12  1  0.72180000  0.08144000  0.38711000  1.0 0.0420624593
C  C13  1  0.85780000  0.50270000  0.16799000  1.0 0.1292371045
C  C14  1  0.64220000  0.50270000  0.83201000  1.0 0.1292371045
C  C15  1  0.64220000  0.00270000  0.66799000  1.0 0.1292371045
C  C16  1  0.85780000  0.00270000  0.33201000  1.0 0.1292371045
C  C17  1  0.83300000  0.45282000  0.12320000  1.0 -0.017476467
C  C18  1  0.66700000  0.45282000  0.87680000  1.0 -0.017476467
C  C19  1  0.66700000  0.95282000  0.62320000  1.0 -0.017476467
C  C20  1  0.83300000  0.95282000  0.37680000  1.0 -0.017476467
C  C21  1  0.94800000  0.48751000  0.22379000  1.0 0.1816290373
C  C22  1  0.55200000  0.48751000  0.77621000  1.0 0.1816290373
C  C23  1  0.55200000  0.98751000  0.72379000  1.0 0.1816290373
C  C24  1  0.94800000  0.98751000  0.27621000  1.0 0.1816290373
C  C25  1  0.99910000  0.54247000  0.25964000  1.0 -0.2203097289
C  C26  1  0.50090000  0.54247000  0.74036000  1.0 -0.2203097289
C  C27  1  0.50090000  0.04247000  0.75964000  1.0 -0.2203097289
C  C28  1  0.99910000  0.04247000  0.24036000  1.0 -0.2203097289
C  C29  1  0.08370000  0.52783000  0.31185000  1.0 0.1085170441
C  C30  1  0.41630000  0.52783000  0.68815000  1.0 0.1085170441
C  C31  1  0.41630000  0.02783000  0.81185000  1.0 0.1085170441
C  C32  1  0.08370000  0.02783000  0.18815000  1.0 0.1085170441
C  C33  1  0.13180000  0.58505000  0.35264000  1.0 0.1085170441
C  C34  1  0.36820000  0.58505000  0.64736000  1.0 0.1085170441
C  C35  1  0.36820000  0.08505000  0.85264000  1.0 0.1085170441
C  C36  1  0.13180000  0.08505000  0.14736000  1.0 0.1085170441
C  C37  1  0.04480000  0.64585000  0.35667000  1.0 -0.1864447949
C  C38  1  0.45520000  0.64585000  0.64333000  1.0 -0.1864447949
C  C39  1  0.45520000  0.14585000  0.85667000  1.0 -0.1864447949
C  C40  1  0.04480000  0.14585000  0.14333000  1.0 -0.1864447949
C  C41  1  0.08950000  0.69793000  0.39615000  1.0 0.0730344074
C  C42  1  0.41050000  0.69793000  0.60385000  1.0 0.0730344074
C  C43  1  0.41050000  0.19793000  0.89615000  1.0 0.0730344074
C  C44  1  0.08950000  0.19793000  0.10385000  1.0 0.0730344074
C  C45  1  0.29910000  0.63602000  0.42673000  1.0 0.0730344074
C  C46  1  0.20090000  0.63602000  0.57327000  1.0 0.0730344074
C  C47  1  0.20090000  0.13602000  0.92673000  1.0 0.0730344074
C  C48  1  0.29910000  0.13602000  0.07327000  1.0 0.0730344074
C  C49  1  0.26180000  0.58067000  0.38899000  1.0 -0.1978035664
C  C50  1  0.23820000  0.58067000  0.61101000  1.0 -0.1978035664
C  C51  1  0.23820000  0.08067000  0.88899000  1.0 -0.1978035664
C  C52  1  0.26180000  0.08067000  0.11101000  1.0 -0.1978035664
C  C53  1  0.11470000  0.45821000  0.32497000  1.0 -0.232769564
C  C54  1  0.38530000  0.45821000  0.67503000  1.0 -0.232769564
C  C55  1  0.38530000  0.95821000  0.82497000  1.0 -0.232769564
C  C56  1  0.11470000  0.95821000  0.17503000  1.0 -0.232769564
C  C57  1  0.05580000  0.40646000  0.28679000  1.0 0.1874432748
C  C58  1  0.44420000  0.40646000  0.71321000  1.0 0.1874432748
C  C59  1  0.44420000  0.90646000  0.78679000  1.0 0.1874432748
C  C60  1  0.05580000  0.90646000  0.21321000  1.0 0.1874432748
C  C61  1  0.07190000  0.33204000  0.30325000  1.0 0.1292371045
C  C62  1  0.42810000  0.33204000  0.69675000  1.0 0.1292371045
C  C63  1  0.42810000  0.83204000  0.80325000  1.0 0.1292371045
C  C64  1  0.07190000  0.83204000  0.19675000  1.0 0.1292371045
C  C65  1  0.15080000  0.24931000  0.37064000  1.0 0.0264162373
C  C66  1  0.34920000  0.24931000  0.62936000  1.0 0.0264162373
C  C67  1  0.34920000  0.74931000  0.87064000  1.0 0.0264162373
C  C68  1  0.15080000  0.74931000  0.12936000  1.0 0.0264162373
C  C69  1  0.08130000  0.19844000  0.33599000  1.0 0.0229925902
C  C70  1  0.41870000  0.19844000  0.66401000  1.0 0.0229925902
C  C71  1  0.41870000  0.69844000  0.83599000  1.0 0.0229925902
C  C72  1  0.08130000  0.69844000  0.16401000  1.0 0.0229925902
C  C73  1  0.00490000  0.28005000  0.26815000  1.0 -0.0065712432
C  C74  1  0.49510000  0.28005000  0.73185000  1.0 -0.0065712432
C  C75  1  0.49510000  0.78005000  0.76815000  1.0 -0.0065712432
C  C76  1  0.00490000  0.78005000  0.23185000  1.0 -0.0065712432
C  C77  1  0.55690000  0.18324000  0.50143000  1.0 -0.1188662399
C  C78  1  0.94310000  0.18324000  0.49857000  1.0 -0.1188662399
C  C79  1  0.94310000  0.68324000  0.00143000  1.0 -0.1188662399
C  C80  1  0.55690000  0.68324000  0.99857000  1.0 -0.1188662399
C  C81  1  0.19230000  0.96854000  0.43098000  1.0 0.0058914989
C  C82  1  0.30770000  0.96854000  0.56902000  1.0 0.0058914989
C  C83  1  0.30770000  0.46854000  0.93098000  1.0 0.0058914989
C  C84  1  0.19230000  0.46854000  0.06902000  1.0 0.0058914989
C  C85  1  0.22180000  0.91856000  0.38711000  1.0 0.0420624593
C  C86  1  0.27820000  0.91856000  0.61289000  1.0 0.0420624593
C  C87  1  0.27820000  0.41856000  0.88711000  1.0 0.0420624593
C  C88  1  0.22180000  0.41856000  0.11289000  1.0 0.0420624593
C  C89  1  0.35780000  0.99730000  0.33201000  1.0 0.1292371045
C  C90  1  0.14220000  0.99730000  0.66799000  1.0 0.1292371045
C  C91  1  0.14220000  0.49730000  0.83201000  1.0 0.1292371045
C  C92  1  0.35780000  0.49730000  0.16799000  1.0 0.1292371045
C  C93  1  0.33300000  0.04718000  0.37680000  1.0 -0.017476467
C  C94  1  0.16700000  0.04718000  0.62320000  1.0 -0.017476467
C  C95  1  0.16700000  0.54718000  0.87680000  1.0 -0.017476467
C  C96  1  0.33300000  0.54718000  0.12320000  1.0 -0.017476467
C  C97  1  0.44800000  0.01249000  0.27621000  1.0 0.1816290373
C  C98  1  0.05200000  0.01249000  0.72379000  1.0 0.1816290373
C  C99  1  0.05200000  0.51249000  0.77621000  1.0 0.1816290373
C  C100  1  0.44800000  0.51249000  0.22379000  1.0 0.1816290373
C  C101  1  0.49910000  0.95753000  0.24036000  1.0 -0.2203097289
C  C102  1  0.00090000  0.95753000  0.75964000  1.0 -0.2203097289
C  C103  1  0.00090000  0.45753000  0.74036000  1.0 -0.2203097289
C  C104  1  0.49910000  0.45753000  0.25964000  1.0 -0.2203097289
C  C105  1  0.58370000  0.97217000  0.18815000  1.0 0.1085170441
C  C106  1  0.91630000  0.97217000  0.81185000  1.0 0.1085170441
C  C107  1  0.91630000  0.47217000  0.68815000  1.0 0.1085170441
C  C108  1  0.58370000  0.47217000  0.31185000  1.0 0.1085170441
C  C109  1  0.63180000  0.91495000  0.14736000  1.0 0.1085170441
C  C110  1  0.86820000  0.91495000  0.85264000  1.0 0.1085170441
C  C111  1  0.86820000  0.41495000  0.64736000  1.0 0.1085170441
C  C112  1  0.63180000  0.41495000  0.35264000  1.0 0.1085170441
C  C113  1  0.54480000  0.85415000  0.14333000  1.0 -0.1864447949
C  C114  1  0.95520000  0.85415000  0.85667000  1.0 -0.1864447949
C  C115  1  0.95520000  0.35415000  0.64333000  1.0 -0.1864447949
C  C116  1  0.54480000  0.35415000  0.35667000  1.0 -0.1864447949
C  C117  1  0.58950000  0.80207000  0.10385000  1.0 0.0730344074
C  C118  1  0.91050000  0.80207000  0.89615000  1.0 0.0730344074
C  C119  1  0.91050000  0.30207000  0.60385000  1.0 0.0730344074
C  C120  1  0.58950000  0.30207000  0.39615000  1.0 0.0730344074
C  C121  1  0.79910000  0.86398000  0.07327000  1.0 0.0730344074
C  C122  1  0.70090000  0.86398000  0.92673000  1.0 0.0730344074
C  C123  1  0.70090000  0.36398000  0.57327000  1.0 0.0730344074
C  C124  1  0.79910000  0.36398000  0.42673000  1.0 0.0730344074
C  C125  1  0.76180000  0.91933000  0.11101000  1.0 -0.1978035664
C  C126  1  0.73820000  0.91933000  0.88899000  1.0 -0.1978035664
C  C127  1  0.73820000  0.41933000  0.61101000  1.0 -0.1978035664
C  C128  1  0.76180000  0.41933000  0.38899000  1.0 -0.1978035664
C  C129  1  0.61470000  0.04179000  0.17503000  1.0 -0.232769564
C  C130  1  0.88530000  0.04179000  0.82497000  1.0 -0.232769564
C  C131  1  0.88530000  0.54179000  0.67503000  1.0 -0.232769564
C  C132  1  0.61470000  0.54179000  0.32497000  1.0 -0.232769564
C  C133  1  0.55580000  0.09354000  0.21321000  1.0 0.1874432748
C  C134  1  0.94420000  0.09354000  0.78679000  1.0 0.1874432748
C  C135  1  0.94420000  0.59354000  0.71321000  1.0 0.1874432748
C  C136  1  0.55580000  0.59354000  0.28679000  1.0 0.1874432748
C  C137  1  0.57190000  0.16796000  0.19675000  1.0 0.1292371045
C  C138  1  0.92810000  0.16796000  0.80325000  1.0 0.1292371045
C  C139  1  0.92810000  0.66796000  0.69675000  1.0 0.1292371045
C  C140  1  0.57190000  0.66796000  0.30325000  1.0 0.1292371045
C  C141  1  0.65080000  0.25069000  0.12936000  1.0 0.0264162373
C  C142  1  0.84920000  0.25069000  0.87064000  1.0 0.0264162373
C  C143  1  0.84920000  0.75069000  0.62936000  1.0 0.0264162373
C  C144  1  0.65080000  0.75069000  0.37064000  1.0 0.0264162373
C  C145  1  0.58130000  0.30156000  0.16401000  1.0 0.0229925902
C  C146  1  0.91870000  0.30156000  0.83599000  1.0 0.0229925902
C  C147  1  0.91870000  0.80156000  0.66401000  1.0 0.0229925902
C  C148  1  0.58130000  0.80156000  0.33599000  1.0 0.0229925902
C  C149  1  0.50490000  0.21995000  0.23185000  1.0 -0.0065712432
C  C150  1  0.99510000  0.21995000  0.76815000  1.0 -0.0065712432
C  C151  1  0.99510000  0.71995000  0.73185000  1.0 -0.0065712432
C  C152  1  0.50490000  0.71995000  0.26815000  1.0 -0.0065712432
N  N1  1  0.94330000  0.34728000  0.00124000  1.0 -0.3710357642
N  N2  1  0.55670000  0.34728000  0.99876000  1.0 -0.3710357642
N  N3  1  0.55670000  0.84728000  0.50124000  1.0 -0.3710357642
N  N4  1  0.94330000  0.84728000  0.49876000  1.0 -0.3710357642
N  N5  1  0.75144000  0.46716000  0.07297000  1.0 -0.1829849949
N  N6  1  0.74856000  0.46716000  0.92703000  1.0 -0.1829849949
N  N7  1  0.74856000  0.96716000  0.57297000  1.0 -0.1829849949
N  N8  1  0.75144000  0.96716000  0.42703000  1.0 -0.1829849949
N  N9  1  0.80420000  0.56792000  0.16248000  1.0 -0.232769564
N  N10  1  0.69580000  0.56792000  0.83752000  1.0 -0.232769564
N  N11  1  0.69580000  0.06792000  0.66248000  1.0 -0.232769564
N  N12  1  0.80420000  0.06792000  0.33752000  1.0 -0.232769564
N  N13  1  0.97430000  0.42042000  0.23670000  1.0 -0.3221550157
N  N14  1  0.52570000  0.42042000  0.76330000  1.0 -0.3221550157
N  N15  1  0.52570000  0.92042000  0.73670000  1.0 -0.3221550157
N  N16  1  0.97430000  0.92042000  0.26330000  1.0 -0.3221550157
N  N17  1  0.14670000  0.31659000  0.35454000  1.0 -0.2501584163
N  N18  1  0.35330000  0.31659000  0.64546000  1.0 -0.2501584163
N  N19  1  0.35330000  0.81659000  0.85454000  1.0 -0.2501584163
N  N20  1  0.14670000  0.81659000  0.14546000  1.0 -0.2501584163
N  N21  1  0.00920000  0.21302000  0.28415000  1.0 -0.1978035664
N  N22  1  0.49080000  0.21302000  0.71585000  1.0 -0.1978035664
N  N23  1  0.49080000  0.71302000  0.78415000  1.0 -0.1978035664
N  N24  1  0.00920000  0.71302000  0.21585000  1.0 -0.1978035664
N  N25  1  0.21530000  0.69413000  0.43095000  1.0 -0.1864447949
N  N26  1  0.28470000  0.69413000  0.56905000  1.0 -0.1864447949
N  N27  1  0.28470000  0.19413000  0.93095000  1.0 -0.1864447949
N  N28  1  0.21530000  0.19413000  0.06905000  1.0 -0.1864447949
N  N29  1  0.44330000  0.15272000  0.49876000  1.0 -0.3710357642
N  N30  1  0.05670000  0.15272000  0.50124000  1.0 -0.3710357642
N  N31  1  0.05670000  0.65272000  0.99876000  1.0 -0.3710357642
N  N32  1  0.44330000  0.65272000  0.00124000  1.0 -0.3710357642
N  N33  1  0.25144000  0.03284000  0.42703000  1.0 -0.1829849949
N  N34  1  0.24856000  0.03284000  0.57297000  1.0 -0.1829849949
N  N35  1  0.24856000  0.53284000  0.92703000  1.0 -0.1829849949
N  N36  1  0.25144000  0.53284000  0.07297000  1.0 -0.1829849949
N  N37  1  0.30420000  0.93208000  0.33752000  1.0 -0.232769564
N  N38  1  0.19580000  0.93208000  0.66248000  1.0 -0.232769564
N  N39  1  0.19580000  0.43208000  0.83752000  1.0 -0.232769564
N  N40  1  0.30420000  0.43208000  0.16248000  1.0 -0.232769564
N  N41  1  0.47430000  0.07958000  0.26330000  1.0 -0.3221550157
N  N42  1  0.02570000  0.07958000  0.73670000  1.0 -0.3221550157
N  N43  1  0.02570000  0.57958000  0.76330000  1.0 -0.3221550157
N  N44  1  0.47430000  0.57958000  0.23670000  1.0 -0.3221550157
N  N45  1  0.64670000  0.18341000  0.14546000  1.0 -0.2501584163
N  N46  1  0.85330000  0.18341000  0.85454000  1.0 -0.2501584163
N  N47  1  0.85330000  0.68341000  0.64546000  1.0 -0.2501584163
N  N48  1  0.64670000  0.68341000  0.35454000  1.0 -0.2501584163
N  N49  1  0.50920000  0.28698000  0.21585000  1.0 -0.1978035664
N  N50  1  0.99080000  0.28698000  0.78415000  1.0 -0.1978035664
N  N51  1  0.99080000  0.78698000  0.71585000  1.0 -0.1978035664
N  N52  1  0.50920000  0.78698000  0.28415000  1.0 -0.1978035664
N  N53  1  0.71530000  0.80587000  0.06905000  1.0 -0.1864447949
N  N54  1  0.78470000  0.80587000  0.93095000  1.0 -0.1864447949
N  N55  1  0.78470000  0.30587000  0.56905000  1.0 -0.1864447949
N  N56  1  0.71530000  0.30587000  0.43095000  1.0 -0.1864447949
