# DDEC6 charges by PACMAN v1.1 (https://github.com/mtap-research/PACMAN-charge/)
data_USOXIL_ASR_pacman
_symmetry_space_group_name_H-M   'P 1'
_cell_length_a   23.25200000
_cell_length_b   13.09800000
_cell_length_c   20.30100000
_cell_angle_alpha   90.00000000
_cell_angle_beta   114.09900000
_cell_angle_gamma   90.00000000
_symmetry_Int_Tables_number   1
_chemical_formula_structural   Zn2Cu3H42(C3N2)13
_chemical_formula_sum   'Zn8 Cu12 H168 C156 N104'
_cell_volume   5643.88315737
_cell_formula_units_Z   4
loop_
 _symmetry_equiv_pos_site_id
 _symmetry_equiv_pos_as_xyz
  1  'x, y, z'
loop_
 _atom_site_type_symbol
 _atom_site_label
 _atom_site_symmetry_multiplicity
 _atom_site_fract_x
 _atom_site_fract_y
 _atom_site_fract_z
 _atom_site_occupancy
 _atom_site_charge
Zn  Zn1  1  0.23413000  0.29647000  0.19319000  1.0 0.6226120545
Zn  Zn2  1  0.76601000  0.70350000  0.80683000  1.0 0.6259405393
Zn  Zn3  1  0.76628000  0.29648000  0.30693000  1.0 0.6259405393
Zn  Zn4  1  0.23385000  0.70355000  0.69309000  1.0 0.6226120545
Zn  Zn5  1  0.73405000  0.79647000  0.19324000  1.0 0.6259405393
Zn  Zn6  1  0.26606000  0.20353000  0.80674000  1.0 0.6226120545
Zn  Zn7  1  0.26621000  0.79648000  0.30698000  1.0 0.6259405393
Zn  Zn8  1  0.73389000  0.20351000  0.69302000  1.0 0.6259405393
Cu  Cu1  1  0.00005000  0.27134000  0.25015000  1.0 0.635513534
Cu  Cu2  1  0.00001000  0.72869000  0.74989000  1.0 0.635513534
Cu  Cu3  1  0.49996000  0.77135000  0.24997000  1.0 0.635513534
Cu  Cu4  1  0.49996000  0.22869000  0.75002000  1.0 0.635513534
Cu  Cu5  1  0.20159000  0.06651000  0.50294000  1.0 0.6226120545
Cu  Cu6  1  0.79828000  0.93334000  0.49693000  1.0 0.6226120545
Cu  Cu7  1  0.79823000  0.06679000  0.99700000  1.0 0.6226120545
Cu  Cu8  1  0.20163000  0.93339000  0.00287000  1.0 0.6226120545
Cu  Cu9  1  0.70163000  0.56655000  0.50290000  1.0 0.6226120545
Cu  Cu10  1  0.29818000  0.43320000  0.49697000  1.0 0.6226120545
Cu  Cu11  1  0.29826000  0.56678000  0.99694000  1.0 0.6226120545
Cu  Cu12  1  0.70154000  0.43350000  0.00292000  1.0 0.6226120545
H  H1  1  0.22655000  0.41604000  0.32744000  1.0 0.08188038
H  H2  1  0.77311000  0.58360000  0.67245000  1.0 0.08188038
H  H3  1  0.77315000  0.41664000  0.17249000  1.0 0.08188038
H  H4  1  0.22651000  0.58374000  0.82736000  1.0 0.08188038
H  H5  1  0.72656000  0.91601000  0.32752000  1.0 0.08188038
H  H6  1  0.27345000  0.08367000  0.67248000  1.0 0.08188038
H  H7  1  0.27316000  0.91669000  0.17257000  1.0 0.08188038
H  H8  1  0.72685000  0.08363000  0.82743000  1.0 0.08188038
H  H9  1  0.39610000  0.27132000  0.46303000  1.0 0.0926775041
H  H10  1  0.60381000  0.72913000  0.53702000  1.0 0.0926775041
H  H11  1  0.60390000  0.27090000  0.03709000  1.0 0.0926775041
H  H12  1  0.39602000  0.72870000  0.96292000  1.0 0.0926775041
H  H13  1  0.89614000  0.77129000  0.46304000  1.0 0.0926775041
H  H14  1  0.10392000  0.22866000  0.53697000  1.0 0.0926775041
H  H15  1  0.10395000  0.77094000  0.03711000  1.0 0.0926775041
H  H16  1  0.89612000  0.22912000  0.96290000  1.0 0.0926775041
H  H17  1  0.36300000  0.20720000  0.32125000  1.0 0.1002725306
H  H18  1  0.63770000  0.79417000  0.67881000  1.0 0.0926775041
H  H19  1  0.63782000  0.20589000  0.17889000  1.0 0.0926775041
H  H20  1  0.36287000  0.79275000  0.82114000  1.0 0.1002725306
H  H21  1  0.86296000  0.70708000  0.32129000  1.0 0.1002725306
H  H22  1  0.13715000  0.29276000  0.67872000  1.0 0.1002725306
H  H23  1  0.13777000  0.70601000  0.17894000  1.0 0.0926775041
H  H24  1  0.86232000  0.29413000  0.82107000  1.0 0.0926775041
H  H25  1  0.25981000  0.36505000  0.05618000  1.0 0.08188038
H  H26  1  0.74018000  0.63502000  0.94374000  1.0 0.08188038
H  H27  1  0.74011000  0.36479000  0.44365000  1.0 0.08188038
H  H28  1  0.25992000  0.63512000  0.55624000  1.0 0.08188038
H  H29  1  0.75970000  0.86506000  0.05619000  1.0 0.08188038
H  H30  1  0.24011000  0.13508000  0.94368000  1.0 0.08188038
H  H31  1  0.23996000  0.86478000  0.44367000  1.0 0.08188038
H  H32  1  0.75985000  0.13507000  0.55619000  1.0 0.08188038
H  H33  1  0.24023000  0.54341000  0.21991000  1.0 0.1002725306
H  H34  1  0.75981000  0.45661000  0.78002000  1.0 0.1002725306
H  H35  1  0.76018000  0.54328000  0.28027000  1.0 0.1002725306
H  H36  1  0.23984000  0.45668000  0.71963000  1.0 0.1002725306
H  H37  1  0.74026000  0.04338000  0.22002000  1.0 0.1002725306
H  H38  1  0.26016000  0.95662000  0.78025000  1.0 0.1002725306
H  H39  1  0.26022000  0.04333000  0.28040000  1.0 0.1002725306
H  H40  1  0.74019000  0.95666000  0.71988000  1.0 0.1002725306
H  H41  1  0.26287000  0.67123000  0.12381000  1.0 0.1002725306
H  H42  1  0.73711000  0.32885000  0.87616000  1.0 0.1002725306
H  H43  1  0.73719000  0.67102000  0.37615000  1.0 0.1002725306
H  H44  1  0.26283000  0.32887000  0.62380000  1.0 0.1002725306
H  H45  1  0.76283000  0.17124000  0.12388000  1.0 0.1002725306
H  H46  1  0.23714000  0.82885000  0.87611000  1.0 0.1002725306
H  H47  1  0.23712000  0.17102000  0.37624000  1.0 0.1002725306
H  H48  1  0.76286000  0.82888000  0.62374000  1.0 0.1002725306
H  H49  1  0.14731000  0.26314000  0.27931000  1.0 0.08188038
H  H50  1  0.85273000  0.73697000  0.72073000  1.0 0.08188038
H  H51  1  0.85278000  0.26272000  0.22063000  1.0 0.08188038
H  H52  1  0.14727000  0.73716000  0.77939000  1.0 0.08188038
H  H53  1  0.64723000  0.76296000  0.27928000  1.0 0.08188038
H  H54  1  0.35271000  0.23705000  0.72055000  1.0 0.08188038
H  H55  1  0.35270000  0.76292000  0.22059000  1.0 0.08188038
H  H56  1  0.64724000  0.23706000  0.77925000  1.0 0.08188038
H  H57  1  0.09517000  0.28918000  0.05465000  1.0 0.1002725306
H  H58  1  0.90485000  0.71100000  0.94539000  1.0 0.1002725306
H  H59  1  0.90509000  0.28834000  0.44537000  1.0 0.0926775041
H  H60  1  0.09493000  0.71147000  0.55467000  1.0 0.0926775041
H  H61  1  0.59507000  0.78931000  0.05461000  1.0 0.1002725306
H  H62  1  0.40494000  0.21167000  0.94524000  1.0 0.0926775041
H  H63  1  0.40500000  0.78821000  0.44531000  1.0 0.0926775041
H  H64  1  0.59501000  0.21081000  0.55455000  1.0 0.1002725306
H  H65  1  0.98666000  0.27278000  0.08165000  1.0 0.0926775041
H  H66  1  0.01337000  0.72719000  0.91840000  1.0 0.0926775041
H  H67  1  0.01349000  0.27261000  0.41827000  1.0 0.0926775041
H  H68  1  0.98654000  0.72743000  0.58177000  1.0 0.0926775041
H  H69  1  0.48661000  0.77294000  0.08156000  1.0 0.0926775041
H  H70  1  0.51341000  0.22757000  0.91818000  1.0 0.0926775041
H  H71  1  0.51344000  0.77244000  0.41816000  1.0 0.0926775041
H  H72  1  0.48658000  0.22706000  0.58158000  1.0 0.0926775041
H  H73  1  0.07915000  0.08699000  0.35290000  1.0 0.08188038
H  H74  1  0.92091000  0.91297000  0.64706000  1.0 0.08188038
H  H75  1  0.92114000  0.08736000  0.14712000  1.0 0.08188038
H  H76  1  0.07894000  0.91268000  0.85287000  1.0 0.08188038
H  H77  1  0.57895000  0.58714000  0.35275000  1.0 0.08188038
H  H78  1  0.42098000  0.41278000  0.64707000  1.0 0.08188038
H  H79  1  0.42099000  0.58726000  0.14701000  1.0 0.08188038
H  H80  1  0.57898000  0.41288000  0.85284000  1.0 0.08188038
H  H81  1  0.19630000  0.31367000  0.49232000  1.0 0.0926775041
H  H82  1  0.80367000  0.68625000  0.50781000  1.0 0.0926775041
H  H83  1  0.80365000  0.31399000  0.00801000  1.0 0.0926775041
H  H84  1  0.19634000  0.68611000  0.99211000  1.0 0.0926775041
H  H85  1  0.69622000  0.81378000  0.49211000  1.0 0.0926775041
H  H86  1  0.30362000  0.18609000  0.50790000  1.0 0.0926775041
H  H87  1  0.30360000  0.81392000  0.00782000  1.0 0.0926775041
H  H88  1  0.69625000  0.18626000  0.99219000  1.0 0.0926775041
H  H89  1  0.10583000  0.40741000  0.36940000  1.0 0.1002725306
H  H90  1  0.89420000  0.59254000  0.63071000  1.0 0.1002725306
H  H91  1  0.89380000  0.40765000  0.13122000  1.0 0.1002725306
H  H92  1  0.10624000  0.59238000  0.86890000  1.0 0.1002725306
H  H93  1  0.60575000  0.90750000  0.36920000  1.0 0.1002725306
H  H94  1  0.39379000  0.09246000  0.63111000  1.0 0.1002725306
H  H95  1  0.39375000  0.90756000  0.13105000  1.0 0.1002725306
H  H96  1  0.60579000  0.09250000  0.86927000  1.0 0.1002725306
H  H97  1  0.17384000  0.90016000  0.60093000  1.0 0.08188038
H  H98  1  0.82564000  0.09938000  0.39855000  1.0 0.08188038
H  H99  1  0.82555000  0.90061000  0.89840000  1.0 0.08188038
H  H100  1  0.17392000  0.09983000  0.10107000  1.0 0.08188038
H  H101  1  0.67440000  0.40048000  0.60149000  1.0 0.08188038
H  H102  1  0.32559000  0.59920000  0.39843000  1.0 0.08188038
H  H103  1  0.32610000  0.40022000  0.89892000  1.0 0.08188038
H  H104  1  0.67388000  0.60001000  0.10096000  1.0 0.08188038
H  H105  1  0.36074000  0.79250000  0.67455000  1.0 0.08188038
H  H106  1  0.63924000  0.20912000  0.32616000  1.0 0.08188038
H  H107  1  0.63916000  0.79089000  0.82614000  1.0 0.08188038
H  H108  1  0.36083000  0.20750000  0.17457000  1.0 0.08188038
H  H109  1  0.86082000  0.29094000  0.67382000  1.0 0.08188038
H  H110  1  0.13928000  0.70918000  0.32627000  1.0 0.08188038
H  H111  1  0.13924000  0.29242000  0.82538000  1.0 0.08188038
H  H112  1  0.86085000  0.70744000  0.17468000  1.0 0.08188038
H  H113  1  0.34235000  0.94642000  0.57272000  1.0 0.1002725306
H  H114  1  0.65707000  0.05390000  0.42681000  1.0 0.1002725306
H  H115  1  0.65706000  0.94601000  0.92685000  1.0 0.1002725306
H  H116  1  0.34235000  0.05366000  0.07267000  1.0 0.1002725306
H  H117  1  0.84292000  0.44607000  0.57312000  1.0 0.1002725306
H  H118  1  0.15709000  0.55402000  0.42692000  1.0 0.1002725306
H  H119  1  0.15762000  0.44629000  0.92723000  1.0 0.1002725306
H  H120  1  0.84237000  0.55355000  0.07279000  1.0 0.1002725306
H  H121  1  0.95314000  0.48425000  0.32049000  1.0 0.1095522281
H  H122  1  0.04685000  0.51582000  0.67954000  1.0 0.1095522281
H  H123  1  0.04769000  0.48638000  0.18130000  1.0 0.0926775041
H  H124  1  0.95233000  0.51355000  0.81876000  1.0 0.0926775041
H  H125  1  0.45306000  0.98436000  0.32039000  1.0 0.1095522281
H  H126  1  0.54757000  0.01360000  0.68111000  1.0 0.0926775041
H  H127  1  0.54756000  0.98630000  0.18115000  1.0 0.0926775041
H  H128  1  0.45310000  0.01576000  0.82039000  1.0 0.1095522281
H  H129  1  0.03064000  0.67403000  0.20816000  1.0 0.2725466935
H  H130  1  0.96942000  0.32591000  0.79188000  1.0 0.2725466935
H  H131  1  0.97229000  0.68800000  0.29080000  1.0 0.1095522281
H  H132  1  0.02774000  0.31204000  0.70920000  1.0 0.1095522281
H  H133  1  0.53059000  0.17398000  0.20799000  1.0 0.2725466935
H  H134  1  0.47222000  0.81200000  0.79068000  1.0 0.1095522281
H  H135  1  0.47230000  0.18807000  0.29070000  1.0 0.1095522281
H  H136  1  0.53048000  0.82595000  0.70794000  1.0 0.2725466935
H  H137  1  0.99499000  0.88778000  0.48858000  1.0 0.2725466935
H  H138  1  0.00508000  0.11198000  0.51162000  1.0 0.2725466935
H  H139  1  0.00496000  0.88815000  0.01140000  1.0 0.2725466935
H  H140  1  0.99510000  0.11210000  0.98879000  1.0 0.2725466935
H  H141  1  0.49472000  0.38782000  0.48814000  1.0 0.2725466935
H  H142  1  0.50478000  0.61180000  0.51110000  1.0 0.2725466935
H  H143  1  0.50469000  0.38811000  0.01097000  1.0 0.2725466935
H  H144  1  0.49479000  0.61228000  0.98826000  1.0 0.2725466935
H  H145  1  0.08020000  0.03080000  0.51656000  1.0 0.0689085127
H  H146  1  0.91967000  0.96924000  0.48329000  1.0 0.0689085127
H  H147  1  0.91958000  0.03080000  0.98393000  1.0 0.0689085127
H  H148  1  0.08028000  0.96915000  0.01592000  1.0 0.0689085127
H  H149  1  0.58023000  0.53063000  0.51671000  1.0 0.0689085127
H  H150  1  0.41953000  0.46912000  0.48391000  1.0 0.0689085127
H  H151  1  0.41961000  0.53098000  0.98407000  1.0 0.0689085127
H  H152  1  0.58014000  0.46928000  0.01654000  1.0 0.0689085127
H  H153  1  0.00634000  0.75331000  0.40668000  1.0 0.1159301523
H  H154  1  0.99368000  0.24647000  0.59346000  1.0 0.1159301523
H  H155  1  0.99364000  0.75274000  0.09234000  1.0 0.1095522281
H  H156  1  0.00640000  0.24747000  0.90780000  1.0 0.1095522281
H  H157  1  0.50629000  0.25344000  0.40639000  1.0 0.1159301523
H  H158  1  0.49360000  0.74726000  0.59216000  1.0 0.1095522281
H  H159  1  0.49357000  0.25262000  0.09205000  1.0 0.1095522281
H  H160  1  0.50631000  0.74669000  0.90650000  1.0 0.1159301523
H  H161  1  0.11396000  0.81358000  0.38435000  1.0 0.1002725306
H  H162  1  0.88584000  0.18656000  0.61542000  1.0 0.1002725306
H  H163  1  0.88621000  0.81244000  0.11577000  1.0 0.1002725306
H  H164  1  0.11359000  0.18743000  0.88400000  1.0 0.1002725306
H  H165  1  0.61420000  0.31347000  0.38461000  1.0 0.1002725306
H  H166  1  0.38628000  0.68755000  0.61580000  1.0 0.1002725306
H  H167  1  0.38644000  0.31255000  0.11602000  1.0 0.1002725306
H  H168  1  0.61403000  0.68643000  0.88438000  1.0 0.1002725306
C  C1  1  0.26837000  0.36800000  0.34496000  1.0 0.1323446415
C  C2  1  0.73139000  0.63187000  0.65499000  1.0 0.1323446415
C  C3  1  0.73147000  0.36830000  0.15504000  1.0 0.1323446415
C  C4  1  0.26831000  0.63185000  0.84488000  1.0 0.1323446415
C  C5  1  0.76836000  0.86794000  0.34501000  1.0 0.1323446415
C  C6  1  0.23166000  0.13179000  0.65498000  1.0 0.1323446415
C  C7  1  0.23146000  0.86837000  0.15510000  1.0 0.1323446415
C  C8  1  0.76858000  0.13190000  0.84489000  1.0 0.1323446415
C  C9  1  0.35711000  0.29534000  0.41349000  1.0 -0.0760700468
C  C10  1  0.64281000  0.70500000  0.58651000  1.0 -0.0760700468
C  C11  1  0.64289000  0.29506000  0.08658000  1.0 -0.0760700468
C  C12  1  0.35705000  0.70462000  0.91340000  1.0 -0.0760700468
C  C13  1  0.85712000  0.79527000  0.41353000  1.0 -0.0760700468
C  C14  1  0.14292000  0.20458000  0.58646000  1.0 -0.0760700468
C  C15  1  0.14290000  0.79514000  0.08663000  1.0 -0.0760700468
C  C16  1  0.85714000  0.20501000  0.91337000  1.0 -0.0760700468
C  C17  1  0.34033000  0.26230000  0.34332000  1.0 -0.0600723599
C  C18  1  0.65984000  0.73820000  0.65669000  1.0 -0.0600723599
C  C19  1  0.65994000  0.26189000  0.15677000  1.0 -0.0600723599
C  C20  1  0.34023000  0.73762000  0.84322000  1.0 -0.0600723599
C  C21  1  0.84031000  0.76222000  0.34336000  1.0 -0.0600723599
C  C22  1  0.15976000  0.23759000  0.65664000  1.0 -0.0600723599
C  C23  1  0.15992000  0.76199000  0.15681000  1.0 -0.0600723599
C  C24  1  0.84014000  0.23819000  0.84319000  1.0 -0.0600723599
C  C25  1  0.25689000  0.43113000  0.08721000  1.0 0.1407940628
C  C26  1  0.74310000  0.56896000  0.91271000  1.0 0.1407940628
C  C27  1  0.74307000  0.43090000  0.41268000  1.0 0.1407940628
C  C28  1  0.25693000  0.56902000  0.58721000  1.0 0.1407940628
C  C29  1  0.75681000  0.93116000  0.08723000  1.0 0.1407940628
C  C30  1  0.24309000  0.06899000  0.91269000  1.0 0.1407940628
C  C31  1  0.24298000  0.93087000  0.41271000  1.0 0.1407940628
C  C32  1  0.75691000  0.06899000  0.58720000  1.0 0.1407940628
C  C33  1  0.24705000  0.52495000  0.17118000  1.0 -0.0513942661
C  C34  1  0.75295000  0.47511000  0.82873000  1.0 -0.0513942661
C  C35  1  0.75307000  0.52476000  0.32881000  1.0 -0.0513942661
C  C36  1  0.24693000  0.47518000  0.67108000  1.0 -0.0513942661
C  C37  1  0.74705000  0.02493000  0.17126000  1.0 -0.0513942661
C  C38  1  0.25307000  0.97513000  0.82882000  1.0 -0.0513942661
C  C39  1  0.25307000  0.02478000  0.32891000  1.0 -0.0513942661
C  C40  1  0.74706000  0.97515000  0.67117000  1.0 -0.0513942661
C  C41  1  0.25845000  0.58855000  0.12351000  1.0 -0.0513942661
C  C42  1  0.74155000  0.41154000  0.87643000  1.0 -0.0513942661
C  C43  1  0.74156000  0.58833000  0.37641000  1.0 -0.0513942661
C  C44  1  0.25845000  0.41159000  0.62350000  1.0 -0.0513942661
C  C45  1  0.75841000  0.08854000  0.12356000  1.0 -0.0513942661
C  C46  1  0.24154000  0.91155000  0.87640000  1.0 -0.0513942661
C  C47  1  0.24151000  0.08833000  0.37649000  1.0 -0.0513942661
C  C48  1  0.75844000  0.91158000  0.62347000  1.0 -0.0513942661
C  C49  1  0.11828000  0.26826000  0.22179000  1.0 0.1407940628
C  C50  1  0.88177000  0.73188000  0.77824000  1.0 0.1407940628
C  C51  1  0.88185000  0.26765000  0.27814000  1.0 0.1407940628
C  C52  1  0.11820000  0.73219000  0.72189000  1.0 0.1407940628
C  C53  1  0.61820000  0.76817000  0.22177000  1.0 0.1407940628
C  C54  1  0.38177000  0.23217000  0.77806000  1.0 0.1407940628
C  C55  1  0.38177000  0.76776000  0.27810000  1.0 0.1407940628
C  C56  1  0.61819000  0.23190000  0.72174000  1.0 0.1407940628
C  C57  1  0.08998000  0.28179000  0.10551000  1.0 -0.0694520992
C  C58  1  0.91005000  0.71840000  0.89453000  1.0 -0.0694520992
C  C59  1  0.91021000  0.28079000  0.39448000  1.0 -0.0694520992
C  C60  1  0.08982000  0.71901000  0.60556000  1.0 -0.0694520992
C  C61  1  0.58992000  0.78184000  0.10549000  1.0 -0.0694520992
C  C62  1  0.41011000  0.21914000  0.89438000  1.0 -0.0694520992
C  C63  1  0.41014000  0.78074000  0.39443000  1.0 -0.0694520992
C  C64  1  0.58987000  0.21827000  0.60543000  1.0 -0.0694520992
C  C65  1  0.03624000  0.27280000  0.11868000  1.0 -0.0694520992
C  C66  1  0.96380000  0.72724000  0.88136000  1.0 -0.0694520992
C  C67  1  0.96392000  0.27223000  0.38126000  1.0 -0.0694520992
C  C68  1  0.03611000  0.72772000  0.61878000  1.0 -0.0694520992
C  C69  1  0.53617000  0.77289000  0.11863000  1.0 -0.0694520992
C  C70  1  0.46383000  0.22781000  0.88117000  1.0 -0.0694520992
C  C71  1  0.46385000  0.77215000  0.38119000  1.0 -0.0694520992
C  C72  1  0.53615000  0.22715000  0.61863000  1.0 -0.0694520992
C  C73  1  0.09855000  0.16157000  0.37386000  1.0 0.1323446415
C  C74  1  0.90149000  0.83840000  0.62613000  1.0 0.1323446415
C  C75  1  0.90169000  0.16193000  0.12615000  1.0 0.1323446415
C  C76  1  0.09835000  0.83812000  0.87385000  1.0 0.1323446415
C  C77  1  0.59838000  0.66168000  0.37375000  1.0 0.1323446415
C  C78  1  0.40158000  0.33820000  0.62611000  1.0 0.1323446415
C  C79  1  0.40156000  0.66184000  0.12608000  1.0 0.1323446415
C  C80  1  0.59843000  0.33834000  0.87381000  1.0 0.1323446415
C  C81  1  0.15904000  0.28084000  0.44471000  1.0 -0.0600723599
C  C82  1  0.84098000  0.71910000  0.55539000  1.0 -0.0600723599
C  C83  1  0.84105000  0.28112000  0.05550000  1.0 -0.0600723599
C  C84  1  0.15896000  0.71894000  0.94458000  1.0 -0.0600723599
C  C85  1  0.65888000  0.78092000  0.44457000  1.0 -0.0600723599
C  C86  1  0.34097000  0.21895000  0.55543000  1.0 -0.0600723599
C  C87  1  0.34092000  0.78105000  0.05538000  1.0 -0.0600723599
C  C88  1  0.65894000  0.21909000  0.94461000  1.0 -0.0600723599
C  C89  1  0.11391000  0.32742000  0.38490000  1.0 -0.0600723599
C  C90  1  0.88612000  0.67252000  0.61520000  1.0 -0.0600723599
C  C91  1  0.88610000  0.32773000  0.11539000  1.0 -0.0600723599
C  C92  1  0.11392000  0.67232000  0.88470000  1.0 -0.0600723599
C  C93  1  0.61377000  0.82752000  0.38475000  1.0 -0.0600723599
C  C94  1  0.38605000  0.17238000  0.61531000  1.0 -0.0600723599
C  C95  1  0.38599000  0.82764000  0.11526000  1.0 -0.0600723599
C  C96  1  0.61383000  0.17248000  0.88478000  1.0 -0.0600723599
C  C97  1  0.22217000  0.89187000  0.60651000  1.0 0.1323446415
C  C98  1  0.77735000  0.10791000  0.39302000  1.0 0.1323446415
C  C99  1  0.77727000  0.89205000  0.89296000  1.0 0.1323446415
C  C100  1  0.22223000  0.10816000  0.10657000  1.0 0.1323446415
C  C101  1  0.72270000  0.39203000  0.60699000  1.0 0.1323446415
C  C102  1  0.27733000  0.60784000  0.39301000  1.0 0.1323446415
C  C103  1  0.27779000  0.39186000  0.89341000  1.0 0.1323446415
C  C104  1  0.72221000  0.60823000  0.10656000  1.0 0.1323446415
C  C105  1  0.31877000  0.83700000  0.64335000  1.0 -0.0694520992
C  C106  1  0.68089000  0.16328000  0.35638000  1.0 -0.0694520992
C  C107  1  0.68082000  0.83671000  0.85636000  1.0 -0.0694520992
C  C108  1  0.31884000  0.16302000  0.14338000  1.0 -0.0694520992
C  C109  1  0.81917000  0.33676000  0.64361000  1.0 -0.0694520992
C  C110  1  0.18090000  0.66328000  0.35645000  1.0 -0.0694520992
C  C111  1  0.18120000  0.33692000  0.85659000  1.0 -0.0694520992
C  C112  1  0.81885000  0.66302000  0.14344000  1.0 -0.0694520992
C  C113  1  0.31001000  0.91478000  0.59395000  1.0 -0.0694520992
C  C114  1  0.68951000  0.08530000  0.40563000  1.0 -0.0694520992
C  C115  1  0.68949000  0.91467000  0.90564000  1.0 -0.0694520992
C  C116  1  0.31003000  0.08526000  0.09394000  1.0 -0.0694520992
C  C117  1  0.81050000  0.41470000  0.59434000  1.0 -0.0694520992
C  C118  1  0.18953000  0.58532000  0.40570000  1.0 -0.0694520992
C  C119  1  0.18997000  0.41470000  0.90600000  1.0 -0.0694520992
C  C120  1  0.81004000  0.58525000  0.09402000  1.0 -0.0694520992
C  C121  1  0.97578000  0.51536000  0.28738000  1.0 -0.0390297983
C  C122  1  0.02423000  0.48467000  0.71265000  1.0 -0.0390297983
C  C123  1  0.02439000  0.51168000  0.21550000  1.0 0.1452999909
C  C124  1  0.97563000  0.48828000  0.78455000  1.0 0.1452999909
C  C125  1  0.47572000  0.01543000  0.28729000  1.0 -0.0390297983
C  C126  1  0.52431000  0.98831000  0.71536000  1.0 0.1452999909
C  C127  1  0.52430000  0.01164000  0.21538000  1.0 0.1452999909
C  C128  1  0.47575000  0.98463000  0.78729000  1.0 -0.0390297983
C  C129  1  0.98491000  0.61583000  0.27369000  1.0 -0.0694520992
C  C130  1  0.01511000  0.38419000  0.72632000  1.0 -0.0694520992
C  C131  1  0.48486000  0.88416000  0.77359000  1.0 -0.0694520992
C  C132  1  0.48490000  0.11588000  0.27361000  1.0 -0.0694520992
C  C133  1  0.07359000  0.96518000  0.48127000  1.0 0.1407940628
C  C134  1  0.92624000  0.03487000  0.51857000  1.0 0.1323446415
C  C135  1  0.92631000  0.96496000  0.01907000  1.0 0.1407940628
C  C136  1  0.07352000  0.03499000  0.98077000  1.0 0.1407940628
C  C137  1  0.57366000  0.46503000  0.48142000  1.0 0.1323446415
C  C138  1  0.42627000  0.53498000  0.51903000  1.0 0.1407940628
C  C139  1  0.42638000  0.46512000  0.01921000  1.0 0.1407940628
C  C140  1  0.57355000  0.53488000  0.98123000  1.0 0.1323446415
C  C141  1  0.03734000  0.81911000  0.42361000  1.0 -0.0600723599
C  C142  1  0.96261000  0.18079000  0.57641000  1.0 -0.0600723599
C  C143  1  0.96274000  0.81874000  0.07629000  1.0 -0.0600723599
C  C144  1  0.03721000  0.18137000  0.92373000  1.0 -0.0600723599
C  C145  1  0.53736000  0.31912000  0.42352000  1.0 -0.0600723599
C  C146  1  0.46273000  0.68123000  0.57620000  1.0 -0.0600723599
C  C147  1  0.46275000  0.31872000  0.07619000  1.0 -0.0600723599
C  C148  1  0.53733000  0.68093000  0.92352000  1.0 -0.0600723599
C  C149  1  0.08962000  0.85155000  0.41320000  1.0 -0.0307024092
C  C150  1  0.91019000  0.14853000  0.58661000  1.0 -0.0307024092
C  C151  1  0.91044000  0.85071000  0.08690000  1.0 -0.0307024092
C  C152  1  0.08937000  0.14922000  0.91291000  1.0 -0.0307024092
C  C153  1  0.58981000  0.35144000  0.41339000  1.0 -0.0307024092
C  C154  1  0.41048000  0.64926000  0.58690000  1.0 -0.0307024092
C  C155  1  0.41062000  0.35082000  0.08709000  1.0 -0.0307024092
C  C156  1  0.58965000  0.64848000  0.91320000  1.0 -0.0307024092
N  N1  1  0.28349000  0.30813000  0.29973000  1.0 -0.3086738666
N  N2  1  0.71657000  0.69207000  0.70027000  1.0 -0.3086738666
N  N3  1  0.71665000  0.30807000  0.20033000  1.0 -0.3086738666
N  N4  1  0.28340000  0.69171000  0.79965000  1.0 -0.3086738666
N  N5  1  0.78346000  0.80807000  0.29977000  1.0 -0.3086738666
N  N6  1  0.21659000  0.19168000  0.70021000  1.0 -0.3086738666
N  N7  1  0.21662000  0.80816000  0.20037000  1.0 -0.3086738666
N  N8  1  0.78342000  0.19208000  0.79961000  1.0 -0.3086738666
N  N9  1  0.31108000  0.36285000  0.41452000  1.0 -0.3086738666
N  N10  1  0.68861000  0.63706000  0.58545000  1.0 -0.3086738666
N  N11  1  0.68866000  0.36302000  0.08550000  1.0 -0.3086738666
N  N12  1  0.31104000  0.63708000  0.91446000  1.0 -0.3086738666
N  N13  1  0.81109000  0.86278000  0.41456000  1.0 -0.3086738666
N  N14  1  0.18892000  0.13702000  0.58541000  1.0 -0.3086738666
N  N15  1  0.18868000  0.86310000  0.08554000  1.0 -0.3086738666
N  N16  1  0.81134000  0.13710000  0.91444000  1.0 -0.3086738666
N  N17  1  0.24621000  0.42458000  0.14793000  1.0 -0.3086738666
N  N18  1  0.75377000  0.57547000  0.85196000  1.0 -0.3086738666
N  N19  1  0.75387000  0.42440000  0.35203000  1.0 -0.3086738666
N  N20  1  0.24612000  0.57552000  0.64786000  1.0 -0.3086738666
N  N21  1  0.74620000  0.92458000  0.14800000  1.0 -0.3086738666
N  N22  1  0.25390000  0.07548000  0.85205000  1.0 -0.3086738666
N  N23  1  0.25384000  0.92440000  0.35210000  1.0 -0.3086738666
N  N24  1  0.74625000  0.07551000  0.64796000  1.0 -0.3086738666
N  N25  1  0.26443000  0.52873000  0.06993000  1.0 -0.3086738666
N  N26  1  0.73557000  0.47137000  0.92999000  1.0 -0.3086738666
N  N27  1  0.73549000  0.52848000  0.42993000  1.0 -0.3086738666
N  N28  1  0.26453000  0.47142000  0.56998000  1.0 -0.3086738666
N  N29  1  0.76434000  0.02876000  0.06995000  1.0 -0.3086738666
N  N30  1  0.23547000  0.97139000  0.92992000  1.0 -0.3086738666
N  N31  1  0.23539000  0.02845000  0.42996000  1.0 -0.3086738666
N  N32  1  0.76442000  0.97141000  0.56991000  1.0 -0.3086738666
N  N33  1  0.14236000  0.27866000  0.17145000  1.0 -0.3186546601
N  N34  1  0.85767000  0.72163000  0.82859000  1.0 -0.3186546601
N  N35  1  0.85780000  0.27754000  0.32855000  1.0 -0.3186546601
N  N36  1  0.14224000  0.72216000  0.67149000  1.0 -0.3186546601
N  N37  1  0.64229000  0.77860000  0.17143000  1.0 -0.3186546601
N  N38  1  0.35771000  0.22221000  0.82844000  1.0 -0.3186546601
N  N39  1  0.35773000  0.77762000  0.32853000  1.0 -0.3186546601
N  N40  1  0.64227000  0.22156000  0.67137000  1.0 -0.3186546601
N  N41  1  0.05444000  0.26463000  0.19300000  1.0 -0.3008220424
N  N42  1  0.94560000  0.73539000  0.80704000  1.0 -0.3008220424
N  N43  1  0.94568000  0.26426000  0.30694000  1.0 -0.3008220424
N  N44  1  0.05436000  0.73572000  0.69310000  1.0 -0.3008220424
N  N45  1  0.55436000  0.76461000  0.19294000  1.0 -0.3008220424
N  N46  1  0.44561000  0.23572000  0.80685000  1.0 -0.3008220424
N  N47  1  0.44559000  0.76428000  0.30687000  1.0 -0.3008220424
N  N48  1  0.55436000  0.23540000  0.69294000  1.0 -0.3008220424
N  N49  1  0.07566000  0.25138000  0.34054000  1.0 -0.3086738666
N  N50  1  0.92438000  0.74858000  0.65950000  1.0 -0.3086738666
N  N51  1  0.92450000  0.25173000  0.15961000  1.0 -0.3086738666
N  N52  1  0.07556000  0.74830000  0.84044000  1.0 -0.3086738666
N  N53  1  0.57551000  0.75149000  0.34042000  1.0 -0.3086738666
N  N54  1  0.42441000  0.24838000  0.65954000  1.0 -0.3086738666
N  N55  1  0.42436000  0.75162000  0.15949000  1.0 -0.3086738666
N  N56  1  0.57556000  0.24850000  0.84045000  1.0 -0.3086738666
N  N57  1  0.14893000  0.17575000  0.43738000  1.0 -0.3086738666
N  N58  1  0.85109000  0.82418000  0.56266000  1.0 -0.3086738666
N  N59  1  0.85130000  0.17605000  0.06265000  1.0 -0.3086738666
N  N60  1  0.14873000  0.82402000  0.93739000  1.0 -0.3086738666
N  N61  1  0.64877000  0.67583000  0.43729000  1.0 -0.3086738666
N  N62  1  0.35120000  0.32402000  0.56262000  1.0 -0.3086738666
N  N63  1  0.35115000  0.67599000  0.06256000  1.0 -0.3086738666
N  N64  1  0.64881000  0.32418000  0.93733000  1.0 -0.3086738666
N  N65  1  0.24825000  0.94955000  0.57057000  1.0 -0.3008220424
N  N66  1  0.75118000  0.05024000  0.42888000  1.0 -0.3008220424
N  N67  1  0.75116000  0.94973000  0.92886000  1.0 -0.3008220424
N  N68  1  0.24827000  0.05049000  0.07058000  1.0 -0.3008220424
N  N69  1  0.74882000  0.44973000  0.57110000  1.0 -0.3008220424
N  N70  1  0.25119000  0.55021000  0.42891000  1.0 -0.3008220424
N  N71  1  0.25172000  0.44951000  0.92938000  1.0 -0.3008220424
N  N72  1  0.74827000  0.55052000  0.07062000  1.0 -0.3008220424
N  N73  1  0.26258000  0.82193000  0.65120000  1.0 -0.3086738666
N  N74  1  0.73707000  0.17818000  0.34847000  1.0 -0.3086738666
N  N75  1  0.73698000  0.82181000  0.84841000  1.0 -0.3186546601
N  N76  1  0.26268000  0.17808000  0.15127000  1.0 -0.3086738666
N  N77  1  0.76299000  0.32183000  0.65155000  1.0 -0.3186546601
N  N78  1  0.23706000  0.67812000  0.34848000  1.0 -0.3086738666
N  N79  1  0.23739000  0.32189000  0.84872000  1.0 -0.3086738666
N  N80  1  0.76267000  0.67814000  0.15128000  1.0 -0.3086738666
N  N81  1  0.00052000  0.45070000  0.25091000  1.0 -0.3186546601
N  N82  1  0.99948000  0.54930000  0.74915000  1.0 -0.3186546601
N  N83  1  0.50042000  0.95071000  0.25080000  1.0 -0.3186546601
N  N84  1  0.50047000  0.04930000  0.75080000  1.0 -0.3186546601
N  N85  1  0.11168000  0.94344000  0.44880000  1.0 -0.3086738666
N  N86  1  0.88804000  0.05673000  0.55089000  1.0 -0.3008220424
N  N87  1  0.88830000  0.94272000  0.05156000  1.0 -0.3086738666
N  N88  1  0.11142000  0.05710000  0.94813000  1.0 -0.3086738666
N  N89  1  0.61190000  0.44323000  0.44915000  1.0 -0.3008220424
N  N90  1  0.38832000  0.55723000  0.55159000  1.0 -0.3008220424
N  N91  1  0.38852000  0.44295000  0.05191000  1.0 -0.3008220424
N  N92  1  0.61169000  0.55660000  0.94883000  1.0 -0.3008220424
N  N93  1  0.02771000  0.89246000  0.46711000  1.0 -0.2204634834
N  N94  1  0.97225000  0.10742000  0.53293000  1.0 -0.2204634834
N  N95  1  0.97230000  0.89250000  0.03297000  1.0 -0.2204634834
N  N96  1  0.02765000  0.10761000  0.96707000  1.0 -0.2204634834
N  N97  1  0.52766000  0.39243000  0.46699000  1.0 -0.2204634834
N  N98  1  0.47225000  0.60744000  0.53286000  1.0 -0.2204634834
N  N99  1  0.47225000  0.39253000  0.03285000  1.0 -0.2204634834
N  N100  1  0.52765000  0.60761000  0.96699000  1.0 -0.2204634834
N  N101  1  0.01564000  0.61239000  0.22757000  1.0 -0.2299577694
N  N102  1  0.98438000  0.38758000  0.77246000  1.0 -0.2299577694
N  N103  1  0.51562000  0.11237000  0.22747000  1.0 -0.2299577694
N  N104  1  0.51558000  0.88760000  0.72745000  1.0 -0.2299577694
