# DDEC6 charges by PACMAN v1.1 (https://github.com/mtap-research/PACMAN-charge/)
data_UTACOJ_ASR_pacman
_symmetry_space_group_name_H-M   'P 1'
_cell_length_a   17.70030000
_cell_length_b   17.70030000
_cell_length_c   13.92080000
_cell_angle_alpha   90.00000000
_cell_angle_beta   90.00000000
_cell_angle_gamma   120.00000000
_symmetry_Int_Tables_number   1
_chemical_formula_structural   BaCu6H27C24(N2O7)3
_chemical_formula_sum   'Ba2 Cu12 H54 C48 N12 O42'
_cell_volume   3777.07910163
_cell_formula_units_Z   2
loop_
 _symmetry_equiv_pos_site_id
 _symmetry_equiv_pos_as_xyz
  1  'x, y, z'
loop_
 _atom_site_type_symbol
 _atom_site_label
 _atom_site_symmetry_multiplicity
 _atom_site_fract_x
 _atom_site_fract_y
 _atom_site_fract_z
 _atom_site_occupancy
 _atom_site_charge
Ba  Ba1  1  0.66666667  0.33333333  0.51377000  1.0 1.4751050764
Ba  Ba2  1  0.33333333  0.66666667  0.01377000  1.0 1.472071796
Cu  Cu1  1  0.87458000  0.43353000  0.63546000  1.0 0.8257148796
Cu  Cu2  1  0.56647000  0.44105000  0.63546000  1.0 0.8248479658
Cu  Cu3  1  0.55895000  0.12542000  0.63546000  1.0 0.8257148796
Cu  Cu4  1  0.12542000  0.56647000  0.13546000  1.0 0.8257148796
Cu  Cu5  1  0.43353000  0.55895000  0.13546000  1.0 0.8257148796
Cu  Cu6  1  0.44105000  0.87458000  0.13546000  1.0 0.8257148796
Cu  Cu7  1  0.87357000  0.42928000  0.39020000  1.0 0.8464350097
Cu  Cu8  1  0.57072000  0.44429000  0.39020000  1.0 0.8464350097
Cu  Cu9  1  0.55571000  0.12643000  0.39020000  1.0 0.8464350097
Cu  Cu10  1  0.12643000  0.57072000  0.89020000  1.0 0.8464350097
Cu  Cu11  1  0.42928000  0.55571000  0.89020000  1.0 0.8464350097
Cu  Cu12  1  0.44429000  0.87357000  0.89020000  1.0 0.8464350097
H  H1  1  0.83900000  0.32600000  0.51100000  1.0 0.400062312
H  H2  1  0.67400000  0.51300000  0.51100000  1.0 0.400062312
H  H3  1  0.48700000  0.16100000  0.51100000  1.0 0.400062312
H  H4  1  0.16100000  0.67400000  0.01100000  1.0 0.400062312
H  H5  1  0.32600000  0.48700000  0.01100000  1.0 0.400062312
H  H6  1  0.51300000  0.83900000  0.01100000  1.0 0.400062312
H  H7  1  0.17550000  0.48820000  0.35170000  1.0 0.1128349968
H  H8  1  0.51180000  0.68730000  0.35170000  1.0 0.1128349968
H  H9  1  0.31270000  0.82450000  0.35170000  1.0 0.1128349968
H  H10  1  0.82450000  0.51180000  0.85170000  1.0 0.1128349968
H  H11  1  0.48820000  0.31270000  0.85170000  1.0 0.1128349968
H  H12  1  0.68730000  0.17550000  0.85170000  1.0 0.1128349968
H  H13  1  0.05980000  0.33500000  0.31700000  1.0 0.1396924063
H  H14  1  0.66500000  0.72480000  0.31700000  1.0 0.1396924063
H  H15  1  0.27520000  0.94020000  0.31700000  1.0 0.1396924063
H  H16  1  0.94020000  0.66500000  0.81700000  1.0 0.1396924063
H  H17  1  0.33500000  0.27520000  0.81700000  1.0 0.1396924063
H  H18  1  0.72480000  0.05980000  0.81700000  1.0 0.1396924063
H  H19  1  0.15160000  0.34490000  0.28720000  1.0 0.1396924063
H  H20  1  0.65510000  0.80670000  0.28720000  1.0 0.1396924063
H  H21  1  0.19330000  0.84840000  0.28720000  1.0 0.1396924063
H  H22  1  0.84840000  0.65510000  0.78720000  1.0 0.1396924063
H  H23  1  0.34490000  0.19330000  0.78720000  1.0 0.1396924063
H  H24  1  0.80670000  0.15160000  0.78720000  1.0 0.1396924063
H  H25  1  0.08830000  0.34690000  0.20650000  1.0 0.1310803884
H  H26  1  0.65310000  0.74140000  0.20650000  1.0 0.1310803884
H  H27  1  0.25860000  0.91170000  0.20650000  1.0 0.1310803884
H  H28  1  0.91170000  0.65310000  0.70650000  1.0 0.1310803884
H  H29  1  0.34690000  0.25860000  0.70650000  1.0 0.1310803884
H  H30  1  0.74140000  0.08830000  0.70650000  1.0 0.1310803884
H  H31  1  0.86540000  0.58240000  0.22120000  1.0 0.1046119996
H  H32  1  0.41760000  0.28300000  0.22120000  1.0 0.1046119996
H  H33  1  0.71700000  0.13460000  0.22120000  1.0 0.1046119996
H  H34  1  0.13460000  0.41760000  0.72120000  1.0 0.1046119996
H  H35  1  0.58240000  0.71700000  0.72120000  1.0 0.1046119996
H  H36  1  0.28300000  0.86540000  0.72120000  1.0 0.1046119996
H  H37  1  0.83970000  0.47990000  0.08980000  1.0 0.1530090142
H  H38  1  0.52010000  0.35980000  0.08980000  1.0 0.1530090142
H  H39  1  0.64020000  0.16030000  0.08980000  1.0 0.1530090142
H  H40  1  0.16030000  0.52010000  0.58980000  1.0 0.1530090142
H  H41  1  0.47990000  0.64020000  0.58980000  1.0 0.1530090142
H  H42  1  0.35980000  0.83970000  0.58980000  1.0 0.1530090142
H  H43  1  0.74680000  0.46770000  0.11920000  1.0 0.1396924063
H  H44  1  0.53230000  0.27910000  0.11920000  1.0 0.1396924063
H  H45  1  0.72090000  0.25320000  0.11920000  1.0 0.1396924063
H  H46  1  0.25320000  0.53230000  0.61920000  1.0 0.1396924063
H  H47  1  0.46770000  0.72090000  0.61920000  1.0 0.1396924063
H  H48  1  0.27910000  0.74680000  0.61920000  1.0 0.1396924063
H  H49  1  0.77440000  0.39910000  0.15540000  1.0 0.1310803884
H  H50  1  0.60090000  0.37530000  0.15540000  1.0 0.1310803884
H  H51  1  0.62470000  0.22560000  0.15540000  1.0 0.1396924063
H  H52  1  0.22560000  0.60090000  0.65540000  1.0 0.1310803884
H  H53  1  0.39910000  0.62470000  0.65540000  1.0 0.1310803884
H  H54  1  0.37530000  0.77440000  0.65540000  1.0 0.1310803884
C  C1  1  0.23370000  0.50930000  0.21280000  1.0 0.5820946538
C  C2  1  0.49070000  0.72440000  0.21280000  1.0 0.5820946538
C  C3  1  0.27560000  0.76630000  0.21280000  1.0 0.5820946538
C  C4  1  0.76630000  0.49070000  0.71280000  1.0 0.5820946538
C  C5  1  0.50930000  0.27560000  0.71280000  1.0 0.5820946538
C  C6  1  0.72440000  0.23370000  0.71280000  1.0 0.5820946538
C  C7  1  0.15560000  0.46950000  0.28420000  1.0 0.0510225047
C  C8  1  0.53050000  0.68610000  0.28420000  1.0 0.0510225047
C  C9  1  0.31390000  0.84440000  0.28420000  1.0 0.0510225047
C  C10  1  0.84440000  0.53050000  0.78420000  1.0 0.0510225047
C  C11  1  0.46950000  0.31390000  0.78420000  1.0 0.0510225047
C  C12  1  0.68610000  0.15560000  0.78420000  1.0 0.0510225047
C  C13  1  0.10910000  0.36340000  0.27250000  1.0 -0.373954112
C  C14  1  0.63660000  0.74570000  0.27250000  1.0 -0.373954112
C  C15  1  0.25430000  0.89090000  0.27250000  1.0 -0.373954112
C  C16  1  0.89090000  0.63660000  0.77250000  1.0 -0.373954112
C  C17  1  0.36340000  0.25430000  0.77250000  1.0 -0.373954112
C  C18  1  0.74570000  0.10910000  0.77250000  1.0 -0.3752053387
C  C19  1  0.97560000  0.51830000  0.23500000  1.0 0.3813183201
C  C20  1  0.48170000  0.45730000  0.23500000  1.0 0.3813183201
C  C21  1  0.54270000  0.02440000  0.23500000  1.0 0.3813183201
C  C22  1  0.02440000  0.48170000  0.73500000  1.0 0.3813183201
C  C23  1  0.51830000  0.54270000  0.73500000  1.0 0.3813183201
C  C24  1  0.45730000  0.97560000  0.73500000  1.0 0.3813183201
C  C25  1  0.02370000  0.48140000  0.29030000  1.0 0.3637357347
C  C26  1  0.51860000  0.54230000  0.29030000  1.0 0.3637357347
C  C27  1  0.45770000  0.97630000  0.29030000  1.0 0.3637357347
C  C28  1  0.97630000  0.51860000  0.79030000  1.0 0.3652216786
C  C29  1  0.48140000  0.45770000  0.79030000  1.0 0.3637357347
C  C30  1  0.54230000  0.02370000  0.79030000  1.0 0.3637357347
C  C31  1  0.76770000  0.49160000  0.31110000  1.0 0.5820946538
C  C32  1  0.50840000  0.27610000  0.31110000  1.0 0.5820946538
C  C33  1  0.72390000  0.23230000  0.31110000  1.0 0.5820946538
C  C34  1  0.23230000  0.50840000  0.81110000  1.0 0.5820946538
C  C35  1  0.49160000  0.72390000  0.81110000  1.0 0.5820946538
C  C36  1  0.27610000  0.76770000  0.81110000  1.0 0.5820946538
C  C37  1  0.83850000  0.51880000  0.23610000  1.0 0.0510225047
C  C38  1  0.48120000  0.31970000  0.23610000  1.0 0.0510225047
C  C39  1  0.68030000  0.16150000  0.23610000  1.0 0.0510225047
C  C40  1  0.16150000  0.48120000  0.73610000  1.0 0.0510225047
C  C41  1  0.51880000  0.68030000  0.73610000  1.0 0.0510225047
C  C42  1  0.31970000  0.83850000  0.73610000  1.0 0.0510225047
C  C43  1  0.79560000  0.46060000  0.14070000  1.0 -0.425918447
C  C44  1  0.53940000  0.33500000  0.14070000  1.0 -0.425918447
C  C45  1  0.66500000  0.20440000  0.14070000  1.0 -0.425918447
C  C46  1  0.20440000  0.53940000  0.64070000  1.0 -0.4226904305
C  C47  1  0.46060000  0.66500000  0.64070000  1.0 -0.425918447
C  C48  1  0.33500000  0.79560000  0.64070000  1.0 -0.425918447
N  N1  1  0.90350000  0.49950000  0.27650000  1.0 -0.425918447
N  N2  1  0.50050000  0.40400000  0.27650000  1.0 -0.425918447
N  N3  1  0.59600000  0.09650000  0.27650000  1.0 -0.425918447
N  N4  1  0.09650000  0.50050000  0.77650000  1.0 -0.425918447
N  N5  1  0.49950000  0.59600000  0.77650000  1.0 -0.425918447
N  N6  1  0.40400000  0.90350000  0.77650000  1.0 -0.425918447
N  N7  1  0.09790000  0.50030000  0.25180000  1.0 -0.4226904305
N  N8  1  0.49970000  0.59760000  0.25180000  1.0 -0.4226904305
N  N9  1  0.40240000  0.90210000  0.25180000  1.0 -0.4226904305
N  N10  1  0.90210000  0.49970000  0.75180000  1.0 -0.4226904305
N  N11  1  0.50030000  0.40240000  0.75180000  1.0 -0.4226904305
N  N12  1  0.59760000  0.09790000  0.75180000  1.0 -0.4226904305
O  O1  1  0.84350000  0.37490000  0.51150000  1.0 -0.8189401335
O  O2  1  0.62510000  0.46860000  0.51150000  1.0 -0.8189401335
O  O3  1  0.53140000  0.15650000  0.51150000  1.0 -0.8189401335
O  O4  1  0.15650000  0.62510000  0.01150000  1.0 -0.8189401335
O  O5  1  0.37490000  0.53140000  0.01150000  1.0 -0.8189401335
O  O6  1  0.46860000  0.84350000  0.01150000  1.0 -0.8189401335
O  O7  1  0.22840000  0.54800000  0.14050000  1.0 -0.5778624919
O  O8  1  0.45200000  0.68040000  0.14050000  1.0 -0.5778624919
O  O9  1  0.31960000  0.77160000  0.14050000  1.0 -0.5778624919
O  O10  1  0.77160000  0.45200000  0.64050000  1.0 -0.5778624919
O  O11  1  0.54800000  0.31960000  0.64050000  1.0 -0.5778624919
O  O12  1  0.68040000  0.22840000  0.64050000  1.0 -0.5778624919
O  O13  1  0.29610000  0.49560000  0.22850000  1.0 -0.5458646721
O  O14  1  0.50440000  0.80050000  0.22850000  1.0 -0.5458646721
O  O15  1  0.19950000  0.70390000  0.22850000  1.0 -0.5444269187
O  O16  1  0.70390000  0.50440000  0.72850000  1.0 -0.5444269187
O  O17  1  0.49560000  0.19950000  0.72850000  1.0 -0.5444269187
O  O18  1  0.80050000  0.29610000  0.72850000  1.0 -0.5444269187
O  O19  1  0.01150000  0.56050000  0.15940000  1.0 -0.449343836
O  O20  1  0.43950000  0.45100000  0.15940000  1.0 -0.449343836
O  O21  1  0.54900000  0.98850000  0.15940000  1.0 -0.449343836
O  O22  1  0.98850000  0.43950000  0.65940000  1.0 -0.449343836
O  O23  1  0.56050000  0.54900000  0.65940000  1.0 -0.449343836
O  O24  1  0.45100000  0.01150000  0.65940000  1.0 -0.449343836
O  O25  1  0.77380000  0.45050000  0.38650000  1.0 -0.6220388519
O  O26  1  0.54950000  0.32330000  0.38650000  1.0 -0.6220388519
O  O27  1  0.67670000  0.22620000  0.38650000  1.0 -0.6220388519
O  O28  1  0.22620000  0.54950000  0.88650000  1.0 -0.6220388519
O  O29  1  0.45050000  0.67670000  0.88650000  1.0 -0.6220388519
O  O30  1  0.32330000  0.77380000  0.88650000  1.0 -0.6220388519
O  O31  1  0.99020000  0.43640000  0.36800000  1.0 -0.449343836
O  O32  1  0.56360000  0.55380000  0.36800000  1.0 -0.449343836
O  O33  1  0.44620000  0.00980000  0.36800000  1.0 -0.449343836
O  O34  1  0.00980000  0.56360000  0.86800000  1.0 -0.449343836
O  O35  1  0.43640000  0.44620000  0.86800000  1.0 -0.449343836
O  O36  1  0.55380000  0.99020000  0.86800000  1.0 -0.449343836
O  O37  1  0.70560000  0.50270000  0.29710000  1.0 -0.5173419423
O  O38  1  0.49730000  0.20290000  0.29710000  1.0 -0.5173419423
O  O39  1  0.79710000  0.29440000  0.29710000  1.0 -0.5173419423
O  O40  1  0.29440000  0.49730000  0.79710000  1.0 -0.5173419423
O  O41  1  0.50270000  0.79710000  0.79710000  1.0 -0.5173419423
O  O42  1  0.20290000  0.70560000  0.79710000  1.0 -0.5173419423
