# DDEC6 charges by PACMAN v1.1 (https://github.com/mtap-research/PACMAN-charge/)
data_UTEWUM_ASR_pacman
_symmetry_space_group_name_H-M   'P 1'
_cell_length_a   18.80700000
_cell_length_b   18.80700000
_cell_length_c   18.80700000
_cell_angle_alpha   90.00000000
_cell_angle_beta   90.00000000
_cell_angle_gamma   90.00000000
_symmetry_Int_Tables_number   1
_chemical_formula_structural   CuH8(C5N2)2
_chemical_formula_sum   'Cu12 H96 C120 N48'
_cell_volume   6652.09700394
_cell_formula_units_Z   12
loop_
 _symmetry_equiv_pos_site_id
 _symmetry_equiv_pos_as_xyz
  1  'x, y, z'
loop_
 _atom_site_type_symbol
 _atom_site_label
 _atom_site_symmetry_multiplicity
 _atom_site_fract_x
 _atom_site_fract_y
 _atom_site_fract_z
 _atom_site_occupancy
 _atom_site_charge
Cu  Cu1  1  0.00000000  0.38671000  0.50000000  1.0 0.1429224663
Cu  Cu2  1  0.61329000  0.00000000  0.50000000  1.0 0.1429224663
Cu  Cu3  1  0.00000000  0.61329000  0.50000000  1.0 0.1429224663
Cu  Cu4  1  0.50000000  0.00000000  0.38671000  1.0 0.1429224663
Cu  Cu5  1  0.38671000  0.00000000  0.50000000  1.0 0.1429224663
Cu  Cu6  1  0.00000000  0.50000000  0.38671000  1.0 0.1429224663
Cu  Cu7  1  0.50000000  0.00000000  0.61329000  1.0 0.1429224663
Cu  Cu8  1  0.00000000  0.50000000  0.61329000  1.0 0.1429224663
Cu  Cu9  1  0.38671000  0.50000000  0.00000000  1.0 0.1429224663
Cu  Cu10  1  0.50000000  0.61329000  0.00000000  1.0 0.1452930398
Cu  Cu11  1  0.50000000  0.38671000  0.00000000  1.0 0.1429224663
Cu  Cu12  1  0.61329000  0.50000000  0.00000000  1.0 0.1452930398
H  H1  1  0.23160000  0.23050000  0.38289000  1.0 0.1643403001
H  H2  1  0.76950000  0.23160000  0.38289000  1.0 0.1643403001
H  H3  1  0.23160000  0.76950000  0.61711000  1.0 0.1653963752
H  H4  1  0.38289000  0.23160000  0.23050000  1.0 0.1643403001
H  H5  1  0.76840000  0.76950000  0.38289000  1.0 0.1643403001
H  H6  1  0.23050000  0.23160000  0.61711000  1.0 0.1653963752
H  H7  1  0.76840000  0.38289000  0.23050000  1.0 0.1643403001
H  H8  1  0.23050000  0.76840000  0.38289000  1.0 0.1643403001
H  H9  1  0.76840000  0.23050000  0.61711000  1.0 0.1653963752
H  H10  1  0.61711000  0.76840000  0.23050000  1.0 0.1643403001
H  H11  1  0.76950000  0.76840000  0.61711000  1.0 0.1653963752
H  H12  1  0.23160000  0.61711000  0.23050000  1.0 0.1643403001
H  H13  1  0.38289000  0.76840000  0.76950000  1.0 0.1653963752
H  H14  1  0.76840000  0.61711000  0.76950000  1.0 0.1653963752
H  H15  1  0.61711000  0.23160000  0.76950000  1.0 0.1653963752
H  H16  1  0.23160000  0.38289000  0.76950000  1.0 0.1653963752
H  H17  1  0.23050000  0.38289000  0.23160000  1.0 0.1643403001
H  H18  1  0.38289000  0.76950000  0.23160000  1.0 0.1643403001
H  H19  1  0.61711000  0.23050000  0.23160000  1.0 0.1643403001
H  H20  1  0.38289000  0.23050000  0.76840000  1.0 0.1653963752
H  H21  1  0.23050000  0.61711000  0.76840000  1.0 0.1653963752
H  H22  1  0.61711000  0.76950000  0.76840000  1.0 0.1653963752
H  H23  1  0.76950000  0.38289000  0.76840000  1.0 0.1653963752
H  H24  1  0.76950000  0.61711000  0.23160000  1.0 0.1643403001
H  H25  1  0.76840000  0.76950000  0.61711000  1.0 0.1653963752
H  H26  1  0.23050000  0.76840000  0.61711000  1.0 0.1653963752
H  H27  1  0.76840000  0.23050000  0.38289000  1.0 0.1643403001
H  H28  1  0.61711000  0.76840000  0.76950000  1.0 0.1653963752
H  H29  1  0.23160000  0.23050000  0.61711000  1.0 0.1653963752
H  H30  1  0.76950000  0.76840000  0.38289000  1.0 0.1643403001
H  H31  1  0.23160000  0.61711000  0.76950000  1.0 0.1653963752
H  H32  1  0.76950000  0.23160000  0.61711000  1.0 0.1653963752
H  H33  1  0.23160000  0.76950000  0.38289000  1.0 0.1643403001
H  H34  1  0.38289000  0.23160000  0.76950000  1.0 0.1653963752
H  H35  1  0.23050000  0.23160000  0.38289000  1.0 0.1643403001
H  H36  1  0.76840000  0.38289000  0.76950000  1.0 0.1653963752
H  H37  1  0.61711000  0.23160000  0.23050000  1.0 0.1643403001
H  H38  1  0.23160000  0.38289000  0.23050000  1.0 0.1643403001
H  H39  1  0.38289000  0.76840000  0.23050000  1.0 0.1643403001
H  H40  1  0.76840000  0.61711000  0.23050000  1.0 0.1643403001
H  H41  1  0.76950000  0.61711000  0.76840000  1.0 0.1653963752
H  H42  1  0.61711000  0.23050000  0.76840000  1.0 0.1653963752
H  H43  1  0.38289000  0.76950000  0.76840000  1.0 0.1653963752
H  H44  1  0.61711000  0.76950000  0.23160000  1.0 0.1643403001
H  H45  1  0.76950000  0.38289000  0.23160000  1.0 0.1643403001
H  H46  1  0.38289000  0.23050000  0.23160000  1.0 0.1643403001
H  H47  1  0.23050000  0.61711000  0.23160000  1.0 0.1643403001
H  H48  1  0.23050000  0.38289000  0.76840000  1.0 0.1653963752
H  H49  1  0.14979000  0.28920000  0.43988000  1.0 0.1007465847
H  H50  1  0.71080000  0.14979000  0.43988000  1.0 0.1007465847
H  H51  1  0.14979000  0.71080000  0.56012000  1.0 0.1007465847
H  H52  1  0.43988000  0.14979000  0.28920000  1.0 0.1007465847
H  H53  1  0.85021000  0.71080000  0.43988000  1.0 0.1007465847
H  H54  1  0.28920000  0.14979000  0.56012000  1.0 0.1007465847
H  H55  1  0.85021000  0.43988000  0.28920000  1.0 0.1007465847
H  H56  1  0.28920000  0.85021000  0.43988000  1.0 0.1007465847
H  H57  1  0.85021000  0.28920000  0.56012000  1.0 0.1007465847
H  H58  1  0.56012000  0.85021000  0.28920000  1.0 0.1007465847
H  H59  1  0.71080000  0.85021000  0.56012000  1.0 0.1007465847
H  H60  1  0.14979000  0.56012000  0.28920000  1.0 0.1007465847
H  H61  1  0.43988000  0.85021000  0.71080000  1.0 0.1007465847
H  H62  1  0.85021000  0.56012000  0.71080000  1.0 0.1007465847
H  H63  1  0.56012000  0.14979000  0.71080000  1.0 0.1007465847
H  H64  1  0.14979000  0.43988000  0.71080000  1.0 0.1007465847
H  H65  1  0.28920000  0.43988000  0.14979000  1.0 0.1007465847
H  H66  1  0.43988000  0.71080000  0.14979000  1.0 0.1007465847
H  H67  1  0.56012000  0.28920000  0.14979000  1.0 0.1007465847
H  H68  1  0.43988000  0.28920000  0.85021000  1.0 0.1007465847
H  H69  1  0.28920000  0.56012000  0.85021000  1.0 0.1007465847
H  H70  1  0.56012000  0.71080000  0.85021000  1.0 0.1007465847
H  H71  1  0.71080000  0.43988000  0.85021000  1.0 0.1007465847
H  H72  1  0.71080000  0.56012000  0.14979000  1.0 0.1007465847
H  H73  1  0.85021000  0.71080000  0.56012000  1.0 0.1007465847
H  H74  1  0.28920000  0.85021000  0.56012000  1.0 0.1007465847
H  H75  1  0.85021000  0.28920000  0.43988000  1.0 0.1007465847
H  H76  1  0.56012000  0.85021000  0.71080000  1.0 0.1007465847
H  H77  1  0.14979000  0.28920000  0.56012000  1.0 0.1007465847
H  H78  1  0.71080000  0.85021000  0.43988000  1.0 0.1007465847
H  H79  1  0.14979000  0.56012000  0.71080000  1.0 0.1007465847
H  H80  1  0.71080000  0.14979000  0.56012000  1.0 0.1007465847
H  H81  1  0.14979000  0.71080000  0.43988000  1.0 0.1007465847
H  H82  1  0.43988000  0.14979000  0.71080000  1.0 0.1007465847
H  H83  1  0.28920000  0.14979000  0.43988000  1.0 0.1007465847
H  H84  1  0.85021000  0.43988000  0.71080000  1.0 0.1007465847
H  H85  1  0.56012000  0.14979000  0.28920000  1.0 0.1007465847
H  H86  1  0.14979000  0.43988000  0.28920000  1.0 0.1007465847
H  H87  1  0.43988000  0.85021000  0.28920000  1.0 0.1007465847
H  H88  1  0.85021000  0.56012000  0.28920000  1.0 0.1007465847
H  H89  1  0.71080000  0.56012000  0.85021000  1.0 0.1007465847
H  H90  1  0.56012000  0.28920000  0.85021000  1.0 0.1007465847
H  H91  1  0.43988000  0.71080000  0.85021000  1.0 0.1007465847
H  H92  1  0.56012000  0.71080000  0.14979000  1.0 0.1007465847
H  H93  1  0.71080000  0.43988000  0.14979000  1.0 0.1007465847
H  H94  1  0.43988000  0.28920000  0.14979000  1.0 0.1007465847
H  H95  1  0.28920000  0.56012000  0.14979000  1.0 0.1007465847
H  H96  1  0.28920000  0.43988000  0.85021000  1.0 0.1007465847
C  C1  1  0.22333000  0.31254000  0.31254000  1.0 0.0409005523
C  C2  1  0.68746000  0.22333000  0.31254000  1.0 0.0409005523
C  C3  1  0.22333000  0.68746000  0.68746000  1.0 0.0409005523
C  C4  1  0.31254000  0.22333000  0.31254000  1.0 0.0409005523
C  C5  1  0.77667000  0.68746000  0.31254000  1.0 0.0409005523
C  C6  1  0.31254000  0.22333000  0.68746000  1.0 0.0409005523
C  C7  1  0.77667000  0.31254000  0.31254000  1.0 0.0409005523
C  C8  1  0.31254000  0.77667000  0.31254000  1.0 0.0409005523
C  C9  1  0.77667000  0.31254000  0.68746000  1.0 0.0409005523
C  C10  1  0.68746000  0.77667000  0.31254000  1.0 0.0409005523
C  C11  1  0.68746000  0.77667000  0.68746000  1.0 0.0409005523
C  C12  1  0.22333000  0.68746000  0.31254000  1.0 0.0409005523
C  C13  1  0.31254000  0.77667000  0.68746000  1.0 0.0409005523
C  C14  1  0.77667000  0.68746000  0.68746000  1.0 0.0409005523
C  C15  1  0.68746000  0.22333000  0.68746000  1.0 0.0409005523
C  C16  1  0.22333000  0.31254000  0.68746000  1.0 0.0409005523
C  C17  1  0.31254000  0.31254000  0.22333000  1.0 0.0409005523
C  C18  1  0.31254000  0.68746000  0.22333000  1.0 0.0409005523
C  C19  1  0.68746000  0.31254000  0.22333000  1.0 0.0409005523
C  C20  1  0.31254000  0.31254000  0.77667000  1.0 0.0409005523
C  C21  1  0.31254000  0.68746000  0.77667000  1.0 0.0409005523
C  C22  1  0.68746000  0.68746000  0.77667000  1.0 0.0409005523
C  C23  1  0.68746000  0.31254000  0.77667000  1.0 0.0409005523
C  C24  1  0.68746000  0.68746000  0.22333000  1.0 0.0409005523
C  C25  1  0.24946000  0.24881000  0.33933000  1.0 -0.2622585691
C  C26  1  0.75119000  0.24946000  0.33933000  1.0 -0.2622585691
C  C27  1  0.24946000  0.75119000  0.66067000  1.0 -0.2622585691
C  C28  1  0.33933000  0.24946000  0.24881000  1.0 -0.2622585691
C  C29  1  0.75054000  0.75119000  0.33933000  1.0 -0.2622585691
C  C30  1  0.24881000  0.24946000  0.66067000  1.0 -0.2622585691
C  C31  1  0.75054000  0.33933000  0.24881000  1.0 -0.2622585691
C  C32  1  0.24881000  0.75054000  0.33933000  1.0 -0.2622585691
C  C33  1  0.75054000  0.24881000  0.66067000  1.0 -0.2622585691
C  C34  1  0.66067000  0.75054000  0.24881000  1.0 -0.2622585691
C  C35  1  0.75119000  0.75054000  0.66067000  1.0 -0.2622585691
C  C36  1  0.24946000  0.66067000  0.24881000  1.0 -0.2622585691
C  C37  1  0.33933000  0.75054000  0.75119000  1.0 -0.2622585691
C  C38  1  0.75054000  0.66067000  0.75119000  1.0 -0.2622585691
C  C39  1  0.66067000  0.24946000  0.75119000  1.0 -0.2622585691
C  C40  1  0.24946000  0.33933000  0.75119000  1.0 -0.2622585691
C  C41  1  0.24881000  0.33933000  0.24946000  1.0 -0.2622585691
C  C42  1  0.33933000  0.75119000  0.24946000  1.0 -0.2622585691
C  C43  1  0.66067000  0.24881000  0.24946000  1.0 -0.2622585691
C  C44  1  0.33933000  0.24881000  0.75054000  1.0 -0.2622585691
C  C45  1  0.24881000  0.66067000  0.75054000  1.0 -0.2622585691
C  C46  1  0.66067000  0.75119000  0.75054000  1.0 -0.2622585691
C  C47  1  0.75119000  0.33933000  0.75054000  1.0 -0.2622585691
C  C48  1  0.75119000  0.66067000  0.24946000  1.0 -0.2622585691
C  C49  1  0.16881000  0.35109000  0.35109000  1.0 -0.0483282229
C  C50  1  0.64891000  0.16881000  0.35109000  1.0 -0.0483282229
C  C51  1  0.16881000  0.64891000  0.64891000  1.0 -0.0483282229
C  C52  1  0.35109000  0.16881000  0.35109000  1.0 -0.0483282229
C  C53  1  0.83119000  0.64891000  0.35109000  1.0 -0.0483282229
C  C54  1  0.35109000  0.16881000  0.64891000  1.0 -0.0483282229
C  C55  1  0.83119000  0.35109000  0.35109000  1.0 -0.0483282229
C  C56  1  0.35109000  0.83119000  0.35109000  1.0 -0.0483282229
C  C57  1  0.83119000  0.35109000  0.64891000  1.0 -0.0483282229
C  C58  1  0.64891000  0.83119000  0.35109000  1.0 -0.0483282229
C  C59  1  0.64891000  0.83119000  0.64891000  1.0 -0.0483282229
C  C60  1  0.16881000  0.64891000  0.35109000  1.0 -0.0483282229
C  C61  1  0.35109000  0.83119000  0.64891000  1.0 -0.0483282229
C  C62  1  0.83119000  0.64891000  0.64891000  1.0 -0.0483282229
C  C63  1  0.64891000  0.16881000  0.64891000  1.0 -0.0483282229
C  C64  1  0.16881000  0.35109000  0.64891000  1.0 -0.0483282229
C  C65  1  0.35109000  0.35109000  0.16881000  1.0 -0.0483282229
C  C66  1  0.35109000  0.64891000  0.16881000  1.0 -0.0483282229
C  C67  1  0.64891000  0.35109000  0.16881000  1.0 -0.0483282229
C  C68  1  0.35109000  0.35109000  0.83119000  1.0 -0.0483282229
C  C69  1  0.35109000  0.64891000  0.83119000  1.0 -0.0483282229
C  C70  1  0.64891000  0.64891000  0.83119000  1.0 -0.0483282229
C  C71  1  0.64891000  0.35109000  0.83119000  1.0 -0.0483282229
C  C72  1  0.64891000  0.64891000  0.16881000  1.0 -0.0483282229
C  C73  1  0.13876000  0.33098000  0.41371000  1.0 -0.0768744605
C  C74  1  0.66902000  0.13876000  0.41371000  1.0 -0.0768744605
C  C75  1  0.13876000  0.66902000  0.58629000  1.0 -0.0768744605
C  C76  1  0.41371000  0.13876000  0.33098000  1.0 -0.0768744605
C  C77  1  0.86124000  0.66902000  0.41371000  1.0 -0.0768744605
C  C78  1  0.33098000  0.13876000  0.58629000  1.0 -0.0768744605
C  C79  1  0.86124000  0.41371000  0.33098000  1.0 -0.0768744605
C  C80  1  0.33098000  0.86124000  0.41371000  1.0 -0.0768744605
C  C81  1  0.86124000  0.33098000  0.58629000  1.0 -0.0768744605
C  C82  1  0.58629000  0.86124000  0.33098000  1.0 -0.0768744605
C  C83  1  0.66902000  0.86124000  0.58629000  1.0 -0.0768744605
C  C84  1  0.13876000  0.58629000  0.33098000  1.0 -0.0768744605
C  C85  1  0.41371000  0.86124000  0.66902000  1.0 -0.0768744605
C  C86  1  0.86124000  0.58629000  0.66902000  1.0 -0.0768744605
C  C87  1  0.58629000  0.13876000  0.66902000  1.0 -0.0768744605
C  C88  1  0.13876000  0.41371000  0.66902000  1.0 -0.0768744605
C  C89  1  0.33098000  0.41371000  0.13876000  1.0 -0.0768744605
C  C90  1  0.41371000  0.66902000  0.13876000  1.0 -0.0768744605
C  C91  1  0.58629000  0.33098000  0.13876000  1.0 -0.0768744605
C  C92  1  0.41371000  0.33098000  0.86124000  1.0 -0.0768744605
C  C93  1  0.33098000  0.58629000  0.86124000  1.0 -0.0768744605
C  C94  1  0.58629000  0.66902000  0.86124000  1.0 -0.0768744605
C  C95  1  0.66902000  0.41371000  0.86124000  1.0 -0.0768744605
C  C96  1  0.66902000  0.58629000  0.13876000  1.0 -0.0768744605
C  C97  1  0.86124000  0.66902000  0.58629000  1.0 -0.0768744605
C  C98  1  0.33098000  0.86124000  0.58629000  1.0 -0.0768744605
C  C99  1  0.86124000  0.33098000  0.41371000  1.0 -0.0768744605
C  C100  1  0.58629000  0.86124000  0.66902000  1.0 -0.0768744605
C  C101  1  0.13876000  0.33098000  0.58629000  1.0 -0.0768744605
C  C102  1  0.66902000  0.86124000  0.41371000  1.0 -0.0768744605
C  C103  1  0.13876000  0.58629000  0.66902000  1.0 -0.0768744605
C  C104  1  0.66902000  0.13876000  0.58629000  1.0 -0.0768744605
C  C105  1  0.13876000  0.66902000  0.41371000  1.0 -0.0768744605
C  C106  1  0.41371000  0.13876000  0.66902000  1.0 -0.0768744605
C  C107  1  0.33098000  0.13876000  0.41371000  1.0 -0.0768744605
C  C108  1  0.86124000  0.41371000  0.66902000  1.0 -0.0768744605
C  C109  1  0.58629000  0.13876000  0.33098000  1.0 -0.0768744605
C  C110  1  0.13876000  0.41371000  0.33098000  1.0 -0.0768744605
C  C111  1  0.41371000  0.86124000  0.33098000  1.0 -0.0768744605
C  C112  1  0.86124000  0.58629000  0.33098000  1.0 -0.0768744605
C  C113  1  0.66902000  0.58629000  0.86124000  1.0 -0.0768744605
C  C114  1  0.58629000  0.33098000  0.86124000  1.0 -0.0768744605
C  C115  1  0.41371000  0.66902000  0.86124000  1.0 -0.0768744605
C  C116  1  0.58629000  0.66902000  0.13876000  1.0 -0.0768744605
C  C117  1  0.66902000  0.41371000  0.13876000  1.0 -0.0768744605
C  C118  1  0.41371000  0.33098000  0.13876000  1.0 -0.0768744605
C  C119  1  0.33098000  0.58629000  0.13876000  1.0 -0.0768744605
C  C120  1  0.33098000  0.41371000  0.86124000  1.0 -0.0768744605
N  N1  1  0.09013000  0.38117000  0.43230000  1.0 -0.0897267325
N  N2  1  0.61883000  0.09013000  0.43230000  1.0 -0.0897267325
N  N3  1  0.09013000  0.61883000  0.56770000  1.0 -0.0897267325
N  N4  1  0.43230000  0.09013000  0.38117000  1.0 -0.0897267325
N  N5  1  0.90987000  0.61883000  0.43230000  1.0 -0.0897267325
N  N6  1  0.38117000  0.09013000  0.56770000  1.0 -0.0897267325
N  N7  1  0.90987000  0.43230000  0.38117000  1.0 -0.0897267325
N  N8  1  0.38117000  0.90987000  0.43230000  1.0 -0.0897267325
N  N9  1  0.90987000  0.38117000  0.56770000  1.0 -0.0897267325
N  N10  1  0.56770000  0.90987000  0.38117000  1.0 -0.0897267325
N  N11  1  0.61883000  0.90987000  0.56770000  1.0 -0.0897267325
N  N12  1  0.09013000  0.56770000  0.38117000  1.0 -0.0897267325
N  N13  1  0.43230000  0.90987000  0.61883000  1.0 -0.0897267325
N  N14  1  0.90987000  0.56770000  0.61883000  1.0 -0.0897267325
N  N15  1  0.56770000  0.09013000  0.61883000  1.0 -0.0897267325
N  N16  1  0.09013000  0.43230000  0.61883000  1.0 -0.0897267325
N  N17  1  0.38117000  0.43230000  0.09013000  1.0 -0.0897267325
N  N18  1  0.43230000  0.61883000  0.09013000  1.0 -0.0897267325
N  N19  1  0.56770000  0.38117000  0.09013000  1.0 -0.0897267325
N  N20  1  0.43230000  0.38117000  0.90987000  1.0 -0.0897267325
N  N21  1  0.38117000  0.56770000  0.90987000  1.0 -0.0897267325
N  N22  1  0.56770000  0.61883000  0.90987000  1.0 -0.0897267325
N  N23  1  0.61883000  0.43230000  0.90987000  1.0 -0.0897267325
N  N24  1  0.61883000  0.56770000  0.09013000  1.0 -0.0897267325
N  N25  1  0.90987000  0.61883000  0.56770000  1.0 -0.0897267325
N  N26  1  0.38117000  0.90987000  0.56770000  1.0 -0.0897267325
N  N27  1  0.90987000  0.38117000  0.43230000  1.0 -0.0897267325
N  N28  1  0.56770000  0.90987000  0.61883000  1.0 -0.0897267325
N  N29  1  0.09013000  0.38117000  0.56770000  1.0 -0.0897267325
N  N30  1  0.61883000  0.90987000  0.43230000  1.0 -0.0897267325
N  N31  1  0.09013000  0.56770000  0.61883000  1.0 -0.0897267325
N  N32  1  0.61883000  0.09013000  0.56770000  1.0 -0.0897267325
N  N33  1  0.09013000  0.61883000  0.43230000  1.0 -0.0897267325
N  N34  1  0.43230000  0.09013000  0.61883000  1.0 -0.0897267325
N  N35  1  0.38117000  0.09013000  0.43230000  1.0 -0.0897267325
N  N36  1  0.90987000  0.43230000  0.61883000  1.0 -0.0897267325
N  N37  1  0.56770000  0.09013000  0.38117000  1.0 -0.0897267325
N  N38  1  0.09013000  0.43230000  0.38117000  1.0 -0.0897267325
N  N39  1  0.43230000  0.90987000  0.38117000  1.0 -0.0897267325
N  N40  1  0.90987000  0.56770000  0.38117000  1.0 -0.0897267325
N  N41  1  0.61883000  0.56770000  0.90987000  1.0 -0.0897267325
N  N42  1  0.56770000  0.38117000  0.90987000  1.0 -0.0897267325
N  N43  1  0.43230000  0.61883000  0.90987000  1.0 -0.0897267325
N  N44  1  0.56770000  0.61883000  0.09013000  1.0 -0.0897267325
N  N45  1  0.61883000  0.43230000  0.09013000  1.0 -0.0897267325
N  N46  1  0.43230000  0.38117000  0.09013000  1.0 -0.0897267325
N  N47  1  0.38117000  0.56770000  0.09013000  1.0 -0.0897267325
N  N48  1  0.38117000  0.43230000  0.90987000  1.0 -0.0897267325
