# DDEC6 charges by PACMAN v1.1 (https://github.com/mtap-research/PACMAN-charge/)
data_UTOBAJ_ASR_pacman
_symmetry_space_group_name_H-M   'P 1'
_cell_length_a   9.96350000
_cell_length_b   17.11280000
_cell_length_c   18.63220000
_cell_angle_alpha   90.00000000
_cell_angle_beta   94.83500000
_cell_angle_gamma   90.00000000
_symmetry_Int_Tables_number   1
_chemical_formula_structural   Co2H13C28NO8
_chemical_formula_sum   'Co4 H26 C56 N2 O16'
_cell_volume   3165.54847964
_cell_formula_units_Z   2
loop_
 _symmetry_equiv_pos_site_id
 _symmetry_equiv_pos_as_xyz
  1  'x, y, z'
loop_
 _atom_site_type_symbol
 _atom_site_label
 _atom_site_symmetry_multiplicity
 _atom_site_fract_x
 _atom_site_fract_y
 _atom_site_fract_z
 _atom_site_occupancy
 _atom_site_charge
Co  Co1  1  0.23437000  0.73401000  0.51030000  1.0 1.0228109235
Co  Co2  1  0.48874000  0.79215000  0.64549000  1.0 0.9826326246
Co  Co3  1  0.76563000  0.23401000  0.48970000  1.0 1.0258221502
Co  Co4  1  0.51126000  0.29215000  0.35451000  1.0 0.9826326246
H  H1  1  0.95395000  0.78921000  0.64122000  1.0 0.1307023311
H  H2  1  0.21262000  0.82455000  0.81292000  1.0 0.1204047121
H  H3  1  0.88621000  0.78617000  0.94560000  1.0 0.1204047121
H  H4  1  0.94609000  0.78358000  0.07116000  1.0 0.1204047121
H  H5  1  0.37088000  0.95057000  0.04122000  1.0 0.2960777158
H  H6  1  0.21600000  0.90432000  0.91582000  1.0 0.1307023311
H  H7  1  0.55171000  0.01076000  0.50391000  1.0 0.1307023311
H  H8  1  0.34093000  0.84623000  0.39360000  1.0 0.1047772492
H  H9  1  0.81800000  0.82818000  0.83508000  1.0 0.1204047121
H  H10  1  0.43593000  0.04474000  0.29625000  1.0 0.1204047121
H  H11  1  0.42426000  0.96599000  0.19695000  1.0 0.1307023311
H  H12  1  0.15528000  0.85846000  0.31003000  1.0 0.1204047121
H  H13  1  0.04553000  0.81166000  0.20552000  1.0 0.1204047121
H  H14  1  0.04605000  0.28921000  0.35878000  1.0 0.1307023311
H  H15  1  0.78738000  0.32455000  0.18708000  1.0 0.1204047121
H  H16  1  0.11379000  0.28617000  0.05440000  1.0 0.1204047121
H  H17  1  0.05391000  0.28358000  0.92884000  1.0 0.1204047121
H  H18  1  0.62912000  0.45057000  0.95878000  1.0 0.2960777158
H  H19  1  0.78400000  0.40432000  0.08418000  1.0 0.1307023311
H  H20  1  0.44829000  0.51076000  0.49609000  1.0 0.1307023311
H  H21  1  0.65907000  0.34623000  0.60640000  1.0 0.1052732567
H  H22  1  0.18200000  0.32818000  0.16492000  1.0 0.1204047121
H  H23  1  0.56407000  0.54474000  0.70375000  1.0 0.1204047121
H  H24  1  0.57574000  0.46599000  0.80305000  1.0 0.1307023311
H  H25  1  0.84472000  0.35846000  0.68997000  1.0 0.1204047121
H  H26  1  0.95447000  0.31166000  0.79448000  1.0 0.1204047121
C  C1  1  0.20940000  0.79790000  0.67400000  1.0 0.5971329386
C  C2  1  0.09960000  0.80770000  0.72230000  1.0 -0.0221190994
C  C3  1  0.97070000  0.80040000  0.69000000  1.0 -0.0938434688
C  C4  1  0.12390000  0.82040000  0.79330000  1.0 -0.1312965503
C  C5  1  0.02010000  0.82740000  0.83850000  1.0 0.0573940888
C  C6  1  0.05010000  0.83730000  0.91740000  1.0 0.0815554584
C  C7  1  0.96730000  0.80830000  0.96380000  1.0 -0.1676158248
C  C8  1  0.99830000  0.81010000  0.04000000  1.0 -0.1420601582
C  C9  1  0.10620000  0.85190000  0.06450000  1.0 -0.0221190994
C  C10  1  0.16120000  0.86470000  0.13920000  1.0 -0.0090417617
C  C11  1  0.27570000  0.90890000  0.13450000  1.0 0.1307023311
C  C12  1  0.19060000  0.88550000  0.01940000  1.0 0.1427078197
C  C13  1  0.16080000  0.87950000  0.94660000  1.0 -0.2435376024
C  C14  1  0.45020000  0.87090000  0.52410000  1.0 0.5787273521
C  C15  1  0.45140000  0.92070000  0.45720000  1.0 -0.0090417617
C  C16  1  0.50990000  0.99360000  0.46030000  1.0 -0.0699885538
C  C17  1  0.38380000  0.89450000  0.39440000  1.0 -0.1420601582
C  C18  1  0.37850000  0.94050000  0.33050000  1.0 0.0573940888
C  C19  1  0.30810000  0.91390000  0.26300000  1.0 0.0670307452
C  C20  1  0.86700000  0.81090000  0.73450000  1.0 -0.0046647104
C  C21  1  0.89020000  0.82290000  0.80690000  1.0 -0.1312965503
C  C22  1  0.72720000  0.80560000  0.70170000  1.0 0.5263180906
C  C23  1  0.50900000  0.04240000  0.40070000  1.0 -0.0699885538
C  C24  1  0.44020000  0.01300000  0.33690000  1.0 -0.1312965503
C  C25  1  0.56820000  0.11920000  0.40220000  1.0 0.5931929225
C  C26  1  0.34850000  0.93460000  0.19910000  1.0 -0.2053511565
C  C27  1  0.18790000  0.86970000  0.26590000  1.0 -0.1676158248
C  C28  1  0.12030000  0.84390000  0.20350000  1.0 -0.1420601582
C  C29  1  0.79060000  0.29790000  0.32600000  1.0 0.5971329386
C  C30  1  0.90040000  0.30770000  0.27770000  1.0 -0.0221190994
C  C31  1  0.02930000  0.30040000  0.31000000  1.0 -0.0938434688
C  C32  1  0.87610000  0.32040000  0.20670000  1.0 -0.1312965503
C  C33  1  0.97990000  0.32740000  0.16150000  1.0 0.0573940888
C  C34  1  0.94990000  0.33730000  0.08260000  1.0 0.0815554584
C  C35  1  0.03270000  0.30830000  0.03620000  1.0 -0.1676158248
C  C36  1  0.00170000  0.31010000  0.96000000  1.0 -0.1454630172
C  C37  1  0.89380000  0.35190000  0.93550000  1.0 -0.0221190994
C  C38  1  0.83880000  0.36470000  0.86080000  1.0 -0.0090417617
C  C39  1  0.72430000  0.40890000  0.86550000  1.0 0.1307023311
C  C40  1  0.80940000  0.38550000  0.98060000  1.0 0.1427078197
C  C41  1  0.83920000  0.37950000  0.05340000  1.0 -0.2435376024
C  C42  1  0.54980000  0.37090000  0.47590000  1.0 0.5787273521
C  C43  1  0.54860000  0.42070000  0.54280000  1.0 -0.0090417617
C  C44  1  0.49010000  0.49360000  0.53970000  1.0 -0.0699885538
C  C45  1  0.61620000  0.39450000  0.60560000  1.0 -0.1420601582
C  C46  1  0.62150000  0.44050000  0.66950000  1.0 0.0573940888
C  C47  1  0.69190000  0.41390000  0.73700000  1.0 0.0670307452
C  C48  1  0.13300000  0.31090000  0.26550000  1.0 -0.0090417617
C  C49  1  0.10980000  0.32290000  0.19310000  1.0 -0.1420601582
C  C50  1  0.27280000  0.30560000  0.29830000  1.0 0.5263180906
C  C51  1  0.49100000  0.54240000  0.59930000  1.0 -0.0699885538
C  C52  1  0.55980000  0.51300000  0.66310000  1.0 -0.1312965503
C  C53  1  0.43180000  0.61920000  0.59780000  1.0 0.5931929225
C  C54  1  0.65150000  0.43460000  0.80090000  1.0 -0.2053511565
C  C55  1  0.81210000  0.36970000  0.73410000  1.0 -0.1676158248
C  C56  1  0.87970000  0.34390000  0.79650000  1.0 -0.1420601582
N  N1  1  0.30550000  0.92530000  0.05770000  1.0 -0.3510591214
N  N2  1  0.69450000  0.42530000  0.94230000  1.0 -0.3510591214
O  O1  1  0.32560000  0.81250000  0.70250000  1.0 -0.5234911567
O  O2  1  0.18380000  0.77570000  0.61180000  1.0 -0.5714995092
O  O3  1  0.41970000  0.80150000  0.52070000  1.0 -0.5845335846
O  O4  1  0.48900000  0.90310000  0.58380000  1.0 -0.5098083442
O  O5  1  0.63370000  0.81750000  0.73730000  1.0 -0.4966825074
O  O6  1  0.65470000  0.13380000  0.45340000  1.0 -0.5714995092
O  O7  1  0.52860000  0.17010000  0.35650000  1.0 -0.5465893274
O  O8  1  0.70990000  0.78530000  0.63400000  1.0 -0.536417914
O  O9  1  0.67440000  0.31250000  0.29750000  1.0 -0.5234911567
O  O10  1  0.81620000  0.27570000  0.38820000  1.0 -0.5714995092
O  O11  1  0.58030000  0.30150000  0.47930000  1.0 -0.5845335846
O  O12  1  0.51100000  0.40310000  0.41620000  1.0 -0.5098083442
O  O13  1  0.36630000  0.31750000  0.26270000  1.0 -0.4966825074
O  O14  1  0.34530000  0.63380000  0.54660000  1.0 -0.5714995092
O  O15  1  0.47140000  0.67010000  0.64350000  1.0 -0.5465893274
O  O16  1  0.29010000  0.28530000  0.36600000  1.0 -0.536417914
