# DDEC6 charges by PACMAN v1.1 (https://github.com/mtap-research/PACMAN-charge/)
data_UTOQOM_ASR_pacman
_symmetry_space_group_name_H-M   'P 1'
_cell_length_a   13.86600000
_cell_length_b   25.53920000
_cell_length_c   32.31300000
_cell_angle_alpha   90.00000000
_cell_angle_beta   90.00000000
_cell_angle_gamma   90.00000000
_symmetry_Int_Tables_number   1
_chemical_formula_structural   CdH38C50N9O10
_chemical_formula_sum   'Cd8 H304 C400 N72 O80'
_cell_volume   11442.89111967
_cell_formula_units_Z   8
loop_
 _symmetry_equiv_pos_site_id
 _symmetry_equiv_pos_as_xyz
  1  'x, y, z'
loop_
 _atom_site_type_symbol
 _atom_site_label
 _atom_site_symmetry_multiplicity
 _atom_site_fract_x
 _atom_site_fract_y
 _atom_site_fract_z
 _atom_site_occupancy
 _atom_site_charge
Cd  Cd1  1  0.75044000  0.25947000  0.62814000  1.0 0.7112626607
Cd  Cd2  1  0.74956000  0.74053000  0.62814000  1.0 0.7112626607
Cd  Cd3  1  0.74956000  0.75947000  0.12814000  1.0 0.7112626607
Cd  Cd4  1  0.75044000  0.24053000  0.12814000  1.0 0.7112626607
Cd  Cd5  1  0.25044000  0.24053000  0.87186000  1.0 0.7112626607
Cd  Cd6  1  0.24956000  0.75947000  0.87186000  1.0 0.7112626607
Cd  Cd7  1  0.24956000  0.74053000  0.37186000  1.0 0.7112626607
Cd  Cd8  1  0.25044000  0.25947000  0.37186000  1.0 0.7112626607
H  H1  1  0.66984000  0.26064000  0.71004000  1.0 0.2562877336
H  H2  1  0.58752000  0.24801000  0.68142000  1.0 0.2375780144
H  H3  1  0.70132000  0.29512000  0.53222000  1.0 0.0986323697
H  H4  1  0.58540000  0.34185000  0.49599000  1.0 0.1352970401
H  H5  1  0.51326000  0.41274000  0.59994000  1.0 0.1306546162
H  H6  1  0.62699000  0.36396000  0.63405000  1.0 0.0889097544
H  H7  1  0.40142000  0.36122000  0.48896000  1.0 0.1184444846
H  H8  1  0.29785000  0.40214000  0.45962000  1.0 0.1184444846
H  H9  1  0.34911000  0.52470000  0.52223000  1.0 0.1306546162
H  H10  1  0.45615000  0.47550000  0.55972000  1.0 0.1097101625
H  H11  1  0.39297000  0.49425000  0.40528000  1.0 0.1184444846
H  H12  1  0.39458000  0.49396000  0.33412000  1.0 0.1184444846
H  H13  1  0.31690000  0.59234000  0.30112000  1.0 0.1184444846
H  H14  1  0.43113000  0.64196000  0.26773000  1.0 0.0986323697
H  H15  1  0.44951000  0.53398000  0.17916000  1.0 0.1184444846
H  H16  1  0.33673000  0.48387000  0.21196000  1.0 0.1306546162
H  H17  1  0.59846000  0.65116000  0.24867000  1.0 0.1306546162
H  H18  1  0.69730000  0.70596000  0.21407000  1.0 0.0815077274
H  H19  1  0.59010000  0.66897000  0.10842000  1.0 0.0986323697
H  H20  1  0.48183000  0.61387000  0.13929000  1.0 0.1306546162
H  H21  1  0.70985000  0.13837000  0.60800000  1.0 0.0986323697
H  H22  1  0.60726000  0.08202000  0.57541000  1.0 0.1184444846
H  H23  1  0.41771000  0.20063000  0.56531000  1.0 0.1456044415
H  H24  1  0.52696000  0.25105000  0.59975000  1.0 0.0815077274
H  H25  1  0.47284000  0.03182000  0.56977000  1.0 0.1097101625
H  H26  1  0.37525000  0.97671000  0.53171000  1.0 0.1352970401
H  H27  1  0.31343000  0.09431000  0.46537000  1.0 0.1184444846
H  H28  1  0.37035000  0.15597000  0.50909000  1.0 0.1097101625
H  H29  1  0.37874000  0.03519000  0.42353000  1.0 0.1184444846
H  H30  1  0.38059000  0.03401000  0.35289000  1.0 0.1184444846
H  H31  1  0.34177000  0.91347000  0.32095000  1.0 0.1306546162
H  H32  1  0.45866000  0.86931000  0.28635000  1.0 0.1097101625
H  H33  1  0.44973000  0.97525000  0.19607000  1.0 0.1097101625
H  H34  1  0.33397000  0.02125000  0.23003000  1.0 0.1306546162
H  H35  1  0.70966000  0.80260000  0.22134000  1.0 0.0815077274
H  H36  1  0.60792000  0.85224000  0.25980000  1.0 0.1306546162
H  H37  1  0.49334000  0.90685000  0.15502000  1.0 0.1306546162
H  H38  1  0.59479000  0.85321000  0.11977000  1.0 0.1097101625
H  H39  1  0.83016000  0.73936000  0.71004000  1.0 0.2562877336
H  H40  1  0.91248000  0.75199000  0.68142000  1.0 0.2375780144
H  H41  1  0.79868000  0.70488000  0.53222000  1.0 0.0986323697
H  H42  1  0.91460000  0.65815000  0.49599000  1.0 0.1352970401
H  H43  1  0.98674000  0.58726000  0.59994000  1.0 0.1306546162
H  H44  1  0.87301000  0.63604000  0.63405000  1.0 0.0889097544
H  H45  1  0.09858000  0.63878000  0.48896000  1.0 0.1184444846
H  H46  1  0.20215000  0.59786000  0.45962000  1.0 0.1184444846
H  H47  1  0.15089000  0.47530000  0.52223000  1.0 0.1306546162
H  H48  1  0.04385000  0.52450000  0.55972000  1.0 0.1097101625
H  H49  1  0.10703000  0.50575000  0.40528000  1.0 0.1184444846
H  H50  1  0.10542000  0.50604000  0.33412000  1.0 0.1184444846
H  H51  1  0.18310000  0.40766000  0.30112000  1.0 0.1184444846
H  H52  1  0.06887000  0.35804000  0.26773000  1.0 0.0986323697
H  H53  1  0.05049000  0.46602000  0.17916000  1.0 0.1184444846
H  H54  1  0.16327000  0.51613000  0.21196000  1.0 0.1306546162
H  H55  1  0.90154000  0.34884000  0.24867000  1.0 0.1306546162
H  H56  1  0.80270000  0.29404000  0.21407000  1.0 0.0815077274
H  H57  1  0.90990000  0.33103000  0.10842000  1.0 0.0986323697
H  H58  1  0.01817000  0.38613000  0.13929000  1.0 0.1306546162
H  H59  1  0.79015000  0.86163000  0.60800000  1.0 0.0986323697
H  H60  1  0.89274000  0.91798000  0.57541000  1.0 0.1184444846
H  H61  1  0.08229000  0.79937000  0.56531000  1.0 0.1456044415
H  H62  1  0.97304000  0.74895000  0.59975000  1.0 0.0815077274
H  H63  1  0.02716000  0.96818000  0.56977000  1.0 0.1097101625
H  H64  1  0.12475000  0.02329000  0.53171000  1.0 0.1352970401
H  H65  1  0.18657000  0.90569000  0.46537000  1.0 0.1184444846
H  H66  1  0.12965000  0.84403000  0.50909000  1.0 0.1097101625
H  H67  1  0.12126000  0.96481000  0.42353000  1.0 0.1184444846
H  H68  1  0.11941000  0.96599000  0.35289000  1.0 0.1184444846
H  H69  1  0.15823000  0.08653000  0.32095000  1.0 0.1306546162
H  H70  1  0.04134000  0.13069000  0.28635000  1.0 0.1097101625
H  H71  1  0.05027000  0.02475000  0.19607000  1.0 0.1097101625
H  H72  1  0.16603000  0.97875000  0.23003000  1.0 0.1306546162
H  H73  1  0.79034000  0.19740000  0.22134000  1.0 0.0815077274
H  H74  1  0.89208000  0.14776000  0.25980000  1.0 0.1306546162
H  H75  1  0.00666000  0.09315000  0.15502000  1.0 0.1306546162
H  H76  1  0.90521000  0.14679000  0.11977000  1.0 0.1097101625
H  H77  1  0.83016000  0.76064000  0.21004000  1.0 0.2562877336
H  H78  1  0.91248000  0.74801000  0.18142000  1.0 0.2375780144
H  H79  1  0.79868000  0.79512000  0.03222000  1.0 0.0986323697
H  H80  1  0.91460000  0.84185000  0.99599000  1.0 0.1352970401
H  H81  1  0.98674000  0.91274000  0.09994000  1.0 0.1306546162
H  H82  1  0.87301000  0.86396000  0.13405000  1.0 0.0889097544
H  H83  1  0.09858000  0.86122000  0.98896000  1.0 0.1184444846
H  H84  1  0.20215000  0.90214000  0.95962000  1.0 0.1184444846
H  H85  1  0.15089000  0.02470000  0.02223000  1.0 0.1306546162
H  H86  1  0.04385000  0.97550000  0.05972000  1.0 0.1097101625
H  H87  1  0.10703000  0.99425000  0.90528000  1.0 0.1184444846
H  H88  1  0.10542000  0.99396000  0.83412000  1.0 0.1184444846
H  H89  1  0.18310000  0.09234000  0.80112000  1.0 0.1184444846
H  H90  1  0.06887000  0.14196000  0.76773000  1.0 0.0986323697
H  H91  1  0.05049000  0.03398000  0.67916000  1.0 0.1184444846
H  H92  1  0.16327000  0.98387000  0.71196000  1.0 0.1306546162
H  H93  1  0.90154000  0.15116000  0.74867000  1.0 0.1306546162
H  H94  1  0.80270000  0.20596000  0.71407000  1.0 0.0815077274
H  H95  1  0.90990000  0.16897000  0.60842000  1.0 0.0986323697
H  H96  1  0.01817000  0.11387000  0.63929000  1.0 0.1306546162
H  H97  1  0.79015000  0.63837000  0.10800000  1.0 0.0986323697
H  H98  1  0.89274000  0.58202000  0.07541000  1.0 0.1184444846
H  H99  1  0.08229000  0.70063000  0.06531000  1.0 0.1456044415
H  H100  1  0.97304000  0.75105000  0.09975000  1.0 0.0815077274
H  H101  1  0.02716000  0.53182000  0.06977000  1.0 0.1097101625
H  H102  1  0.12475000  0.47671000  0.03171000  1.0 0.1306546162
H  H103  1  0.18657000  0.59431000  0.96537000  1.0 0.1184444846
H  H104  1  0.12965000  0.65597000  0.00909000  1.0 0.1097101625
H  H105  1  0.12126000  0.53519000  0.92353000  1.0 0.1184444846
H  H106  1  0.11941000  0.53401000  0.85289000  1.0 0.1184444846
H  H107  1  0.15823000  0.41347000  0.82095000  1.0 0.1306546162
H  H108  1  0.04134000  0.36931000  0.78635000  1.0 0.1097101625
H  H109  1  0.05027000  0.47525000  0.69607000  1.0 0.1097101625
H  H110  1  0.16603000  0.52125000  0.73003000  1.0 0.1306546162
H  H111  1  0.79034000  0.30260000  0.72134000  1.0 0.0815077274
H  H112  1  0.89208000  0.35224000  0.75980000  1.0 0.1306546162
H  H113  1  0.00666000  0.40685000  0.65502000  1.0 0.1306546162
H  H114  1  0.90521000  0.35321000  0.61977000  1.0 0.1097101625
H  H115  1  0.66984000  0.23936000  0.21004000  1.0 0.2562877336
H  H116  1  0.58752000  0.25199000  0.18142000  1.0 0.2375780144
H  H117  1  0.70132000  0.20488000  0.03222000  1.0 0.0986323697
H  H118  1  0.58540000  0.15815000  0.99599000  1.0 0.1352970401
H  H119  1  0.51326000  0.08726000  0.09994000  1.0 0.1306546162
H  H120  1  0.62699000  0.13604000  0.13405000  1.0 0.0889097544
H  H121  1  0.40142000  0.13878000  0.98896000  1.0 0.1184444846
H  H122  1  0.29785000  0.09786000  0.95962000  1.0 0.1184444846
H  H123  1  0.34911000  0.97530000  0.02223000  1.0 0.1306546162
H  H124  1  0.45615000  0.02450000  0.05972000  1.0 0.1097101625
H  H125  1  0.39297000  0.00575000  0.90528000  1.0 0.1184444846
H  H126  1  0.39458000  0.00604000  0.83412000  1.0 0.1184444846
H  H127  1  0.31690000  0.90766000  0.80112000  1.0 0.1184444846
H  H128  1  0.43113000  0.85804000  0.76773000  1.0 0.0986323697
H  H129  1  0.44951000  0.96602000  0.67916000  1.0 0.1184444846
H  H130  1  0.33673000  0.01613000  0.71196000  1.0 0.1306546162
H  H131  1  0.59846000  0.84884000  0.74867000  1.0 0.1306546162
H  H132  1  0.69730000  0.79404000  0.71407000  1.0 0.0815077274
H  H133  1  0.59010000  0.83103000  0.60842000  1.0 0.0986323697
H  H134  1  0.48183000  0.88613000  0.63929000  1.0 0.1306546162
H  H135  1  0.70985000  0.36163000  0.10800000  1.0 0.0986323697
H  H136  1  0.60726000  0.41798000  0.07541000  1.0 0.1184444846
H  H137  1  0.41771000  0.29937000  0.06531000  1.0 0.1456044415
H  H138  1  0.52696000  0.24895000  0.09975000  1.0 0.0815077274
H  H139  1  0.47284000  0.46818000  0.06977000  1.0 0.1097101625
H  H140  1  0.37525000  0.52329000  0.03171000  1.0 0.1306546162
H  H141  1  0.31343000  0.40569000  0.96537000  1.0 0.1184444846
H  H142  1  0.37035000  0.34403000  0.00909000  1.0 0.1097101625
H  H143  1  0.37874000  0.46481000  0.92353000  1.0 0.1184444846
H  H144  1  0.38059000  0.46599000  0.85289000  1.0 0.1184444846
H  H145  1  0.34177000  0.58653000  0.82095000  1.0 0.1306546162
H  H146  1  0.45866000  0.63069000  0.78635000  1.0 0.1097101625
H  H147  1  0.44973000  0.52475000  0.69607000  1.0 0.1097101625
H  H148  1  0.33397000  0.47875000  0.73003000  1.0 0.1306546162
H  H149  1  0.70966000  0.69740000  0.72134000  1.0 0.0815077274
H  H150  1  0.60792000  0.64776000  0.75980000  1.0 0.1306546162
H  H151  1  0.49334000  0.59315000  0.65502000  1.0 0.1306546162
H  H152  1  0.59479000  0.64679000  0.61977000  1.0 0.1097101625
H  H153  1  0.16984000  0.23936000  0.78996000  1.0 0.2562877336
H  H154  1  0.08752000  0.25199000  0.81858000  1.0 0.2375780144
H  H155  1  0.20132000  0.20488000  0.96778000  1.0 0.0986323697
H  H156  1  0.08540000  0.15815000  0.00401000  1.0 0.1352970401
H  H157  1  0.01326000  0.08726000  0.90006000  1.0 0.1306546162
H  H158  1  0.12699000  0.13604000  0.86595000  1.0 0.0889097544
H  H159  1  0.90142000  0.13878000  0.01104000  1.0 0.1184444846
H  H160  1  0.79785000  0.09786000  0.04038000  1.0 0.1184444846
H  H161  1  0.84911000  0.97530000  0.97777000  1.0 0.1306546162
H  H162  1  0.95615000  0.02450000  0.94028000  1.0 0.1097101625
H  H163  1  0.89297000  0.00575000  0.09472000  1.0 0.1184444846
H  H164  1  0.89458000  0.00604000  0.16588000  1.0 0.1184444846
H  H165  1  0.81690000  0.90766000  0.19888000  1.0 0.1184444846
H  H166  1  0.93113000  0.85804000  0.23227000  1.0 0.0986323697
H  H167  1  0.94951000  0.96602000  0.32084000  1.0 0.1184444846
H  H168  1  0.83673000  0.01613000  0.28804000  1.0 0.1306546162
H  H169  1  0.09846000  0.84884000  0.25133000  1.0 0.1306546162
H  H170  1  0.19730000  0.79404000  0.28593000  1.0 0.0815077274
H  H171  1  0.09010000  0.83103000  0.39158000  1.0 0.0986323697
H  H172  1  0.98183000  0.88613000  0.36071000  1.0 0.1306546162
H  H173  1  0.20985000  0.36163000  0.89200000  1.0 0.0986323697
H  H174  1  0.10726000  0.41798000  0.92459000  1.0 0.1184444846
H  H175  1  0.91771000  0.29937000  0.93469000  1.0 0.1456044415
H  H176  1  0.02696000  0.24895000  0.90025000  1.0 0.0815077274
H  H177  1  0.97284000  0.46818000  0.93023000  1.0 0.1097101625
H  H178  1  0.87525000  0.52329000  0.96829000  1.0 0.1306546162
H  H179  1  0.81343000  0.40569000  0.03463000  1.0 0.1184444846
H  H180  1  0.87035000  0.34403000  0.99091000  1.0 0.1097101625
H  H181  1  0.87874000  0.46481000  0.07647000  1.0 0.1184444846
H  H182  1  0.88059000  0.46599000  0.14711000  1.0 0.1184444846
H  H183  1  0.84177000  0.58653000  0.17905000  1.0 0.1306546162
H  H184  1  0.95866000  0.63069000  0.21365000  1.0 0.1097101625
H  H185  1  0.94973000  0.52475000  0.30393000  1.0 0.1097101625
H  H186  1  0.83397000  0.47875000  0.26997000  1.0 0.1306546162
H  H187  1  0.20966000  0.69740000  0.27866000  1.0 0.0815077274
H  H188  1  0.10792000  0.64776000  0.24020000  1.0 0.1306546162
H  H189  1  0.99334000  0.59315000  0.34498000  1.0 0.1306546162
H  H190  1  0.09479000  0.64679000  0.38023000  1.0 0.1097101625
H  H191  1  0.33016000  0.76064000  0.78996000  1.0 0.2562877336
H  H192  1  0.41248000  0.74801000  0.81858000  1.0 0.2375780144
H  H193  1  0.29868000  0.79512000  0.96778000  1.0 0.0986323697
H  H194  1  0.41460000  0.84185000  0.00401000  1.0 0.1352970401
H  H195  1  0.48674000  0.91274000  0.90006000  1.0 0.1306546162
H  H196  1  0.37301000  0.86396000  0.86595000  1.0 0.0889097544
H  H197  1  0.59858000  0.86122000  0.01104000  1.0 0.1184444846
H  H198  1  0.70215000  0.90214000  0.04038000  1.0 0.1184444846
H  H199  1  0.65089000  0.02470000  0.97777000  1.0 0.1306546162
H  H200  1  0.54385000  0.97550000  0.94028000  1.0 0.1097101625
H  H201  1  0.60703000  0.99425000  0.09472000  1.0 0.1184444846
H  H202  1  0.60542000  0.99396000  0.16588000  1.0 0.1184444846
H  H203  1  0.68310000  0.09234000  0.19888000  1.0 0.1184444846
H  H204  1  0.56887000  0.14196000  0.23227000  1.0 0.0986323697
H  H205  1  0.55049000  0.03398000  0.32084000  1.0 0.1184444846
H  H206  1  0.66327000  0.98387000  0.28804000  1.0 0.1306546162
H  H207  1  0.40154000  0.15116000  0.25133000  1.0 0.1306546162
H  H208  1  0.30270000  0.20596000  0.28593000  1.0 0.0815077274
H  H209  1  0.40990000  0.16897000  0.39158000  1.0 0.0986323697
H  H210  1  0.51817000  0.11387000  0.36071000  1.0 0.1306546162
H  H211  1  0.29015000  0.63837000  0.89200000  1.0 0.0986323697
H  H212  1  0.39274000  0.58202000  0.92459000  1.0 0.1184444846
H  H213  1  0.58229000  0.70063000  0.93469000  1.0 0.1456044415
H  H214  1  0.47304000  0.75105000  0.90025000  1.0 0.0815077274
H  H215  1  0.52716000  0.53182000  0.93023000  1.0 0.1097101625
H  H216  1  0.62475000  0.47671000  0.96829000  1.0 0.1352970401
H  H217  1  0.68657000  0.59431000  0.03463000  1.0 0.1184444846
H  H218  1  0.62965000  0.65597000  0.99091000  1.0 0.1097101625
H  H219  1  0.62126000  0.53519000  0.07647000  1.0 0.1184444846
H  H220  1  0.61941000  0.53401000  0.14711000  1.0 0.1184444846
H  H221  1  0.65823000  0.41347000  0.17905000  1.0 0.1306546162
H  H222  1  0.54134000  0.36931000  0.21365000  1.0 0.1097101625
H  H223  1  0.55027000  0.47525000  0.30393000  1.0 0.1097101625
H  H224  1  0.66603000  0.52125000  0.26997000  1.0 0.1306546162
H  H225  1  0.29034000  0.30260000  0.27866000  1.0 0.0815077274
H  H226  1  0.39208000  0.35224000  0.24020000  1.0 0.1306546162
H  H227  1  0.50666000  0.40685000  0.34498000  1.0 0.1306546162
H  H228  1  0.40521000  0.35321000  0.38023000  1.0 0.1097101625
H  H229  1  0.33016000  0.73936000  0.28996000  1.0 0.2562877336
H  H230  1  0.41248000  0.75199000  0.31858000  1.0 0.2375780144
H  H231  1  0.29868000  0.70488000  0.46778000  1.0 0.0986323697
H  H232  1  0.41460000  0.65815000  0.50401000  1.0 0.1352970401
H  H233  1  0.48674000  0.58726000  0.40006000  1.0 0.1306546162
H  H234  1  0.37301000  0.63604000  0.36595000  1.0 0.0889097544
H  H235  1  0.59858000  0.63878000  0.51104000  1.0 0.1184444846
H  H236  1  0.70215000  0.59786000  0.54038000  1.0 0.1184444846
H  H237  1  0.65089000  0.47530000  0.47777000  1.0 0.1306546162
H  H238  1  0.54385000  0.52450000  0.44028000  1.0 0.1097101625
H  H239  1  0.60703000  0.50575000  0.59472000  1.0 0.1184444846
H  H240  1  0.60542000  0.50604000  0.66588000  1.0 0.1184444846
H  H241  1  0.68310000  0.40766000  0.69888000  1.0 0.1184444846
H  H242  1  0.56887000  0.35804000  0.73227000  1.0 0.0986323697
H  H243  1  0.55049000  0.46602000  0.82084000  1.0 0.1184444846
H  H244  1  0.66327000  0.51613000  0.78804000  1.0 0.1306546162
H  H245  1  0.40154000  0.34884000  0.75133000  1.0 0.1306546162
H  H246  1  0.30270000  0.29404000  0.78593000  1.0 0.0815077274
H  H247  1  0.40990000  0.33103000  0.89158000  1.0 0.0986323697
H  H248  1  0.51817000  0.38613000  0.86071000  1.0 0.1306546162
H  H249  1  0.29015000  0.86163000  0.39200000  1.0 0.0986323697
H  H250  1  0.39274000  0.91798000  0.42459000  1.0 0.1184444846
H  H251  1  0.58229000  0.79937000  0.43469000  1.0 0.1456044415
H  H252  1  0.47304000  0.74895000  0.40025000  1.0 0.0815077274
H  H253  1  0.52716000  0.96818000  0.43023000  1.0 0.1097101625
H  H254  1  0.62475000  0.02329000  0.46829000  1.0 0.1306546162
H  H255  1  0.68657000  0.90569000  0.53463000  1.0 0.1184444846
H  H256  1  0.62965000  0.84403000  0.49091000  1.0 0.1097101625
H  H257  1  0.62126000  0.96481000  0.57647000  1.0 0.1184444846
H  H258  1  0.61941000  0.96599000  0.64711000  1.0 0.1184444846
H  H259  1  0.65823000  0.08653000  0.67905000  1.0 0.1306546162
H  H260  1  0.54134000  0.13069000  0.71365000  1.0 0.1097101625
H  H261  1  0.55027000  0.02475000  0.80393000  1.0 0.1097101625
H  H262  1  0.66603000  0.97875000  0.76997000  1.0 0.1306546162
H  H263  1  0.29034000  0.19740000  0.77866000  1.0 0.0815077274
H  H264  1  0.39208000  0.14776000  0.74020000  1.0 0.1306546162
H  H265  1  0.50666000  0.09315000  0.84498000  1.0 0.1306546162
H  H266  1  0.40521000  0.14679000  0.88023000  1.0 0.1097101625
H  H267  1  0.16984000  0.26064000  0.28996000  1.0 0.2562877336
H  H268  1  0.08752000  0.24801000  0.31858000  1.0 0.2375780144
H  H269  1  0.20132000  0.29512000  0.46778000  1.0 0.0986323697
H  H270  1  0.08540000  0.34185000  0.50401000  1.0 0.1352970401
H  H271  1  0.01326000  0.41274000  0.40006000  1.0 0.1306546162
H  H272  1  0.12699000  0.36396000  0.36595000  1.0 0.0889097544
H  H273  1  0.90142000  0.36122000  0.51104000  1.0 0.1184444846
H  H274  1  0.79785000  0.40214000  0.54038000  1.0 0.1184444846
H  H275  1  0.84911000  0.52470000  0.47777000  1.0 0.1306546162
H  H276  1  0.95615000  0.47550000  0.44028000  1.0 0.1097101625
H  H277  1  0.89297000  0.49425000  0.59472000  1.0 0.1184444846
H  H278  1  0.89458000  0.49396000  0.66588000  1.0 0.1184444846
H  H279  1  0.81690000  0.59234000  0.69888000  1.0 0.1184444846
H  H280  1  0.93113000  0.64196000  0.73227000  1.0 0.0986323697
H  H281  1  0.94951000  0.53398000  0.82084000  1.0 0.1184444846
H  H282  1  0.83673000  0.48387000  0.78804000  1.0 0.1306546162
H  H283  1  0.09846000  0.65116000  0.75133000  1.0 0.1306546162
H  H284  1  0.19730000  0.70596000  0.78593000  1.0 0.0815077274
H  H285  1  0.09010000  0.66897000  0.89158000  1.0 0.0986323697
H  H286  1  0.98183000  0.61387000  0.86071000  1.0 0.1306546162
H  H287  1  0.20985000  0.13837000  0.39200000  1.0 0.0986323697
H  H288  1  0.10726000  0.08202000  0.42459000  1.0 0.1184444846
H  H289  1  0.91771000  0.20063000  0.43469000  1.0 0.1456044415
H  H290  1  0.02696000  0.25105000  0.40025000  1.0 0.0815077274
H  H291  1  0.97284000  0.03182000  0.43023000  1.0 0.1097101625
H  H292  1  0.87525000  0.97671000  0.46829000  1.0 0.1306546162
H  H293  1  0.81343000  0.09431000  0.53463000  1.0 0.1184444846
H  H294  1  0.87035000  0.15597000  0.49091000  1.0 0.1097101625
H  H295  1  0.87874000  0.03519000  0.57647000  1.0 0.1184444846
H  H296  1  0.88059000  0.03401000  0.64711000  1.0 0.1184444846
H  H297  1  0.84177000  0.91347000  0.67905000  1.0 0.1306546162
H  H298  1  0.95866000  0.86931000  0.71365000  1.0 0.1097101625
H  H299  1  0.94973000  0.97525000  0.80393000  1.0 0.1097101625
H  H300  1  0.83397000  0.02125000  0.76997000  1.0 0.1306546162
H  H301  1  0.20966000  0.80260000  0.77866000  1.0 0.0815077274
H  H302  1  0.10792000  0.85224000  0.74020000  1.0 0.1306546162
H  H303  1  0.99334000  0.90685000  0.84498000  1.0 0.1306546162
H  H304  1  0.09479000  0.85321000  0.88023000  1.0 0.1097101625
C  C1  1  0.66240000  0.31860000  0.54650000  1.0 0.067115344
C  C2  1  0.59280000  0.34750000  0.52420000  1.0 -0.1890779428
C  C3  1  0.53660000  0.38330000  0.54370000  1.0 0.1097101625
C  C4  1  0.55030000  0.38880000  0.58520000  1.0 -0.1965205043
C  C5  1  0.61930000  0.35890000  0.60570000  1.0 0.0392219092
C  C6  1  0.46010000  0.41280000  0.52120000  1.0 0.0392219092
C  C7  1  0.41930000  0.39310000  0.48530000  1.0 -0.1308234102
C  C8  1  0.34750000  0.42150000  0.46430000  1.0 -0.1965205043
C  C9  1  0.31920000  0.47040000  0.47870000  1.0 0.1601542577
C  C10  1  0.36420000  0.49100000  0.51350000  1.0 -0.1890779428
C  C11  1  0.43050000  0.46210000  0.53530000  1.0 -0.1308234102
C  C12  1  0.33500000  0.49660000  0.39090000  1.0 -0.1707364632
C  C13  1  0.33630000  0.49640000  0.34820000  1.0 -0.1804108456
C  C14  1  0.31750000  0.53120000  0.26090000  1.0 0.1677438765
C  C15  1  0.34470000  0.58010000  0.27680000  1.0 -0.1890779428
C  C16  1  0.41260000  0.61000000  0.25650000  1.0 -0.1376800765
C  C17  1  0.45350000  0.59360000  0.21990000  1.0 0.0576344711
C  C18  1  0.42330000  0.54570000  0.20400000  1.0 -0.1376800765
C  C19  1  0.35620000  0.51540000  0.22370000  1.0 -0.1804108456
C  C20  1  0.52360000  0.62720000  0.19840000  1.0 0.1184444846
C  C21  1  0.59300000  0.65460000  0.22010000  1.0 -0.1890779428
C  C22  1  0.65330000  0.68680000  0.19850000  1.0 0.067115344
C  C23  1  0.59090000  0.66580000  0.13710000  1.0 0.0576344711
C  C24  1  0.52520000  0.63260000  0.15550000  1.0 -0.1890779428
C  C25  1  0.65010000  0.15080000  0.59930000  1.0 0.0491732283
C  C26  1  0.58870000  0.11650000  0.57990000  1.0 -0.1965205043
C  C27  1  0.49820000  0.13390000  0.56700000  1.0 0.1306546162
C  C28  1  0.47600000  0.18640000  0.57400000  1.0 -0.1804108456
C  C29  1  0.54370000  0.21650000  0.59420000  1.0 0.0889097544
C  C30  1  0.43150000  0.09910000  0.54340000  1.0 0.0491732283
C  C31  1  0.43200000  0.04580000  0.54980000  1.0 -0.1308234102
C  C32  1  0.37320000  0.01270000  0.52730000  1.0 -0.1890779428
C  C33  1  0.31090000  0.03390000  0.49800000  1.0 0.1601542577
C  C34  1  0.30890000  0.08770000  0.49140000  1.0 -0.1707364632
C  C35  1  0.37040000  0.12010000  0.51390000  1.0 -0.1308234102
C  C36  1  0.32680000  0.02080000  0.40930000  1.0 -0.1890779428
C  C37  1  0.32770000  0.02050000  0.36700000  1.0 -0.1707364632
C  C38  1  0.32250000  0.97290000  0.27950000  1.0 0.1820906461
C  C39  1  0.36310000  0.92610000  0.29560000  1.0 -0.1890779428
C  C40  1  0.43250000  0.89940000  0.27470000  1.0 -0.1199943944
C  C41  1  0.46510000  0.91630000  0.23630000  1.0 0.0491732283
C  C42  1  0.42700000  0.96260000  0.22120000  1.0 -0.1308234102
C  C43  1  0.35770000  0.99050000  0.24150000  1.0 -0.1890779428
C  C44  1  0.66420000  0.82320000  0.20780000  1.0 0.0334767686
C  C45  1  0.60330000  0.85300000  0.23110000  1.0 -0.1804108456
C  C46  1  0.53440000  0.88460000  0.21220000  1.0 0.1184444846
C  C47  1  0.53510000  0.88500000  0.16950000  1.0 -0.1890779428
C  C48  1  0.59770000  0.85310000  0.14850000  1.0 0.0889097544
C  C49  1  0.83760000  0.68140000  0.54650000  1.0 0.067115344
C  C50  1  0.90720000  0.65250000  0.52420000  1.0 -0.1890779428
C  C51  1  0.96340000  0.61670000  0.54370000  1.0 0.1097101625
C  C52  1  0.94970000  0.61120000  0.58520000  1.0 -0.1965205043
C  C53  1  0.88070000  0.64110000  0.60570000  1.0 0.0392219092
C  C54  1  0.03990000  0.58720000  0.52120000  1.0 0.0392219092
C  C55  1  0.08070000  0.60690000  0.48530000  1.0 -0.1308234102
C  C56  1  0.15250000  0.57850000  0.46430000  1.0 -0.1965205043
C  C57  1  0.18080000  0.52960000  0.47870000  1.0 0.1601542577
C  C58  1  0.13580000  0.50900000  0.51350000  1.0 -0.1890779428
C  C59  1  0.06950000  0.53790000  0.53530000  1.0 -0.1308234102
C  C60  1  0.16500000  0.50340000  0.39090000  1.0 -0.1707364632
C  C61  1  0.16370000  0.50360000  0.34820000  1.0 -0.1804108456
C  C62  1  0.18250000  0.46880000  0.26090000  1.0 0.1677438765
C  C63  1  0.15530000  0.41990000  0.27680000  1.0 -0.1890779428
C  C64  1  0.08740000  0.39000000  0.25650000  1.0 -0.1376800765
C  C65  1  0.04650000  0.40640000  0.21990000  1.0 0.0576344711
C  C66  1  0.07670000  0.45430000  0.20400000  1.0 -0.1376800765
C  C67  1  0.14380000  0.48460000  0.22370000  1.0 -0.1804108456
C  C68  1  0.97640000  0.37280000  0.19840000  1.0 0.1184444846
C  C69  1  0.90700000  0.34540000  0.22010000  1.0 -0.1890779428
C  C70  1  0.84670000  0.31320000  0.19850000  1.0 0.067115344
C  C71  1  0.90910000  0.33420000  0.13710000  1.0 0.0576344711
C  C72  1  0.97480000  0.36740000  0.15550000  1.0 -0.1890779428
C  C73  1  0.84990000  0.84920000  0.59930000  1.0 0.0491732283
C  C74  1  0.91130000  0.88350000  0.57990000  1.0 -0.1965205043
C  C75  1  0.00180000  0.86610000  0.56700000  1.0 0.1306546162
C  C76  1  0.02400000  0.81360000  0.57400000  1.0 -0.1804108456
C  C77  1  0.95630000  0.78350000  0.59420000  1.0 0.0889097544
C  C78  1  0.06850000  0.90090000  0.54340000  1.0 0.0491732283
C  C79  1  0.06800000  0.95420000  0.54980000  1.0 -0.1308234102
C  C80  1  0.12680000  0.98730000  0.52730000  1.0 -0.1890779428
C  C81  1  0.18910000  0.96610000  0.49800000  1.0 0.1601542577
C  C82  1  0.19110000  0.91230000  0.49140000  1.0 -0.1707364632
C  C83  1  0.12960000  0.87990000  0.51390000  1.0 -0.1308234102
C  C84  1  0.17320000  0.97920000  0.40930000  1.0 -0.1890779428
C  C85  1  0.17230000  0.97950000  0.36700000  1.0 -0.1707364632
C  C86  1  0.17750000  0.02710000  0.27950000  1.0 0.1820906461
C  C87  1  0.13690000  0.07390000  0.29560000  1.0 -0.1890779428
C  C88  1  0.06750000  0.10060000  0.27470000  1.0 -0.1199943944
C  C89  1  0.03490000  0.08370000  0.23630000  1.0 0.0491732283
C  C90  1  0.07300000  0.03740000  0.22120000  1.0 -0.1308234102
C  C91  1  0.14230000  0.00950000  0.24150000  1.0 -0.1890779428
C  C92  1  0.83580000  0.17680000  0.20780000  1.0 0.0334767686
C  C93  1  0.89670000  0.14700000  0.23110000  1.0 -0.1804108456
C  C94  1  0.96560000  0.11540000  0.21220000  1.0 0.1184444846
C  C95  1  0.96490000  0.11500000  0.16950000  1.0 -0.1890779428
C  C96  1  0.90230000  0.14690000  0.14850000  1.0 0.0889097544
C  C97  1  0.83760000  0.81860000  0.04650000  1.0 0.067115344
C  C98  1  0.90720000  0.84750000  0.02420000  1.0 -0.1890779428
C  C99  1  0.96340000  0.88330000  0.04370000  1.0 0.1097101625
C  C100  1  0.94970000  0.88880000  0.08520000  1.0 -0.1965205043
C  C101  1  0.88070000  0.85890000  0.10570000  1.0 0.0392219092
C  C102  1  0.03990000  0.91280000  0.02120000  1.0 0.0392219092
C  C103  1  0.08070000  0.89310000  0.98530000  1.0 -0.1308234102
C  C104  1  0.15250000  0.92150000  0.96430000  1.0 -0.1965205043
C  C105  1  0.18080000  0.97040000  0.97870000  1.0 0.1601542577
C  C106  1  0.13580000  0.99100000  0.01350000  1.0 -0.1890779428
C  C107  1  0.06950000  0.96210000  0.03530000  1.0 -0.1308234102
C  C108  1  0.16500000  0.99660000  0.89090000  1.0 -0.1707364632
C  C109  1  0.16370000  0.99640000  0.84820000  1.0 -0.1804108456
C  C110  1  0.18250000  0.03120000  0.76090000  1.0 0.1677438765
C  C111  1  0.15530000  0.08010000  0.77680000  1.0 -0.1890779428
C  C112  1  0.08740000  0.11000000  0.75650000  1.0 -0.1376800765
C  C113  1  0.04650000  0.09360000  0.71990000  1.0 0.0576344711
C  C114  1  0.07670000  0.04570000  0.70400000  1.0 -0.1376800765
C  C115  1  0.14380000  0.01540000  0.72370000  1.0 -0.1804108456
C  C116  1  0.97640000  0.12720000  0.69840000  1.0 0.1184444846
C  C117  1  0.90700000  0.15460000  0.72010000  1.0 -0.1890779428
C  C118  1  0.84670000  0.18680000  0.69850000  1.0 0.067115344
C  C119  1  0.90910000  0.16580000  0.63710000  1.0 0.0576344711
C  C120  1  0.97480000  0.13260000  0.65550000  1.0 -0.1890779428
C  C121  1  0.84990000  0.65080000  0.09930000  1.0 0.0491732283
C  C122  1  0.91130000  0.61650000  0.07990000  1.0 -0.1965205043
C  C123  1  0.00180000  0.63390000  0.06700000  1.0 0.1306546162
C  C124  1  0.02400000  0.68640000  0.07400000  1.0 -0.1804108456
C  C125  1  0.95630000  0.71650000  0.09420000  1.0 0.0889097544
C  C126  1  0.06850000  0.59910000  0.04340000  1.0 0.0491732283
C  C127  1  0.06800000  0.54580000  0.04980000  1.0 -0.1308234102
C  C128  1  0.12680000  0.51270000  0.02730000  1.0 -0.1890779428
C  C129  1  0.18910000  0.53390000  0.99800000  1.0 0.1601542577
C  C130  1  0.19110000  0.58770000  0.99140000  1.0 -0.1707364632
C  C131  1  0.12960000  0.62010000  0.01390000  1.0 -0.1308234102
C  C132  1  0.17320000  0.52080000  0.90930000  1.0 -0.1890779428
C  C133  1  0.17230000  0.52050000  0.86700000  1.0 -0.1707364632
C  C134  1  0.17750000  0.47290000  0.77950000  1.0 0.1820906461
C  C135  1  0.13690000  0.42610000  0.79560000  1.0 -0.1890779428
C  C136  1  0.06750000  0.39940000  0.77470000  1.0 -0.1199943944
C  C137  1  0.03490000  0.41630000  0.73630000  1.0 0.0491732283
C  C138  1  0.07300000  0.46260000  0.72120000  1.0 -0.1308234102
C  C139  1  0.14230000  0.49050000  0.74150000  1.0 -0.1890779428
C  C140  1  0.83580000  0.32320000  0.70780000  1.0 0.0334767686
C  C141  1  0.89670000  0.35300000  0.73110000  1.0 -0.1804108456
C  C142  1  0.96560000  0.38460000  0.71220000  1.0 0.1184444846
C  C143  1  0.96490000  0.38500000  0.66950000  1.0 -0.1890779428
C  C144  1  0.90230000  0.35310000  0.64850000  1.0 0.0889097544
C  C145  1  0.66240000  0.18140000  0.04650000  1.0 0.067115344
C  C146  1  0.59280000  0.15250000  0.02420000  1.0 -0.1804108456
C  C147  1  0.53660000  0.11670000  0.04370000  1.0 0.1097101625
C  C148  1  0.55030000  0.11120000  0.08520000  1.0 -0.1965205043
C  C149  1  0.61930000  0.14110000  0.10570000  1.0 0.0392219092
C  C150  1  0.46010000  0.08720000  0.02120000  1.0 0.0392219092
C  C151  1  0.41930000  0.10690000  0.98530000  1.0 -0.1308234102
C  C152  1  0.34750000  0.07850000  0.96430000  1.0 -0.1965205043
C  C153  1  0.31920000  0.02960000  0.97870000  1.0 0.1601542577
C  C154  1  0.36420000  0.00900000  0.01350000  1.0 -0.1890779428
C  C155  1  0.43050000  0.03790000  0.03530000  1.0 -0.1308234102
C  C156  1  0.33500000  0.00340000  0.89090000  1.0 -0.1707364632
C  C157  1  0.33630000  0.00360000  0.84820000  1.0 -0.1804108456
C  C158  1  0.31750000  0.96880000  0.76090000  1.0 0.1677438765
C  C159  1  0.34470000  0.91990000  0.77680000  1.0 -0.1890779428
C  C160  1  0.41260000  0.89000000  0.75650000  1.0 -0.1376800765
C  C161  1  0.45350000  0.90640000  0.71990000  1.0 0.0576344711
C  C162  1  0.42330000  0.95430000  0.70400000  1.0 -0.1376800765
C  C163  1  0.35620000  0.98460000  0.72370000  1.0 -0.1804108456
C  C164  1  0.52360000  0.87280000  0.69840000  1.0 0.1184444846
C  C165  1  0.59300000  0.84540000  0.72010000  1.0 -0.1890779428
C  C166  1  0.65330000  0.81320000  0.69850000  1.0 0.067115344
C  C167  1  0.59090000  0.83420000  0.63710000  1.0 0.0576344711
C  C168  1  0.52520000  0.86740000  0.65550000  1.0 -0.1890779428
C  C169  1  0.65010000  0.34920000  0.09930000  1.0 0.0491732283
C  C170  1  0.58870000  0.38350000  0.07990000  1.0 -0.1965205043
C  C171  1  0.49820000  0.36610000  0.06700000  1.0 0.1306546162
C  C172  1  0.47600000  0.31360000  0.07400000  1.0 -0.1804108456
C  C173  1  0.54370000  0.28350000  0.09420000  1.0 0.0889097544
C  C174  1  0.43150000  0.40090000  0.04340000  1.0 0.0491732283
C  C175  1  0.43200000  0.45420000  0.04980000  1.0 -0.1308234102
C  C176  1  0.37320000  0.48730000  0.02730000  1.0 -0.1890779428
C  C177  1  0.31090000  0.46610000  0.99800000  1.0 0.1601542577
C  C178  1  0.30890000  0.41230000  0.99140000  1.0 -0.1707364632
C  C179  1  0.37040000  0.37990000  0.01390000  1.0 -0.1308234102
C  C180  1  0.32680000  0.47920000  0.90930000  1.0 -0.1890779428
C  C181  1  0.32770000  0.47950000  0.86700000  1.0 -0.1707364632
C  C182  1  0.32250000  0.52710000  0.77950000  1.0 0.1820906461
C  C183  1  0.36310000  0.57390000  0.79560000  1.0 -0.1890779428
C  C184  1  0.43250000  0.60060000  0.77470000  1.0 -0.1199943944
C  C185  1  0.46510000  0.58370000  0.73630000  1.0 0.0491732283
C  C186  1  0.42700000  0.53740000  0.72120000  1.0 -0.1308234102
C  C187  1  0.35770000  0.50950000  0.74150000  1.0 -0.1890779428
C  C188  1  0.66420000  0.67680000  0.70780000  1.0 0.0334767686
C  C189  1  0.60330000  0.64700000  0.73110000  1.0 -0.1804108456
C  C190  1  0.53440000  0.61540000  0.71220000  1.0 0.1184444846
C  C191  1  0.53510000  0.61500000  0.66950000  1.0 -0.1890779428
C  C192  1  0.59770000  0.64690000  0.64850000  1.0 0.0889097544
C  C193  1  0.25000000  0.50000000  0.41280000  1.0 0.1601542577
C  C194  1  0.25000000  0.50000000  0.32620000  1.0 0.1677438765
C  C195  1  0.25000000  0.00000000  0.91280000  1.0 0.1601542577
C  C196  1  0.25000000  0.00000000  0.82620000  1.0 0.1677438765
C  C197  1  0.25000000  0.00000000  0.43170000  1.0 0.1601542577
C  C198  1  0.25000000  0.00000000  0.34480000  1.0 0.1601542577
C  C199  1  0.25000000  0.50000000  0.93170000  1.0 0.1601542577
C  C200  1  0.25000000  0.50000000  0.84480000  1.0 0.1601542577
C  C201  1  0.16240000  0.18140000  0.95350000  1.0 0.067115344
C  C202  1  0.09280000  0.15250000  0.97580000  1.0 -0.1890779428
C  C203  1  0.03660000  0.11670000  0.95630000  1.0 0.1097101625
C  C204  1  0.05030000  0.11120000  0.91480000  1.0 -0.1965205043
C  C205  1  0.11930000  0.14110000  0.89430000  1.0 0.0392219092
C  C206  1  0.96010000  0.08720000  0.97880000  1.0 0.0392219092
C  C207  1  0.91930000  0.10690000  0.01470000  1.0 -0.1308234102
C  C208  1  0.84750000  0.07850000  0.03570000  1.0 -0.1965205043
C  C209  1  0.81920000  0.02960000  0.02130000  1.0 0.1601542577
C  C210  1  0.86420000  0.00900000  0.98650000  1.0 -0.1890779428
C  C211  1  0.93050000  0.03790000  0.96470000  1.0 -0.1308234102
C  C212  1  0.83500000  0.00340000  0.10910000  1.0 -0.1707364632
C  C213  1  0.83630000  0.00360000  0.15180000  1.0 -0.1707364632
C  C214  1  0.81750000  0.96880000  0.23910000  1.0 0.1677438765
C  C215  1  0.84470000  0.91990000  0.22320000  1.0 -0.1890779428
C  C216  1  0.91260000  0.89000000  0.24350000  1.0 -0.1376800765
C  C217  1  0.95350000  0.90640000  0.28010000  1.0 0.0576344711
C  C218  1  0.92330000  0.95430000  0.29600000  1.0 -0.1376800765
C  C219  1  0.85620000  0.98460000  0.27630000  1.0 -0.1804108456
C  C220  1  0.02360000  0.87280000  0.30160000  1.0 0.1184444846
C  C221  1  0.09300000  0.84540000  0.27990000  1.0 -0.1890779428
C  C222  1  0.15330000  0.81320000  0.30150000  1.0 0.0576344711
C  C223  1  0.09090000  0.83420000  0.36290000  1.0 0.0576344711
C  C224  1  0.02520000  0.86740000  0.34450000  1.0 -0.1890779428
C  C225  1  0.15010000  0.34920000  0.90070000  1.0 0.0491732283
C  C226  1  0.08870000  0.38350000  0.92010000  1.0 -0.1965205043
C  C227  1  0.99820000  0.36610000  0.93300000  1.0 0.1306546162
C  C228  1  0.97600000  0.31360000  0.92600000  1.0 -0.1804108456
C  C229  1  0.04370000  0.28350000  0.90580000  1.0 0.0889097544
C  C230  1  0.93150000  0.40090000  0.95660000  1.0 0.0491732283
C  C231  1  0.93200000  0.45420000  0.95020000  1.0 -0.1308234102
C  C232  1  0.87320000  0.48730000  0.97270000  1.0 -0.1890779428
C  C233  1  0.81090000  0.46610000  0.00200000  1.0 0.1601542577
C  C234  1  0.80890000  0.41230000  0.00860000  1.0 -0.1707364632
C  C235  1  0.87040000  0.37990000  0.98610000  1.0 -0.1308234102
C  C236  1  0.82680000  0.47920000  0.09070000  1.0 -0.1890779428
C  C237  1  0.82770000  0.47950000  0.13300000  1.0 -0.1633139046
C  C238  1  0.82250000  0.52710000  0.22050000  1.0 0.1820906461
C  C239  1  0.86310000  0.57390000  0.20440000  1.0 -0.1890779428
C  C240  1  0.93250000  0.60060000  0.22530000  1.0 -0.1199943944
C  C241  1  0.96510000  0.58370000  0.26370000  1.0 0.0491732283
C  C242  1  0.92700000  0.53740000  0.27880000  1.0 -0.1308234102
C  C243  1  0.85770000  0.50950000  0.25850000  1.0 -0.1890779428
C  C244  1  0.16420000  0.67680000  0.29220000  1.0 0.0334767686
C  C245  1  0.10330000  0.64700000  0.26890000  1.0 -0.1804108456
C  C246  1  0.03440000  0.61540000  0.28780000  1.0 0.1184444846
C  C247  1  0.03510000  0.61500000  0.33050000  1.0 -0.1890779428
C  C248  1  0.09770000  0.64690000  0.35150000  1.0 0.0889097544
C  C249  1  0.33760000  0.81860000  0.95350000  1.0 0.067115344
C  C250  1  0.40720000  0.84750000  0.97580000  1.0 -0.1890779428
C  C251  1  0.46340000  0.88330000  0.95630000  1.0 0.1097101625
C  C252  1  0.44970000  0.88880000  0.91480000  1.0 -0.1965205043
C  C253  1  0.38070000  0.85890000  0.89430000  1.0 0.0392219092
C  C254  1  0.53990000  0.91280000  0.97880000  1.0 0.0392219092
C  C255  1  0.58070000  0.89310000  0.01470000  1.0 -0.1308234102
C  C256  1  0.65250000  0.92150000  0.03570000  1.0 -0.1965205043
C  C257  1  0.68080000  0.97040000  0.02130000  1.0 0.1601542577
C  C258  1  0.63580000  0.99100000  0.98650000  1.0 -0.1890779428
C  C259  1  0.56950000  0.96210000  0.96470000  1.0 -0.1308234102
C  C260  1  0.66500000  0.99660000  0.10910000  1.0 -0.1707364632
C  C261  1  0.66370000  0.99640000  0.15180000  1.0 -0.1707364632
C  C262  1  0.68250000  0.03120000  0.23910000  1.0 0.1677438765
C  C263  1  0.65530000  0.08010000  0.22320000  1.0 -0.1890779428
C  C264  1  0.58740000  0.11000000  0.24350000  1.0 -0.1376800765
C  C265  1  0.54650000  0.09360000  0.28010000  1.0 0.0576344711
C  C266  1  0.57670000  0.04570000  0.29600000  1.0 -0.1376800765
C  C267  1  0.64380000  0.01540000  0.27630000  1.0 -0.1804108456
C  C268  1  0.47640000  0.12720000  0.30160000  1.0 0.1184444846
C  C269  1  0.40700000  0.15460000  0.27990000  1.0 -0.1890779428
C  C270  1  0.34670000  0.18680000  0.30150000  1.0 0.0576344711
C  C271  1  0.40910000  0.16580000  0.36290000  1.0 0.0576344711
C  C272  1  0.47480000  0.13260000  0.34450000  1.0 -0.1890779428
C  C273  1  0.34990000  0.65080000  0.90070000  1.0 0.0491732283
C  C274  1  0.41130000  0.61650000  0.92010000  1.0 -0.1965205043
C  C275  1  0.50180000  0.63390000  0.93300000  1.0 0.1306546162
C  C276  1  0.52400000  0.68640000  0.92600000  1.0 -0.1804108456
C  C277  1  0.45630000  0.71650000  0.90580000  1.0 0.0889097544
C  C278  1  0.56850000  0.59910000  0.95660000  1.0 0.0491732283
C  C279  1  0.56800000  0.54580000  0.95020000  1.0 -0.1308234102
C  C280  1  0.62680000  0.51270000  0.97270000  1.0 -0.1890779428
C  C281  1  0.68910000  0.53390000  0.00200000  1.0 0.1601542577
C  C282  1  0.69110000  0.58770000  0.00860000  1.0 -0.1707364632
C  C283  1  0.62960000  0.62010000  0.98610000  1.0 -0.1308234102
C  C284  1  0.67320000  0.52080000  0.09070000  1.0 -0.1890779428
C  C285  1  0.67230000  0.52050000  0.13300000  1.0 -0.1633139046
C  C286  1  0.67750000  0.47290000  0.22050000  1.0 0.1820906461
C  C287  1  0.63690000  0.42610000  0.20440000  1.0 -0.1890779428
C  C288  1  0.56750000  0.39940000  0.22530000  1.0 -0.1199943944
C  C289  1  0.53490000  0.41630000  0.26370000  1.0 0.0491732283
C  C290  1  0.57300000  0.46260000  0.27880000  1.0 -0.1308234102
C  C291  1  0.64230000  0.49050000  0.25850000  1.0 -0.1890779428
C  C292  1  0.33580000  0.32320000  0.29220000  1.0 0.0334767686
C  C293  1  0.39670000  0.35300000  0.26890000  1.0 -0.1804108456
C  C294  1  0.46560000  0.38460000  0.28780000  1.0 0.1184444846
C  C295  1  0.46490000  0.38500000  0.33050000  1.0 -0.1890779428
C  C296  1  0.40230000  0.35310000  0.35150000  1.0 0.0889097544
C  C297  1  0.33760000  0.68140000  0.45350000  1.0 0.067115344
C  C298  1  0.40720000  0.65250000  0.47580000  1.0 -0.1890779428
C  C299  1  0.46340000  0.61670000  0.45630000  1.0 0.1097101625
C  C300  1  0.44970000  0.61120000  0.41480000  1.0 -0.1965205043
C  C301  1  0.38070000  0.64110000  0.39430000  1.0 0.0392219092
C  C302  1  0.53990000  0.58720000  0.47880000  1.0 0.0392219092
C  C303  1  0.58070000  0.60690000  0.51470000  1.0 -0.1308234102
C  C304  1  0.65250000  0.57850000  0.53570000  1.0 -0.1965205043
C  C305  1  0.68080000  0.52960000  0.52130000  1.0 0.1601542577
C  C306  1  0.63580000  0.50900000  0.48650000  1.0 -0.1890779428
C  C307  1  0.56950000  0.53790000  0.46470000  1.0 -0.1308234102
C  C308  1  0.66500000  0.50340000  0.60910000  1.0 -0.1707364632
C  C309  1  0.66370000  0.50360000  0.65180000  1.0 -0.1804108456
C  C310  1  0.68250000  0.46880000  0.73910000  1.0 0.1677438765
C  C311  1  0.65530000  0.41990000  0.72320000  1.0 -0.1890779428
C  C312  1  0.58740000  0.39000000  0.74350000  1.0 -0.1376800765
C  C313  1  0.54650000  0.40640000  0.78010000  1.0 0.0576344711
C  C314  1  0.57670000  0.45430000  0.79600000  1.0 -0.1376800765
C  C315  1  0.64380000  0.48460000  0.77630000  1.0 -0.1804108456
C  C316  1  0.47640000  0.37280000  0.80160000  1.0 0.1184444846
C  C317  1  0.40700000  0.34540000  0.77990000  1.0 -0.1890779428
C  C318  1  0.34670000  0.31320000  0.80150000  1.0 0.0576344711
C  C319  1  0.40910000  0.33420000  0.86290000  1.0 0.0576344711
C  C320  1  0.47480000  0.36740000  0.84450000  1.0 -0.1890779428
C  C321  1  0.34990000  0.84920000  0.40070000  1.0 0.0491732283
C  C322  1  0.41130000  0.88350000  0.42010000  1.0 -0.1965205043
C  C323  1  0.50180000  0.86610000  0.43300000  1.0 0.1306546162
C  C324  1  0.52400000  0.81360000  0.42600000  1.0 -0.1804108456
C  C325  1  0.45630000  0.78350000  0.40580000  1.0 0.0889097544
C  C326  1  0.56850000  0.90090000  0.45660000  1.0 0.0491732283
C  C327  1  0.56800000  0.95420000  0.45020000  1.0 -0.1308234102
C  C328  1  0.62680000  0.98730000  0.47270000  1.0 -0.1890779428
C  C329  1  0.68910000  0.96610000  0.50200000  1.0 0.1601542577
C  C330  1  0.69110000  0.91230000  0.50860000  1.0 -0.1707364632
C  C331  1  0.62960000  0.87990000  0.48610000  1.0 -0.1308234102
C  C332  1  0.67320000  0.97920000  0.59070000  1.0 -0.1890779428
C  C333  1  0.67230000  0.97950000  0.63300000  1.0 -0.1707364632
C  C334  1  0.67750000  0.02710000  0.72050000  1.0 0.1820906461
C  C335  1  0.63690000  0.07390000  0.70440000  1.0 -0.1890779428
C  C336  1  0.56750000  0.10060000  0.72530000  1.0 -0.1199943944
C  C337  1  0.53490000  0.08370000  0.76370000  1.0 0.0491732283
C  C338  1  0.57300000  0.03740000  0.77880000  1.0 -0.1308234102
C  C339  1  0.64230000  0.00950000  0.75850000  1.0 -0.1890779428
C  C340  1  0.33580000  0.17680000  0.79220000  1.0 0.0334767686
C  C341  1  0.39670000  0.14700000  0.76890000  1.0 -0.1804108456
C  C342  1  0.46560000  0.11540000  0.78780000  1.0 0.1184444846
C  C343  1  0.46490000  0.11500000  0.83050000  1.0 -0.1890779428
C  C344  1  0.40230000  0.14690000  0.85150000  1.0 0.0889097544
C  C345  1  0.16240000  0.31860000  0.45350000  1.0 0.067115344
C  C346  1  0.09280000  0.34750000  0.47580000  1.0 -0.1890779428
C  C347  1  0.03660000  0.38330000  0.45630000  1.0 0.1097101625
C  C348  1  0.05030000  0.38880000  0.41480000  1.0 -0.1965205043
C  C349  1  0.11930000  0.35890000  0.39430000  1.0 0.0392219092
C  C350  1  0.96010000  0.41280000  0.47880000  1.0 0.0392219092
C  C351  1  0.91930000  0.39310000  0.51470000  1.0 -0.1308234102
C  C352  1  0.84750000  0.42150000  0.53570000  1.0 -0.1965205043
C  C353  1  0.81920000  0.47040000  0.52130000  1.0 0.1601542577
C  C354  1  0.86420000  0.49100000  0.48650000  1.0 -0.1890779428
C  C355  1  0.93050000  0.46210000  0.46470000  1.0 -0.1308234102
C  C356  1  0.83500000  0.49660000  0.60910000  1.0 -0.1707364632
C  C357  1  0.83630000  0.49640000  0.65180000  1.0 -0.1707364632
C  C358  1  0.81750000  0.53120000  0.73910000  1.0 0.1677438765
C  C359  1  0.84470000  0.58010000  0.72320000  1.0 -0.1890779428
C  C360  1  0.91260000  0.61000000  0.74350000  1.0 -0.1376800765
C  C361  1  0.95350000  0.59360000  0.78010000  1.0 0.0576344711
C  C362  1  0.92330000  0.54570000  0.79600000  1.0 -0.1376800765
C  C363  1  0.85620000  0.51540000  0.77630000  1.0 -0.1804108456
C  C364  1  0.02360000  0.62720000  0.80160000  1.0 0.1184444846
C  C365  1  0.09300000  0.65460000  0.77990000  1.0 -0.1890779428
C  C366  1  0.15330000  0.68680000  0.80150000  1.0 0.0576344711
C  C367  1  0.09090000  0.66580000  0.86290000  1.0 0.0576344711
C  C368  1  0.02520000  0.63260000  0.84450000  1.0 -0.1890779428
C  C369  1  0.15010000  0.15080000  0.40070000  1.0 0.0491732283
C  C370  1  0.08870000  0.11650000  0.42010000  1.0 -0.1965205043
C  C371  1  0.99820000  0.13390000  0.43300000  1.0 0.1306546162
C  C372  1  0.97600000  0.18640000  0.42600000  1.0 -0.1804108456
C  C373  1  0.04370000  0.21650000  0.40580000  1.0 0.0889097544
C  C374  1  0.93150000  0.09910000  0.45660000  1.0 0.0491732283
C  C375  1  0.93200000  0.04580000  0.45020000  1.0 -0.1308234102
C  C376  1  0.87320000  0.01270000  0.47270000  1.0 -0.1890779428
C  C377  1  0.81090000  0.03390000  0.50200000  1.0 0.1601542577
C  C378  1  0.80890000  0.08770000  0.50860000  1.0 -0.1707364632
C  C379  1  0.87040000  0.12010000  0.48610000  1.0 -0.1308234102
C  C380  1  0.82680000  0.02080000  0.59070000  1.0 -0.1890779428
C  C381  1  0.82770000  0.02050000  0.63300000  1.0 -0.1633139046
C  C382  1  0.82250000  0.97290000  0.72050000  1.0 0.1820906461
C  C383  1  0.86310000  0.92610000  0.70440000  1.0 -0.1890779428
C  C384  1  0.93250000  0.89940000  0.72530000  1.0 -0.1199943944
C  C385  1  0.96510000  0.91630000  0.76370000  1.0 0.0491732283
C  C386  1  0.92700000  0.96260000  0.77880000  1.0 -0.1308234102
C  C387  1  0.85770000  0.99050000  0.75850000  1.0 -0.1890779428
C  C388  1  0.16420000  0.82320000  0.79220000  1.0 0.0334767686
C  C389  1  0.10330000  0.85300000  0.76890000  1.0 -0.1804108456
C  C390  1  0.03440000  0.88460000  0.78780000  1.0 0.1184444846
C  C391  1  0.03510000  0.88500000  0.83050000  1.0 -0.1890779428
C  C392  1  0.09770000  0.85310000  0.85150000  1.0 0.0889097544
C  C393  1  0.75000000  0.00000000  0.08720000  1.0 0.1601542577
C  C394  1  0.75000000  0.00000000  0.17380000  1.0 0.1677438765
C  C395  1  0.75000000  0.50000000  0.58720000  1.0 0.1601542577
C  C396  1  0.75000000  0.50000000  0.67380000  1.0 0.1677438765
C  C397  1  0.75000000  0.50000000  0.06830000  1.0 0.1601542577
C  C398  1  0.75000000  0.50000000  0.15520000  1.0 0.1601542577
C  C399  1  0.75000000  0.00000000  0.56830000  1.0 0.1601542577
C  C400  1  0.75000000  0.00000000  0.65520000  1.0 0.1601542577
N  N1  1  0.67470000  0.32370000  0.58730000  1.0 -0.2710278383
N  N2  1  0.65610000  0.69380000  0.15870000  1.0 -0.2586550614
N  N3  1  0.62850000  0.20130000  0.60630000  1.0 -0.2710278383
N  N4  1  0.66190000  0.82200000  0.16630000  1.0 -0.279330512
N  N5  1  0.87190000  0.25010000  0.54940000  1.0 0.6563329795
N  N6  1  0.40570000  0.25180000  0.68340000  1.0 0.6248370507
N  N7  1  0.58550000  0.25570000  0.69820000  1.0 0.1306546162
N  N8  1  0.82530000  0.67630000  0.58730000  1.0 -0.2710278383
N  N9  1  0.84390000  0.30620000  0.15870000  1.0 -0.2586550614
N  N10  1  0.87150000  0.79870000  0.60630000  1.0 -0.2710278383
N  N11  1  0.83810000  0.17800000  0.16630000  1.0 -0.279330512
N  N12  1  0.62810000  0.74990000  0.54940000  1.0 0.6563329795
N  N13  1  0.09430000  0.74820000  0.68340000  1.0 0.6253299215
N  N14  1  0.91450000  0.74430000  0.69820000  1.0 0.1306546162
N  N15  1  0.82530000  0.82370000  0.08730000  1.0 -0.2710278383
N  N16  1  0.84390000  0.19380000  0.65870000  1.0 -0.2586550614
N  N17  1  0.87150000  0.70130000  0.10630000  1.0 -0.2710278383
N  N18  1  0.83810000  0.32200000  0.66630000  1.0 -0.279330512
N  N19  1  0.62810000  0.75010000  0.04940000  1.0 0.6563329795
N  N20  1  0.09430000  0.75180000  0.18340000  1.0 0.6253299215
N  N21  1  0.91450000  0.75570000  0.19820000  1.0 0.1306546162
N  N22  1  0.67470000  0.17630000  0.08730000  1.0 -0.2710278383
N  N23  1  0.65610000  0.80620000  0.65870000  1.0 -0.2586550614
N  N24  1  0.62850000  0.29870000  0.10630000  1.0 -0.2710278383
N  N25  1  0.66190000  0.67800000  0.66630000  1.0 -0.279330512
N  N26  1  0.87190000  0.24990000  0.04940000  1.0 0.6563329795
N  N27  1  0.40570000  0.24820000  0.18340000  1.0 0.6248370507
N  N28  1  0.58550000  0.24430000  0.19820000  1.0 0.1306546162
N  N29  1  0.25000000  0.50000000  0.45690000  1.0 -0.1804108456
N  N30  1  0.25000000  0.50000000  0.28230000  1.0 -0.1633139046
N  N31  1  0.25000000  0.00000000  0.95690000  1.0 -0.1804108456
N  N32  1  0.25000000  0.00000000  0.78230000  1.0 -0.1633139046
N  N33  1  0.25000000  0.00000000  0.47470000  1.0 -0.1707364632
N  N34  1  0.25000000  0.00000000  0.30070000  1.0 -0.1633139046
N  N35  1  0.25000000  0.50000000  0.97470000  1.0 -0.1707364632
N  N36  1  0.25000000  0.50000000  0.80070000  1.0 -0.1633139046
N  N37  1  0.17470000  0.17630000  0.91270000  1.0 -0.2710278383
N  N38  1  0.15610000  0.80620000  0.34130000  1.0 -0.2586550614
N  N39  1  0.12850000  0.29870000  0.89370000  1.0 -0.2710278383
N  N40  1  0.16190000  0.67800000  0.33370000  1.0 -0.279330512
N  N41  1  0.37190000  0.24990000  0.95060000  1.0 0.6563329795
N  N42  1  0.90570000  0.24820000  0.81660000  1.0 0.6248370507
N  N43  1  0.08550000  0.24430000  0.80180000  1.0 0.1352970401
N  N44  1  0.32530000  0.82370000  0.91270000  1.0 -0.2710278383
N  N45  1  0.34390000  0.19380000  0.34130000  1.0 -0.2586550614
N  N46  1  0.37150000  0.70130000  0.89370000  1.0 -0.2710278383
N  N47  1  0.33810000  0.32200000  0.33370000  1.0 -0.279330512
N  N48  1  0.12810000  0.75010000  0.95060000  1.0 0.6563329795
N  N49  1  0.59430000  0.75180000  0.81660000  1.0 0.6253299215
N  N50  1  0.41450000  0.75570000  0.80180000  1.0 0.1306546162
N  N51  1  0.32530000  0.67630000  0.41270000  1.0 -0.2710278383
N  N52  1  0.34390000  0.30620000  0.84130000  1.0 -0.2586550614
N  N53  1  0.37150000  0.79870000  0.39370000  1.0 -0.2710278383
N  N54  1  0.33810000  0.17800000  0.83370000  1.0 -0.279330512
N  N55  1  0.12810000  0.74990000  0.45060000  1.0 0.6563329795
N  N56  1  0.59430000  0.74820000  0.31660000  1.0 0.6253299215
N  N57  1  0.41450000  0.74430000  0.30180000  1.0 0.1306546162
N  N58  1  0.17470000  0.32370000  0.41270000  1.0 -0.2710278383
N  N59  1  0.15610000  0.69380000  0.84130000  1.0 -0.2586550614
N  N60  1  0.12850000  0.20130000  0.39370000  1.0 -0.2710278383
N  N61  1  0.16190000  0.82200000  0.83370000  1.0 -0.279330512
N  N62  1  0.37190000  0.25010000  0.45060000  1.0 0.6563329795
N  N63  1  0.90570000  0.25180000  0.31660000  1.0 0.6248370507
N  N64  1  0.08550000  0.25570000  0.30180000  1.0 0.1306546162
N  N65  1  0.75000000  0.00000000  0.04310000  1.0 -0.1804108456
N  N66  1  0.75000000  0.00000000  0.21770000  1.0 -0.1633139046
N  N67  1  0.75000000  0.50000000  0.54310000  1.0 -0.1804108456
N  N68  1  0.75000000  0.50000000  0.71770000  1.0 -0.1633139046
N  N69  1  0.75000000  0.50000000  0.02530000  1.0 -0.1707364632
N  N70  1  0.75000000  0.50000000  0.19930000  1.0 -0.1633139046
N  N71  1  0.75000000  0.00000000  0.52530000  1.0 -0.1707364632
N  N72  1  0.75000000  0.00000000  0.69930000  1.0 -0.1633139046
O  O1  1  0.89290000  0.27840000  0.57750000  1.0 -0.3926670751
O  O2  1  0.90800000  0.25290000  0.51490000  1.0 -0.3802853911
O  O3  1  0.80380000  0.21740000  0.55630000  1.0 -0.4557846984
O  O4  1  0.64600000  0.27090000  0.68190000  1.0 -0.0040441493
O  O5  1  0.43250000  0.29290000  0.67050000  1.0 -0.3419760069
O  O6  1  0.32690000  0.24710000  0.70100000  1.0 -0.3961717984
O  O7  1  0.45990000  0.21220000  0.67980000  1.0 -0.3203877075
O  O8  1  0.59910000  0.28880000  0.67230000  1.0 -0.1047842181
O  O9  1  0.50940000  0.25350000  0.71670000  1.0 -0.1199943944
O  O10  1  0.65040000  0.22500000  0.70520000  1.0 -0.2353743216
O  O11  1  0.60710000  0.72160000  0.57750000  1.0 -0.3926670751
O  O12  1  0.59200000  0.74710000  0.51490000  1.0 -0.3802853911
O  O13  1  0.69620000  0.78260000  0.55630000  1.0 -0.4557846984
O  O14  1  0.85400000  0.72910000  0.68190000  1.0 -0.0051332845
O  O15  1  0.06750000  0.70710000  0.67050000  1.0 -0.3419760069
O  O16  1  0.17310000  0.75290000  0.70100000  1.0 -0.3961717984
O  O17  1  0.04010000  0.78780000  0.67980000  1.0 -0.3203877075
O  O18  1  0.90090000  0.71120000  0.67230000  1.0 -0.1050968072
O  O19  1  0.99060000  0.74650000  0.71670000  1.0 -0.1308234102
O  O20  1  0.84960000  0.77500000  0.70520000  1.0 -0.2353743216
O  O21  1  0.60710000  0.77840000  0.07750000  1.0 -0.3926670751
O  O22  1  0.59200000  0.75290000  0.01490000  1.0 -0.3802853911
O  O23  1  0.69620000  0.71740000  0.05630000  1.0 -0.4557846984
O  O24  1  0.85400000  0.77090000  0.18190000  1.0 -0.0040441493
O  O25  1  0.06750000  0.79290000  0.17050000  1.0 -0.3419760069
O  O26  1  0.17310000  0.74710000  0.20100000  1.0 -0.3961717984
O  O27  1  0.04010000  0.71220000  0.17980000  1.0 -0.3203877075
O  O28  1  0.90090000  0.78880000  0.17230000  1.0 -0.1050968072
O  O29  1  0.99060000  0.75350000  0.21670000  1.0 -0.1308234102
O  O30  1  0.84960000  0.72500000  0.20520000  1.0 -0.2353743216
O  O31  1  0.89290000  0.22160000  0.07750000  1.0 -0.3926670751
O  O32  1  0.90800000  0.24710000  0.01490000  1.0 -0.3802853911
O  O33  1  0.80380000  0.28260000  0.05630000  1.0 -0.4557846984
O  O34  1  0.64600000  0.22910000  0.18190000  1.0 -0.0040441493
O  O35  1  0.43250000  0.20710000  0.17050000  1.0 -0.3419760069
O  O36  1  0.32690000  0.25290000  0.20100000  1.0 -0.3961717984
O  O37  1  0.45990000  0.28780000  0.17980000  1.0 -0.3203877075
O  O38  1  0.59910000  0.21120000  0.17230000  1.0 -0.1047842181
O  O39  1  0.50940000  0.24650000  0.21670000  1.0 -0.1199943944
O  O40  1  0.65040000  0.27500000  0.20520000  1.0 -0.2353743216
O  O41  1  0.39290000  0.22160000  0.92250000  1.0 -0.3926670751
O  O42  1  0.40800000  0.24710000  0.98510000  1.0 -0.3802853911
O  O43  1  0.30380000  0.28260000  0.94370000  1.0 -0.4557846984
O  O44  1  0.14600000  0.22910000  0.81810000  1.0 -0.0051332845
O  O45  1  0.93250000  0.20710000  0.82950000  1.0 -0.3419760069
O  O46  1  0.82690000  0.25290000  0.79900000  1.0 -0.3961717984
O  O47  1  0.95990000  0.28780000  0.82020000  1.0 -0.3203877075
O  O48  1  0.09910000  0.21120000  0.82770000  1.0 -0.1047842181
O  O49  1  0.00940000  0.24650000  0.78330000  1.0 -0.1199943944
O  O50  1  0.15040000  0.27500000  0.79480000  1.0 -0.2353743216
O  O51  1  0.10710000  0.77840000  0.92250000  1.0 -0.3926670751
O  O52  1  0.09200000  0.75290000  0.98510000  1.0 -0.3802853911
O  O53  1  0.19620000  0.71740000  0.94370000  1.0 -0.4557846984
O  O54  1  0.35400000  0.77090000  0.81810000  1.0 -0.0051332845
O  O55  1  0.56750000  0.79290000  0.82950000  1.0 -0.3419760069
O  O56  1  0.67310000  0.74710000  0.79900000  1.0 -0.3961717984
O  O57  1  0.54010000  0.71220000  0.82020000  1.0 -0.3203877075
O  O58  1  0.40090000  0.78880000  0.82770000  1.0 -0.1047842181
O  O59  1  0.49060000  0.75350000  0.78330000  1.0 -0.1199943944
O  O60  1  0.34960000  0.72500000  0.79480000  1.0 -0.2353743216
O  O61  1  0.10710000  0.72160000  0.42250000  1.0 -0.3926670751
O  O62  1  0.09200000  0.74710000  0.48510000  1.0 -0.3802853911
O  O63  1  0.19620000  0.78260000  0.44370000  1.0 -0.4557846984
O  O64  1  0.35400000  0.72910000  0.31810000  1.0 -0.0040441493
O  O65  1  0.56750000  0.70710000  0.32950000  1.0 -0.3419760069
O  O66  1  0.67310000  0.75290000  0.29900000  1.0 -0.3961717984
O  O67  1  0.54010000  0.78780000  0.32020000  1.0 -0.3203877075
O  O68  1  0.40090000  0.71120000  0.32770000  1.0 -0.1050968072
O  O69  1  0.49060000  0.74650000  0.28330000  1.0 -0.1308234102
O  O70  1  0.34960000  0.77500000  0.29480000  1.0 -0.2353743216
O  O71  1  0.39290000  0.27840000  0.42250000  1.0 -0.3926670751
O  O72  1  0.40800000  0.25290000  0.48510000  1.0 -0.3802853911
O  O73  1  0.30380000  0.21740000  0.44370000  1.0 -0.4557846984
O  O74  1  0.14600000  0.27090000  0.31810000  1.0 -0.0040441493
O  O75  1  0.93250000  0.29290000  0.32950000  1.0 -0.3419760069
O  O76  1  0.82690000  0.24710000  0.29900000  1.0 -0.3961717984
O  O77  1  0.95990000  0.21220000  0.32020000  1.0 -0.3203877075
O  O78  1  0.09910000  0.28880000  0.32770000  1.0 -0.1047842181
O  O79  1  0.00940000  0.25350000  0.28330000  1.0 -0.1199943944
O  O80  1  0.15040000  0.22500000  0.29480000  1.0 -0.2353743216
