# DDEC6 charges by PACMAN v1.1 (https://github.com/mtap-research/PACMAN-charge/)
data_UVANOW_ion_pacman
_symmetry_space_group_name_H-M   'P 1'
_cell_length_a   20.33500000
_cell_length_b   18.87400000
_cell_length_c   33.46300000
_cell_angle_alpha   90.00000000
_cell_angle_beta   92.33300000
_cell_angle_gamma   90.00000000
_symmetry_Int_Tables_number   1
_chemical_formula_structural   Ag4Sb5H122C124N18O17F30
_chemical_formula_sum   'Ag16 Sb20 H488 C496 N72 O68 F120'
_cell_volume   12832.54723363
_cell_formula_units_Z   4
loop_
 _symmetry_equiv_pos_site_id
 _symmetry_equiv_pos_as_xyz
  1  'x, y, z'
loop_
 _atom_site_type_symbol
 _atom_site_label
 _atom_site_symmetry_multiplicity
 _atom_site_fract_x
 _atom_site_fract_y
 _atom_site_fract_z
 _atom_site_occupancy
 _atom_site_charge
Ag  Ag1  1  0.77472000  0.12078000  0.92592000  1.0 0.5685546351
Ag  Ag2  1  0.72528000  0.62078000  0.07408000  1.0 0.5685546351
Ag  Ag3  1  0.22528000  0.87922000  0.07408000  1.0 0.5685546351
Ag  Ag4  1  0.27472000  0.37922000  0.92592000  1.0 0.5685546351
Ag  Ag5  1  0.24460000  0.36690000  0.40420000  1.0 0.5454401922
Ag  Ag6  1  0.25540000  0.86690000  0.59580000  1.0 0.5454401922
Ag  Ag7  1  0.75540000  0.63310000  0.59580000  1.0 0.5454401922
Ag  Ag8  1  0.74460000  0.13310000  0.40420000  1.0 0.5454401922
Ag  Ag9  1  0.51773000  0.13491000  0.18042000  1.0 0.5009030802
Ag  Ag10  1  0.98227000  0.63491000  0.81958000  1.0 0.5009030802
Ag  Ag11  1  0.48227000  0.86509000  0.81958000  1.0 0.5009030802
Ag  Ag12  1  0.01773000  0.36509000  0.18042000  1.0 0.5009030802
Ag  Ag13  1  0.46172000  0.82868000  0.33708000  1.0 0.5009030802
Ag  Ag14  1  0.03828000  0.32868000  0.66292000  1.0 0.5009030802
Ag  Ag15  1  0.53828000  0.17132000  0.66292000  1.0 0.5009030802
Ag  Ag16  1  0.96172000  0.67132000  0.33708000  1.0 0.5009030802
Sb  Sb1  1  0.76211000  0.26509000  0.04906000  1.0 1.8617165935
Sb  Sb2  1  0.73789000  0.76509000  0.95094000  1.0 1.8617165935
Sb  Sb3  1  0.23789000  0.73491000  0.95094000  1.0 1.8617165935
Sb  Sb4  1  0.26211000  0.23491000  0.04906000  1.0 1.8617165935
Sb  Sb5  1  0.23050000  0.78850000  0.42903000  1.0 0.8885964108
Sb  Sb6  1  0.26950000  0.28850000  0.57097000  1.0 0.8885964108
Sb  Sb7  1  0.76950000  0.21150000  0.57097000  1.0 0.8885964108
Sb  Sb8  1  0.73050000  0.71150000  0.42903000  1.0 0.8885964108
Sb  Sb9  1  0.24957000  0.76464000  0.44541000  1.0 0.8182719601
Sb  Sb10  1  0.25043000  0.26464000  0.55459000  1.0 0.8182719601
Sb  Sb11  1  0.75043000  0.23536000  0.55459000  1.0 0.8145327819
Sb  Sb12  1  0.74957000  0.73536000  0.44541000  1.0 0.8182719601
Sb  Sb13  1  0.24349000  0.58588000  0.23636000  1.0 1.8458544863
Sb  Sb14  1  0.25651000  0.08588000  0.76364000  1.0 1.8398776106
Sb  Sb15  1  0.75651000  0.41412000  0.76364000  1.0 1.8398776106
Sb  Sb16  1  0.74349000  0.91412000  0.23636000  1.0 1.8398776106
Sb  Sb17  1  0.00000000  0.50000000  0.00000000  1.0 1.9306149733
Sb  Sb18  1  0.50000000  0.00000000  0.00000000  1.0 1.9306149733
Sb  Sb19  1  0.00000000  0.50000000  0.50000000  1.0 1.9306149733
Sb  Sb20  1  0.50000000  0.00000000  0.50000000  1.0 1.9306149733
H  H1  1  0.53940000  0.84410000  0.08040000  1.0 0.1616528639
H  H2  1  0.96060000  0.34410000  0.91960000  1.0 0.1616528639
H  H3  1  0.46060000  0.15590000  0.91960000  1.0 0.1616528639
H  H4  1  0.03940000  0.65590000  0.08040000  1.0 0.1616528639
H  H5  1  0.50590000  0.65900000  0.13930000  1.0 0.1713530187
H  H6  1  0.99410000  0.15900000  0.86070000  1.0 0.1713530187
H  H7  1  0.49410000  0.34100000  0.86070000  1.0 0.1713530187
H  H8  1  0.00590000  0.84100000  0.13930000  1.0 0.1713530187
H  H9  1  0.63490000  0.80370000  0.18690000  1.0 0.1616528639
H  H10  1  0.86510000  0.30370000  0.81310000  1.0 0.1616528639
H  H11  1  0.36510000  0.19630000  0.81310000  1.0 0.1616528639
H  H12  1  0.13490000  0.69630000  0.18690000  1.0 0.1616528639
H  H13  1  0.74050000  0.88130000  0.02540000  1.0 0.1313418054
H  H14  1  0.75950000  0.38130000  0.97460000  1.0 0.1313418054
H  H15  1  0.25950000  0.11870000  0.97460000  1.0 0.1313418054
H  H16  1  0.24050000  0.61870000  0.02540000  1.0 0.1313418054
H  H17  1  0.68150000  0.07660000  0.06130000  1.0 0.1412191811
H  H18  1  0.81850000  0.57660000  0.93870000  1.0 0.1412191811
H  H19  1  0.31850000  0.92340000  0.93870000  1.0 0.1412191811
H  H20  1  0.18150000  0.42340000  0.06130000  1.0 0.1412191811
H  H21  1  0.57470000  0.71520000  0.96440000  1.0 0.1412191811
H  H22  1  0.92530000  0.21520000  0.03560000  1.0 0.1412191811
H  H23  1  0.42530000  0.28480000  0.03560000  1.0 0.1412191811
H  H24  1  0.07470000  0.78480000  0.96440000  1.0 0.1412191811
H  H25  1  0.40630000  0.83110000  0.96460000  1.0 0.1412191811
H  H26  1  0.09370000  0.33110000  0.03540000  1.0 0.1412191811
H  H27  1  0.59370000  0.16890000  0.03540000  1.0 0.1412191811
H  H28  1  0.90630000  0.66890000  0.96460000  1.0 0.1412191811
H  H29  1  0.79040000  0.64590000  0.22530000  1.0 0.1190104845
H  H30  1  0.70960000  0.14590000  0.77470000  1.0 0.1190104845
H  H31  1  0.20960000  0.35410000  0.77470000  1.0 0.1190104845
H  H32  1  0.29040000  0.85410000  0.22530000  1.0 0.1190104845
H  H33  1  0.69020000  0.74160000  0.31220000  1.0 0.1313418054
H  H34  1  0.80980000  0.24160000  0.68780000  1.0 0.1313418054
H  H35  1  0.30980000  0.25840000  0.68780000  1.0 0.1313418054
H  H36  1  0.19020000  0.75840000  0.31220000  1.0 0.1313418054
H  H37  1  0.31520000  0.16670000  0.31030000  1.0 0.187152381
H  H38  1  0.18480000  0.66666667  0.68970000  1.0 0.187152381
H  H39  1  0.68480000  0.83330000  0.68970000  1.0 0.187152381
H  H40  1  0.81520000  0.33333333  0.31030000  1.0 0.187152381
H  H41  1  0.42010000  0.15150000  0.41540000  1.0 0.1713530187
H  H42  1  0.07990000  0.65150000  0.58460000  1.0 0.1713530187
H  H43  1  0.57990000  0.84850000  0.58460000  1.0 0.1713530187
H  H44  1  0.92010000  0.34850000  0.41540000  1.0 0.1713530187
H  H45  1  0.45890000  0.30870000  0.33690000  1.0 0.1616528639
H  H46  1  0.04110000  0.80870000  0.66310000  1.0 0.1616528639
H  H47  1  0.54110000  0.69130000  0.66310000  1.0 0.1616528639
H  H48  1  0.95890000  0.19130000  0.33690000  1.0 0.1616528639
H  H49  1  0.50010000  0.41770000  0.21680000  1.0 0.1313418054
H  H50  1  0.99990000  0.91770000  0.78320000  1.0 0.1313418054
H  H51  1  0.49990000  0.58230000  0.78320000  1.0 0.1313418054
H  H52  1  0.00010000  0.08230000  0.21680000  1.0 0.1313418054
H  H53  1  0.37100000  0.50310000  0.29270000  1.0 0.1190104845
H  H54  1  0.12900000  0.00310000  0.70730000  1.0 0.1190104845
H  H55  1  0.62900000  0.49690000  0.70730000  1.0 0.1190104845
H  H56  1  0.87100000  0.99690000  0.29270000  1.0 0.1190104845
H  H57  1  0.32800000  0.92490000  0.46260000  1.0 0.1116579907
H  H58  1  0.17200000  0.42490000  0.53740000  1.0 0.1116579907
H  H59  1  0.67200000  0.07510000  0.53740000  1.0 0.1116579907
H  H60  1  0.82800000  0.57510000  0.46260000  1.0 0.1116579907
H  H61  1  0.25420000  0.11570000  0.49300000  1.0 0.1313418054
H  H62  1  0.24580000  0.61570000  0.50700000  1.0 0.1313418054
H  H63  1  0.74580000  0.88430000  0.50700000  1.0 0.1313418054
H  H64  1  0.75420000  0.38430000  0.49300000  1.0 0.1313418054
H  H65  1  0.42030000  0.30050000  0.52310000  1.0 0.1190104845
H  H66  1  0.07970000  0.80050000  0.47690000  1.0 0.1190104845
H  H67  1  0.57970000  0.69950000  0.47690000  1.0 0.1190104845
H  H68  1  0.92030000  0.19950000  0.52310000  1.0 0.1190104845
H  H69  1  0.58900000  0.18550000  0.51660000  1.0 0.1313418054
H  H70  1  0.91100000  0.68550000  0.48340000  1.0 0.1313418054
H  H71  1  0.41100000  0.81450000  0.48340000  1.0 0.1313418054
H  H72  1  0.08900000  0.31450000  0.51660000  1.0 0.1313418054
H  H73  1  0.43460000  0.96430000  0.14420000  1.0 0.0889553926
H  H74  1  0.06540000  0.46430000  0.85580000  1.0 0.0889553926
H  H75  1  0.56540000  0.03570000  0.85580000  1.0 0.0889553926
H  H76  1  0.93460000  0.53570000  0.14420000  1.0 0.0889553926
H  H77  1  0.46670000  0.02210000  0.11540000  1.0 0.0889553926
H  H78  1  0.03330000  0.52210000  0.88460000  1.0 0.0889553926
H  H79  1  0.53330000  0.97790000  0.88460000  1.0 0.0889553926
H  H80  1  0.96670000  0.47790000  0.11540000  1.0 0.0889553926
H  H81  1  0.35270000  0.96620000  0.09720000  1.0 0.098920298
H  H82  1  0.14730000  0.46620000  0.90280000  1.0 0.098920298
H  H83  1  0.64730000  0.03380000  0.90280000  1.0 0.098920298
H  H84  1  0.85270000  0.53380000  0.09720000  1.0 0.098920298
H  H85  1  0.37030000  0.04540000  0.08320000  1.0 0.1190104845
H  H86  1  0.12970000  0.54540000  0.91680000  1.0 0.1190104845
H  H87  1  0.62970000  0.95460000  0.91680000  1.0 0.1190104845
H  H88  1  0.87030000  0.45460000  0.08320000  1.0 0.1190104845
H  H89  1  0.29990000  0.00700000  0.15270000  1.0 0.098920298
H  H90  1  0.20010000  0.50700000  0.84730000  1.0 0.098920298
H  H91  1  0.70010000  0.99300000  0.84730000  1.0 0.098920298
H  H92  1  0.79990000  0.49300000  0.15270000  1.0 0.098920298
H  H93  1  0.27830000  0.06560000  0.11950000  1.0 0.1116579907
H  H94  1  0.22170000  0.56560000  0.88050000  1.0 0.1116579907
H  H95  1  0.72170000  0.93440000  0.88050000  1.0 0.1116579907
H  H96  1  0.77830000  0.43440000  0.11950000  1.0 0.1116579907
H  H97  1  0.36250000  0.14140000  0.13960000  1.0 0.098920298
H  H98  1  0.13750000  0.64140000  0.86040000  1.0 0.098920298
H  H99  1  0.63750000  0.85860000  0.86040000  1.0 0.098920298
H  H100  1  0.86250000  0.35860000  0.13960000  1.0 0.098920298
H  H101  1  0.33980000  0.11100000  0.18180000  1.0 0.0705172455
H  H102  1  0.16020000  0.61100000  0.81820000  1.0 0.0705172455
H  H103  1  0.66020000  0.88900000  0.81820000  1.0 0.0705172455
H  H104  1  0.83980000  0.38900000  0.18180000  1.0 0.0705172455
H  H105  1  0.58440000  0.01440000  0.27830000  1.0 0.098920298
H  H106  1  0.91560000  0.51440000  0.72170000  1.0 0.098920298
H  H107  1  0.41560000  0.98560000  0.72170000  1.0 0.098920298
H  H108  1  0.08440000  0.48560000  0.27830000  1.0 0.098920298
H  H109  1  0.59990000  0.02230000  0.23170000  1.0 0.0889553926
H  H110  1  0.90010000  0.52230000  0.76830000  1.0 0.0889553926
H  H111  1  0.40010000  0.97770000  0.76830000  1.0 0.0889553926
H  H112  1  0.09990000  0.47770000  0.23170000  1.0 0.0889553926
H  H113  1  0.53360000  0.91430000  0.25360000  1.0 0.1116579907
H  H114  1  0.96640000  0.41430000  0.74640000  1.0 0.1116579907
H  H115  1  0.46640000  0.08570000  0.74640000  1.0 0.1116579907
H  H116  1  0.03360000  0.58570000  0.25360000  1.0 0.1116579907
H  H117  1  0.51260000  0.95190000  0.21170000  1.0 0.1116579907
H  H118  1  0.98740000  0.45190000  0.78830000  1.0 0.1116579907
H  H119  1  0.48740000  0.04810000  0.78830000  1.0 0.1116579907
H  H120  1  0.01260000  0.54810000  0.21170000  1.0 0.1116579907
H  H121  1  0.44470000  0.95710000  0.28350000  1.0 0.098920298
H  H122  1  0.05530000  0.45710000  0.71650000  1.0 0.098920298
H  H123  1  0.55530000  0.04290000  0.71650000  1.0 0.098920298
H  H124  1  0.94470000  0.54290000  0.28350000  1.0 0.098920298
H  H125  1  0.41560000  0.97480000  0.23900000  1.0 0.098920298
H  H126  1  0.08440000  0.47480000  0.76100000  1.0 0.098920298
H  H127  1  0.58440000  0.02520000  0.76100000  1.0 0.098920298
H  H128  1  0.91560000  0.52520000  0.23900000  1.0 0.098920298
H  H129  1  0.42780000  0.09000000  0.25380000  1.0 0.0889553926
H  H130  1  0.07220000  0.59000000  0.74620000  1.0 0.0889553926
H  H131  1  0.57220000  0.91000000  0.74620000  1.0 0.0889553926
H  H132  1  0.92780000  0.41000000  0.25380000  1.0 0.0889553926
H  H133  1  0.46690000  0.07160000  0.29520000  1.0 0.0889553926
H  H134  1  0.03310000  0.57160000  0.70480000  1.0 0.0889553926
H  H135  1  0.53310000  0.92840000  0.70480000  1.0 0.0889553926
H  H136  1  0.96690000  0.42840000  0.29520000  1.0 0.0889553926
H  H137  1  0.53080000  0.96470000  0.39200000  1.0 0.098920298
H  H138  1  0.96920000  0.46470000  0.60800000  1.0 0.098920298
H  H139  1  0.46920000  0.03530000  0.60800000  1.0 0.098920298
H  H140  1  0.03080000  0.53530000  0.39200000  1.0 0.098920298
H  H141  1  0.52850000  0.01040000  0.35130000  1.0 0.0889553926
H  H142  1  0.97150000  0.51040000  0.64870000  1.0 0.0889553926
H  H143  1  0.47150000  0.98960000  0.64870000  1.0 0.0889553926
H  H144  1  0.02850000  0.48960000  0.35130000  1.0 0.0889553926
H  H145  1  0.63980000  0.02570000  0.35310000  1.0 0.098920298
H  H146  1  0.86020000  0.52570000  0.64690000  1.0 0.098920298
H  H147  1  0.36020000  0.97430000  0.64690000  1.0 0.098920298
H  H148  1  0.13980000  0.47430000  0.35310000  1.0 0.098920298
H  H149  1  0.63040000  0.01880000  0.40050000  1.0 0.1116579907
H  H150  1  0.86960000  0.51880000  0.59950000  1.0 0.1116579907
H  H151  1  0.36960000  0.98120000  0.59950000  1.0 0.1116579907
H  H152  1  0.13040000  0.48120000  0.40050000  1.0 0.1116579907
H  H153  1  0.66250000  0.90920000  0.40230000  1.0 0.1190104845
H  H154  1  0.83750000  0.40920000  0.59770000  1.0 0.1190104845
H  H155  1  0.33750000  0.09080000  0.59770000  1.0 0.1190104845
H  H156  1  0.16250000  0.59080000  0.40230000  1.0 0.1190104845
H  H157  1  0.70310000  0.93450000  0.36460000  1.0 0.1190104845
H  H158  1  0.79690000  0.43450000  0.63540000  1.0 0.1190104845
H  H159  1  0.29690000  0.06550000  0.63540000  1.0 0.1190104845
H  H160  1  0.20310000  0.56550000  0.36460000  1.0 0.1190104845
H  H161  1  0.63940000  0.87450000  0.32210000  1.0 0.098920298
H  H162  1  0.86060000  0.37450000  0.67790000  1.0 0.098920298
H  H163  1  0.36060000  0.12550000  0.67790000  1.0 0.098920298
H  H164  1  0.13940000  0.62550000  0.32210000  1.0 0.098920298
H  H165  1  0.61660000  0.83180000  0.36080000  1.0 0.0889553926
H  H166  1  0.88340000  0.33180000  0.63920000  1.0 0.0889553926
H  H167  1  0.38340000  0.16820000  0.63920000  1.0 0.0889553926
H  H168  1  0.11660000  0.66820000  0.36080000  1.0 0.0889553926
H  H169  1  0.81240000  0.51390000  0.30460000  1.0 0.1313418054
H  H170  1  0.68760000  0.01390000  0.69540000  1.0 0.1313418054
H  H171  1  0.18760000  0.48610000  0.69540000  1.0 0.1313418054
H  H172  1  0.31240000  0.98610000  0.30460000  1.0 0.1313418054
H  H173  1  0.80520000  0.46990000  0.23910000  1.0 0.0889553926
H  H174  1  0.69480000  0.96990000  0.76090000  1.0 0.0889553926
H  H175  1  0.19480000  0.53010000  0.76090000  1.0 0.0889553926
H  H176  1  0.30520000  0.03010000  0.23910000  1.0 0.0889553926
H  H177  1  0.70470000  0.45660000  0.20370000  1.0 0.1190104845
H  H178  1  0.79530000  0.95660000  0.79630000  1.0 0.1190104845
H  H179  1  0.29530000  0.54340000  0.79630000  1.0 0.1190104845
H  H180  1  0.20470000  0.04340000  0.20370000  1.0 0.1190104845
H  H181  1  0.60980000  0.50450000  0.23200000  1.0 0.1313418054
H  H182  1  0.89020000  0.00450000  0.76800000  1.0 0.1313418054
H  H183  1  0.39020000  0.49550000  0.76800000  1.0 0.1313418054
H  H184  1  0.10980000  0.99550000  0.23200000  1.0 0.1313418054
H  H185  1  0.61630000  0.54840000  0.29470000  1.0 0.0384843106
H  H186  1  0.88370000  0.04840000  0.70530000  1.0 0.0384843106
H  H187  1  0.38370000  0.45160000  0.70530000  1.0 0.0384843106
H  H188  1  0.11630000  0.95160000  0.29470000  1.0 0.0384843106
H  H189  1  0.73800000  0.60910000  0.34840000  1.0 0.1190104845
H  H190  1  0.76200000  0.10910000  0.65160000  1.0 0.1190104845
H  H191  1  0.26200000  0.39090000  0.65160000  1.0 0.1190104845
H  H192  1  0.23800000  0.89090000  0.34840000  1.0 0.1190104845
H  H193  1  0.72900000  0.53150000  0.36670000  1.0 0.098920298
H  H194  1  0.77100000  0.03150000  0.63330000  1.0 0.098920298
H  H195  1  0.27100000  0.46850000  0.63330000  1.0 0.098920298
H  H196  1  0.22900000  0.96850000  0.36670000  1.0 0.098920298
H  H197  1  0.66590000  0.57640000  0.35170000  1.0 0.0795042237
H  H198  1  0.83410000  0.07640000  0.64830000  1.0 0.0795042237
H  H199  1  0.33410000  0.42360000  0.64830000  1.0 0.0795042237
H  H200  1  0.16590000  0.92360000  0.35170000  1.0 0.0795042237
H  H201  1  0.38800000  0.49950000  0.40230000  1.0 0.0795042237
H  H202  1  0.11200000  0.99950000  0.59770000  1.0 0.0795042237
H  H203  1  0.61200000  0.50050000  0.59770000  1.0 0.0795042237
H  H204  1  0.88800000  0.00050000  0.40230000  1.0 0.0795042237
H  H205  1  0.46070000  0.49680000  0.42280000  1.0 0.0615158309
H  H206  1  0.03930000  0.99680000  0.57720000  1.0 0.0615158309
H  H207  1  0.53930000  0.50320000  0.57720000  1.0 0.0615158309
H  H208  1  0.96070000  0.00320000  0.42280000  1.0 0.0615158309
H  H209  1  0.43290000  0.50230000  0.34400000  1.0 0.0500655032
H  H210  1  0.06710000  0.00230000  0.65600000  1.0 0.0500655032
H  H211  1  0.56710000  0.49770000  0.65600000  1.0 0.0500655032
H  H212  1  0.93290000  0.99770000  0.34400000  1.0 0.0500655032
H  H213  1  0.50530000  0.51160000  0.36490000  1.0 0.0705172455
H  H214  1  0.99470000  0.01160000  0.63510000  1.0 0.0705172455
H  H215  1  0.49470000  0.48840000  0.63510000  1.0 0.0705172455
H  H216  1  0.00530000  0.98840000  0.36490000  1.0 0.0705172455
H  H217  1  0.50110000  0.63010000  0.35910000  1.0 0.0889553926
H  H218  1  0.99890000  0.13010000  0.64090000  1.0 0.0889553926
H  H219  1  0.49890000  0.36990000  0.64090000  1.0 0.0889553926
H  H220  1  0.00110000  0.86990000  0.35910000  1.0 0.0889553926
H  H221  1  0.43950000  0.61780000  0.32810000  1.0 0.0705172455
H  H222  1  0.06050000  0.11780000  0.67190000  1.0 0.0705172455
H  H223  1  0.56050000  0.38220000  0.67190000  1.0 0.0705172455
H  H224  1  0.93950000  0.88220000  0.32810000  1.0 0.0705172455
H  H225  1  0.42310000  0.68830000  0.39160000  1.0 0.0705172455
H  H226  1  0.07690000  0.18830000  0.60840000  1.0 0.0705172455
H  H227  1  0.57690000  0.31170000  0.60840000  1.0 0.0705172455
H  H228  1  0.92310000  0.81170000  0.39160000  1.0 0.0705172455
H  H229  1  0.36550000  0.63610000  0.37510000  1.0 0.0795042237
H  H230  1  0.13450000  0.13610000  0.62490000  1.0 0.0795042237
H  H231  1  0.63450000  0.36390000  0.62490000  1.0 0.0795042237
H  H232  1  0.86550000  0.86390000  0.37510000  1.0 0.0795042237
H  H233  1  0.70590000  0.15570000  0.24940000  1.0 0.0500655032
H  H234  1  0.79410000  0.65570000  0.75060000  1.0 0.0500655032
H  H235  1  0.29410000  0.84430000  0.75060000  1.0 0.0500655032
H  H236  1  0.20590000  0.34430000  0.24940000  1.0 0.0500655032
H  H237  1  0.69360000  0.10760000  0.21030000  1.0 0.0795042237
H  H238  1  0.80640000  0.60760000  0.78970000  1.0 0.0795042237
H  H239  1  0.30640000  0.89240000  0.78970000  1.0 0.0795042237
H  H240  1  0.19360000  0.39240000  0.21030000  1.0 0.0795042237
H  H241  1  0.64530000  0.23480000  0.21700000  1.0 0.0795042237
H  H242  1  0.85470000  0.73480000  0.78300000  1.0 0.0795042237
H  H243  1  0.35470000  0.76520000  0.78300000  1.0 0.0795042237
H  H244  1  0.14530000  0.26520000  0.21700000  1.0 0.0795042237
H  H245  1  0.65630000  0.19780000  0.17430000  1.0 0.0795042237
H  H246  1  0.84370000  0.69780000  0.82570000  1.0 0.0795042237
H  H247  1  0.34370000  0.80220000  0.82570000  1.0 0.0795042237
H  H248  1  0.15630000  0.30220000  0.17430000  1.0 0.0795042237
H  H249  1  0.72810000  0.29000000  0.16730000  1.0 0.0889553926
H  H250  1  0.77190000  0.79000000  0.83270000  1.0 0.0889553926
H  H251  1  0.27190000  0.71000000  0.83270000  1.0 0.0889553926
H  H252  1  0.22810000  0.21000000  0.16730000  1.0 0.0889553926
H  H253  1  0.74080000  0.29840000  0.21480000  1.0 0.0705172455
H  H254  1  0.75920000  0.79840000  0.78520000  1.0 0.0705172455
H  H255  1  0.25920000  0.70160000  0.78520000  1.0 0.0705172455
H  H256  1  0.24080000  0.20160000  0.21480000  1.0 0.0705172455
H  H257  1  0.80290000  0.20570000  0.16290000  1.0 0.0795042237
H  H258  1  0.69710000  0.70570000  0.83710000  1.0 0.0795042237
H  H259  1  0.19710000  0.79430000  0.83710000  1.0 0.0795042237
H  H260  1  0.30290000  0.29430000  0.16290000  1.0 0.0795042237
H  H261  1  0.83340000  0.24220000  0.20280000  1.0 0.0705172455
H  H262  1  0.66666667  0.74220000  0.79720000  1.0 0.0705172455
H  H263  1  0.16660000  0.75780000  0.79720000  1.0 0.0705172455
H  H264  1  0.33340000  0.25780000  0.20280000  1.0 0.0705172455
H  H265  1  0.41080000  0.83680000  0.13550000  1.0 0.0795042237
H  H266  1  0.08920000  0.33680000  0.86450000  1.0 0.0795042237
H  H267  1  0.58920000  0.16320000  0.86450000  1.0 0.0795042237
H  H268  1  0.91080000  0.66320000  0.13550000  1.0 0.0795042237
H  H269  1  0.33333333  0.85200000  0.13860000  1.0 0.0795042237
H  H270  1  0.16667000  0.35200000  0.86140000  1.0 0.0795042237
H  H271  1  0.66666667  0.14800000  0.86140000  1.0 0.0795042237
H  H272  1  0.83333000  0.64800000  0.13860000  1.0 0.0795042237
H  H273  1  0.38030000  0.72390000  0.13900000  1.0 0.098920298
H  H274  1  0.11970000  0.22390000  0.86100000  1.0 0.098920298
H  H275  1  0.61970000  0.27610000  0.86100000  1.0 0.098920298
H  H276  1  0.88030000  0.77610000  0.13900000  1.0 0.098920298
H  H277  1  0.31310000  0.74310000  0.16040000  1.0 0.1190104845
H  H278  1  0.18690000  0.24310000  0.83960000  1.0 0.1190104845
H  H279  1  0.68690000  0.25690000  0.83960000  1.0 0.1190104845
H  H280  1  0.81310000  0.75690000  0.16040000  1.0 0.1190104845
H  H281  1  0.36270000  0.72550000  0.22060000  1.0 0.1116579907
H  H282  1  0.13730000  0.22550000  0.77940000  1.0 0.1116579907
H  H283  1  0.63730000  0.27450000  0.77940000  1.0 0.1116579907
H  H284  1  0.86270000  0.77450000  0.22060000  1.0 0.1116579907
H  H285  1  0.42890000  0.70300000  0.19900000  1.0 0.1116579907
H  H286  1  0.07110000  0.20300000  0.80100000  1.0 0.1116579907
H  H287  1  0.57110000  0.29700000  0.80100000  1.0 0.1116579907
H  H288  1  0.92890000  0.79700000  0.19900000  1.0 0.1116579907
H  H289  1  0.42460000  0.81790000  0.24120000  1.0 0.098920298
H  H290  1  0.07540000  0.31790000  0.75880000  1.0 0.098920298
H  H291  1  0.57540000  0.18210000  0.75880000  1.0 0.098920298
H  H292  1  0.92460000  0.68210000  0.24120000  1.0 0.098920298
H  H293  1  0.47140000  0.81260000  0.20360000  1.0 0.0889553926
H  H294  1  0.02860000  0.31260000  0.79640000  1.0 0.0889553926
H  H295  1  0.52860000  0.18740000  0.79640000  1.0 0.0889553926
H  H296  1  0.97140000  0.68740000  0.20360000  1.0 0.0889553926
H  H297  1  0.55690000  0.32860000  0.14850000  1.0 0.098920298
H  H298  1  0.94310000  0.82860000  0.85150000  1.0 0.098920298
H  H299  1  0.44310000  0.67140000  0.85150000  1.0 0.098920298
H  H300  1  0.05690000  0.17140000  0.14850000  1.0 0.098920298
H  H301  1  0.62800000  0.36330000  0.14320000  1.0 0.098920298
H  H302  1  0.87200000  0.86330000  0.85680000  1.0 0.098920298
H  H303  1  0.37200000  0.63670000  0.85680000  1.0 0.098920298
H  H304  1  0.12800000  0.13670000  0.14320000  1.0 0.098920298
H  H305  1  0.59120000  0.36810000  0.08030000  1.0 0.1116579907
H  H306  1  0.90880000  0.86810000  0.91970000  1.0 0.1116579907
H  H307  1  0.40880000  0.63190000  0.91970000  1.0 0.1116579907
H  H308  1  0.09120000  0.13190000  0.08030000  1.0 0.1116579907
H  H309  1  0.51550000  0.37560000  0.09240000  1.0 0.098920298
H  H310  1  0.98450000  0.87560000  0.90760000  1.0 0.098920298
H  H311  1  0.48450000  0.62440000  0.90760000  1.0 0.098920298
H  H312  1  0.01550000  0.12440000  0.09240000  1.0 0.098920298
H  H313  1  0.53780000  0.48670000  0.07720000  1.0 0.098920298
H  H314  1  0.96220000  0.98670000  0.92280000  1.0 0.098920298
H  H315  1  0.46220000  0.51330000  0.92280000  1.0 0.098920298
H  H316  1  0.03780000  0.01330000  0.07720000  1.0 0.098920298
H  H317  1  0.61310000  0.48040000  0.09390000  1.0 0.1116579907
H  H318  1  0.88690000  0.98040000  0.90610000  1.0 0.1116579907
H  H319  1  0.38690000  0.51960000  0.90610000  1.0 0.1116579907
H  H320  1  0.11310000  0.01960000  0.09390000  1.0 0.1116579907
H  H321  1  0.57040000  0.53060000  0.14690000  1.0 0.0889553926
H  H322  1  0.92960000  0.03060000  0.85310000  1.0 0.0889553926
H  H323  1  0.42960000  0.46940000  0.85310000  1.0 0.0889553926
H  H324  1  0.07040000  0.96940000  0.14690000  1.0 0.0889553926
H  H325  1  0.49920000  0.49630000  0.13770000  1.0 0.0889553926
H  H326  1  0.00080000  0.99630000  0.86230000  1.0 0.0889553926
H  H327  1  0.50080000  0.50370000  0.86230000  1.0 0.0889553926
H  H328  1  0.99920000  0.00370000  0.13770000  1.0 0.0889553926
H  H329  1  0.60130000  0.20350000  0.28840000  1.0 0.0795042237
H  H330  1  0.89870000  0.70350000  0.71160000  1.0 0.0795042237
H  H331  1  0.39870000  0.79650000  0.71160000  1.0 0.0795042237
H  H332  1  0.10130000  0.29650000  0.28840000  1.0 0.0795042237
H  H333  1  0.58510000  0.21720000  0.33430000  1.0 0.1313418054
H  H334  1  0.91490000  0.71720000  0.66570000  1.0 0.1313418054
H  H335  1  0.41490000  0.78280000  0.66570000  1.0 0.1313418054
H  H336  1  0.08510000  0.28280000  0.33430000  1.0 0.1313418054
H  H337  1  0.69660000  0.25990000  0.29420000  1.0 0.0705172455
H  H338  1  0.80340000  0.75990000  0.70580000  1.0 0.0705172455
H  H339  1  0.30340000  0.74010000  0.70580000  1.0 0.0705172455
H  H340  1  0.19660000  0.24010000  0.29420000  1.0 0.0705172455
H  H341  1  0.69080000  0.24260000  0.34120000  1.0 0.0889553926
H  H342  1  0.80920000  0.74260000  0.65880000  1.0 0.0889553926
H  H343  1  0.30920000  0.75740000  0.65880000  1.0 0.0889553926
H  H344  1  0.19080000  0.25740000  0.34120000  1.0 0.0889553926
H  H345  1  0.66050000  0.35420000  0.35520000  1.0 0.1190104845
H  H346  1  0.83950000  0.85420000  0.64480000  1.0 0.1190104845
H  H347  1  0.33950000  0.64580000  0.64480000  1.0 0.1190104845
H  H348  1  0.16050000  0.14580000  0.35520000  1.0 0.1190104845
H  H349  1  0.69110000  0.37430000  0.31320000  1.0 0.0889553926
H  H350  1  0.80890000  0.87430000  0.68680000  1.0 0.0889553926
H  H351  1  0.30890000  0.62570000  0.68680000  1.0 0.0889553926
H  H352  1  0.19110000  0.12570000  0.31320000  1.0 0.0889553926
H  H353  1  0.56540000  0.38640000  0.32970000  1.0 0.098920298
H  H354  1  0.93460000  0.88640000  0.67030000  1.0 0.098920298
H  H355  1  0.43460000  0.61360000  0.67030000  1.0 0.098920298
H  H356  1  0.06540000  0.11360000  0.32970000  1.0 0.098920298
H  H357  1  0.59420000  0.39310000  0.28580000  1.0 0.0615158309
H  H358  1  0.90580000  0.89310000  0.71420000  1.0 0.0615158309
H  H359  1  0.40580000  0.60690000  0.71420000  1.0 0.0615158309
H  H360  1  0.09420000  0.10690000  0.28580000  1.0 0.0615158309
H  H361  1  0.72120000  0.53930000  0.33580000  1.0 0.0500655032
H  H362  1  0.77880000  0.03930000  0.66420000  1.0 0.0500655032
H  H363  1  0.27880000  0.46070000  0.66420000  1.0 0.0500655032
H  H364  1  0.22120000  0.96070000  0.33580000  1.0 0.0500655032
H  H365  1  0.81420000  0.50940000  0.29850000  1.0 0.1313418054
H  H366  1  0.68580000  0.00940000  0.70150000  1.0 0.1313418054
H  H367  1  0.18580000  0.49060000  0.70150000  1.0 0.1313418054
H  H368  1  0.31420000  0.99060000  0.29850000  1.0 0.1313418054
H  H369  1  0.79810000  0.44390000  0.23970000  1.0 0.0795042237
H  H370  1  0.70190000  0.94390000  0.76030000  1.0 0.0795042237
H  H371  1  0.20190000  0.55610000  0.76030000  1.0 0.0795042237
H  H372  1  0.29810000  0.05610000  0.23970000  1.0 0.0795042237
H  H373  1  0.69630000  0.45430000  0.20440000  1.0 0.1190104845
H  H374  1  0.80370000  0.95430000  0.79560000  1.0 0.1190104845
H  H375  1  0.30370000  0.54570000  0.79560000  1.0 0.1190104845
H  H376  1  0.19630000  0.04570000  0.20440000  1.0 0.1190104845
H  H377  1  0.60720000  0.49230000  0.23780000  1.0 0.1313418054
H  H378  1  0.89280000  0.99230000  0.76220000  1.0 0.1313418054
H  H379  1  0.39280000  0.50770000  0.76220000  1.0 0.1313418054
H  H380  1  0.10720000  0.00770000  0.23780000  1.0 0.1313418054
H  H381  1  0.61150000  0.58450000  0.33100000  1.0 0.0705172455
H  H382  1  0.88850000  0.08450000  0.66900000  1.0 0.0705172455
H  H383  1  0.38850000  0.41550000  0.66900000  1.0 0.0705172455
H  H384  1  0.11150000  0.91550000  0.33100000  1.0 0.0705172455
H  H385  1  0.56340000  0.52750000  0.30980000  1.0 0.0705172455
H  H386  1  0.93660000  0.02750000  0.69020000  1.0 0.0705172455
H  H387  1  0.43660000  0.47250000  0.69020000  1.0 0.0705172455
H  H388  1  0.06340000  0.97250000  0.30980000  1.0 0.0705172455
H  H389  1  0.58400000  0.59700000  0.28600000  1.0 0.098920298
H  H390  1  0.91600000  0.09700000  0.71400000  1.0 0.098920298
H  H391  1  0.41600000  0.40300000  0.71400000  1.0 0.098920298
H  H392  1  0.08400000  0.90300000  0.28600000  1.0 0.098920298
H  H393  1  0.40080000  0.47020000  0.36800000  1.0 0.0615158309
H  H394  1  0.09920000  0.97020000  0.63200000  1.0 0.0615158309
H  H395  1  0.59920000  0.52980000  0.63200000  1.0 0.0615158309
H  H396  1  0.90080000  0.02980000  0.36800000  1.0 0.0615158309
H  H397  1  0.43480000  0.50760000  0.40660000  1.0 0.0795042237
H  H398  1  0.06520000  0.00760000  0.59340000  1.0 0.0795042237
H  H399  1  0.56520000  0.49240000  0.59340000  1.0 0.0795042237
H  H400  1  0.93480000  0.99240000  0.40660000  1.0 0.0795042237
H  H401  1  0.46580000  0.52540000  0.32880000  1.0 0.0705172455
H  H402  1  0.03420000  0.02540000  0.67120000  1.0 0.0705172455
H  H403  1  0.53420000  0.47460000  0.67120000  1.0 0.0705172455
H  H404  1  0.96580000  0.97460000  0.32880000  1.0 0.0705172455
H  H405  1  0.50530000  0.55530000  0.36790000  1.0 0.0795042237
H  H406  1  0.99470000  0.05530000  0.63210000  1.0 0.0795042237
H  H407  1  0.49470000  0.44470000  0.63210000  1.0 0.0795042237
H  H408  1  0.00530000  0.94470000  0.36790000  1.0 0.0795042237
H  H409  1  0.46350000  0.66160000  0.35540000  1.0 0.0705172455
H  H410  1  0.03650000  0.16160000  0.64460000  1.0 0.0705172455
H  H411  1  0.53650000  0.33840000  0.64460000  1.0 0.0705172455
H  H412  1  0.96350000  0.83840000  0.35540000  1.0 0.0705172455
H  H413  1  0.42130000  0.63080000  0.31760000  1.0 0.0889553926
H  H414  1  0.07870000  0.13080000  0.68240000  1.0 0.0889553926
H  H415  1  0.57870000  0.36920000  0.68240000  1.0 0.0889553926
H  H416  1  0.92130000  0.86920000  0.31760000  1.0 0.0889553926
H  H417  1  0.37820000  0.66240000  0.39200000  1.0 0.0615158309
H  H418  1  0.12180000  0.16240000  0.60800000  1.0 0.0615158309
H  H419  1  0.62180000  0.33760000  0.60800000  1.0 0.0615158309
H  H420  1  0.87820000  0.83760000  0.39200000  1.0 0.0615158309
H  H421  1  0.33450000  0.64660000  0.35180000  1.0 0.0705172455
H  H422  1  0.16550000  0.14660000  0.64820000  1.0 0.0705172455
H  H423  1  0.66550000  0.35340000  0.64820000  1.0 0.0705172455
H  H424  1  0.83450000  0.85340000  0.35180000  1.0 0.0705172455
H  H425  1  0.70550000  0.12410000  0.21170000  1.0 0.098920298
H  H426  1  0.79450000  0.62410000  0.78830000  1.0 0.098920298
H  H427  1  0.29450000  0.87590000  0.78830000  1.0 0.098920298
H  H428  1  0.20550000  0.37590000  0.21170000  1.0 0.098920298
H  H429  1  0.73950000  0.11960000  0.16930000  1.0 0.098920298
H  H430  1  0.76050000  0.61960000  0.83070000  1.0 0.098920298
H  H431  1  0.26050000  0.88040000  0.83070000  1.0 0.098920298
H  H432  1  0.23950000  0.38040000  0.16930000  1.0 0.098920298
H  H433  1  0.65020000  0.21890000  0.19320000  1.0 0.0795042237
H  H434  1  0.84980000  0.71890000  0.80680000  1.0 0.0795042237
H  H435  1  0.34980000  0.78110000  0.80680000  1.0 0.0795042237
H  H436  1  0.15020000  0.28110000  0.19320000  1.0 0.0795042237
H  H437  1  0.67560000  0.20660000  0.14870000  1.0 0.0795042237
H  H438  1  0.82440000  0.70660000  0.85130000  1.0 0.0795042237
H  H439  1  0.32440000  0.79340000  0.85130000  1.0 0.0795042237
H  H440  1  0.17560000  0.29340000  0.14870000  1.0 0.0795042237
H  H441  1  0.73600000  0.30610000  0.15780000  1.0 0.0889553926
H  H442  1  0.76400000  0.80610000  0.84220000  1.0 0.0889553926
H  H443  1  0.26400000  0.69390000  0.84220000  1.0 0.0889553926
H  H444  1  0.23600000  0.19390000  0.15780000  1.0 0.0889553926
H  H445  1  0.72340000  0.30710000  0.20500000  1.0 0.0705172455
H  H446  1  0.77660000  0.80710000  0.79500000  1.0 0.0705172455
H  H447  1  0.27660000  0.69290000  0.79500000  1.0 0.0705172455
H  H448  1  0.22340000  0.19290000  0.20500000  1.0 0.0705172455
H  H449  1  0.82450000  0.23670000  0.16540000  1.0 0.0500655032
H  H450  1  0.67550000  0.73670000  0.83460000  1.0 0.0500655032
H  H451  1  0.17550000  0.76330000  0.83460000  1.0 0.0500655032
H  H452  1  0.32450000  0.26330000  0.16540000  1.0 0.0500655032
H  H453  1  0.82930000  0.27520000  0.20830000  1.0 0.0615158309
H  H454  1  0.67070000  0.77520000  0.79170000  1.0 0.0615158309
H  H455  1  0.17070000  0.72480000  0.79170000  1.0 0.0615158309
H  H456  1  0.32930000  0.22480000  0.20830000  1.0 0.0615158309
H  H457  1  0.53900000  0.19010000  0.30140000  1.0 0.098920298
H  H458  1  0.96100000  0.69010000  0.69860000  1.0 0.098920298
H  H459  1  0.46100000  0.80990000  0.69860000  1.0 0.098920298
H  H460  1  0.03900000  0.30990000  0.30140000  1.0 0.098920298
H  H461  1  0.58330000  0.20860000  0.34080000  1.0 0.098920298
H  H462  1  0.91670000  0.70860000  0.65920000  1.0 0.098920298
H  H463  1  0.41670000  0.79140000  0.65920000  1.0 0.098920298
H  H464  1  0.08330000  0.29140000  0.34080000  1.0 0.098920298
H  H465  1  0.62730000  0.17010000  0.26480000  1.0 0.0615158309
H  H466  1  0.87270000  0.67010000  0.73520000  1.0 0.0615158309
H  H467  1  0.37270000  0.82990000  0.73520000  1.0 0.0615158309
H  H468  1  0.12730000  0.32990000  0.26480000  1.0 0.0615158309
H  H469  1  0.65970000  0.14970000  0.30820000  1.0 0.098920298
H  H470  1  0.84030000  0.64970000  0.69180000  1.0 0.098920298
H  H471  1  0.34030000  0.85030000  0.69180000  1.0 0.098920298
H  H472  1  0.15970000  0.35030000  0.30820000  1.0 0.098920298
H  H473  1  0.70500000  0.26180000  0.31750000  1.0 0.0889553926
H  H474  1  0.79500000  0.76180000  0.68250000  1.0 0.0889553926
H  H475  1  0.29500000  0.73820000  0.68250000  1.0 0.0889553926
H  H476  1  0.20500000  0.23820000  0.31750000  1.0 0.0889553926
H  H477  1  0.71080000  0.25460000  0.26980000  1.0 0.0705172455
H  H478  1  0.78920000  0.75460000  0.73020000  1.0 0.0705172455
H  H479  1  0.28920000  0.74540000  0.73020000  1.0 0.0705172455
H  H480  1  0.21080000  0.24540000  0.26980000  1.0 0.0705172455
H  H481  1  0.64690000  0.35770000  0.29890000  1.0 0.0615158309
H  H482  1  0.85310000  0.85770000  0.70110000  1.0 0.0615158309
H  H483  1  0.35310000  0.64230000  0.70110000  1.0 0.0615158309
H  H484  1  0.14690000  0.14230000  0.29890000  1.0 0.0615158309
H  H485  1  0.62310000  0.32330000  0.25670000  1.0 0.0615158309
H  H486  1  0.87690000  0.82330000  0.74330000  1.0 0.0615158309
H  H487  1  0.37690000  0.67670000  0.74330000  1.0 0.0615158309
H  H488  1  0.12310000  0.17670000  0.25670000  1.0 0.0615158309
C  C1  1  0.58800000  0.83280000  0.13460000  1.0 0.2802187684
C  C2  1  0.91200000  0.33280000  0.86540000  1.0 0.2802187684
C  C3  1  0.41200000  0.16720000  0.86540000  1.0 0.2802187684
C  C4  1  0.08800000  0.66720000  0.13460000  1.0 0.2802187684
C  C5  1  0.54650000  0.81460000  0.10320000  1.0 -0.3277043338
C  C6  1  0.95350000  0.31460000  0.89680000  1.0 -0.3277043338
C  C7  1  0.45350000  0.18540000  0.89680000  1.0 -0.3277043338
C  C8  1  0.04650000  0.68540000  0.10320000  1.0 -0.3277043338
C  C9  1  0.51570000  0.75020000  0.10720000  1.0 0.2715129656
C  C10  1  0.98430000  0.25020000  0.89280000  1.0 0.2715129656
C  C11  1  0.48430000  0.24980000  0.89280000  1.0 0.2715129656
C  C12  1  0.01570000  0.74980000  0.10720000  1.0 0.2715129656
C  C13  1  0.52650000  0.70410000  0.13840000  1.0 -0.3016740638
C  C14  1  0.97350000  0.20410000  0.86160000  1.0 -0.3016740638
C  C15  1  0.47350000  0.29590000  0.86160000  1.0 -0.3016740638
C  C16  1  0.02650000  0.79590000  0.13840000  1.0 -0.3016740638
C  C17  1  0.56880000  0.72740000  0.16790000  1.0 0.2802187684
C  C18  1  0.93120000  0.22740000  0.83210000  1.0 0.2802187684
C  C19  1  0.43120000  0.27260000  0.83210000  1.0 0.2802187684
C  C20  1  0.06880000  0.77260000  0.16790000  1.0 0.2802187684
C  C21  1  0.60300000  0.79060000  0.16670000  1.0 -0.3231066215
C  C22  1  0.89700000  0.29060000  0.83330000  1.0 -0.3231066215
C  C23  1  0.39700000  0.20940000  0.83330000  1.0 -0.3231066215
C  C24  1  0.10300000  0.70940000  0.16670000  1.0 -0.3231066215
C  C25  1  0.65260000  0.92190000  0.10250000  1.0 0.2261667868
C  C26  1  0.84740000  0.42190000  0.89750000  1.0 0.2261667868
C  C27  1  0.34740000  0.07810000  0.89750000  1.0 0.2261667868
C  C28  1  0.15260000  0.57810000  0.10250000  1.0 0.2261667868
C  C29  1  0.68720000  0.88040000  0.07640000  1.0 -0.0691974295
C  C30  1  0.81280000  0.38040000  0.92360000  1.0 -0.0691974295
C  C31  1  0.31280000  0.11960000  0.92360000  1.0 -0.0691974295
C  C32  1  0.18720000  0.61960000  0.07640000  1.0 -0.0691974295
C  C33  1  0.71740000  0.91010000  0.04350000  1.0 -0.121085307
C  C34  1  0.78260000  0.41010000  0.95650000  1.0 -0.121085307
C  C35  1  0.28260000  0.08990000  0.95650000  1.0 -0.121085307
C  C36  1  0.21740000  0.58990000  0.04350000  1.0 -0.121085307
C  C37  1  0.71250000  0.98430000  0.03780000  1.0 0.0500655032
C  C38  1  0.78750000  0.48430000  0.96220000  1.0 0.0500655032
C  C39  1  0.28750000  0.01570000  0.96220000  1.0 0.0500655032
C  C40  1  0.21250000  0.51570000  0.03780000  1.0 0.0500655032
C  C41  1  0.68230000  0.02660000  0.06470000  1.0 -0.1107741041
C  C42  1  0.81770000  0.52660000  0.93530000  1.0 -0.1107741041
C  C43  1  0.31770000  0.97340000  0.93530000  1.0 -0.1107741041
C  C44  1  0.18230000  0.47340000  0.06470000  1.0 -0.1107741041
C  C45  1  0.65240000  0.99530000  0.09750000  1.0 -0.0608517258
C  C46  1  0.84760000  0.49530000  0.90250000  1.0 -0.0608517258
C  C47  1  0.34760000  0.00470000  0.90250000  1.0 -0.0608517258
C  C48  1  0.15240000  0.50470000  0.09750000  1.0 -0.0608517258
C  C49  1  0.70080000  0.80530000  0.08080000  1.0 0.3092067616
C  C50  1  0.79920000  0.30530000  0.91920000  1.0 0.3092067616
C  C51  1  0.29920000  0.19470000  0.91920000  1.0 0.3092067616
C  C52  1  0.20080000  0.69470000  0.08080000  1.0 0.3092067616
C  C53  1  0.73960000  0.01420000  0.00260000  1.0 0.3172922385
C  C54  1  0.76040000  0.51420000  0.99740000  1.0 0.3172922385
C  C55  1  0.26040000  0.98580000  0.99740000  1.0 0.3172922385
C  C56  1  0.23960000  0.48580000  0.00260000  1.0 0.3172922385
C  C57  1  0.62120000  0.03760000  0.12580000  1.0 0.288943481
C  C58  1  0.87880000  0.53760000  0.87420000  1.0 0.288943481
C  C59  1  0.37880000  0.96240000  0.87420000  1.0 0.288943481
C  C60  1  0.12120000  0.46240000  0.12580000  1.0 0.288943481
C  C61  1  0.47790000  0.74490000  0.03870000  1.0 0.2261667868
C  C62  1  0.02210000  0.24490000  0.96130000  1.0 0.2261667868
C  C63  1  0.52210000  0.25510000  0.96130000  1.0 0.2261667868
C  C64  1  0.97790000  0.75510000  0.03870000  1.0 0.2261667868
C  C65  1  0.53080000  0.71580000  0.01780000  1.0 -0.0511411467
C  C66  1  0.96920000  0.21580000  0.98220000  1.0 -0.0511411467
C  C67  1  0.46920000  0.28420000  0.98220000  1.0 -0.0511411467
C  C68  1  0.03080000  0.78420000  0.01780000  1.0 -0.0511411467
C  C69  1  0.53810000  0.73300000  0.97810000  1.0 -0.1107741041
C  C70  1  0.96190000  0.23300000  0.02190000  1.0 -0.1107741041
C  C71  1  0.46190000  0.26700000  0.02190000  1.0 -0.1107741041
C  C72  1  0.03810000  0.76700000  0.97810000  1.0 -0.1107741041
C  C73  1  0.49250000  0.77600000  0.95830000  1.0 0.0384843106
C  C74  1  0.00750000  0.27600000  0.04170000  1.0 0.0384843106
C  C75  1  0.50750000  0.22400000  0.04170000  1.0 0.0384843106
C  C76  1  0.99250000  0.72400000  0.95830000  1.0 0.0384843106
C  C77  1  0.43820000  0.80260000  0.97850000  1.0 -0.0823989319
C  C78  1  0.06180000  0.30260000  0.02150000  1.0 -0.0823989319
C  C79  1  0.56180000  0.19740000  0.02150000  1.0 -0.0823989319
C  C80  1  0.93820000  0.69740000  0.97850000  1.0 -0.0823989319
C  C81  1  0.43110000  0.78740000  0.01810000  1.0 -0.0511411467
C  C82  1  0.06890000  0.28740000  0.98190000  1.0 -0.0511411467
C  C83  1  0.56890000  0.21260000  0.98190000  1.0 -0.0511411467
C  C84  1  0.93110000  0.71260000  0.01810000  1.0 -0.0511411467
C  C85  1  0.57360000  0.66330000  0.03740000  1.0 0.3172922385
C  C86  1  0.92640000  0.16330000  0.96260000  1.0 0.3172922385
C  C87  1  0.42640000  0.33670000  0.96260000  1.0 0.3172922385
C  C88  1  0.07360000  0.83670000  0.03740000  1.0 0.3172922385
C  C89  1  0.50070000  0.79210000  0.91680000  1.0 0.2974815023
C  C90  1  0.99930000  0.29210000  0.08320000  1.0 0.2974815023
C  C91  1  0.49930000  0.20790000  0.08320000  1.0 0.2974815023
C  C92  1  0.00070000  0.70790000  0.91680000  1.0 0.2974815023
C  C93  1  0.37650000  0.81510000  0.04010000  1.0 0.3314857436
C  C94  1  0.12350000  0.31510000  0.95990000  1.0 0.3314857436
C  C95  1  0.62350000  0.18490000  0.95990000  1.0 0.3314857436
C  C96  1  0.87650000  0.68490000  0.04010000  1.0 0.3314857436
C  C97  1  0.63420000  0.68710000  0.22370000  1.0 0.2221022234
C  C98  1  0.86580000  0.18710000  0.77630000  1.0 0.2221022234
C  C99  1  0.36580000  0.31290000  0.77630000  1.0 0.2221022234
C  C100  1  0.13420000  0.81290000  0.22370000  1.0 0.2221022234
C  C101  1  0.69450000  0.66090000  0.21060000  1.0 -0.0691974295
C  C102  1  0.80550000  0.16090000  0.78940000  1.0 -0.0608517258
C  C103  1  0.30550000  0.33910000  0.78940000  1.0 -0.0608517258
C  C104  1  0.19450000  0.83910000  0.21060000  1.0 -0.0691974295
C  C105  1  0.75030000  0.66460000  0.23440000  1.0 -0.1107741041
C  C106  1  0.74970000  0.16460000  0.76560000  1.0 -0.1107741041
C  C107  1  0.24970000  0.33540000  0.76560000  1.0 -0.1107741041
C  C108  1  0.25030000  0.83540000  0.23440000  1.0 -0.1107741041
C  C109  1  0.74820000  0.69570000  0.27180000  1.0 0.0191356126
C  C110  1  0.75180000  0.19570000  0.72820000  1.0 0.0191356126
C  C111  1  0.25180000  0.30430000  0.72820000  1.0 0.0191356126
C  C112  1  0.24820000  0.80430000  0.27180000  1.0 0.0191356126
C  C113  1  0.69080000  0.72140000  0.28620000  1.0 -0.1107741041
C  C114  1  0.80920000  0.22140000  0.71380000  1.0 -0.1107741041
C  C115  1  0.30920000  0.27860000  0.71380000  1.0 -0.1107741041
C  C116  1  0.19080000  0.77860000  0.28620000  1.0 -0.1107741041
C  C117  1  0.63320000  0.71750000  0.26220000  1.0 -0.0511411467
C  C118  1  0.86680000  0.21750000  0.73780000  1.0 -0.0511411467
C  C119  1  0.36680000  0.28250000  0.73780000  1.0 -0.0511411467
C  C120  1  0.13320000  0.78250000  0.26220000  1.0 -0.0511411467
C  C121  1  0.69660000  0.62770000  0.17150000  1.0 0.2715129656
C  C122  1  0.80340000  0.12770000  0.82850000  1.0 0.2715129656
C  C123  1  0.30340000  0.37230000  0.82850000  1.0 0.2715129656
C  C124  1  0.19660000  0.87230000  0.17150000  1.0 0.2715129656
C  C125  1  0.80870000  0.70030000  0.29630000  1.0 0.1456863982
C  C126  1  0.69130000  0.20030000  0.70370000  1.0 0.1412191811
C  C127  1  0.19130000  0.29970000  0.70370000  1.0 0.1412191811
C  C128  1  0.30870000  0.79970000  0.29630000  1.0 0.1412191811
C  C129  1  0.57220000  0.74570000  0.27640000  1.0 0.2261667868
C  C130  1  0.92780000  0.24570000  0.72360000  1.0 0.2261667868
C  C131  1  0.42780000  0.25430000  0.72360000  1.0 0.2221022234
C  C132  1  0.07220000  0.75430000  0.27640000  1.0 0.2261667868
C  C133  1  0.38680000  0.23930000  0.31850000  1.0 0.2087690149
C  C134  1  0.11320000  0.73930000  0.68150000  1.0 0.2087690149
C  C135  1  0.61320000  0.76070000  0.68150000  1.0 0.2087690149
C  C136  1  0.88680000  0.26070000  0.31850000  1.0 0.2087690149
C  C137  1  0.35050000  0.18270000  0.32750000  1.0 -0.3889846738
C  C138  1  0.14950000  0.68270000  0.67250000  1.0 -0.3889846738
C  C139  1  0.64950000  0.81730000  0.67250000  1.0 -0.3889846738
C  C140  1  0.85050000  0.31730000  0.32750000  1.0 -0.3889846738
C  C141  1  0.36710000  0.14890000  0.36280000  1.0 0.2538515282
C  C142  1  0.13290000  0.64890000  0.63720000  1.0 0.2538515282
C  C143  1  0.63290000  0.85110000  0.63720000  1.0 0.2538515282
C  C144  1  0.86710000  0.35110000  0.36280000  1.0 0.2538515282
C  C145  1  0.41260000  0.17350000  0.39010000  1.0 -0.3016740638
C  C146  1  0.08740000  0.67350000  0.60990000  1.0 -0.3016740638
C  C147  1  0.58740000  0.82650000  0.60990000  1.0 -0.3016740638
C  C148  1  0.91260000  0.32650000  0.39010000  1.0 -0.3016740638
C  C149  1  0.44680000  0.23130000  0.37890000  1.0 0.2596265924
C  C150  1  0.05320000  0.73130000  0.62110000  1.0 0.2596265924
C  C151  1  0.55320000  0.76870000  0.62110000  1.0 0.2596265924
C  C152  1  0.94680000  0.26870000  0.37890000  1.0 0.2596265924
C  C153  1  0.43510000  0.26730000  0.34350000  1.0 -0.3584420133
C  C154  1  0.06490000  0.76730000  0.65650000  1.0 -0.3584420133
C  C155  1  0.56490000  0.73270000  0.65650000  1.0 -0.3584420133
C  C156  1  0.93510000  0.23270000  0.34350000  1.0 -0.3584420133
C  C157  1  0.39460000  0.33720000  0.27360000  1.0 0.1616528639
C  C158  1  0.10540000  0.83720000  0.72640000  1.0 0.1616528639
C  C159  1  0.60540000  0.66280000  0.72640000  1.0 0.1616528639
C  C160  1  0.89460000  0.16280000  0.27360000  1.0 0.1616528639
C  C161  1  0.44420000  0.34370000  0.24550000  1.0 -0.0823989319
C  C162  1  0.05580000  0.84370000  0.75450000  1.0 -0.0823989319
C  C163  1  0.55580000  0.65630000  0.75450000  1.0 -0.0823989319
C  C164  1  0.94420000  0.15630000  0.24550000  1.0 -0.0823989319
C  C165  1  0.46710000  0.41220000  0.23590000  1.0 -0.1107741041
C  C166  1  0.03290000  0.91220000  0.76410000  1.0 -0.1107741041
C  C167  1  0.53290000  0.58780000  0.76410000  1.0 -0.1107741041
C  C168  1  0.96710000  0.08780000  0.23590000  1.0 -0.1107741041
C  C169  1  0.44130000  0.47100000  0.25420000  1.0 -0.0206335619
C  C170  1  0.05870000  0.97100000  0.74580000  1.0 -0.0206335619
C  C171  1  0.55870000  0.52900000  0.74580000  1.0 -0.0206335619
C  C172  1  0.94130000  0.02900000  0.25420000  1.0 -0.0206335619
C  C173  1  0.39020000  0.46240000  0.28110000  1.0 -0.1107741041
C  C174  1  0.10980000  0.96240000  0.71890000  1.0 -0.1107741041
C  C175  1  0.60980000  0.53760000  0.71890000  1.0 -0.1107741041
C  C176  1  0.89020000  0.03760000  0.28110000  1.0 -0.1107741041
C  C177  1  0.36830000  0.39760000  0.29080000  1.0 -0.1018544981
C  C178  1  0.13170000  0.89760000  0.70920000  1.0 -0.1018544981
C  C179  1  0.63170000  0.60240000  0.70920000  1.0 -0.1018544981
C  C180  1  0.86830000  0.10240000  0.29080000  1.0 -0.1018544981
C  C181  1  0.47040000  0.28230000  0.22820000  1.0 0.031354702
C  C182  1  0.02960000  0.78230000  0.77180000  1.0 0.031354702
C  C183  1  0.52960000  0.71770000  0.77180000  1.0 0.031354702
C  C184  1  0.97040000  0.21770000  0.22820000  1.0 0.031354702
C  C185  1  0.46650000  0.54020000  0.24750000  1.0 0.098920298
C  C186  1  0.03350000  0.04020000  0.75250000  1.0 0.098920298
C  C187  1  0.53350000  0.45980000  0.75250000  1.0 0.098920298
C  C188  1  0.96650000  0.95980000  0.24750000  1.0 0.098920298
C  C189  1  0.31660000  0.39150000  0.31840000  1.0 0.1116579907
C  C190  1  0.18340000  0.89150000  0.68160000  1.0 0.1116579907
C  C191  1  0.68340000  0.60850000  0.68160000  1.0 0.1116579907
C  C192  1  0.81660000  0.10850000  0.31840000  1.0 0.1116579907
C  C193  1  0.31840000  0.06900000  0.40860000  1.0 0.2221022234
C  C194  1  0.18160000  0.56900000  0.59140000  1.0 0.2221022234
C  C195  1  0.68160000  0.93100000  0.59140000  1.0 0.2221022234
C  C196  1  0.81840000  0.43100000  0.40860000  1.0 0.2221022234
C  C197  1  0.33490000  0.00050000  0.41870000  1.0 -0.0608517258
C  C198  1  0.16510000  0.50050000  0.58130000  1.0 -0.0608517258
C  C199  1  0.66510000  0.99950000  0.58130000  1.0 -0.0608517258
C  C200  1  0.83490000  0.49950000  0.41870000  1.0 -0.0608517258
C  C201  1  0.31850000  0.97300000  0.45620000  1.0 -0.0511411467
C  C202  1  0.18150000  0.47300000  0.54380000  1.0 -0.0511411467
C  C203  1  0.68150000  0.02700000  0.54380000  1.0 -0.0511411467
C  C204  1  0.81850000  0.52700000  0.45620000  1.0 -0.0511411467
C  C205  1  0.28860000  0.01610000  0.48350000  1.0 0.0191356126
C  C206  1  0.21140000  0.51610000  0.51650000  1.0 0.0191356126
C  C207  1  0.71140000  0.98390000  0.51650000  1.0 0.0191356126
C  C208  1  0.78860000  0.48390000  0.48350000  1.0 0.0191356126
C  C209  1  0.27350000  0.08580000  0.47390000  1.0 -0.0691974295
C  C210  1  0.22650000  0.58580000  0.52610000  1.0 -0.0691974295
C  C211  1  0.72650000  0.91420000  0.52610000  1.0 -0.0691974295
C  C212  1  0.77350000  0.41420000  0.47390000  1.0 -0.0691974295
C  C213  1  0.28610000  0.11100000  0.43750000  1.0 -0.0385938462
C  C214  1  0.21390000  0.61100000  0.56250000  1.0 -0.0385938462
C  C215  1  0.71390000  0.88900000  0.56250000  1.0 -0.0385938462
C  C216  1  0.78610000  0.38900000  0.43750000  1.0 -0.0385938462
C  C217  1  0.36850000  0.95710000  0.39060000  1.0 0.288943481
C  C218  1  0.13150000  0.45710000  0.60940000  1.0 0.2802187684
C  C219  1  0.63150000  0.04290000  0.60940000  1.0 0.288943481
C  C220  1  0.86850000  0.54290000  0.39060000  1.0 0.288943481
C  C221  1  0.27260000  0.98680000  0.52110000  1.0 0.288943481
C  C222  1  0.22740000  0.48680000  0.47890000  1.0 0.288943481
C  C223  1  0.72740000  0.01320000  0.47890000  1.0 0.288943481
C  C224  1  0.77260000  0.51320000  0.52110000  1.0 0.288943481
C  C225  1  0.26560000  0.18410000  0.42700000  1.0 0.2802187684
C  C226  1  0.23440000  0.68410000  0.57300000  1.0 0.2802187684
C  C227  1  0.73440000  0.81590000  0.57300000  1.0 0.2802187684
C  C228  1  0.76560000  0.31590000  0.42700000  1.0 0.2802187684
C  C229  1  0.49730000  0.25070000  0.44420000  1.0 0.2087690149
C  C230  1  0.00270000  0.75070000  0.55580000  1.0 0.2087690149
C  C231  1  0.50270000  0.74930000  0.55580000  1.0 0.2087690149
C  C232  1  0.99730000  0.24930000  0.44420000  1.0 0.2087690149
C  C233  1  0.44930000  0.28340000  0.46660000  1.0 -0.0511411467
C  C234  1  0.05070000  0.78340000  0.53340000  1.0 -0.0511411467
C  C235  1  0.55070000  0.71660000  0.53340000  1.0 -0.0511411467
C  C236  1  0.94930000  0.21660000  0.46660000  1.0 -0.0511411467
C  C237  1  0.45180000  0.27720000  0.50750000  1.0 -0.0691974295
C  C238  1  0.04820000  0.77720000  0.49250000  1.0 -0.0691974295
C  C239  1  0.54820000  0.72280000  0.49250000  1.0 -0.0691974295
C  C240  1  0.95180000  0.22280000  0.50750000  1.0 -0.0691974295
C  C241  1  0.50210000  0.23550000  0.52600000  1.0 0.0191356126
C  C242  1  0.99790000  0.73550000  0.47400000  1.0 0.0191356126
C  C243  1  0.49790000  0.76450000  0.47400000  1.0 0.0191356126
C  C244  1  0.00210000  0.26450000  0.52600000  1.0 0.0191356126
C  C245  1  0.55220000  0.20820000  0.50380000  1.0 -0.0608517258
C  C246  1  0.94780000  0.70820000  0.49620000  1.0 -0.0608517258
C  C247  1  0.44780000  0.79180000  0.49620000  1.0 -0.0608517258
C  C248  1  0.05220000  0.29180000  0.50380000  1.0 -0.0608517258
C  C249  1  0.54750000  0.21460000  0.46340000  1.0 -0.0511411467
C  C250  1  0.95250000  0.71460000  0.53660000  1.0 -0.0511411467
C  C251  1  0.45250000  0.78540000  0.53660000  1.0 -0.0511411467
C  C252  1  0.04750000  0.28540000  0.46340000  1.0 -0.0511411467
C  C253  1  0.40150000  0.33270000  0.44810000  1.0 0.3092067616
C  C254  1  0.09850000  0.83270000  0.55190000  1.0 0.3092067616
C  C255  1  0.59850000  0.66730000  0.55190000  1.0 0.3092067616
C  C256  1  0.90150000  0.16730000  0.44810000  1.0 0.3092067616
C  C257  1  0.50530000  0.22790000  0.56840000  1.0 0.1991927241
C  C258  1  0.99470000  0.72790000  0.43160000  1.0 0.1991927241
C  C259  1  0.49470000  0.77210000  0.43160000  1.0 0.1991927241
C  C260  1  0.00530000  0.27210000  0.56840000  1.0 0.1991927241
C  C261  1  0.59770000  0.18440000  0.43900000  1.0 0.3092067616
C  C262  1  0.90230000  0.68440000  0.56100000  1.0 0.3092067616
C  C263  1  0.40230000  0.81560000  0.56100000  1.0 0.3092067616
C  C264  1  0.09770000  0.31560000  0.43900000  1.0 0.3092067616
C  C265  1  0.42840000  0.01160000  0.13180000  1.0 -0.009249205
C  C266  1  0.07160000  0.51160000  0.86820000  1.0 -0.009249205
C  C267  1  0.57160000  0.98840000  0.86820000  1.0 -0.009249205
C  C268  1  0.92840000  0.48840000  0.13180000  1.0 -0.009249205
C  C269  1  0.36560000  0.01410000  0.10660000  1.0 -0.1521755568
C  C270  1  0.13440000  0.51410000  0.89340000  1.0 -0.1521755568
C  C271  1  0.63440000  0.98590000  0.89340000  1.0 -0.1586638573
C  C272  1  0.86560000  0.48590000  0.10660000  1.0 -0.1521755568
C  C273  1  0.31610000  0.04350000  0.13430000  1.0 -0.1864788375
C  C274  1  0.18390000  0.54350000  0.86570000  1.0 -0.1864788375
C  C275  1  0.68390000  0.95650000  0.86570000  1.0 -0.1864788375
C  C276  1  0.81610000  0.45650000  0.13430000  1.0 -0.1864788375
C  C277  1  0.35880000  0.09800000  0.15600000  1.0 -0.0511411467
C  C278  1  0.14120000  0.59800000  0.84400000  1.0 -0.0511411467
C  C279  1  0.64120000  0.90200000  0.84400000  1.0 -0.0511411467
C  C280  1  0.85880000  0.40200000  0.15600000  1.0 -0.0511411467
C  C281  1  0.56440000  0.01990000  0.25110000  1.0 -0.0206335619
C  C282  1  0.93560000  0.51990000  0.74890000  1.0 -0.0206335619
C  C283  1  0.43560000  0.98010000  0.74890000  1.0 -0.0206335619
C  C284  1  0.06440000  0.48010000  0.25110000  1.0 -0.0206335619
C  C285  1  0.51770000  0.95890000  0.24100000  1.0 -0.1586638573
C  C286  1  0.98230000  0.45890000  0.75900000  1.0 -0.1586638573
C  C287  1  0.48230000  0.04110000  0.75900000  1.0 -0.1586638573
C  C288  1  0.01770000  0.54110000  0.24100000  1.0 -0.1586638573
C  C289  1  0.45310000  0.98260000  0.25830000  1.0 -0.1699531681
C  C290  1  0.04690000  0.48260000  0.74170000  1.0 -0.1699531681
C  C291  1  0.54690000  0.01740000  0.74170000  1.0 -0.1699531681
C  C292  1  0.95310000  0.51740000  0.25830000  1.0 -0.1699531681
C  C293  1  0.46440000  0.06190000  0.26610000  1.0 -0.0385938462
C  C294  1  0.03560000  0.56190000  0.73390000  1.0 -0.0385938462
C  C295  1  0.53560000  0.93810000  0.73390000  1.0 -0.0385938462
C  C296  1  0.96440000  0.43810000  0.26610000  1.0 -0.0385938462
C  C297  1  0.55280000  0.97310000  0.36660000  1.0 -0.0206335619
C  C298  1  0.94720000  0.47310000  0.63340000  1.0 -0.0206335619
C  C299  1  0.44720000  0.02690000  0.63340000  1.0 -0.0206335619
C  C300  1  0.05280000  0.52690000  0.36660000  1.0 -0.0206335619
C  C301  1  0.62440000  0.99430000  0.37450000  1.0 -0.1699531681
C  C302  1  0.87560000  0.49430000  0.62550000  1.0 -0.1699531681
C  C303  1  0.37560000  0.00570000  0.62550000  1.0 -0.1699531681
C  C304  1  0.12440000  0.50570000  0.37450000  1.0 -0.1699531681
C  C305  1  0.65840000  0.92830000  0.37470000  1.0 -0.1699531681
C  C306  1  0.84160000  0.42830000  0.62530000  1.0 -0.1699531681
C  C307  1  0.34160000  0.07170000  0.62530000  1.0 -0.1699531681
C  C308  1  0.15840000  0.57170000  0.37470000  1.0 -0.1699531681
C  C309  1  0.61910000  0.87930000  0.34840000  1.0 -0.009249205
C  C310  1  0.88090000  0.37930000  0.65160000  1.0 -0.009249205
C  C311  1  0.38090000  0.12070000  0.65160000  1.0 -0.009249205
C  C312  1  0.11910000  0.62070000  0.34840000  1.0 -0.009249205
C  C313  1  0.71630000  0.53410000  0.30560000  1.0 0.0500655032
C  C314  1  0.78370000  0.03410000  0.69440000  1.0 0.0500655032
C  C315  1  0.28370000  0.46590000  0.69440000  1.0 0.0500655032
C  C316  1  0.21630000  0.96590000  0.30560000  1.0 0.0500655032
C  C317  1  0.77130000  0.51170000  0.29000000  1.0 -0.1399318176
C  C318  1  0.72870000  0.01170000  0.71000000  1.0 -0.1399318176
C  C319  1  0.22870000  0.48830000  0.71000000  1.0 -0.1399318176
C  C320  1  0.27130000  0.98830000  0.29000000  1.0 -0.1399318176
C  C321  1  0.76610000  0.48470000  0.25120000  1.0 -0.0823989319
C  C322  1  0.73390000  0.98470000  0.74880000  1.0 -0.0823989319
C  C323  1  0.23390000  0.51530000  0.74880000  1.0 -0.0823989319
C  C324  1  0.26610000  0.01530000  0.25120000  1.0 -0.0823989319
C  C325  1  0.70690000  0.47800000  0.22930000  1.0 -0.121085307
C  C326  1  0.79310000  0.97800000  0.77070000  1.0 -0.121085307
C  C327  1  0.29310000  0.52200000  0.77070000  1.0 -0.121085307
C  C328  1  0.20690000  0.02200000  0.22930000  1.0 -0.121085307
C  C329  1  0.65090000  0.50510000  0.24650000  1.0 -0.121085307
C  C330  1  0.84910000  0.00510000  0.75350000  1.0 -0.121085307
C  C331  1  0.34910000  0.49490000  0.75350000  1.0 -0.121085307
C  C332  1  0.15090000  0.99490000  0.24650000  1.0 -0.121085307
C  C333  1  0.65500000  0.53110000  0.28300000  1.0 0.0500655032
C  C334  1  0.84500000  0.03110000  0.71700000  1.0 0.0500655032
C  C335  1  0.34500000  0.46890000  0.71700000  1.0 0.0500655032
C  C336  1  0.15500000  0.96890000  0.28300000  1.0 0.0500655032
C  C337  1  0.71190000  0.56550000  0.34670000  1.0 -0.3016740638
C  C338  1  0.78810000  0.06550000  0.65330000  1.0 -0.3016740638
C  C339  1  0.28810000  0.43450000  0.65330000  1.0 -0.3016740638
C  C340  1  0.21190000  0.93450000  0.34670000  1.0 -0.3016740638
C  C341  1  0.43100000  0.52400000  0.40400000  1.0 0.0795042237
C  C342  1  0.06900000  0.02400000  0.59600000  1.0 0.0795042237
C  C343  1  0.56900000  0.47600000  0.59600000  1.0 0.0795042237
C  C344  1  0.93100000  0.97600000  0.40400000  1.0 0.0795042237
C  C345  1  0.45900000  0.52900000  0.36430000  1.0 -0.1107741041
C  C346  1  0.04100000  0.02900000  0.63570000  1.0 -0.1107741041
C  C347  1  0.54100000  0.47100000  0.63570000  1.0 -0.1107741041
C  C348  1  0.95900000  0.97100000  0.36430000  1.0 -0.1107741041
C  C349  1  0.45700000  0.60900000  0.35600000  1.0 -0.0823989319
C  C350  1  0.04300000  0.10900000  0.64400000  1.0 -0.0823989319
C  C351  1  0.54300000  0.39100000  0.64400000  1.0 -0.0823989319
C  C352  1  0.95700000  0.89100000  0.35600000  1.0 -0.0823989319
C  C353  1  0.41200000  0.63800000  0.38500000  1.0 -0.0385938462
C  C354  1  0.08800000  0.13800000  0.61500000  1.0 -0.0385938462
C  C355  1  0.58800000  0.36200000  0.61500000  1.0 -0.0385938462
C  C356  1  0.91200000  0.86200000  0.38500000  1.0 -0.0385938462
C  C357  1  0.71200000  0.15300000  0.22000000  1.0 -0.0302620615
C  C358  1  0.78800000  0.65300000  0.78000000  1.0 -0.0302620615
C  C359  1  0.28800000  0.84700000  0.78000000  1.0 -0.0302620615
C  C360  1  0.21200000  0.34700000  0.22000000  1.0 -0.0302620615
C  C361  1  0.67800000  0.21300000  0.20000000  1.0 -0.0895170397
C  C362  1  0.82200000  0.71300000  0.80000000  1.0 -0.0895170397
C  C363  1  0.32200000  0.78700000  0.80000000  1.0 -0.0895170397
C  C364  1  0.17800000  0.28700000  0.20000000  1.0 -0.0895170397
C  C365  1  0.73600000  0.26400000  0.19300000  1.0 -0.0895170397
C  C366  1  0.76400000  0.76400000  0.80700000  1.0 -0.0895170397
C  C367  1  0.26400000  0.73600000  0.80700000  1.0 -0.0895170397
C  C368  1  0.23600000  0.23600000  0.19300000  1.0 -0.0895170397
C  C369  1  0.79400000  0.21800000  0.19100000  1.0 0.0615158309
C  C370  1  0.70600000  0.71800000  0.80900000  1.0 0.0615158309
C  C371  1  0.20600000  0.78200000  0.80900000  1.0 0.0615158309
C  C372  1  0.29400000  0.28200000  0.19100000  1.0 0.0615158309
C  C373  1  0.37230000  0.83030000  0.15240000  1.0 -0.0302620615
C  C374  1  0.12770000  0.33030000  0.84760000  1.0 -0.0302620615
C  C375  1  0.62770000  0.16970000  0.84760000  1.0 -0.0302620615
C  C376  1  0.87230000  0.66970000  0.15240000  1.0 -0.0302620615
C  C377  1  0.36070000  0.75350000  0.15980000  1.0 -0.1771858126
C  C378  1  0.13930000  0.25350000  0.84020000  1.0 -0.1771858126
C  C379  1  0.63930000  0.24650000  0.84020000  1.0 -0.1771858126
C  C380  1  0.86070000  0.74650000  0.15980000  1.0 -0.1771858126
C  C381  1  0.39490000  0.74020000  0.20080000  1.0 -0.1771858126
C  C382  1  0.10510000  0.24020000  0.79920000  1.0 -0.1771858126
C  C383  1  0.60510000  0.25980000  0.79920000  1.0 -0.1771858126
C  C384  1  0.89490000  0.75980000  0.20080000  1.0 -0.1771858126
C  C385  1  0.42530000  0.81010000  0.21200000  1.0 -0.0206335619
C  C386  1  0.07470000  0.31010000  0.78800000  1.0 -0.0206335619
C  C387  1  0.57470000  0.18990000  0.78800000  1.0 -0.0206335619
C  C388  1  0.92530000  0.68990000  0.21200000  1.0 -0.0206335619
C  C389  1  0.58010000  0.37220000  0.14060000  1.0 -0.0511411467
C  C390  1  0.91990000  0.87220000  0.85940000  1.0 -0.0511411467
C  C391  1  0.41990000  0.62780000  0.85940000  1.0 -0.0511411467
C  C392  1  0.08010000  0.12780000  0.14060000  1.0 -0.0511411467
C  C393  1  0.56120000  0.39050000  0.09920000  1.0 -0.1586638573
C  C394  1  0.93880000  0.89050000  0.90080000  1.0 -0.1586638573
C  C395  1  0.43880000  0.60950000  0.90080000  1.0 -0.1586638573
C  C396  1  0.06120000  0.10950000  0.09920000  1.0 -0.1586638573
C  C397  1  0.56720000  0.46580000  0.09840000  1.0 -0.1586638573
C  C398  1  0.93280000  0.96580000  0.90160000  1.0 -0.1586638573
C  C399  1  0.43280000  0.53420000  0.90160000  1.0 -0.1586638573
C  C400  1  0.06720000  0.03420000  0.09840000  1.0 -0.1586638573
C  C401  1  0.54710000  0.48680000  0.13830000  1.0 -0.0385938462
C  C402  1  0.95290000  0.98680000  0.86170000  1.0 -0.0385938462
C  C403  1  0.45290000  0.51320000  0.86170000  1.0 -0.0385938462
C  C404  1  0.04710000  0.01320000  0.13830000  1.0 -0.0385938462
C  C405  1  0.60150000  0.23960000  0.30990000  1.0 0.098920298
C  C406  1  0.89850000  0.73960000  0.69010000  1.0 0.098920298
C  C407  1  0.39850000  0.76040000  0.69010000  1.0 0.098920298
C  C408  1  0.10150000  0.26040000  0.30990000  1.0 0.098920298
C  C409  1  0.66930000  0.26650000  0.31780000  1.0 -0.0511411467
C  C410  1  0.83070000  0.76650000  0.68220000  1.0 -0.0511411467
C  C411  1  0.33070000  0.73350000  0.68220000  1.0 -0.0511411467
C  C412  1  0.16930000  0.23350000  0.31780000  1.0 -0.0511411467
C  C413  1  0.65770000  0.34500000  0.32610000  1.0 -0.2495299873
C  C414  1  0.84230000  0.84500000  0.67390000  1.0 -0.2495299873
C  C415  1  0.34230000  0.65500000  0.67390000  1.0 -0.2495299873
C  C416  1  0.15770000  0.15500000  0.32610000  1.0 -0.2495299873
C  C417  1  0.59120000  0.36180000  0.30940000  1.0 0.0384843106
C  C418  1  0.90880000  0.86180000  0.69060000  1.0 0.0384843106
C  C419  1  0.40880000  0.63820000  0.69060000  1.0 0.0384843106
C  C420  1  0.09120000  0.13820000  0.30940000  1.0 0.0384843106
C  C421  1  0.65790000  0.52200000  0.29010000  1.0 0.031354702
C  C422  1  0.84210000  0.02200000  0.70990000  1.0 0.031354702
C  C423  1  0.34210000  0.47800000  0.70990000  1.0 0.031354702
C  C424  1  0.15790000  0.97800000  0.29010000  1.0 0.031354702
C  C425  1  0.71630000  0.52400000  0.30890000  1.0 0.0615158309
C  C426  1  0.78370000  0.02400000  0.69110000  1.0 0.0615158309
C  C427  1  0.28370000  0.47600000  0.69110000  1.0 0.0615158309
C  C428  1  0.21630000  0.97600000  0.30890000  1.0 0.0615158309
C  C429  1  0.77100000  0.50100000  0.28760000  1.0 -0.1399318176
C  C430  1  0.72900000  0.00100000  0.71240000  1.0 -0.1399318176
C  C431  1  0.22900000  0.49900000  0.71240000  1.0 -0.1399318176
C  C432  1  0.27100000  0.99900000  0.28760000  1.0 -0.1399318176
C  C433  1  0.76200000  0.46800000  0.25110000  1.0 -0.0895170397
C  C434  1  0.73800000  0.96800000  0.74890000  1.0 -0.0895170397
C  C435  1  0.23800000  0.53200000  0.74890000  1.0 -0.0895170397
C  C436  1  0.26200000  0.03200000  0.25110000  1.0 -0.0895170397
C  C437  1  0.70100000  0.47000000  0.23130000  1.0 -0.121085307
C  C438  1  0.79900000  0.97000000  0.76870000  1.0 -0.121085307
C  C439  1  0.29900000  0.53000000  0.76870000  1.0 -0.121085307
C  C440  1  0.20100000  0.03000000  0.23130000  1.0 -0.121085307
C  C441  1  0.65000000  0.49400000  0.25050000  1.0 -0.1291943128
C  C442  1  0.85000000  0.99400000  0.74950000  1.0 -0.1291943128
C  C443  1  0.35000000  0.50600000  0.74950000  1.0 -0.1291943128
C  C444  1  0.15000000  0.00600000  0.25050000  1.0 -0.1291943128
C  C445  1  0.59900000  0.56130000  0.30560000  1.0 -0.2398640689
C  C446  1  0.90100000  0.06130000  0.69440000  1.0 -0.2398640689
C  C447  1  0.40100000  0.43870000  0.69440000  1.0 -0.2398640689
C  C448  1  0.09900000  0.93870000  0.30560000  1.0 -0.2398640689
C  C449  1  0.41390000  0.51640000  0.37980000  1.0 -0.0608517258
C  C450  1  0.08610000  0.01640000  0.62020000  1.0 -0.0608517258
C  C451  1  0.58610000  0.48360000  0.62020000  1.0 -0.0608517258
C  C452  1  0.91390000  0.98360000  0.37980000  1.0 -0.0608517258
C  C453  1  0.46140000  0.55160000  0.35410000  1.0 -0.0823989319
C  C454  1  0.03860000  0.05160000  0.64590000  1.0 -0.0823989319
C  C455  1  0.53860000  0.44840000  0.64590000  1.0 -0.0823989319
C  C456  1  0.96140000  0.94840000  0.35410000  1.0 -0.0823989319
C  C457  1  0.43190000  0.62430000  0.34660000  1.0 -0.0895170397
C  C458  1  0.06810000  0.12430000  0.65340000  1.0 -0.0895170397
C  C459  1  0.56810000  0.37570000  0.65340000  1.0 -0.0895170397
C  C460  1  0.93190000  0.87570000  0.34660000  1.0 -0.0895170397
C  C461  1  0.37160000  0.62930000  0.36920000  1.0 0.0500655032
C  C462  1  0.12840000  0.12930000  0.63080000  1.0 0.0500655032
C  C463  1  0.62840000  0.37070000  0.63080000  1.0 0.0500655032
C  C464  1  0.87160000  0.87070000  0.36920000  1.0 0.0500655032
C  C465  1  0.72990000  0.15140000  0.19190000  1.0 0.0500655032
C  C466  1  0.77010000  0.65140000  0.80810000  1.0 0.0500655032
C  C467  1  0.27010000  0.84860000  0.80810000  1.0 0.0500655032
C  C468  1  0.22990000  0.34860000  0.19190000  1.0 0.0500655032
C  C469  1  0.68970000  0.21290000  0.17710000  1.0 -0.121085307
C  C470  1  0.81030000  0.71290000  0.82290000  1.0 -0.121085307
C  C471  1  0.31030000  0.78710000  0.82290000  1.0 -0.121085307
C  C472  1  0.18970000  0.28710000  0.17710000  1.0 -0.121085307
C  C473  1  0.73620000  0.27700000  0.18240000  1.0 -0.1107741041
C  C474  1  0.76380000  0.77700000  0.81760000  1.0 -0.121085307
C  C475  1  0.26380000  0.72300000  0.81760000  1.0 -0.121085307
C  C476  1  0.23620000  0.22300000  0.18240000  1.0 -0.1107741041
C  C477  1  0.80170000  0.24430000  0.19060000  1.0 -0.0608517258
C  C478  1  0.69830000  0.74430000  0.80940000  1.0 -0.0608517258
C  C479  1  0.19830000  0.75570000  0.80940000  1.0 -0.0608517258
C  C480  1  0.30170000  0.25570000  0.19060000  1.0 -0.0608517258
C  C481  1  0.57880000  0.21580000  0.31160000  1.0 -0.0206335619
C  C482  1  0.92120000  0.71580000  0.68840000  1.0 -0.0206335619
C  C483  1  0.42120000  0.78420000  0.68840000  1.0 -0.0206335619
C  C484  1  0.07880000  0.28420000  0.31160000  1.0 -0.0206335619
C  C485  1  0.63790000  0.18770000  0.29210000  1.0 -0.1699531681
C  C486  1  0.86210000  0.68770000  0.70790000  1.0 -0.1771858126
C  C487  1  0.36210000  0.81230000  0.70790000  1.0 -0.1771858126
C  C488  1  0.13790000  0.31230000  0.29210000  1.0 -0.1699531681
C  C489  1  0.67980000  0.25570000  0.29180000  1.0 -0.1018544981
C  C490  1  0.82020000  0.75570000  0.70820000  1.0 -0.1018544981
C  C491  1  0.32020000  0.74430000  0.70820000  1.0 -0.1018544981
C  C492  1  0.17980000  0.24430000  0.29180000  1.0 -0.1018544981
C  C493  1  0.63100000  0.31370000  0.28560000  1.0 0.0889553926
C  C494  1  0.86900000  0.81370000  0.71440000  1.0 0.098920298
C  C495  1  0.36900000  0.68630000  0.71440000  1.0 0.098920298
C  C496  1  0.13100000  0.18630000  0.28560000  1.0 0.0889553926
N  N1  1  0.70620000  0.74580000  0.08510000  1.0 -0.3961634013
N  N2  1  0.79380000  0.24580000  0.91490000  1.0 -0.3961634013
N  N3  1  0.29380000  0.25420000  0.91490000  1.0 -0.3961634013
N  N4  1  0.20620000  0.75420000  0.08510000  1.0 -0.3961634013
N  N5  1  0.76070000  0.03850000  0.97460000  1.0 -0.3805229254
N  N6  1  0.73930000  0.53850000  0.02540000  1.0 -0.3805229254
N  N7  1  0.23930000  0.96150000  0.02540000  1.0 -0.3805229254
N  N8  1  0.26070000  0.46150000  0.97460000  1.0 -0.3805229254
N  N9  1  0.59330000  0.07220000  0.14880000  1.0 -0.4069815325
N  N10  1  0.90670000  0.57220000  0.85120000  1.0 -0.4069815325
N  N11  1  0.40670000  0.92780000  0.85120000  1.0 -0.4069815325
N  N12  1  0.09330000  0.42780000  0.14880000  1.0 -0.4069815325
N  N13  1  0.60630000  0.62540000  0.05350000  1.0 -0.3691903996
N  N14  1  0.89370000  0.12540000  0.94650000  1.0 -0.3691903996
N  N15  1  0.39370000  0.37460000  0.94650000  1.0 -0.3691903996
N  N16  1  0.10630000  0.87460000  0.05350000  1.0 -0.3691903996
N  N17  1  0.50710000  0.80250000  0.88420000  1.0 -0.3691903996
N  N18  1  0.99290000  0.30250000  0.11580000  1.0 -0.3691903996
N  N19  1  0.49290000  0.19750000  0.11580000  1.0 -0.3691903996
N  N20  1  0.00710000  0.69750000  0.88420000  1.0 -0.3691903996
N  N21  1  0.33320000  0.83640000  0.05660000  1.0 -0.3805229254
N  N22  1  0.16680000  0.33640000  0.94340000  1.0 -0.3805229254
N  N23  1  0.66680000  0.16360000  0.94340000  1.0 -0.3805229254
N  N24  1  0.83320000  0.66360000  0.05660000  1.0 -0.3805229254
N  N25  1  0.70070000  0.60520000  0.14070000  1.0 -0.3805229254
N  N26  1  0.79930000  0.10520000  0.85930000  1.0 -0.3805229254
N  N27  1  0.29930000  0.39480000  0.85930000  1.0 -0.3805229254
N  N28  1  0.20070000  0.89480000  0.14070000  1.0 -0.3805229254
N  N29  1  0.85800000  0.70130000  0.31260000  1.0 -0.3372163447
N  N30  1  0.64200000  0.20130000  0.68740000  1.0 -0.3372163447
N  N31  1  0.14200000  0.29870000  0.68740000  1.0 -0.3372163447
N  N32  1  0.35800000  0.79870000  0.31260000  1.0 -0.3372163447
N  N33  1  0.52750000  0.76960000  0.28980000  1.0 -0.3805229254
N  N34  1  0.97250000  0.26960000  0.71020000  1.0 -0.3805229254
N  N35  1  0.47250000  0.23040000  0.71020000  1.0 -0.3805229254
N  N36  1  0.02750000  0.73040000  0.28980000  1.0 -0.3805229254
N  N37  1  0.49330000  0.23440000  0.21400000  1.0 -0.3889846738
N  N38  1  0.00670000  0.73440000  0.78600000  1.0 -0.3889846738
N  N39  1  0.50670000  0.76560000  0.78600000  1.0 -0.3889846738
N  N40  1  0.99330000  0.26560000  0.21400000  1.0 -0.3889846738
N  N41  1  0.49110000  0.59450000  0.24570000  1.0 -0.3016740638
N  N42  1  0.00890000  0.09450000  0.75430000  1.0 -0.3016740638
N  N43  1  0.50890000  0.40550000  0.75430000  1.0 -0.3016740638
N  N44  1  0.99110000  0.90550000  0.24570000  1.0 -0.3016740638
N  N45  1  0.27850000  0.38250000  0.34170000  1.0 -0.3584420133
N  N46  1  0.22150000  0.88250000  0.65830000  1.0 -0.3584420133
N  N47  1  0.72150000  0.61750000  0.65830000  1.0 -0.3584420133
N  N48  1  0.77850000  0.11750000  0.34170000  1.0 -0.3584420133
N  N49  1  0.39690000  0.92750000  0.36840000  1.0 -0.3805229254
N  N50  1  0.10310000  0.42750000  0.63160000  1.0 -0.3805229254
N  N51  1  0.60310000  0.07250000  0.63160000  1.0 -0.3805229254
N  N52  1  0.89690000  0.57250000  0.36840000  1.0 -0.3805229254
N  N53  1  0.26060000  0.96150000  0.55100000  1.0 -0.3691903996
N  N54  1  0.23940000  0.46150000  0.44900000  1.0 -0.3691903996
N  N55  1  0.73940000  0.03850000  0.44900000  1.0 -0.3691903996
N  N56  1  0.76060000  0.53850000  0.55100000  1.0 -0.3691903996
N  N57  1  0.25890000  0.24040000  0.41710000  1.0 -0.3805229254
N  N58  1  0.24110000  0.74040000  0.58290000  1.0 -0.3805229254
N  N59  1  0.74110000  0.75960000  0.58290000  1.0 -0.3805229254
N  N60  1  0.75890000  0.25960000  0.41710000  1.0 -0.3805229254
N  N61  1  0.36220000  0.36270000  0.43090000  1.0 -0.3805229254
N  N62  1  0.13780000  0.86270000  0.56910000  1.0 -0.3805229254
N  N63  1  0.63780000  0.63730000  0.56910000  1.0 -0.3805229254
N  N64  1  0.86220000  0.13730000  0.43090000  1.0 -0.3805229254
N  N65  1  0.50630000  0.22120000  0.60210000  1.0 -0.3277043338
N  N66  1  0.99370000  0.72120000  0.39790000  1.0 -0.3277043338
N  N67  1  0.49370000  0.77880000  0.39790000  1.0 -0.3277043338
N  N68  1  0.00630000  0.27880000  0.60210000  1.0 -0.3277043338
N  N69  1  0.63620000  0.16180000  0.41870000  1.0 -0.3961634013
N  N70  1  0.86380000  0.66180000  0.58130000  1.0 -0.3961634013
N  N71  1  0.36380000  0.83820000  0.58130000  1.0 -0.3961634013
N  N72  1  0.13620000  0.33820000  0.41870000  1.0 -0.3961634013
O  O1  1  0.62190000  0.89830000  0.13440000  1.0 -0.1771858126
O  O2  1  0.87810000  0.39830000  0.86560000  1.0 -0.1771858126
O  O3  1  0.37810000  0.10170000  0.86560000  1.0 -0.1771858126
O  O4  1  0.12190000  0.60170000  0.13440000  1.0 -0.1771858126
O  O5  1  0.46810000  0.72800000  0.07750000  1.0 -0.213946133
O  O6  1  0.03190000  0.22800000  0.92250000  1.0 -0.213946133
O  O7  1  0.53190000  0.27200000  0.92250000  1.0 -0.213946133
O  O8  1  0.96810000  0.77200000  0.07750000  1.0 -0.213946133
O  O9  1  0.57830000  0.68120000  0.20100000  1.0 -0.1972944163
O  O10  1  0.92170000  0.18120000  0.79900000  1.0 -0.1972944163
O  O11  1  0.42170000  0.31880000  0.79900000  1.0 -0.1972944163
O  O12  1  0.07830000  0.81880000  0.20100000  1.0 -0.1972944163
O  O13  1  0.37090000  0.27000000  0.28090000  1.0 -0.3691903996
O  O14  1  0.12910000  0.77000000  0.71910000  1.0 -0.3691903996
O  O15  1  0.62910000  0.73000000  0.71910000  1.0 -0.3691903996
O  O16  1  0.87090000  0.23000000  0.28090000  1.0 -0.3691903996
O  O17  1  0.32850000  0.08950000  0.37060000  1.0 -0.2557171332
O  O18  1  0.17150000  0.58950000  0.62940000  1.0 -0.2495299873
O  O19  1  0.67150000  0.91050000  0.62940000  1.0 -0.2495299873
O  O20  1  0.82850000  0.41050000  0.37060000  1.0 -0.2557171332
O  O21  1  0.49880000  0.26120000  0.40350000  1.0 -0.2885863009
O  O22  1  0.00120000  0.76120000  0.59650000  1.0 -0.2885863009
O  O23  1  0.50120000  0.73880000  0.59650000  1.0 -0.2885863009
O  O24  1  0.99880000  0.23880000  0.40350000  1.0 -0.2885863009
O  O25  1  0.42120000  0.06570000  0.16250000  1.0 -0.2287957418
O  O26  1  0.07880000  0.56570000  0.83750000  1.0 -0.2287957418
O  O27  1  0.57880000  0.93430000  0.83750000  1.0 -0.2287957418
O  O28  1  0.92120000  0.43430000  0.16250000  1.0 -0.2287957418
O  O29  1  0.52510000  0.07990000  0.24850000  1.0 -0.2885863009
O  O30  1  0.97490000  0.57990000  0.75150000  1.0 -0.2885863009
O  O31  1  0.47490000  0.92010000  0.75150000  1.0 -0.2885863009
O  O32  1  0.02510000  0.42010000  0.24850000  1.0 -0.2885863009
O  O33  1  0.55620000  0.90940000  0.34380000  1.0 -0.213946133
O  O34  1  0.94380000  0.40940000  0.65620000  1.0 -0.213946133
O  O35  1  0.44380000  0.09060000  0.65620000  1.0 -0.213946133
O  O36  1  0.05620000  0.59060000  0.34380000  1.0 -0.213946133
O  O37  1  0.42200000  0.59400000  0.41990000  1.0 -0.1586638573
O  O38  1  0.07800000  0.09400000  0.58010000  1.0 -0.1586638573
O  O39  1  0.57800000  0.40600000  0.58010000  1.0 -0.1586638573
O  O40  1  0.92200000  0.90600000  0.41990000  1.0 -0.1586638573
O  O41  1  0.78100000  0.15500000  0.21320000  1.0 -0.0608517258
O  O42  1  0.71900000  0.65500000  0.78680000  1.0 -0.0608517258
O  O43  1  0.21900000  0.84500000  0.78680000  1.0 -0.0691974295
O  O44  1  0.28100000  0.34500000  0.21320000  1.0 -0.0608517258
O  O45  1  0.38430000  0.86150000  0.19050000  1.0 -0.2398640689
O  O46  1  0.11570000  0.36150000  0.80950000  1.0 -0.2398640689
O  O47  1  0.61570000  0.13850000  0.80950000  1.0 -0.2287957418
O  O48  1  0.88430000  0.63850000  0.19050000  1.0 -0.2398640689
O  O49  1  0.56300000  0.42980000  0.16630000  1.0 -0.3016740638
O  O50  1  0.93700000  0.92980000  0.83370000  1.0 -0.3016740638
O  O51  1  0.43700000  0.57020000  0.83370000  1.0 -0.3016740638
O  O52  1  0.06300000  0.07020000  0.16630000  1.0 -0.3016740638
O  O53  1  0.56030000  0.29690000  0.29820000  1.0 -0.1972944163
O  O54  1  0.93970000  0.79690000  0.70180000  1.0 -0.1972944163
O  O55  1  0.43970000  0.70310000  0.70180000  1.0 -0.1972944163
O  O56  1  0.06030000  0.20310000  0.29820000  1.0 -0.1972944163
O  O57  1  0.35810000  0.55930000  0.38350000  1.0 -0.1699531681
O  O58  1  0.14190000  0.05930000  0.61650000  1.0 -0.1699531681
O  O59  1  0.64190000  0.44070000  0.61650000  1.0 -0.1699531681
O  O60  1  0.85810000  0.94070000  0.38350000  1.0 -0.1699531681
O  O61  1  0.79000000  0.17780000  0.20990000  1.0 -0.009249205
O  O62  1  0.71000000  0.67780000  0.79010000  1.0 -0.009249205
O  O63  1  0.21000000  0.82220000  0.79010000  1.0 -0.009249205
O  O64  1  0.29000000  0.32220000  0.20990000  1.0 -0.009249205
O  O65  1  0.57200000  0.28960000  0.30290000  1.0 -0.0895170397
O  O66  1  0.92800000  0.78960000  0.69710000  1.0 -0.0895170397
O  O67  1  0.42800000  0.71040000  0.69710000  1.0 -0.0895170397
O  O68  1  0.07200000  0.21040000  0.30290000  1.0 -0.0895170397
F  F1  1  0.72480000  0.31960000  0.08640000  1.0 -0.4897496524
F  F2  1  0.77520000  0.81960000  0.91360000  1.0 -0.4897496524
F  F3  1  0.27520000  0.68040000  0.91360000  1.0 -0.4897496524
F  F4  1  0.22480000  0.18040000  0.08640000  1.0 -0.4897496524
F  F5  1  0.82560000  0.23500000  0.08680000  1.0 -0.4997637021
F  F6  1  0.67440000  0.73500000  0.91320000  1.0 -0.4997637021
F  F7  1  0.17440000  0.76500000  0.91320000  1.0 -0.4997637021
F  F8  1  0.32560000  0.26500000  0.08680000  1.0 -0.4997637021
F  F9  1  0.70850000  0.19170000  0.06030000  1.0 -0.4602877446
F  F10  1  0.79150000  0.69170000  0.93970000  1.0 -0.4602877446
F  F11  1  0.29150000  0.80830000  0.93970000  1.0 -0.4602877446
F  F12  1  0.20850000  0.30830000  0.06030000  1.0 -0.4602877446
F  F13  1  0.80210000  0.20960000  0.01200000  1.0 -0.4511452752
F  F14  1  0.69790000  0.70960000  0.98800000  1.0 -0.4511452752
F  F15  1  0.19790000  0.79040000  0.98800000  1.0 -0.4511452752
F  F16  1  0.30210000  0.29040000  0.01200000  1.0 -0.4511452752
F  F17  1  0.70000000  0.29570000  0.01040000  1.0 -0.4705552556
F  F18  1  0.80000000  0.79570000  0.98960000  1.0 -0.4705552556
F  F19  1  0.30000000  0.70430000  0.98960000  1.0 -0.4705552556
F  F20  1  0.20000000  0.20430000  0.01040000  1.0 -0.4705552556
F  F21  1  0.81810000  0.33910000  0.03780000  1.0 -0.4511452752
F  F22  1  0.68190000  0.83910000  0.96220000  1.0 -0.4511452752
F  F23  1  0.18190000  0.66090000  0.96220000  1.0 -0.4511452752
F  F24  1  0.31810000  0.16090000  0.03780000  1.0 -0.4511452752
F  F25  1  0.32080000  0.79770000  0.43620000  1.0 -0.1699531681
F  F26  1  0.17920000  0.29770000  0.56380000  1.0 -0.1699531681
F  F27  1  0.67920000  0.20230000  0.56380000  1.0 -0.1586638573
F  F28  1  0.82080000  0.70230000  0.43620000  1.0 -0.1699531681
F  F29  1  0.22770000  0.87700000  0.40470000  1.0 -0.1972944163
F  F30  1  0.27230000  0.37700000  0.59530000  1.0 -0.1972944163
F  F31  1  0.77230000  0.12300000  0.59530000  1.0 -0.1972944163
F  F32  1  0.72770000  0.62300000  0.40470000  1.0 -0.1972944163
F  F33  1  0.21950000  0.83100000  0.47730000  1.0 -0.1586638573
F  F34  1  0.28050000  0.33100000  0.52270000  1.0 -0.1699531681
F  F35  1  0.78050000  0.16900000  0.52270000  1.0 -0.1586638573
F  F36  1  0.71950000  0.66900000  0.47730000  1.0 -0.1586638573
F  F37  1  0.23520000  0.70120000  0.45190000  1.0 -0.1018544981
F  F38  1  0.26480000  0.20120000  0.54810000  1.0 -0.1018544981
F  F39  1  0.76480000  0.29880000  0.54810000  1.0 -0.1018544981
F  F40  1  0.73520000  0.79880000  0.45190000  1.0 -0.1018544981
F  F41  1  0.24190000  0.74810000  0.37950000  1.0 -0.1107741041
F  F42  1  0.25810000  0.24810000  0.62050000  1.0 -0.1107741041
F  F43  1  0.75810000  0.25190000  0.62050000  1.0 -0.1107741041
F  F44  1  0.74190000  0.75190000  0.37950000  1.0 -0.1107741041
F  F45  1  0.14090000  0.78040000  0.42140000  1.0 -0.2767510759
F  F46  1  0.35910000  0.28040000  0.57860000  1.0 -0.2767510759
F  F47  1  0.85910000  0.21960000  0.57860000  1.0 -0.2767510759
F  F48  1  0.64090000  0.71960000  0.42140000  1.0 -0.2767510759
F  F49  1  0.22450000  0.73900000  0.39260000  1.0 -0.1018544981
F  F50  1  0.27550000  0.23900000  0.60740000  1.0 -0.1018544981
F  F51  1  0.77550000  0.26100000  0.60740000  1.0 -0.1018544981
F  F52  1  0.72450000  0.76100000  0.39260000  1.0 -0.1018544981
F  F53  1  0.18000000  0.72180000  0.46600000  1.0 -0.1521755568
F  F54  1  0.32000000  0.22180000  0.53400000  1.0 -0.1521755568
F  F55  1  0.82000000  0.27820000  0.53400000  1.0 -0.1521755568
F  F56  1  0.68000000  0.77820000  0.46600000  1.0 -0.1521755568
F  F57  1  0.29660000  0.68410000  0.45140000  1.0 -0.218935323
F  F58  1  0.20340000  0.18410000  0.54860000  1.0 -0.218935323
F  F59  1  0.70340000  0.31590000  0.54860000  1.0 -0.218935323
F  F60  1  0.79660000  0.81590000  0.45140000  1.0 -0.218935323
F  F61  1  0.32150000  0.80990000  0.42600000  1.0 -0.1864788375
F  F62  1  0.17850000  0.30990000  0.57400000  1.0 -0.1864788375
F  F63  1  0.67850000  0.19010000  0.57400000  1.0 -0.1864788375
F  F64  1  0.82150000  0.69010000  0.42600000  1.0 -0.1864788375
F  F65  1  0.20150000  0.84610000  0.44090000  1.0 -0.121085307
F  F66  1  0.29850000  0.34610000  0.55910000  1.0 -0.1107741041
F  F67  1  0.79850000  0.15390000  0.55910000  1.0 -0.121085307
F  F68  1  0.70150000  0.65390000  0.44090000  1.0 -0.121085307
F  F69  1  0.28050000  0.79800000  0.49510000  1.0 -0.2287957418
F  F70  1  0.21950000  0.29800000  0.50490000  1.0 -0.2287957418
F  F71  1  0.71950000  0.20200000  0.50490000  1.0 -0.2287957418
F  F72  1  0.78050000  0.70200000  0.49510000  1.0 -0.2287957418
F  F73  1  0.32760000  0.56100000  0.22170000  1.0 -0.4511452752
F  F74  1  0.20750000  0.52900000  0.19590000  1.0 -0.4705552556
F  F75  1  0.24400000  0.66280000  0.20120000  1.0 -0.4320839691
F  F76  1  0.15930000  0.61360000  0.24980000  1.0 -0.4403613741
F  F77  1  0.28060000  0.64100000  0.27750000  1.0 -0.4705552556
F  F78  1  0.24160000  0.50910000  0.27200000  1.0 -0.5113441395
F  F79  1  0.17240000  0.06100000  0.77830000  1.0 -0.4511452752
F  F80  1  0.29250000  0.02900000  0.80410000  1.0 -0.4705552556
F  F81  1  0.25600000  0.16280000  0.79880000  1.0 -0.4320839691
F  F82  1  0.34070000  0.11360000  0.75020000  1.0 -0.4403613741
F  F83  1  0.21940000  0.14100000  0.72250000  1.0 -0.4705552556
F  F84  1  0.25840000  0.00910000  0.72800000  1.0 -0.5113441395
F  F85  1  0.67240000  0.43900000  0.77830000  1.0 -0.4511452752
F  F86  1  0.79250000  0.47100000  0.80410000  1.0 -0.4705552556
F  F87  1  0.75600000  0.33720000  0.79880000  1.0 -0.4320839691
F  F88  1  0.84070000  0.38640000  0.75020000  1.0 -0.4403613741
F  F89  1  0.71940000  0.35900000  0.72250000  1.0 -0.4705552556
F  F90  1  0.75840000  0.49090000  0.72800000  1.0 -0.5113441395
F  F91  1  0.82760000  0.93900000  0.22170000  1.0 -0.4511452752
F  F92  1  0.70750000  0.97100000  0.19590000  1.0 -0.4705552556
F  F93  1  0.74400000  0.83720000  0.20120000  1.0 -0.4320839691
F  F94  1  0.65930000  0.88640000  0.24980000  1.0 -0.4403613741
F  F95  1  0.78060000  0.85900000  0.27750000  1.0 -0.4705552556
F  F96  1  0.74160000  0.99090000  0.27200000  1.0 -0.5113441395
F  F97  1  0.98920000  0.55140000  0.95257000  1.0 -0.4511452752
F  F98  1  0.01080000  0.44860000  0.04743000  1.0 -0.4511452752
F  F99  1  0.08170000  0.46550000  0.98520000  1.0 -0.4602877446
F  F100  1  0.91830000  0.53450000  0.01480000  1.0 -0.4602877446
F  F101  1  0.95830000  0.42170000  0.97520000  1.0 -0.4602877446
F  F102  1  0.04170000  0.57830000  0.02480000  1.0 -0.4602877446
F  F103  1  0.51080000  0.05140000  0.04743000  1.0 -0.4511452752
F  F104  1  0.48920000  0.94860000  0.95257000  1.0 -0.4511452752
F  F105  1  0.41830000  0.96550000  0.01480000  1.0 -0.4602877446
F  F106  1  0.58170000  0.03450000  0.98520000  1.0 -0.4602877446
F  F107  1  0.54170000  0.92170000  0.02480000  1.0 -0.4602877446
F  F108  1  0.45830000  0.07830000  0.97520000  1.0 -0.4602877446
F  F109  1  0.92560000  0.52760000  0.52580000  1.0 -0.4320839691
F  F110  1  0.07440000  0.47240000  0.47420000  1.0 -0.4320839691
F  F111  1  0.02400000  0.43760000  0.54130000  1.0 -0.4403613741
F  F112  1  0.97600000  0.56240000  0.45870000  1.0 -0.4403613741
F  F113  1  0.04840000  0.57250000  0.52620000  1.0 -0.4511452752
F  F114  1  0.95160000  0.42750000  0.47380000  1.0 -0.4511452752
F  F115  1  0.57440000  0.02760000  0.47420000  1.0 -0.4320839691
F  F116  1  0.42560000  0.97240000  0.52580000  1.0 -0.4320839691
F  F117  1  0.47600000  0.93760000  0.45870000  1.0 -0.4403613741
F  F118  1  0.52400000  0.06240000  0.54130000  1.0 -0.4403613741
F  F119  1  0.45160000  0.07250000  0.47380000  1.0 -0.4511452752
F  F120  1  0.54840000  0.92750000  0.52620000  1.0 -0.4511452752
