# DDEC6 charges by PACMAN v1.1 (https://github.com/mtap-research/PACMAN-charge/)
data_UVEVUN_ASR_pacman
_symmetry_space_group_name_H-M   'P 1'
_cell_length_a   26.93770000
_cell_length_b   26.93770000
_cell_length_c   26.93770000
_cell_angle_alpha   109.47100000
_cell_angle_beta   109.47100000
_cell_angle_gamma   109.47100000
_symmetry_Int_Tables_number   1
_chemical_formula_structural   Cu2H9C25NO8
_chemical_formula_sum   'Cu24 H108 C300 N12 O96'
_cell_volume   15047.45983296
_cell_formula_units_Z   12
loop_
 _symmetry_equiv_pos_site_id
 _symmetry_equiv_pos_as_xyz
  1  'x, y, z'
loop_
 _atom_site_type_symbol
 _atom_site_label
 _atom_site_symmetry_multiplicity
 _atom_site_fract_x
 _atom_site_fract_y
 _atom_site_fract_z
 _atom_site_occupancy
 _atom_site_charge
Cu  Cu1  1  0.18056000  0.18056000  0.36112000  1.0 0.8321443734
Cu  Cu2  1  0.81944000  0.18056000  0.00000000  1.0 0.8321443734
Cu  Cu3  1  0.81944000  0.81944000  0.63888000  1.0 0.8321443734
Cu  Cu4  1  0.18056000  0.81944000  0.00000000  1.0 0.8321443734
Cu  Cu5  1  0.18056000  0.36112000  0.18056000  1.0 0.8321443734
Cu  Cu6  1  0.18056000  0.00000000  0.81944000  1.0 0.8321443734
Cu  Cu7  1  0.81944000  0.00000000  0.18056000  1.0 0.8321443734
Cu  Cu8  1  0.81944000  0.63888000  0.81944000  1.0 0.8321443734
Cu  Cu9  1  0.36112000  0.18056000  0.18056000  1.0 0.8321443734
Cu  Cu10  1  0.63888000  0.81944000  0.81944000  1.0 0.8321443734
Cu  Cu11  1  0.00000000  0.18056000  0.81944000  1.0 0.8321443734
Cu  Cu12  1  0.00000000  0.81944000  0.18056000  1.0 0.8321443734
Cu  Cu13  1  0.51897000  0.75948000  0.75948000  1.0 0.7799310523
Cu  Cu14  1  0.48103000  0.24051000  0.24052000  1.0 0.7799310523
Cu  Cu15  1  0.00000000  0.75948000  0.24052000  1.0 0.7799310523
Cu  Cu16  1  0.00000000  0.24051000  0.75948000  1.0 0.7799310523
Cu  Cu17  1  0.75949000  0.00000000  0.24052000  1.0 0.7799310523
Cu  Cu18  1  0.24051000  0.00000000  0.75948000  1.0 0.7799310523
Cu  Cu19  1  0.75949000  0.51897000  0.75948000  1.0 0.7799310523
Cu  Cu20  1  0.24052000  0.48103000  0.24052000  1.0 0.7799310523
Cu  Cu21  1  0.75948000  0.75948000  0.51897000  1.0 0.7799310523
Cu  Cu22  1  0.24051000  0.24051000  0.48103000  1.0 0.7799310523
Cu  Cu23  1  0.24051000  0.75948000  0.00000000  1.0 0.7799310523
Cu  Cu24  1  0.75948000  0.24051000  0.00000000  1.0 0.7799310523
H  H1  1  0.25400000  0.62700000  0.62700000  1.0 0.1389872137
H  H2  1  0.74600000  0.37300000  0.37300000  1.0 0.1389872137
H  H3  1  0.00000000  0.62700000  0.37300000  1.0 0.1389872137
H  H4  1  0.00000000  0.37300000  0.62700000  1.0 0.1389872137
H  H5  1  0.62700000  0.00000000  0.37300000  1.0 0.1389872137
H  H6  1  0.37300000  0.00000000  0.62700000  1.0 0.1389872137
H  H7  1  0.62700000  0.25400000  0.62700000  1.0 0.1389872137
H  H8  1  0.37300000  0.74600000  0.37300000  1.0 0.1389872137
H  H9  1  0.62700000  0.62700000  0.25400000  1.0 0.1389872137
H  H10  1  0.37300000  0.37300000  0.74600000  1.0 0.1389872137
H  H11  1  0.37300000  0.62700000  0.00000000  1.0 0.1389872137
H  H12  1  0.62700000  0.37300000  0.00000000  1.0 0.1389872137
H  H13  1  0.21120000  0.33100000  0.33100000  1.0 0.1389872137
H  H14  1  0.78880000  0.11980000  0.11980000  1.0 0.1389872137
H  H15  1  0.00000000  0.88020000  0.66900000  1.0 0.1389872137
H  H16  1  0.00000000  0.66900000  0.88020000  1.0 0.1389872137
H  H17  1  0.33100000  0.00000000  0.11980000  1.0 0.1389872137
H  H18  1  0.11980000  0.00000000  0.33100000  1.0 0.1389872137
H  H19  1  0.88020000  0.21120000  0.88020000  1.0 0.1389872137
H  H20  1  0.66900000  0.78880000  0.66900000  1.0 0.1389872137
H  H21  1  0.33100000  0.33100000  0.21120000  1.0 0.1389872137
H  H22  1  0.11980000  0.11980000  0.78880000  1.0 0.1389872137
H  H23  1  0.66900000  0.88020000  0.00000000  1.0 0.1389872137
H  H24  1  0.88020000  0.66900000  0.00000000  1.0 0.1389872137
H  H25  1  0.33100000  0.11980000  0.00000000  1.0 0.1389872137
H  H26  1  0.66900000  0.66900000  0.78880000  1.0 0.1389872137
H  H27  1  0.11980000  0.33100000  0.00000000  1.0 0.1389872137
H  H28  1  0.88020000  0.88020000  0.21120000  1.0 0.1389872137
H  H29  1  0.33100000  0.21120000  0.33100000  1.0 0.1389872137
H  H30  1  0.11980000  0.78880000  0.11980000  1.0 0.1389872137
H  H31  1  0.88020000  0.00000000  0.66900000  1.0 0.1389872137
H  H32  1  0.66900000  0.00000000  0.88020000  1.0 0.1389872137
H  H33  1  0.78880000  0.66900000  0.66900000  1.0 0.1389872137
H  H34  1  0.21120000  0.88020000  0.88020000  1.0 0.1389872137
H  H35  1  0.00000000  0.33100000  0.11980000  1.0 0.1389872137
H  H36  1  0.00000000  0.11980000  0.33100000  1.0 0.1389872137
H  H37  1  0.26020000  0.41730000  0.50750000  1.0 0.1389872137
H  H38  1  0.73980000  0.24730000  0.15710000  1.0 0.1389872137
H  H39  1  0.90980000  0.75270000  0.49250000  1.0 0.1389872137
H  H40  1  0.09020000  0.58270000  0.84290000  1.0 0.1389872137
H  H41  1  0.41730000  0.90980000  0.15710000  1.0 0.1389872137
H  H42  1  0.24730000  0.09020000  0.50750000  1.0 0.1389872137
H  H43  1  0.75270000  0.26020000  0.84290000  1.0 0.1389872137
H  H44  1  0.58270000  0.73980000  0.49250000  1.0 0.1389872137
H  H45  1  0.41730000  0.50750000  0.26020000  1.0 0.1389872137
H  H46  1  0.24730000  0.15710000  0.73980000  1.0 0.1389872137
H  H47  1  0.58270000  0.84290000  0.09020000  1.0 0.1389872137
H  H48  1  0.75270000  0.49250000  0.90980000  1.0 0.1389872137
H  H49  1  0.50750000  0.24730000  0.09020000  1.0 0.1389872137
H  H50  1  0.49250000  0.58270000  0.73980000  1.0 0.1389872137
H  H51  1  0.15710000  0.41730000  0.90980000  1.0 0.1389872137
H  H52  1  0.84290000  0.75270000  0.26020000  1.0 0.1389872137
H  H53  1  0.50750000  0.26020000  0.41730000  1.0 0.1389872137
H  H54  1  0.15710000  0.73980000  0.24730000  1.0 0.1389872137
H  H55  1  0.84290000  0.09020000  0.58270000  1.0 0.1389872137
H  H56  1  0.49250000  0.90980000  0.75270000  1.0 0.1389872137
H  H57  1  0.73980000  0.49250000  0.58270000  1.0 0.1389872137
H  H58  1  0.26020000  0.84290000  0.75270000  1.0 0.1389872137
H  H59  1  0.09020000  0.50750000  0.24730000  1.0 0.1389872137
H  H60  1  0.90980000  0.15710000  0.41730000  1.0 0.1389872137
H  H61  1  0.73980000  0.58270000  0.49250000  1.0 0.1389872137
H  H62  1  0.26020000  0.75270000  0.84290000  1.0 0.1389872137
H  H63  1  0.09020000  0.24730000  0.50750000  1.0 0.1389872137
H  H64  1  0.90980000  0.41730000  0.15710000  1.0 0.1389872137
H  H65  1  0.58270000  0.09020000  0.84290000  1.0 0.1389872137
H  H66  1  0.75270000  0.90980000  0.49250000  1.0 0.1389872137
H  H67  1  0.24730000  0.73980000  0.15710000  1.0 0.1389872137
H  H68  1  0.41730000  0.26020000  0.50750000  1.0 0.1389872137
H  H69  1  0.58270000  0.49250000  0.73980000  1.0 0.1389872137
H  H70  1  0.75270000  0.84290000  0.26020000  1.0 0.1389872137
H  H71  1  0.41730000  0.15710000  0.90980000  1.0 0.1389872137
H  H72  1  0.24730000  0.50750000  0.09020000  1.0 0.1389872137
H  H73  1  0.49250000  0.75270000  0.90980000  1.0 0.1389872137
H  H74  1  0.50750000  0.41730000  0.26020000  1.0 0.1389872137
H  H75  1  0.84290000  0.58270000  0.09020000  1.0 0.1389872137
H  H76  1  0.15710000  0.24730000  0.73980000  1.0 0.1389872137
H  H77  1  0.49250000  0.73980000  0.58270000  1.0 0.1389872137
H  H78  1  0.84290000  0.26020000  0.75270000  1.0 0.1389872137
H  H79  1  0.15710000  0.90980000  0.41730000  1.0 0.1389872137
H  H80  1  0.50750000  0.09020000  0.24730000  1.0 0.1389872137
H  H81  1  0.26020000  0.50750000  0.41730000  1.0 0.1389872137
H  H82  1  0.73980000  0.15710000  0.24730000  1.0 0.1389872137
H  H83  1  0.90980000  0.49250000  0.75270000  1.0 0.1389872137
H  H84  1  0.09020000  0.84290000  0.58270000  1.0 0.1389872137
H  H85  1  0.41180000  0.64280000  0.64280000  1.0 0.1209904662
H  H86  1  0.58820000  0.23100000  0.23100000  1.0 0.1209904662
H  H87  1  0.00000000  0.76900000  0.35720000  1.0 0.1209904662
H  H88  1  0.00000000  0.35720000  0.76900000  1.0 0.1209904662
H  H89  1  0.64280000  0.00000000  0.23100000  1.0 0.1209904662
H  H90  1  0.23100000  0.00000000  0.64280000  1.0 0.1209904662
H  H91  1  0.76900000  0.41180000  0.76900000  1.0 0.1209904662
H  H92  1  0.35720000  0.58820000  0.35720000  1.0 0.1209904662
H  H93  1  0.64280000  0.64280000  0.41180000  1.0 0.1209904662
H  H94  1  0.23100000  0.23100000  0.58820000  1.0 0.1209904662
H  H95  1  0.35720000  0.76900000  0.00000000  1.0 0.1209904662
H  H96  1  0.76900000  0.35720000  0.00000000  1.0 0.1209904662
H  H97  1  0.64280000  0.23100000  0.00000000  1.0 0.1209904662
H  H98  1  0.35720000  0.35720000  0.58820000  1.0 0.1209904662
H  H99  1  0.23100000  0.64280000  0.00000000  1.0 0.1209904662
H  H100  1  0.76900000  0.76900000  0.41180000  1.0 0.1209904662
H  H101  1  0.64280000  0.41180000  0.64280000  1.0 0.1209904662
H  H102  1  0.23100000  0.58820000  0.23100000  1.0 0.1209904662
H  H103  1  0.76900000  0.00000000  0.35720000  1.0 0.1209904662
H  H104  1  0.35720000  0.00000000  0.76900000  1.0 0.1209904662
H  H105  1  0.58820000  0.35720000  0.35720000  1.0 0.1209904662
H  H106  1  0.41180000  0.76900000  0.76900000  1.0 0.1209904662
H  H107  1  0.00000000  0.64280000  0.23100000  1.0 0.1209904662
H  H108  1  0.00000000  0.23100000  0.64280000  1.0 0.1209904662
C  C1  1  0.26320000  0.47090000  0.47090000  1.0 0.1209904662
C  C2  1  0.73680000  0.20770000  0.20770000  1.0 0.1209904662
C  C3  1  0.00000000  0.79230000  0.52910000  1.0 0.1138535904
C  C4  1  0.00000000  0.52910000  0.79230000  1.0 0.1138535904
C  C5  1  0.47090000  0.00000000  0.20770000  1.0 0.1209904662
C  C6  1  0.20770000  0.00000000  0.47090000  1.0 0.1209904662
C  C7  1  0.79230000  0.26320000  0.79230000  1.0 0.1138535904
C  C8  1  0.52910000  0.73680000  0.52910000  1.0 0.1138535904
C  C9  1  0.47090000  0.47090000  0.26320000  1.0 0.1209904662
C  C10  1  0.20770000  0.20770000  0.73680000  1.0 0.1138535904
C  C11  1  0.52910000  0.79230000  0.00000000  1.0 0.1209904662
C  C12  1  0.79230000  0.52910000  0.00000000  1.0 0.1138535904
C  C13  1  0.47090000  0.20770000  0.00000000  1.0 0.1209904662
C  C14  1  0.52910000  0.52910000  0.73680000  1.0 0.1209904662
C  C15  1  0.20770000  0.47090000  0.00000000  1.0 0.1209904662
C  C16  1  0.79230000  0.79230000  0.26320000  1.0 0.1138535904
C  C17  1  0.47090000  0.26320000  0.47090000  1.0 0.1138535904
C  C18  1  0.20770000  0.73680000  0.20770000  1.0 0.1209904662
C  C19  1  0.79230000  0.00000000  0.52910000  1.0 0.1138535904
C  C20  1  0.52910000  0.00000000  0.79230000  1.0 0.1209904662
C  C21  1  0.73680000  0.52910000  0.52910000  1.0 0.1209904662
C  C22  1  0.26320000  0.79230000  0.79230000  1.0 0.1209904662
C  C23  1  0.00000000  0.47090000  0.20770000  1.0 0.1209904662
C  C24  1  0.00000000  0.20770000  0.47090000  1.0 0.1138535904
C  C25  1  0.29640000  0.64820000  0.64820000  1.0 -0.141573007
C  C26  1  0.70360000  0.35180000  0.35180000  1.0 -0.141573007
C  C27  1  0.00000000  0.64820000  0.35180000  1.0 -0.141573007
C  C28  1  0.00000000  0.35180000  0.64820000  1.0 -0.141573007
C  C29  1  0.64820000  0.00000000  0.35180000  1.0 -0.141573007
C  C30  1  0.35180000  0.00000000  0.64820000  1.0 -0.141573007
C  C31  1  0.64820000  0.29640000  0.64820000  1.0 -0.141573007
C  C32  1  0.35180000  0.70360000  0.35180000  1.0 -0.141573007
C  C33  1  0.64820000  0.64820000  0.29640000  1.0 -0.141573007
C  C34  1  0.35180000  0.35180000  0.70360000  1.0 -0.141573007
C  C35  1  0.35180000  0.64820000  0.00000000  1.0 -0.141573007
C  C36  1  0.64820000  0.35180000  0.00000000  1.0 -0.141573007
C  C37  1  0.22484000  0.36612000  0.36612000  1.0 -0.0831985731
C  C38  1  0.77516000  0.14128000  0.14128000  1.0 -0.0831985731
C  C39  1  0.00000000  0.85872000  0.63388000  1.0 -0.0831985731
C  C40  1  0.00000000  0.63388000  0.85872000  1.0 -0.0831985731
C  C41  1  0.36612000  0.00000000  0.14128000  1.0 -0.0831985731
C  C42  1  0.14128000  0.00000000  0.36612000  1.0 -0.0831985731
C  C43  1  0.85872000  0.22484000  0.85872000  1.0 -0.0831985731
C  C44  1  0.63388000  0.77516000  0.63388000  1.0 -0.0831985731
C  C45  1  0.36612000  0.36612000  0.22484000  1.0 -0.0831985731
C  C46  1  0.14128000  0.14128000  0.77516000  1.0 -0.0831985731
C  C47  1  0.63388000  0.85872000  0.00000000  1.0 -0.0831985731
C  C48  1  0.85872000  0.63388000  0.00000000  1.0 -0.0831985731
C  C49  1  0.36612000  0.14128000  0.00000000  1.0 -0.0831985731
C  C50  1  0.63388000  0.63388000  0.77516000  1.0 -0.0831985731
C  C51  1  0.14128000  0.36612000  0.00000000  1.0 -0.0831985731
C  C52  1  0.85872000  0.85872000  0.22484000  1.0 -0.0831985731
C  C53  1  0.36612000  0.22484000  0.36612000  1.0 -0.0831985731
C  C54  1  0.14128000  0.77516000  0.14128000  1.0 -0.0831985731
C  C55  1  0.85872000  0.00000000  0.63388000  1.0 -0.0831985731
C  C56  1  0.63388000  0.00000000  0.85872000  1.0 -0.0831985731
C  C57  1  0.77516000  0.63388000  0.63388000  1.0 -0.0831985731
C  C58  1  0.22484000  0.85872000  0.85872000  1.0 -0.0831985731
C  C59  1  0.00000000  0.36612000  0.14128000  1.0 -0.0831985731
C  C60  1  0.00000000  0.14128000  0.36612000  1.0 -0.0831985731
C  C61  1  0.32818000  0.62649000  0.62649000  1.0 0.0896134103
C  C62  1  0.67182000  0.29831000  0.29831000  1.0 0.0896134103
C  C63  1  0.00000000  0.70169000  0.37351000  1.0 0.0896134103
C  C64  1  0.00000000  0.37351000  0.70169000  1.0 0.0896134103
C  C65  1  0.62649000  0.00000000  0.29831000  1.0 0.0896134103
C  C66  1  0.29831000  0.00000000  0.62649000  1.0 0.0896134103
C  C67  1  0.70169000  0.32818000  0.70169000  1.0 0.0896134103
C  C68  1  0.37351000  0.67182000  0.37351000  1.0 0.0896134103
C  C69  1  0.62649000  0.62649000  0.32818000  1.0 0.0896134103
C  C70  1  0.29831000  0.29831000  0.67182000  1.0 0.0896134103
C  C71  1  0.37351000  0.70169000  0.00000000  1.0 0.0896134103
C  C72  1  0.70169000  0.37351000  0.00000000  1.0 0.0896134103
C  C73  1  0.62649000  0.29831000  0.00000000  1.0 0.0896134103
C  C74  1  0.37351000  0.37351000  0.67182000  1.0 0.0896134103
C  C75  1  0.29831000  0.62649000  0.00000000  1.0 0.0896134103
C  C76  1  0.70169000  0.70169000  0.32818000  1.0 0.0896134103
C  C77  1  0.62649000  0.32818000  0.62649000  1.0 0.0896134103
C  C78  1  0.29831000  0.67182000  0.29831000  1.0 0.0896134103
C  C79  1  0.70169000  0.00000000  0.37351000  1.0 0.0896134103
C  C80  1  0.37351000  0.00000000  0.70169000  1.0 0.0896134103
C  C81  1  0.67182000  0.37351000  0.37351000  1.0 0.0896134103
C  C82  1  0.32818000  0.70169000  0.70169000  1.0 0.0896134103
C  C83  1  0.00000000  0.62649000  0.29831000  1.0 0.0896134103
C  C84  1  0.00000000  0.29831000  0.62649000  1.0 0.0896134103
C  C85  1  0.23513000  0.36681000  0.41808000  1.0 -0.0244620474
C  C86  1  0.76487000  0.18295000  0.13168000  1.0 -0.0244620474
C  C87  1  0.94873000  0.81705000  0.58192000  1.0 -0.0244620474
C  C88  1  0.05127000  0.63319000  0.86832000  1.0 -0.0244620474
C  C89  1  0.36681000  0.94873000  0.13168000  1.0 -0.0244620474
C  C90  1  0.18295000  0.05127000  0.41808000  1.0 -0.0244620474
C  C91  1  0.81705000  0.23513000  0.86832000  1.0 -0.0244620474
C  C92  1  0.63319000  0.76487000  0.58192000  1.0 -0.0244620474
C  C93  1  0.36681000  0.41808000  0.23513000  1.0 -0.0256395909
C  C94  1  0.18295000  0.13168000  0.76487000  1.0 -0.0256395909
C  C95  1  0.63319000  0.86832000  0.05127000  1.0 -0.0256395909
C  C96  1  0.81705000  0.58192000  0.94873000  1.0 -0.0244620474
C  C97  1  0.41808000  0.18295000  0.05127000  1.0 -0.0256395909
C  C98  1  0.58192000  0.63319000  0.76487000  1.0 -0.0256395909
C  C99  1  0.13168000  0.36681000  0.94873000  1.0 -0.0256395909
C  C100  1  0.86832000  0.81705000  0.23513000  1.0 -0.0256395909
C  C101  1  0.41808000  0.23513000  0.36681000  1.0 -0.0244620474
C  C102  1  0.13168000  0.76487000  0.18295000  1.0 -0.0256395909
C  C103  1  0.86832000  0.05127000  0.63319000  1.0 -0.0244620474
C  C104  1  0.58192000  0.94873000  0.81705000  1.0 -0.0244620474
C  C105  1  0.76487000  0.58192000  0.63319000  1.0 -0.0256395909
C  C106  1  0.23513000  0.86832000  0.81705000  1.0 -0.0256395909
C  C107  1  0.05127000  0.41808000  0.18295000  1.0 -0.0256395909
C  C108  1  0.94873000  0.13168000  0.36681000  1.0 -0.0244620474
C  C109  1  0.76487000  0.63319000  0.58192000  1.0 -0.0256395909
C  C110  1  0.23513000  0.81705000  0.86832000  1.0 -0.0256395909
C  C111  1  0.05127000  0.18295000  0.41808000  1.0 -0.0244620474
C  C112  1  0.94873000  0.36681000  0.13168000  1.0 -0.0244620474
C  C113  1  0.63319000  0.05127000  0.86832000  1.0 -0.0256395909
C  C114  1  0.81705000  0.94873000  0.58192000  1.0 -0.0244620474
C  C115  1  0.18295000  0.76487000  0.13168000  1.0 -0.0256395909
C  C116  1  0.36681000  0.23513000  0.41808000  1.0 -0.0244620474
C  C117  1  0.63319000  0.58192000  0.76487000  1.0 -0.0256395909
C  C118  1  0.81705000  0.86832000  0.23513000  1.0 -0.0256395909
C  C119  1  0.36681000  0.13168000  0.94873000  1.0 -0.0256395909
C  C120  1  0.18295000  0.41808000  0.05127000  1.0 -0.0256395909
C  C121  1  0.58192000  0.81705000  0.94873000  1.0 -0.0256395909
C  C122  1  0.41808000  0.36681000  0.23513000  1.0 -0.0256395909
C  C123  1  0.86832000  0.63319000  0.05127000  1.0 -0.0256395909
C  C124  1  0.13168000  0.18295000  0.76487000  1.0 -0.0256395909
C  C125  1  0.58192000  0.76487000  0.63319000  1.0 -0.0244620474
C  C126  1  0.86832000  0.23513000  0.81705000  1.0 -0.0244620474
C  C127  1  0.13168000  0.94873000  0.36681000  1.0 -0.0244620474
C  C128  1  0.41808000  0.05127000  0.18295000  1.0 -0.0256395909
C  C129  1  0.23513000  0.41808000  0.36681000  1.0 -0.0244620474
C  C130  1  0.76487000  0.13168000  0.18295000  1.0 -0.0244620474
C  C131  1  0.94873000  0.58192000  0.81705000  1.0 -0.0244620474
C  C132  1  0.05127000  0.86832000  0.63319000  1.0 -0.0244620474
C  C133  1  0.29830000  0.56915000  0.56915000  1.0 -0.0831985731
C  C134  1  0.70170000  0.27085000  0.27085000  1.0 -0.0831985731
C  C135  1  0.00000000  0.72915000  0.43085000  1.0 -0.0864806228
C  C136  1  0.00000000  0.43085000  0.72915000  1.0 -0.0864806228
C  C137  1  0.56915000  0.00000000  0.27085000  1.0 -0.0831985731
C  C138  1  0.27085000  0.00000000  0.56915000  1.0 -0.0864806228
C  C139  1  0.72915000  0.29830000  0.72915000  1.0 -0.0864806228
C  C140  1  0.43085000  0.70170000  0.43085000  1.0 -0.0864806228
C  C141  1  0.56915000  0.56915000  0.29830000  1.0 -0.0864806228
C  C142  1  0.27085000  0.27085000  0.70170000  1.0 -0.0864806228
C  C143  1  0.43085000  0.72915000  0.00000000  1.0 -0.0831985731
C  C144  1  0.72915000  0.43085000  0.00000000  1.0 -0.0831985731
C  C145  1  0.56915000  0.27085000  0.00000000  1.0 -0.0831985731
C  C146  1  0.43085000  0.43085000  0.70170000  1.0 -0.0864806228
C  C147  1  0.27085000  0.56915000  0.00000000  1.0 -0.0831985731
C  C148  1  0.72915000  0.72915000  0.29830000  1.0 -0.0864806228
C  C149  1  0.56915000  0.29830000  0.56915000  1.0 -0.0864806228
C  C150  1  0.27085000  0.70170000  0.27085000  1.0 -0.0864806228
C  C151  1  0.72915000  0.00000000  0.43085000  1.0 -0.0831985731
C  C152  1  0.43085000  0.00000000  0.72915000  1.0 -0.0831985731
C  C153  1  0.70170000  0.43085000  0.43085000  1.0 -0.0831985731
C  C154  1  0.29830000  0.72915000  0.72915000  1.0 -0.0864806228
C  C155  1  0.00000000  0.56915000  0.27085000  1.0 -0.0831985731
C  C156  1  0.00000000  0.27085000  0.56915000  1.0 -0.0864806228
C  C157  1  0.25410000  0.41892000  0.47202000  1.0 -0.141573007
C  C158  1  0.74590000  0.21792000  0.16482000  1.0 -0.141573007
C  C159  1  0.94690000  0.78208000  0.52798000  1.0 -0.141573007
C  C160  1  0.05310000  0.58108000  0.83518000  1.0 -0.141573007
C  C161  1  0.41892000  0.94690000  0.16482000  1.0 -0.141573007
C  C162  1  0.21792000  0.05310000  0.47202000  1.0 -0.141573007
C  C163  1  0.78208000  0.25410000  0.83518000  1.0 -0.141573007
C  C164  1  0.58108000  0.74590000  0.52798000  1.0 -0.141573007
C  C165  1  0.41892000  0.47202000  0.25410000  1.0 -0.141573007
C  C166  1  0.21792000  0.16482000  0.74590000  1.0 -0.141573007
C  C167  1  0.58108000  0.83518000  0.05310000  1.0 -0.141573007
C  C168  1  0.78208000  0.52798000  0.94690000  1.0 -0.141573007
C  C169  1  0.47202000  0.21792000  0.05310000  1.0 -0.141573007
C  C170  1  0.52798000  0.58108000  0.74590000  1.0 -0.141573007
C  C171  1  0.16482000  0.41892000  0.94690000  1.0 -0.141573007
C  C172  1  0.83518000  0.78208000  0.25410000  1.0 -0.141573007
C  C173  1  0.47202000  0.25410000  0.41892000  1.0 -0.141573007
C  C174  1  0.16482000  0.74590000  0.21792000  1.0 -0.141573007
C  C175  1  0.83518000  0.05310000  0.58108000  1.0 -0.141573007
C  C176  1  0.52798000  0.94690000  0.78208000  1.0 -0.141573007
C  C177  1  0.74590000  0.52798000  0.58108000  1.0 -0.141573007
C  C178  1  0.25410000  0.83518000  0.78208000  1.0 -0.141573007
C  C179  1  0.05310000  0.47202000  0.21792000  1.0 -0.141573007
C  C180  1  0.94690000  0.16482000  0.41892000  1.0 -0.141573007
C  C181  1  0.74590000  0.58108000  0.52798000  1.0 -0.141573007
C  C182  1  0.25410000  0.78208000  0.83518000  1.0 -0.141573007
C  C183  1  0.05310000  0.21792000  0.47202000  1.0 -0.141573007
C  C184  1  0.94690000  0.41892000  0.16482000  1.0 -0.141573007
C  C185  1  0.58108000  0.05310000  0.83518000  1.0 -0.141573007
C  C186  1  0.78208000  0.94690000  0.52798000  1.0 -0.141573007
C  C187  1  0.21792000  0.74590000  0.16482000  1.0 -0.141573007
C  C188  1  0.41892000  0.25410000  0.47202000  1.0 -0.141573007
C  C189  1  0.58108000  0.52798000  0.74590000  1.0 -0.141573007
C  C190  1  0.78208000  0.83518000  0.25410000  1.0 -0.141573007
C  C191  1  0.41892000  0.16482000  0.94690000  1.0 -0.141573007
C  C192  1  0.21792000  0.47202000  0.05310000  1.0 -0.141573007
C  C193  1  0.52798000  0.78208000  0.94690000  1.0 -0.141573007
C  C194  1  0.47202000  0.41892000  0.25410000  1.0 -0.141573007
C  C195  1  0.83518000  0.58108000  0.05310000  1.0 -0.141573007
C  C196  1  0.16482000  0.21792000  0.74590000  1.0 -0.141573007
C  C197  1  0.52798000  0.74590000  0.58108000  1.0 -0.141573007
C  C198  1  0.83518000  0.25410000  0.78208000  1.0 -0.141573007
C  C199  1  0.16482000  0.94690000  0.41892000  1.0 -0.141573007
C  C200  1  0.47202000  0.05310000  0.21792000  1.0 -0.141573007
C  C201  1  0.25410000  0.47202000  0.41892000  1.0 -0.141573007
C  C202  1  0.74590000  0.16482000  0.21792000  1.0 -0.141573007
C  C203  1  0.94690000  0.52798000  0.78208000  1.0 -0.141573007
C  C204  1  0.05310000  0.83518000  0.58108000  1.0 -0.141573007
C  C205  1  0.39066000  0.65813000  0.65813000  1.0 0.0348976949
C  C206  1  0.60934000  0.26747000  0.26747000  1.0 0.0355707682
C  C207  1  0.00000000  0.73253000  0.34187000  1.0 0.0348976949
C  C208  1  0.00000000  0.34187000  0.73253000  1.0 0.0355707682
C  C209  1  0.65813000  0.00000000  0.26747000  1.0 0.0355707682
C  C210  1  0.26747000  0.00000000  0.65813000  1.0 0.0355707682
C  C211  1  0.73253000  0.39066000  0.73253000  1.0 0.0355707682
C  C212  1  0.34187000  0.60934000  0.34187000  1.0 0.0355707682
C  C213  1  0.65813000  0.65813000  0.39066000  1.0 0.0355707682
C  C214  1  0.26747000  0.26747000  0.60934000  1.0 0.0355707682
C  C215  1  0.34187000  0.73253000  0.00000000  1.0 0.0355707682
C  C216  1  0.73253000  0.34187000  0.00000000  1.0 0.0355707682
C  C217  1  0.65813000  0.26747000  0.00000000  1.0 0.0355707682
C  C218  1  0.34187000  0.34187000  0.60934000  1.0 0.0355707682
C  C219  1  0.26747000  0.65813000  0.00000000  1.0 0.0355707682
C  C220  1  0.73253000  0.73253000  0.39066000  1.0 0.0355707682
C  C221  1  0.65813000  0.39066000  0.65813000  1.0 0.0355707682
C  C222  1  0.26747000  0.60934000  0.26747000  1.0 0.0355707682
C  C223  1  0.73253000  0.00000000  0.34187000  1.0 0.0355707682
C  C224  1  0.34187000  0.00000000  0.73253000  1.0 0.0355707682
C  C225  1  0.60934000  0.34187000  0.34187000  1.0 0.0355707682
C  C226  1  0.39066000  0.73253000  0.73253000  1.0 0.0355707682
C  C227  1  0.00000000  0.65813000  0.26747000  1.0 0.0355707682
C  C228  1  0.00000000  0.26747000  0.65813000  1.0 0.0355707682
C  C229  1  0.22700000  0.30892000  0.42092000  1.0 0.5807847927
C  C230  1  0.77300000  0.19392000  0.08192000  1.0 0.5807847927
C  C231  1  0.88800000  0.80608000  0.57908000  1.0 0.5807847927
C  C232  1  0.11200000  0.69108000  0.91808000  1.0 0.5807847927
C  C233  1  0.30892000  0.88800000  0.08192000  1.0 0.5807847927
C  C234  1  0.19392000  0.11200000  0.42092000  1.0 0.5807847927
C  C235  1  0.80608000  0.22700000  0.91808000  1.0 0.5807847927
C  C236  1  0.69108000  0.77300000  0.57908000  1.0 0.5807847927
C  C237  1  0.30892000  0.42092000  0.22700000  1.0 0.5807847927
C  C238  1  0.19392000  0.08192000  0.77300000  1.0 0.5807847927
C  C239  1  0.69108000  0.91808000  0.11200000  1.0 0.5807847927
C  C240  1  0.80608000  0.57908000  0.88800000  1.0 0.5807847927
C  C241  1  0.42092000  0.19392000  0.11200000  1.0 0.5807847927
C  C242  1  0.57908000  0.69108000  0.77300000  1.0 0.5807847927
C  C243  1  0.08192000  0.30892000  0.88800000  1.0 0.5807847927
C  C244  1  0.91808000  0.80608000  0.22700000  1.0 0.5807847927
C  C245  1  0.42092000  0.22700000  0.30892000  1.0 0.5807847927
C  C246  1  0.08192000  0.77300000  0.19392000  1.0 0.5807847927
C  C247  1  0.91808000  0.11200000  0.69108000  1.0 0.5807847927
C  C248  1  0.57908000  0.88800000  0.80608000  1.0 0.5807847927
C  C249  1  0.77300000  0.57908000  0.69108000  1.0 0.5807847927
C  C250  1  0.22700000  0.91808000  0.80608000  1.0 0.5807847927
C  C251  1  0.11200000  0.42092000  0.19392000  1.0 0.5807847927
C  C252  1  0.88800000  0.08192000  0.30892000  1.0 0.5807847927
C  C253  1  0.77300000  0.69108000  0.57908000  1.0 0.5807847927
C  C254  1  0.22700000  0.80608000  0.91808000  1.0 0.5807847927
C  C255  1  0.11200000  0.19392000  0.42092000  1.0 0.5807847927
C  C256  1  0.88800000  0.30892000  0.08192000  1.0 0.5807847927
C  C257  1  0.69108000  0.11200000  0.91808000  1.0 0.5807847927
C  C258  1  0.80608000  0.88800000  0.57908000  1.0 0.5807847927
C  C259  1  0.19392000  0.77300000  0.08192000  1.0 0.5807847927
C  C260  1  0.30892000  0.22700000  0.42092000  1.0 0.5807847927
C  C261  1  0.69108000  0.57908000  0.77300000  1.0 0.5807847927
C  C262  1  0.80608000  0.91808000  0.22700000  1.0 0.5807847927
C  C263  1  0.30892000  0.08192000  0.88800000  1.0 0.5807847927
C  C264  1  0.19392000  0.42092000  0.11200000  1.0 0.5807847927
C  C265  1  0.57908000  0.80608000  0.88800000  1.0 0.5807847927
C  C266  1  0.42092000  0.30892000  0.22700000  1.0 0.5807847927
C  C267  1  0.91808000  0.69108000  0.11200000  1.0 0.5807847927
C  C268  1  0.08192000  0.19392000  0.77300000  1.0 0.5807847927
C  C269  1  0.57908000  0.77300000  0.69108000  1.0 0.5807847927
C  C270  1  0.91808000  0.22700000  0.80608000  1.0 0.5807847927
C  C271  1  0.08192000  0.88800000  0.30892000  1.0 0.5807847927
C  C272  1  0.42092000  0.11200000  0.19392000  1.0 0.5807847927
C  C273  1  0.22700000  0.42092000  0.30892000  1.0 0.5807847927
C  C274  1  0.77300000  0.08192000  0.19392000  1.0 0.5807847927
C  C275  1  0.88800000  0.57908000  0.80608000  1.0 0.5807847927
C  C276  1  0.11200000  0.91808000  0.69108000  1.0 0.5807847927
C  C277  1  0.28340000  0.52450000  0.52450000  1.0 -0.1060533868
C  C278  1  0.71660000  0.24110000  0.24110000  1.0 -0.1060533868
C  C279  1  0.00000000  0.75890000  0.47550000  1.0 -0.1032836106
C  C280  1  0.00000000  0.47550000  0.75890000  1.0 -0.1032836106
C  C281  1  0.52450000  0.00000000  0.24110000  1.0 -0.1060533868
C  C282  1  0.24110000  0.00000000  0.52450000  1.0 -0.1032836106
C  C283  1  0.75890000  0.28340000  0.75890000  1.0 -0.1032836106
C  C284  1  0.47550000  0.71660000  0.47550000  1.0 -0.1032836106
C  C285  1  0.52450000  0.52450000  0.28340000  1.0 -0.1032836106
C  C286  1  0.24110000  0.24110000  0.71660000  1.0 -0.1032836106
C  C287  1  0.47550000  0.75890000  0.00000000  1.0 -0.1060533868
C  C288  1  0.75890000  0.47550000  0.00000000  1.0 -0.1060533868
C  C289  1  0.52450000  0.24110000  0.00000000  1.0 -0.1060533868
C  C290  1  0.47550000  0.47550000  0.71660000  1.0 -0.1032836106
C  C291  1  0.24110000  0.52450000  0.00000000  1.0 -0.1060533868
C  C292  1  0.75890000  0.75890000  0.28340000  1.0 -0.1032836106
C  C293  1  0.52450000  0.28340000  0.52450000  1.0 -0.1032836106
C  C294  1  0.24110000  0.71660000  0.24110000  1.0 -0.1032836106
C  C295  1  0.75890000  0.00000000  0.47550000  1.0 -0.1060533868
C  C296  1  0.47550000  0.00000000  0.75890000  1.0 -0.1060533868
C  C297  1  0.71660000  0.47550000  0.47550000  1.0 -0.1060533868
C  C298  1  0.28340000  0.75890000  0.75890000  1.0 -0.1032836106
C  C299  1  0.00000000  0.52450000  0.24110000  1.0 -0.1060533868
C  C300  1  0.00000000  0.24110000  0.52450000  1.0 -0.1032836106
N  N1  1  0.42200000  0.71100000  0.71100000  1.0 -0.1853420002
N  N2  1  0.57800000  0.28900000  0.28900000  1.0 -0.184445077
N  N3  1  0.00000000  0.71100000  0.28900000  1.0 -0.184445077
N  N4  1  0.00000000  0.28900000  0.71100000  1.0 -0.184445077
N  N5  1  0.71100000  0.00000000  0.28900000  1.0 -0.184445077
N  N6  1  0.28900000  0.00000000  0.71100000  1.0 -0.1853420002
N  N7  1  0.71100000  0.42200000  0.71100000  1.0 -0.184445077
N  N8  1  0.28900000  0.57800000  0.28900000  1.0 -0.1853420002
N  N9  1  0.71100000  0.71100000  0.42200000  1.0 -0.1853420002
N  N10  1  0.28900000  0.28900000  0.57800000  1.0 -0.1853420002
N  N11  1  0.28900000  0.71100000  0.00000000  1.0 -0.1853420002
N  N12  1  0.71100000  0.28900000  0.00000000  1.0 -0.184445077
O  O1  1  0.19858000  0.26175000  0.37137000  1.0 -0.4962300776
O  O2  1  0.80142000  0.17279000  0.06317000  1.0 -0.4962300776
O  O3  1  0.89038000  0.82721000  0.62863000  1.0 -0.4962300776
O  O4  1  0.10962000  0.73825000  0.93683000  1.0 -0.4962300776
O  O5  1  0.26175000  0.89038000  0.06317000  1.0 -0.4962300776
O  O6  1  0.17279000  0.10962000  0.37137000  1.0 -0.4962300776
O  O7  1  0.82721000  0.19858000  0.93683000  1.0 -0.4962300776
O  O8  1  0.73825000  0.80142000  0.62863000  1.0 -0.4962300776
O  O9  1  0.26175000  0.37137000  0.19858000  1.0 -0.4962300776
O  O10  1  0.17279000  0.06317000  0.80142000  1.0 -0.4962300776
O  O11  1  0.73825000  0.93683000  0.10962000  1.0 -0.4962300776
O  O12  1  0.82721000  0.62863000  0.89038000  1.0 -0.4962300776
O  O13  1  0.37137000  0.17279000  0.10962000  1.0 -0.4962300776
O  O14  1  0.62863000  0.73825000  0.80142000  1.0 -0.4962300776
O  O15  1  0.06317000  0.26175000  0.89038000  1.0 -0.4962300776
O  O16  1  0.93683000  0.82721000  0.19858000  1.0 -0.4962300776
O  O17  1  0.37137000  0.19858000  0.26175000  1.0 -0.4962300776
O  O18  1  0.06317000  0.80142000  0.17279000  1.0 -0.4962300776
O  O19  1  0.93683000  0.10962000  0.73825000  1.0 -0.4962300776
O  O20  1  0.62863000  0.89038000  0.82721000  1.0 -0.4962300776
O  O21  1  0.80142000  0.62863000  0.73825000  1.0 -0.4962300776
O  O22  1  0.19858000  0.93683000  0.82721000  1.0 -0.4962300776
O  O23  1  0.10962000  0.37137000  0.17279000  1.0 -0.4962300776
O  O24  1  0.89038000  0.06317000  0.26175000  1.0 -0.4962300776
O  O25  1  0.80142000  0.73825000  0.62863000  1.0 -0.4962300776
O  O26  1  0.19858000  0.82721000  0.93683000  1.0 -0.4962300776
O  O27  1  0.10962000  0.17279000  0.37137000  1.0 -0.4962300776
O  O28  1  0.89038000  0.26175000  0.06317000  1.0 -0.4962300776
O  O29  1  0.73825000  0.10962000  0.93683000  1.0 -0.4962300776
O  O30  1  0.82721000  0.89038000  0.62863000  1.0 -0.4962300776
O  O31  1  0.17279000  0.80142000  0.06317000  1.0 -0.4962300776
O  O32  1  0.26175000  0.19858000  0.37137000  1.0 -0.4962300776
O  O33  1  0.73825000  0.62863000  0.80142000  1.0 -0.4949385686
O  O34  1  0.82721000  0.93683000  0.19858000  1.0 -0.4962300776
O  O35  1  0.26175000  0.06317000  0.89038000  1.0 -0.4962300776
O  O36  1  0.17279000  0.37137000  0.10962000  1.0 -0.4962300776
O  O37  1  0.62863000  0.82721000  0.89038000  1.0 -0.4962300776
O  O38  1  0.37137000  0.26175000  0.19858000  1.0 -0.4962300776
O  O39  1  0.93683000  0.73825000  0.10962000  1.0 -0.4962300776
O  O40  1  0.06317000  0.17279000  0.80142000  1.0 -0.4962300776
O  O41  1  0.62863000  0.80142000  0.73825000  1.0 -0.4962300776
O  O42  1  0.93683000  0.19858000  0.82721000  1.0 -0.4962300776
O  O43  1  0.06317000  0.89038000  0.26175000  1.0 -0.4962300776
O  O44  1  0.37137000  0.10962000  0.17279000  1.0 -0.4962300776
O  O45  1  0.19858000  0.37137000  0.26175000  1.0 -0.4962300776
O  O46  1  0.80142000  0.06317000  0.17279000  1.0 -0.4962300776
O  O47  1  0.89038000  0.62863000  0.82721000  1.0 -0.4962300776
O  O48  1  0.10962000  0.93683000  0.73825000  1.0 -0.4962300776
O  O49  1  0.24888000  0.31210000  0.47268000  1.0 -0.5282912938
O  O50  1  0.75112000  0.22380000  0.06322000  1.0 -0.5282912938
O  O51  1  0.83942000  0.77620000  0.52732000  1.0 -0.5282912938
O  O52  1  0.16058000  0.68790000  0.93678000  1.0 -0.5282912938
O  O53  1  0.31210000  0.83942000  0.06322000  1.0 -0.5282912938
O  O54  1  0.22380000  0.16058000  0.47268000  1.0 -0.5282912938
O  O55  1  0.77620000  0.24888000  0.93678000  1.0 -0.5282912938
O  O56  1  0.68790000  0.75112000  0.52732000  1.0 -0.5282912938
O  O57  1  0.31210000  0.47268000  0.24888000  1.0 -0.5282912938
O  O58  1  0.22380000  0.06322000  0.75112000  1.0 -0.5282912938
O  O59  1  0.68790000  0.93678000  0.16058000  1.0 -0.5282912938
O  O60  1  0.77620000  0.52732000  0.83942000  1.0 -0.5282912938
O  O61  1  0.47268000  0.22380000  0.16058000  1.0 -0.5282912938
O  O62  1  0.52732000  0.68790000  0.75112000  1.0 -0.5282912938
O  O63  1  0.06322000  0.31210000  0.83942000  1.0 -0.5282912938
O  O64  1  0.93678000  0.77620000  0.24888000  1.0 -0.5282912938
O  O65  1  0.47268000  0.24888000  0.31210000  1.0 -0.5282912938
O  O66  1  0.06322000  0.75112000  0.22380000  1.0 -0.5282912938
O  O67  1  0.93678000  0.16058000  0.68790000  1.0 -0.5282912938
O  O68  1  0.52732000  0.83942000  0.77620000  1.0 -0.5282912938
O  O69  1  0.75112000  0.52732000  0.68790000  1.0 -0.5282912938
O  O70  1  0.24888000  0.93678000  0.77620000  1.0 -0.5282912938
O  O71  1  0.16058000  0.47268000  0.22380000  1.0 -0.5282912938
O  O72  1  0.83942000  0.06322000  0.31210000  1.0 -0.5282912938
O  O73  1  0.75112000  0.68790000  0.52732000  1.0 -0.5282912938
O  O74  1  0.24888000  0.77620000  0.93678000  1.0 -0.5282912938
O  O75  1  0.16058000  0.22380000  0.47268000  1.0 -0.5282912938
O  O76  1  0.83942000  0.31210000  0.06322000  1.0 -0.5282912938
O  O77  1  0.68790000  0.16058000  0.93678000  1.0 -0.5282912938
O  O78  1  0.77620000  0.83942000  0.52732000  1.0 -0.5282912938
O  O79  1  0.22380000  0.75112000  0.06322000  1.0 -0.5282912938
O  O80  1  0.31210000  0.24888000  0.47268000  1.0 -0.5282912938
O  O81  1  0.68790000  0.52732000  0.75112000  1.0 -0.5282912938
O  O82  1  0.77620000  0.93678000  0.24888000  1.0 -0.5282912938
O  O83  1  0.31210000  0.06322000  0.83942000  1.0 -0.5282912938
O  O84  1  0.22380000  0.47268000  0.16058000  1.0 -0.5282912938
O  O85  1  0.52732000  0.77620000  0.83942000  1.0 -0.5282912938
O  O86  1  0.47268000  0.31210000  0.24888000  1.0 -0.5282912938
O  O87  1  0.93678000  0.68790000  0.16058000  1.0 -0.5282912938
O  O88  1  0.06322000  0.22380000  0.75112000  1.0 -0.5282912938
O  O89  1  0.52732000  0.75112000  0.68790000  1.0 -0.5282912938
O  O90  1  0.93678000  0.24888000  0.77620000  1.0 -0.5282912938
O  O91  1  0.06322000  0.83942000  0.31210000  1.0 -0.5282912938
O  O92  1  0.47268000  0.16058000  0.22380000  1.0 -0.5282912938
O  O93  1  0.24888000  0.47268000  0.31210000  1.0 -0.5282912938
O  O94  1  0.75112000  0.06322000  0.22380000  1.0 -0.5282912938
O  O95  1  0.83942000  0.52732000  0.77620000  1.0 -0.5282912938
O  O96  1  0.16058000  0.93678000  0.68790000  1.0 -0.5282912938
