# DDEC6 charges by PACMAN v1.1 (https://github.com/mtap-research/PACMAN-charge/)
data_UVIPIZ_FSR_pacman
_symmetry_space_group_name_H-M   'P 1'
_cell_length_a   18.63970000
_cell_length_b   18.63970000
_cell_length_c   18.63970000
_cell_angle_alpha   60.00000000
_cell_angle_beta   60.00000000
_cell_angle_gamma   60.00000000
_symmetry_Int_Tables_number   1
_chemical_formula_structural   CuC6O5
_chemical_formula_sum   'Cu12 C72 O60'
_cell_volume   4579.32805674
_cell_formula_units_Z   12
loop_
 _symmetry_equiv_pos_site_id
 _symmetry_equiv_pos_as_xyz
  1  'x, y, z'
loop_
 _atom_site_type_symbol
 _atom_site_label
 _atom_site_symmetry_multiplicity
 _atom_site_fract_x
 _atom_site_fract_y
 _atom_site_fract_z
 _atom_site_occupancy
 _atom_site_charge
Cu  Cu1  1  0.92816000  0.50000000  0.07184000  1.0 0.9994089139
Cu  Cu2  1  0.50000000  0.92816000  0.07184000  1.0 0.9994089139
Cu  Cu3  1  0.50000000  0.07184000  0.50000000  1.0 0.9994089139
Cu  Cu4  1  0.07184000  0.92816000  0.50000000  1.0 0.9994089139
Cu  Cu5  1  0.50000000  0.92816000  0.50000000  1.0 0.9994089139
Cu  Cu6  1  0.07184000  0.50000000  0.50000000  1.0 0.9994089139
Cu  Cu7  1  0.50000000  0.50000000  0.92816000  1.0 0.9994089139
Cu  Cu8  1  0.92816000  0.50000000  0.50000000  1.0 0.9994089139
Cu  Cu9  1  0.07184000  0.50000000  0.92816000  1.0 0.9994089139
Cu  Cu10  1  0.92816000  0.07184000  0.50000000  1.0 0.9994089139
Cu  Cu11  1  0.50000000  0.07184000  0.92816000  1.0 0.9994089139
Cu  Cu12  1  0.50000000  0.50000000  0.07184000  1.0 0.9994089139
C  C1  1  0.06830000  0.33454000  0.06830000  1.0 0.623315125
C  C2  1  0.47114000  0.93170000  0.93170000  1.0 0.6268657081
C  C3  1  0.52886000  0.06830000  0.33454000  1.0 0.6268657081
C  C4  1  0.06830000  0.06830000  0.33454000  1.0 0.6268657081
C  C5  1  0.33454000  0.06830000  0.52886000  1.0 0.623315125
C  C6  1  0.93170000  0.66546000  0.47114000  1.0 0.623315125
C  C7  1  0.47114000  0.66546000  0.93170000  1.0 0.6268657081
C  C8  1  0.93170000  0.47114000  0.66546000  1.0 0.623315125
C  C9  1  0.06830000  0.52886000  0.06830000  1.0 0.623315125
C  C10  1  0.06830000  0.06830000  0.52886000  1.0 0.623315125
C  C11  1  0.66546000  0.93170000  0.93170000  1.0 0.6268657081
C  C12  1  0.66546000  0.47114000  0.93170000  1.0 0.6268657081
C  C13  1  0.52886000  0.33454000  0.06830000  1.0 0.623315125
C  C14  1  0.93170000  0.93170000  0.66546000  1.0 0.6268657081
C  C15  1  0.33454000  0.52886000  0.06830000  1.0 0.6268657081
C  C16  1  0.93170000  0.93170000  0.47114000  1.0 0.6268657081
C  C17  1  0.33454000  0.06830000  0.06830000  1.0 0.623315125
C  C18  1  0.93170000  0.47114000  0.93170000  1.0 0.6268657081
C  C19  1  0.47114000  0.93170000  0.66546000  1.0 0.6268657081
C  C20  1  0.66546000  0.93170000  0.47114000  1.0 0.6268657081
C  C21  1  0.52886000  0.06830000  0.06830000  1.0 0.623315125
C  C22  1  0.93170000  0.66546000  0.93170000  1.0 0.623315125
C  C23  1  0.06830000  0.52886000  0.33454000  1.0 0.6268657081
C  C24  1  0.06830000  0.33454000  0.52886000  1.0 0.6268657081
C  C25  1  0.11626000  0.24000000  0.11626000  1.0 -0.0974735987
C  C26  1  0.47252000  0.88374000  0.88374000  1.0 -0.0936670262
C  C27  1  0.52748000  0.11626000  0.24000000  1.0 -0.0974735987
C  C28  1  0.11626000  0.11626000  0.24000000  1.0 -0.0974735987
C  C29  1  0.24000000  0.11626000  0.52748000  1.0 -0.0936670262
C  C30  1  0.88374000  0.76000000  0.47252000  1.0 -0.0974735987
C  C31  1  0.47252000  0.76000000  0.88374000  1.0 -0.0936670262
C  C32  1  0.88374000  0.47252000  0.76000000  1.0 -0.0974735987
C  C33  1  0.11626000  0.52748000  0.11626000  1.0 -0.0974735987
C  C34  1  0.11626000  0.11626000  0.52748000  1.0 -0.0974735987
C  C35  1  0.76000000  0.88374000  0.88374000  1.0 -0.0936670262
C  C36  1  0.76000000  0.47252000  0.88374000  1.0 -0.0974735987
C  C37  1  0.52748000  0.24000000  0.11626000  1.0 -0.0936670262
C  C38  1  0.88374000  0.88374000  0.76000000  1.0 -0.0974735987
C  C39  1  0.24000000  0.52748000  0.11626000  1.0 -0.0974735987
C  C40  1  0.88374000  0.88374000  0.47252000  1.0 -0.0936670262
C  C41  1  0.24000000  0.11626000  0.11626000  1.0 -0.0974735987
C  C42  1  0.88374000  0.47252000  0.88374000  1.0 -0.0974735987
C  C43  1  0.47252000  0.88374000  0.76000000  1.0 -0.0974735987
C  C44  1  0.76000000  0.88374000  0.47252000  1.0 -0.0936670262
C  C45  1  0.52748000  0.11626000  0.11626000  1.0 -0.0936670262
C  C46  1  0.88374000  0.76000000  0.88374000  1.0 -0.0936670262
C  C47  1  0.11626000  0.52748000  0.24000000  1.0 -0.0974735987
C  C48  1  0.11626000  0.24000000  0.52748000  1.0 -0.0974735987
C  C49  1  0.19895000  0.19895000  0.06615000  1.0 0.0845560439
C  C50  1  0.46405000  0.93385000  0.80105000  1.0 0.0845560439
C  C51  1  0.53595000  0.06615000  0.19895000  1.0 0.0890957442
C  C52  1  0.06615000  0.19895000  0.19895000  1.0 0.0890957442
C  C53  1  0.19895000  0.19895000  0.53595000  1.0 0.0890957442
C  C54  1  0.80105000  0.80105000  0.46405000  1.0 0.0890957442
C  C55  1  0.46405000  0.80105000  0.93385000  1.0 0.0890957442
C  C56  1  0.93385000  0.46405000  0.80105000  1.0 0.0890957442
C  C57  1  0.06615000  0.53595000  0.19895000  1.0 0.0890957442
C  C58  1  0.19895000  0.06615000  0.53595000  1.0 0.0890957442
C  C59  1  0.80105000  0.80105000  0.93385000  1.0 0.0890957442
C  C60  1  0.80105000  0.46405000  0.80105000  1.0 0.0890957442
C  C61  1  0.53595000  0.19895000  0.19895000  1.0 0.0890957442
C  C62  1  0.80105000  0.93385000  0.80105000  1.0 0.0890957442
C  C63  1  0.19895000  0.53595000  0.06615000  1.0 0.0845560439
C  C64  1  0.93385000  0.80105000  0.46405000  1.0 0.0890957442
C  C65  1  0.19895000  0.06615000  0.19895000  1.0 0.0890957442
C  C66  1  0.80105000  0.46405000  0.93385000  1.0 0.0890957442
C  C67  1  0.46405000  0.80105000  0.80105000  1.0 0.0890957442
C  C68  1  0.80105000  0.93385000  0.46405000  1.0 0.0890957442
C  C69  1  0.53595000  0.19895000  0.06615000  1.0 0.0890957442
C  C70  1  0.93385000  0.80105000  0.80105000  1.0 0.0845560439
C  C71  1  0.19895000  0.53595000  0.19895000  1.0 0.0890957442
C  C72  1  0.06615000  0.19895000  0.53595000  1.0 0.0890957442
O  O1  1  0.99141000  0.37349000  0.11381000  1.0 -0.5299883502
O  O2  1  0.47871000  0.88619000  0.00859000  1.0 -0.5299883502
O  O3  1  0.52129000  0.11381000  0.37349000  1.0 -0.5299883502
O  O4  1  0.11381000  0.99141000  0.37349000  1.0 -0.5299883502
O  O5  1  0.37349000  0.99141000  0.52129000  1.0 -0.5299883502
O  O6  1  0.00859000  0.62651000  0.47871000  1.0 -0.5299883502
O  O7  1  0.47871000  0.62651000  0.88619000  1.0 -0.5299883502
O  O8  1  0.88619000  0.47871000  0.62651000  1.0 -0.5299883502
O  O9  1  0.11381000  0.52129000  0.99141000  1.0 -0.5299883502
O  O10  1  0.99141000  0.11381000  0.52129000  1.0 -0.5299883502
O  O11  1  0.62651000  0.00859000  0.88619000  1.0 -0.5299883502
O  O12  1  0.62651000  0.47871000  0.00859000  1.0 -0.5299883502
O  O13  1  0.52129000  0.37349000  0.99141000  1.0 -0.5299883502
O  O14  1  0.00859000  0.88619000  0.62651000  1.0 -0.5299883502
O  O15  1  0.37349000  0.52129000  0.11381000  1.0 -0.5299883502
O  O16  1  0.88619000  0.00859000  0.47871000  1.0 -0.5299883502
O  O17  1  0.37349000  0.11381000  0.99141000  1.0 -0.5299883502
O  O18  1  0.00859000  0.47871000  0.88619000  1.0 -0.5299883502
O  O19  1  0.47871000  0.00859000  0.62651000  1.0 -0.5299883502
O  O20  1  0.62651000  0.88619000  0.47871000  1.0 -0.5299883502
O  O21  1  0.52129000  0.99141000  0.11381000  1.0 -0.5299883502
O  O22  1  0.88619000  0.62651000  0.00859000  1.0 -0.5299883502
O  O23  1  0.99141000  0.52129000  0.37349000  1.0 -0.5299883502
O  O24  1  0.11381000  0.37349000  0.52129000  1.0 -0.5299883502
O  O25  1  0.00859000  0.62651000  0.88619000  1.0 -0.5299883502
O  O26  1  0.52129000  0.11381000  0.99141000  1.0 -0.5299883502
O  O27  1  0.47871000  0.88619000  0.62651000  1.0 -0.5299883502
O  O28  1  0.88619000  0.00859000  0.62651000  1.0 -0.5299883502
O  O29  1  0.62651000  0.00859000  0.47871000  1.0 -0.5299883502
O  O30  1  0.99141000  0.37349000  0.52129000  1.0 -0.5299883502
O  O31  1  0.52129000  0.37349000  0.11381000  1.0 -0.5299883502
O  O32  1  0.11381000  0.52129000  0.37349000  1.0 -0.5299883502
O  O33  1  0.88619000  0.47871000  0.00859000  1.0 -0.5299883502
O  O34  1  0.00859000  0.88619000  0.47871000  1.0 -0.5299883502
O  O35  1  0.37349000  0.99141000  0.11381000  1.0 -0.5299883502
O  O36  1  0.37349000  0.52129000  0.99141000  1.0 -0.5299883502
O  O37  1  0.47871000  0.62651000  0.00859000  1.0 -0.5299883502
O  O38  1  0.99141000  0.11381000  0.37349000  1.0 -0.5299883502
O  O39  1  0.62651000  0.47871000  0.88619000  1.0 -0.5299883502
O  O40  1  0.11381000  0.99141000  0.52129000  1.0 -0.5299883502
O  O41  1  0.62651000  0.88619000  0.00859000  1.0 -0.5299883502
O  O42  1  0.99141000  0.52129000  0.11381000  1.0 -0.5299883502
O  O43  1  0.52129000  0.99141000  0.37349000  1.0 -0.5299883502
O  O44  1  0.37349000  0.11381000  0.52129000  1.0 -0.5299883502
O  O45  1  0.47871000  0.00859000  0.88619000  1.0 -0.5299883502
O  O46  1  0.11381000  0.37349000  0.99141000  1.0 -0.5299883502
O  O47  1  0.00859000  0.47871000  0.62651000  1.0 -0.5299883502
O  O48  1  0.88619000  0.62651000  0.47871000  1.0 -0.5299883502
O  O49  1  0.81406000  0.50000000  0.18594000  1.0 -0.1280457891
O  O50  1  0.50000000  0.81406000  0.18594000  1.0 -0.1221020537
O  O51  1  0.50000000  0.18594000  0.50000000  1.0 -0.1073879517
O  O52  1  0.18594000  0.81406000  0.50000000  1.0 -0.0974735987
O  O53  1  0.50000000  0.81406000  0.50000000  1.0 -0.1221020537
O  O54  1  0.18594000  0.50000000  0.50000000  1.0 -0.1221020537
O  O55  1  0.50000000  0.50000000  0.81406000  1.0 -0.0974735987
O  O56  1  0.81406000  0.50000000  0.50000000  1.0 -0.1221020537
O  O57  1  0.18594000  0.50000000  0.81406000  1.0 -0.1073879517
O  O58  1  0.81406000  0.18594000  0.50000000  1.0 -0.1221020537
O  O59  1  0.50000000  0.18594000  0.81406000  1.0 -0.1073879517
O  O60  1  0.50000000  0.50000000  0.18594000  1.0 -0.1221020537
