# DDEC6 charges by PACMAN v1.1 (https://github.com/mtap-research/PACMAN-charge/)
data_UVUCEV_FSR_pacman
_symmetry_space_group_name_H-M   'P 1'
_cell_length_a   10.94340000
_cell_length_b   28.60350000
_cell_length_c   23.36350000
_cell_angle_alpha   90.00000000
_cell_angle_beta   107.92000000
_cell_angle_gamma   90.00000000
_symmetry_Int_Tables_number   1
_chemical_formula_structural   Co6H57(C5O3)11
_chemical_formula_sum   'Co24 H228 C220 O132'
_cell_volume   6958.44566559
_cell_formula_units_Z   4
loop_
 _symmetry_equiv_pos_site_id
 _symmetry_equiv_pos_as_xyz
  1  'x, y, z'
loop_
 _atom_site_type_symbol
 _atom_site_label
 _atom_site_symmetry_multiplicity
 _atom_site_fract_x
 _atom_site_fract_y
 _atom_site_fract_z
 _atom_site_occupancy
 _atom_site_charge
Co  Co1  1  0.87056000  0.41468000  0.40880000  1.0 1.0097511118
Co  Co2  1  0.12944000  0.91468000  0.09120000  1.0 1.0097511118
Co  Co3  1  0.12944000  0.58532000  0.59120000  1.0 1.0097511118
Co  Co4  1  0.87056000  0.08532000  0.90880000  1.0 1.0097511118
Co  Co5  1  0.17739000  0.36808000  0.45013000  1.0 1.1667245234
Co  Co6  1  0.82261000  0.86808000  0.04987000  1.0 1.1667245234
Co  Co7  1  0.82261000  0.63192000  0.54987000  1.0 1.1667245234
Co  Co8  1  0.17739000  0.13192000  0.95013000  1.0 1.1667245234
Co  Co9  1  0.98135000  0.41009000  0.08525000  1.0 0.9845494037
Co  Co10  1  0.01865000  0.91009000  0.41475000  1.0 0.9845494037
Co  Co11  1  0.01865000  0.58991000  0.91475000  1.0 0.9845494037
Co  Co12  1  0.98135000  0.08991000  0.58525000  1.0 0.9845494037
Co  Co13  1  0.23338000  0.36909000  0.04874000  1.0 1.1667245234
Co  Co14  1  0.76662000  0.86909000  0.45126000  1.0 1.1617311244
Co  Co15  1  0.76662000  0.63091000  0.95126000  1.0 1.1667245234
Co  Co16  1  0.23338000  0.13091000  0.54874000  1.0 1.1617311244
Co  Co17  1  0.09760000  0.04387000  0.03269000  1.0 1.0988868778
Co  Co18  1  0.90240000  0.54387000  0.46731000  1.0 1.0988868778
Co  Co19  1  0.90240000  0.95613000  0.96731000  1.0 1.0988868778
Co  Co20  1  0.09760000  0.45613000  0.53269000  1.0 1.0988868778
Co  Co21  1  0.04410000  0.45527000  0.96418000  1.0 1.0988868778
Co  Co22  1  0.95590000  0.95527000  0.53582000  1.0 1.0988868778
Co  Co23  1  0.95590000  0.54473000  0.03582000  1.0 1.0988868778
Co  Co24  1  0.04410000  0.04473000  0.46418000  1.0 1.0988868778
H  H1  1  0.56160000  0.42420000  0.48610000  1.0 0.1397860471
H  H2  1  0.43840000  0.92420000  0.01390000  1.0 0.1397860471
H  H3  1  0.43840000  0.57580000  0.51390000  1.0 0.1397860471
H  H4  1  0.56160000  0.07580000  0.98610000  1.0 0.1397860471
H  H5  1  0.48700000  0.48360000  0.62990000  1.0 0.1228888797
H  H6  1  0.51300000  0.98360000  0.87010000  1.0 0.1228888797
H  H7  1  0.51300000  0.51640000  0.37010000  1.0 0.1228888797
H  H8  1  0.48700000  0.01640000  0.12990000  1.0 0.1228888797
H  H9  1  0.84240000  0.49400000  0.61230000  1.0 0.1304223579
H  H10  1  0.15760000  0.99400000  0.88770000  1.0 0.1304223579
H  H11  1  0.15760000  0.50600000  0.38770000  1.0 0.1304223579
H  H12  1  0.84240000  0.00600000  0.11230000  1.0 0.1304223579
H  H13  1  0.66200000  0.56240000  0.73600000  1.0 0.0710723886
H  H14  1  0.33800000  0.06240000  0.76400000  1.0 0.0710723886
H  H15  1  0.33800000  0.43760000  0.26400000  1.0 0.0710723886
H  H16  1  0.66200000  0.93760000  0.23600000  1.0 0.0710723886
H  H17  1  0.54040000  0.54080000  0.68510000  1.0 0.0880664214
H  H18  1  0.45960000  0.04080000  0.81490000  1.0 0.0880664214
H  H19  1  0.45960000  0.45920000  0.31490000  1.0 0.0880664214
H  H20  1  0.54040000  0.95920000  0.18510000  1.0 0.0880664214
H  H21  1  0.58520000  0.49210000  0.77740000  1.0 0.0797248773
H  H22  1  0.41480000  0.99210000  0.72260000  1.0 0.0797248773
H  H23  1  0.41480000  0.50790000  0.22260000  1.0 0.0797248773
H  H24  1  0.58520000  0.00790000  0.27740000  1.0 0.0797248773
H  H25  1  0.72750000  0.48250000  0.77490000  1.0 0.0880664214
H  H26  1  0.27250000  0.98250000  0.72510000  1.0 0.0880664214
H  H27  1  0.27250000  0.51750000  0.22510000  1.0 0.0797248773
H  H28  1  0.72750000  0.01750000  0.27490000  1.0 0.0797248773
H  H29  1  0.60660000  0.46100000  0.72430000  1.0 0.0710723886
H  H30  1  0.39340000  0.96100000  0.77570000  1.0 0.0710723886
H  H31  1  0.39340000  0.53900000  0.27570000  1.0 0.0710723886
H  H32  1  0.60660000  0.03900000  0.22430000  1.0 0.0710723886
H  H33  1  0.03700000  0.23720000  0.43760000  1.0 0.1397860471
H  H34  1  0.96300000  0.73720000  0.06240000  1.0 0.1397860471
H  H35  1  0.96300000  0.76280000  0.56240000  1.0 0.1397860471
H  H36  1  0.03700000  0.26280000  0.93760000  1.0 0.1397860471
H  H37  1  0.75260000  0.14270000  0.37780000  1.0 0.1502470546
H  H38  1  0.24740000  0.64270000  0.12220000  1.0 0.1502470546
H  H39  1  0.24740000  0.85730000  0.62220000  1.0 0.1502470546
H  H40  1  0.75260000  0.35730000  0.87780000  1.0 0.1502470546
H  H41  1  0.67940000  0.28050000  0.34190000  1.0 0.1652638247
H  H42  1  0.32060000  0.78050000  0.15810000  1.0 0.1652638247
H  H43  1  0.32060000  0.71950000  0.65810000  1.0 0.1652638247
H  H44  1  0.67940000  0.21950000  0.84190000  1.0 0.1652638247
H  H45  1  0.55650000  0.13290000  0.31350000  1.0 0.0880664214
H  H46  1  0.44350000  0.63290000  0.18650000  1.0 0.0880664214
H  H47  1  0.44350000  0.86710000  0.68650000  1.0 0.0880664214
H  H48  1  0.55650000  0.36710000  0.81350000  1.0 0.0880664214
H  H49  1  0.53330000  0.14940000  0.37500000  1.0 0.0880664214
H  H50  1  0.46670000  0.64940000  0.12500000  1.0 0.0880664214
H  H51  1  0.46670000  0.85060000  0.62500000  1.0 0.0880664214
H  H52  1  0.53330000  0.35060000  0.87500000  1.0 0.0880664214
H  H53  1  0.95110000  0.45870000  0.25090000  1.0 0.1304223579
H  H54  1  0.04890000  0.95870000  0.24910000  1.0 0.1304223579
H  H55  1  0.04890000  0.54130000  0.74910000  1.0 0.1304223579
H  H56  1  0.95110000  0.04130000  0.75090000  1.0 0.1304223579
H  H57  1  0.99230000  0.58000000  0.16930000  1.0 0.1502470546
H  H58  1  0.00770000  0.08000000  0.33070000  1.0 0.1502470546
H  H59  1  0.00770000  0.42000000  0.83070000  1.0 0.1502470546
H  H60  1  0.99230000  0.92000000  0.66930000  1.0 0.1502470546
H  H61  1  0.89040000  0.58180000  0.32290000  1.0 0.1620400441
H  H62  1  0.10960000  0.08180000  0.17710000  1.0 0.1620400441
H  H63  1  0.10960000  0.41820000  0.67710000  1.0 0.1620400441
H  H64  1  0.89040000  0.91820000  0.82290000  1.0 0.1620400441
H  H65  1  0.03260000  0.65110000  0.19200000  1.0 0.0710723886
H  H66  1  0.96740000  0.15110000  0.30800000  1.0 0.0710723886
H  H67  1  0.96740000  0.34890000  0.80800000  1.0 0.0710723886
H  H68  1  0.03260000  0.84890000  0.69200000  1.0 0.0710723886
H  H69  1  0.87980000  0.65700000  0.16420000  1.0 0.0880664214
H  H70  1  0.12020000  0.15700000  0.33580000  1.0 0.0880664214
H  H71  1  0.12020000  0.34300000  0.83580000  1.0 0.0880664214
H  H72  1  0.87980000  0.84300000  0.66420000  1.0 0.0880664214
H  H73  1  0.97800000  0.73130000  0.18360000  1.0 0.0880664214
H  H74  1  0.02200000  0.23130000  0.31640000  1.0 0.0880664214
H  H75  1  0.02200000  0.26870000  0.81640000  1.0 0.0880664214
H  H76  1  0.97800000  0.76870000  0.68360000  1.0 0.0880664214
H  H77  1  0.04020000  0.71780000  0.25300000  1.0 0.1001227686
H  H78  1  0.95980000  0.21780000  0.24700000  1.0 0.0880664214
H  H79  1  0.95980000  0.28220000  0.74700000  1.0 0.0880664214
H  H80  1  0.04020000  0.78220000  0.75300000  1.0 0.1001227686
H  H81  1  0.88790000  0.72360000  0.22530000  1.0 0.0479098134
H  H82  1  0.11210000  0.22360000  0.27470000  1.0 0.0479098134
H  H83  1  0.11210000  0.27640000  0.77470000  1.0 0.0479098134
H  H84  1  0.88790000  0.77640000  0.72530000  1.0 0.0479098134
H  H85  1  0.12270000  0.23680000  0.06110000  1.0 0.1397860471
H  H86  1  0.87730000  0.73680000  0.43890000  1.0 0.1397860471
H  H87  1  0.87730000  0.76320000  0.93890000  1.0 0.1397860471
H  H88  1  0.12270000  0.26320000  0.56110000  1.0 0.1397860471
H  H89  1  0.90560000  0.13930000  0.11140000  1.0 0.1397860471
H  H90  1  0.09440000  0.63930000  0.38860000  1.0 0.1397860471
H  H91  1  0.09440000  0.86070000  0.88860000  1.0 0.1397860471
H  H92  1  0.90560000  0.36070000  0.61140000  1.0 0.1397860471
H  H93  1  0.86140000  0.27740000  0.14250000  1.0 0.1620400441
H  H94  1  0.13860000  0.77740000  0.35750000  1.0 0.1620400441
H  H95  1  0.13860000  0.72260000  0.85750000  1.0 0.1620400441
H  H96  1  0.86140000  0.22260000  0.64250000  1.0 0.1620400441
H  H97  1  0.70800000  0.13530000  0.12270000  1.0 0.0710723886
H  H98  1  0.29200000  0.63530000  0.37730000  1.0 0.0710723886
H  H99  1  0.29200000  0.86470000  0.87730000  1.0 0.0710723886
H  H100  1  0.70800000  0.36470000  0.62270000  1.0 0.0710723886
H  H101  1  0.81150000  0.13120000  0.18860000  1.0 0.0797248773
H  H102  1  0.18850000  0.63120000  0.31140000  1.0 0.0797248773
H  H103  1  0.18850000  0.86880000  0.81140000  1.0 0.0797248773
H  H104  1  0.81150000  0.36880000  0.68860000  1.0 0.0797248773
H  H105  1  0.57130000  0.17630000  0.17070000  1.0 0.1105815423
H  H106  1  0.42870000  0.67630000  0.32930000  1.0 0.1105815423
H  H107  1  0.42870000  0.82370000  0.82930000  1.0 0.1105815423
H  H108  1  0.57130000  0.32370000  0.67070000  1.0 0.1105815423
H  H109  1  0.58890000  0.12180000  0.18630000  1.0 0.0797248773
H  H110  1  0.41110000  0.62180000  0.31370000  1.0 0.0797248773
H  H111  1  0.41110000  0.87820000  0.81370000  1.0 0.0797248773
H  H112  1  0.58890000  0.37820000  0.68630000  1.0 0.0797248773
H  H113  1  0.66850000  0.15960000  0.23370000  1.0 0.0599692347
H  H114  1  0.33150000  0.65960000  0.26630000  1.0 0.0599692347
H  H115  1  0.33150000  0.84040000  0.76630000  1.0 0.0599692347
H  H116  1  0.66850000  0.34040000  0.73370000  1.0 0.0599692347
H  H117  1  0.56860000  0.42010000  0.00820000  1.0 0.1397860471
H  H118  1  0.43140000  0.92010000  0.49180000  1.0 0.1397860471
H  H119  1  0.43140000  0.57990000  0.99180000  1.0 0.1397860471
H  H120  1  0.56860000  0.07990000  0.50820000  1.0 0.1397860471
H  H121  1  0.30720000  0.49480000  0.87830000  1.0 0.1304223579
H  H122  1  0.69280000  0.99480000  0.62170000  1.0 0.1304223579
H  H123  1  0.69280000  0.50520000  0.12170000  1.0 0.1304223579
H  H124  1  0.30720000  0.00520000  0.37830000  1.0 0.1304223579
H  H125  1  0.68950000  0.50680000  0.89760000  1.0 0.1397860471
H  H126  1  0.31050000  0.00680000  0.60240000  1.0 0.1397860471
H  H127  1  0.31050000  0.49320000  0.10240000  1.0 0.1397860471
H  H128  1  0.68950000  0.99320000  0.39760000  1.0 0.1397860471
H  H129  1  0.22130000  0.59110000  0.81420000  1.0 0.1304223579
H  H130  1  0.77870000  0.09110000  0.68580000  1.0 0.1304223579
H  H131  1  0.77870000  0.40890000  0.18580000  1.0 0.1304223579
H  H132  1  0.22130000  0.90890000  0.31420000  1.0 0.1304223579
H  H133  1  0.36450000  0.60890000  0.84690000  1.0 0.1001227686
H  H134  1  0.63550000  0.10890000  0.65310000  1.0 0.1001227686
H  H135  1  0.63550000  0.39110000  0.15310000  1.0 0.1001227686
H  H136  1  0.36450000  0.89110000  0.34690000  1.0 0.1105815423
H  H137  1  0.30780000  0.56560000  0.87390000  1.0 0.1228888797
H  H138  1  0.69220000  0.06560000  0.62610000  1.0 0.1228888797
H  H139  1  0.69220000  0.43440000  0.12610000  1.0 0.1228888797
H  H140  1  0.30780000  0.93440000  0.37390000  1.0 0.1228888797
H  H141  1  0.08290000  0.44800000  0.42450000  1.0 0.3803146561
H  H142  1  0.91710000  0.94800000  0.07550000  1.0 0.3803146561
H  H143  1  0.91710000  0.55200000  0.57550000  1.0 0.3803146561
H  H144  1  0.08290000  0.05200000  0.92450000  1.0 0.3803146561
H  H145  1  0.16890000  0.44930000  0.07380000  1.0 0.3737725024
H  H146  1  0.83110000  0.94930000  0.42620000  1.0 0.3737725024
H  H147  1  0.83110000  0.55070000  0.92620000  1.0 0.3737725024
H  H148  1  0.16890000  0.05070000  0.57380000  1.0 0.3737725024
H  H149  1  0.70000000  0.54050000  0.75700000  1.0 0.0797248773
H  H150  1  0.30000000  0.04050000  0.74300000  1.0 0.0797248773
H  H151  1  0.30000000  0.45950000  0.24300000  1.0 0.0797248773
H  H152  1  0.70000000  0.95950000  0.25700000  1.0 0.0797248773
H  H153  1  0.57390000  0.52530000  0.70370000  1.0 0.0797248773
H  H154  1  0.42610000  0.02530000  0.79630000  1.0 0.0797248773
H  H155  1  0.42610000  0.47470000  0.29630000  1.0 0.0797248773
H  H156  1  0.57390000  0.97470000  0.20370000  1.0 0.0797248773
H  H157  1  0.60290000  0.47050000  0.79010000  1.0 0.0797248773
H  H158  1  0.39710000  0.97050000  0.70990000  1.0 0.0797248773
H  H159  1  0.39710000  0.52950000  0.20990000  1.0 0.0797248773
H  H160  1  0.60290000  0.02950000  0.29010000  1.0 0.0797248773
H  H161  1  0.74230000  0.45670000  0.78680000  1.0 0.1001227686
H  H162  1  0.25770000  0.95670000  0.71320000  1.0 0.1001227686
H  H163  1  0.25770000  0.54330000  0.21320000  1.0 0.1001227686
H  H164  1  0.74230000  0.04330000  0.28680000  1.0 0.1001227686
H  H165  1  0.61680000  0.44160000  0.73380000  1.0 0.0797248773
H  H166  1  0.38320000  0.94160000  0.76620000  1.0 0.0797248773
H  H167  1  0.38320000  0.55840000  0.26620000  1.0 0.0797248773
H  H168  1  0.61680000  0.05840000  0.23380000  1.0 0.0797248773
H  H169  1  0.92870000  0.73300000  0.17820000  1.0 0.0797248773
H  H170  1  0.07130000  0.23300000  0.32180000  1.0 0.0797248773
H  H171  1  0.07130000  0.26700000  0.82180000  1.0 0.0797248773
H  H172  1  0.92870000  0.76700000  0.67820000  1.0 0.0797248773
H  H173  1  0.97590000  0.72450000  0.24930000  1.0 0.0710723886
H  H174  1  0.02410000  0.22450000  0.25070000  1.0 0.0710723886
H  H175  1  0.02410000  0.27550000  0.75070000  1.0 0.0710723886
H  H176  1  0.97590000  0.77550000  0.74930000  1.0 0.0710723886
H  H177  1  0.82960000  0.71460000  0.21120000  1.0 0.1105815423
H  H178  1  0.17040000  0.21460000  0.28880000  1.0 0.1105815423
H  H179  1  0.17040000  0.28540000  0.78880000  1.0 0.1105815423
H  H180  1  0.82960000  0.78540000  0.71120000  1.0 0.1105815423
H  H181  1  0.67470000  0.18130000  0.23160000  1.0 0.0797248773
H  H182  1  0.32530000  0.68130000  0.26840000  1.0 0.0797248773
H  H183  1  0.32530000  0.81870000  0.76840000  1.0 0.0797248773
H  H184  1  0.67470000  0.31870000  0.73160000  1.0 0.0797248773
H  H185  1  0.57220000  0.14480000  0.19210000  1.0 0.0599692347
H  H186  1  0.42780000  0.64480000  0.30790000  1.0 0.0599692347
H  H187  1  0.42780000  0.85520000  0.80790000  1.0 0.0599692347
H  H188  1  0.57220000  0.35520000  0.69210000  1.0 0.0599692347
H  H189  1  0.69840000  0.12630000  0.24220000  1.0 0.0880664214
H  H190  1  0.30160000  0.62630000  0.25780000  1.0 0.0880664214
H  H191  1  0.30160000  0.87370000  0.75780000  1.0 0.0880664214
H  H192  1  0.69840000  0.37370000  0.74220000  1.0 0.0880664214
H  H193  1  0.26850000  0.61310000  0.75240000  1.0 0.1228888797
H  H194  1  0.73150000  0.11310000  0.74760000  1.0 0.1228888797
H  H195  1  0.73150000  0.38690000  0.24760000  1.0 0.1228888797
H  H196  1  0.26850000  0.88690000  0.25240000  1.0 0.1228888797
H  H197  1  0.40110000  0.59650000  0.74350000  1.0 0.1105815423
H  H198  1  0.59890000  0.09650000  0.75650000  1.0 0.1105815423
H  H199  1  0.59890000  0.40350000  0.25650000  1.0 0.1105815423
H  H200  1  0.40110000  0.90350000  0.24350000  1.0 0.1105815423
H  H201  1  0.40190000  0.62550000  0.80210000  1.0 0.1001227686
H  H202  1  0.59810000  0.12550000  0.69790000  1.0 0.1001227686
H  H203  1  0.59810000  0.37450000  0.19790000  1.0 0.1001227686
H  H204  1  0.40190000  0.87450000  0.30210000  1.0 0.1001227686
H  H205  1  0.33750000  0.12650000  0.30510000  1.0 0.0797248773
H  H206  1  0.66250000  0.62650000  0.19490000  1.0 0.0797248773
H  H207  1  0.66250000  0.87350000  0.69490000  1.0 0.0797248773
H  H208  1  0.33750000  0.37350000  0.80510000  1.0 0.0797248773
H  H209  1  0.35630000  0.16460000  0.25830000  1.0 0.0797248773
H  H210  1  0.64370000  0.66460000  0.24170000  1.0 0.0797248773
H  H211  1  0.64370000  0.83540000  0.74170000  1.0 0.0797248773
H  H212  1  0.35630000  0.33540000  0.75830000  1.0 0.0797248773
H  H213  1  0.33300000  0.18110000  0.31960000  1.0 0.0710723886
H  H214  1  0.66700000  0.68110000  0.18040000  1.0 0.0710723886
H  H215  1  0.66700000  0.81890000  0.68040000  1.0 0.0710723886
H  H216  1  0.33300000  0.31890000  0.81960000  1.0 0.0710723886
H  H217  1  0.34700000  0.18830000  0.28360000  1.0 0.0797248773
H  H218  1  0.65300000  0.68830000  0.21640000  1.0 0.0797248773
H  H219  1  0.65300000  0.81170000  0.71640000  1.0 0.0797248773
H  H220  1  0.34700000  0.31170000  0.78360000  1.0 0.0797248773
H  H221  1  0.32830000  0.15020000  0.33040000  1.0 0.0797248773
H  H222  1  0.67170000  0.65020000  0.16960000  1.0 0.0797248773
H  H223  1  0.67170000  0.84980000  0.66960000  1.0 0.0797248773
H  H224  1  0.32830000  0.34980000  0.83040000  1.0 0.0797248773
H  H225  1  0.35160000  0.13370000  0.26910000  1.0 0.0797248773
H  H226  1  0.64840000  0.63370000  0.23090000  1.0 0.0797248773
H  H227  1  0.64840000  0.86630000  0.73090000  1.0 0.0797248773
H  H228  1  0.35160000  0.36630000  0.76910000  1.0 0.0797248773
C  C1  1  0.80350000  0.45150000  0.50610000  1.0 0.5904091154
C  C2  1  0.19650000  0.95150000  0.99390000  1.0 0.5904091154
C  C3  1  0.19650000  0.54850000  0.49390000  1.0 0.5904091154
C  C4  1  0.80350000  0.04850000  0.00610000  1.0 0.5904091154
C  C5  1  0.71670000  0.45870000  0.54250000  1.0 0.0096000747
C  C6  1  0.28330000  0.95870000  0.95750000  1.0 0.0096000747
C  C7  1  0.28330000  0.54130000  0.45750000  1.0 0.0096000747
C  C8  1  0.71670000  0.04130000  0.04250000  1.0 0.0096000747
C  C9  1  0.58960000  0.44200000  0.52200000  1.0 -0.136886734
C  C10  1  0.41040000  0.94200000  0.97800000  1.0 -0.136886734
C  C11  1  0.41040000  0.55800000  0.47800000  1.0 -0.136886734
C  C12  1  0.58960000  0.05800000  0.02200000  1.0 -0.136886734
C  C13  1  0.50470000  0.45170000  0.55450000  1.0 0.0312334835
C  C14  1  0.49530000  0.95170000  0.94550000  1.0 0.0312334835
C  C15  1  0.49530000  0.54830000  0.44550000  1.0 0.0312334835
C  C16  1  0.50470000  0.04830000  0.05450000  1.0 0.0312334835
C  C17  1  0.36940000  0.43580000  0.53060000  1.0 0.5718067889
C  C18  1  0.63060000  0.93580000  0.96940000  1.0 0.5718067889
C  C19  1  0.63060000  0.56420000  0.46940000  1.0 0.5718067889
C  C20  1  0.36940000  0.06420000  0.03060000  1.0 0.5718067889
C  C21  1  0.54480000  0.47720000  0.60780000  1.0 -0.3279278274
C  C22  1  0.45520000  0.97720000  0.89220000  1.0 -0.3279278274
C  C23  1  0.45520000  0.52280000  0.39220000  1.0 -0.3279278274
C  C24  1  0.54480000  0.02280000  0.10780000  1.0 -0.3279278274
C  C25  1  0.66930000  0.49300000  0.62790000  1.0 0.2386069526
C  C26  1  0.33070000  0.99300000  0.87210000  1.0 0.2386069526
C  C27  1  0.33070000  0.50700000  0.37210000  1.0 0.2386069526
C  C28  1  0.66930000  0.00700000  0.12790000  1.0 0.2386069526
C  C29  1  0.75600000  0.48350000  0.59670000  1.0 -0.2882583137
C  C30  1  0.24400000  0.98350000  0.90330000  1.0 -0.2882583137
C  C31  1  0.24400000  0.51650000  0.40330000  1.0 -0.2882583137
C  C32  1  0.75600000  0.01650000  0.09670000  1.0 -0.2882583137
C  C33  1  0.63000000  0.53480000  0.71000000  1.0 -0.0390649927
C  C34  1  0.37000000  0.03480000  0.79000000  1.0 -0.0390649927
C  C35  1  0.37000000  0.46520000  0.29000000  1.0 -0.0390649927
C  C36  1  0.63000000  0.96520000  0.21000000  1.0 -0.0390649927
C  C37  1  0.63770000  0.48790000  0.75070000  1.0 -0.1583833466
C  C38  1  0.36230000  0.98790000  0.74930000  1.0 -0.1583833466
C  C39  1  0.36230000  0.51210000  0.24930000  1.0 -0.1583833466
C  C40  1  0.63770000  0.01210000  0.25070000  1.0 -0.1583833466
C  C41  1  0.91270000  0.31600000  0.39830000  1.0 0.5582599943
C  C42  1  0.08730000  0.81600000  0.10170000  1.0 0.5582599943
C  C43  1  0.08730000  0.68400000  0.60170000  1.0 0.5582599943
C  C44  1  0.91270000  0.18400000  0.89830000  1.0 0.5582599943
C  C45  1  0.86430000  0.26630000  0.39120000  1.0 0.0096000747
C  C46  1  0.13570000  0.76630000  0.10880000  1.0 0.0096000747
C  C47  1  0.13570000  0.73370000  0.60880000  1.0 0.0096000747
C  C48  1  0.86430000  0.23370000  0.89120000  1.0 0.0096000747
C  C49  1  0.94940000  0.23050000  0.41700000  1.0 -0.1315770275
C  C50  1  0.05060000  0.73050000  0.08300000  1.0 -0.1315770275
C  C51  1  0.05060000  0.76950000  0.58300000  1.0 -0.1315770275
C  C52  1  0.94940000  0.26950000  0.91700000  1.0 -0.1315770275
C  C53  1  0.90440000  0.18490000  0.41220000  1.0 0.0167466612
C  C54  1  0.09560000  0.68490000  0.08780000  1.0 0.0167466612
C  C55  1  0.09560000  0.81510000  0.58780000  1.0 0.0167466612
C  C56  1  0.90440000  0.31510000  0.91220000  1.0 0.0167466612
C  C57  1  0.99770000  0.14580000  0.43990000  1.0 0.5782500808
C  C58  1  0.00230000  0.64580000  0.06010000  1.0 0.5782500808
C  C59  1  0.00230000  0.85420000  0.56010000  1.0 0.5782500808
C  C60  1  0.99770000  0.35420000  0.93990000  1.0 0.5782500808
C  C61  1  0.78030000  0.17430000  0.38200000  1.0 -0.2319813056
C  C62  1  0.21970000  0.67430000  0.11800000  1.0 -0.2319813056
C  C63  1  0.21970000  0.82570000  0.61800000  1.0 -0.2319813056
C  C64  1  0.78030000  0.32570000  0.88200000  1.0 -0.2319813056
C  C65  1  0.69380000  0.20990000  0.35710000  1.0 0.2386069526
C  C66  1  0.30620000  0.70990000  0.14290000  1.0 0.2386069526
C  C67  1  0.30620000  0.79010000  0.64290000  1.0 0.2386069526
C  C68  1  0.69380000  0.29010000  0.85710000  1.0 0.2386069526
C  C69  1  0.73700000  0.25610000  0.36050000  1.0 -0.1885723107
C  C70  1  0.26300000  0.75610000  0.13950000  1.0 -0.1885723107
C  C71  1  0.26300000  0.74390000  0.63950000  1.0 -0.1885723107
C  C72  1  0.73700000  0.24390000  0.86050000  1.0 -0.1885723107
C  C73  1  0.51540000  0.15700000  0.33180000  1.0 0.0021119264
C  C74  1  0.48460000  0.65700000  0.16820000  1.0 0.0021119264
C  C75  1  0.48460000  0.84300000  0.66820000  1.0 0.0021119264
C  C76  1  0.51540000  0.34300000  0.83180000  1.0 0.0021119264
C  C77  1  0.37330000  0.15730000  0.30110000  1.0 -0.3192628245
C  C78  1  0.62670000  0.65730000  0.19890000  1.0 -0.3192628245
C  C79  1  0.62670000  0.84270000  0.69890000  1.0 -0.3192628245
C  C80  1  0.37330000  0.34270000  0.80110000  1.0 -0.3192628245
C  C81  1  0.88040000  0.48970000  0.34240000  1.0 0.5336411004
C  C82  1  0.11960000  0.98970000  0.15760000  1.0 0.5336411004
C  C83  1  0.11960000  0.51030000  0.65760000  1.0 0.5336411004
C  C84  1  0.88040000  0.01030000  0.84240000  1.0 0.5336411004
C  C85  1  0.91520000  0.51630000  0.29390000  1.0 0.0096000747
C  C86  1  0.08480000  0.01630000  0.20610000  1.0 0.0096000747
C  C87  1  0.08480000  0.48370000  0.70610000  1.0 0.0096000747
C  C88  1  0.91520000  0.98370000  0.79390000  1.0 0.0096000747
C  C89  1  0.94910000  0.49190000  0.24990000  1.0 -0.1315770275
C  C90  1  0.05090000  0.99190000  0.25010000  1.0 -0.1315770275
C  C91  1  0.05090000  0.50810000  0.75010000  1.0 -0.1315770275
C  C92  1  0.94910000  0.00810000  0.74990000  1.0 -0.1315770275
C  C93  1  0.97940000  0.51500000  0.20500000  1.0 0.0021119264
C  C94  1  0.02060000  0.01500000  0.29500000  1.0 0.0021119264
C  C95  1  0.02060000  0.48500000  0.79500000  1.0 0.0021119264
C  C96  1  0.97940000  0.98500000  0.70500000  1.0 0.0021119264
C  C97  1  0.01020000  0.48760000  0.15700000  1.0 0.5582599943
C  C98  1  0.98980000  0.98760000  0.34300000  1.0 0.5582599943
C  C99  1  0.98980000  0.51240000  0.84300000  1.0 0.5582599943
C  C100  1  0.01020000  0.01240000  0.65700000  1.0 0.5582599943
C  C101  1  0.97480000  0.56400000  0.20160000  1.0 -0.2380931205
C  C102  1  0.02520000  0.06400000  0.29840000  1.0 -0.2380931205
C  C103  1  0.02520000  0.43600000  0.79840000  1.0 -0.2380931205
C  C104  1  0.97480000  0.93600000  0.70160000  1.0 -0.2380931205
C  C105  1  0.94380000  0.58830000  0.24660000  1.0 0.2241031433
C  C106  1  0.05620000  0.08830000  0.25340000  1.0 0.2241031433
C  C107  1  0.05620000  0.41170000  0.75340000  1.0 0.2241031433
C  C108  1  0.94380000  0.91170000  0.74660000  1.0 0.2241031433
C  C109  1  0.91290000  0.56470000  0.29270000  1.0 -0.2075548205
C  C110  1  0.08710000  0.06470000  0.20730000  1.0 -0.2075548205
C  C111  1  0.08710000  0.43530000  0.70730000  1.0 -0.2075548205
C  C112  1  0.91290000  0.93530000  0.79270000  1.0 -0.2075548205
C  C113  1  0.95410000  0.66190000  0.20060000  1.0 0.0797248773
C  C114  1  0.04590000  0.16190000  0.29940000  1.0 0.0797248773
C  C115  1  0.04590000  0.33810000  0.79940000  1.0 0.0797248773
C  C116  1  0.95410000  0.83810000  0.70060000  1.0 0.0797248773
C  C117  1  0.96610000  0.71320000  0.21710000  1.0 -0.1885723107
C  C118  1  0.03390000  0.21320000  0.28290000  1.0 -0.1885723107
C  C119  1  0.03390000  0.28680000  0.78290000  1.0 -0.1885723107
C  C120  1  0.96610000  0.78680000  0.71710000  1.0 -0.1885723107
C  C121  1  0.03530000  0.31380000  0.09670000  1.0 0.5782500808
C  C122  1  0.96470000  0.81380000  0.40330000  1.0 0.5782500808
C  C123  1  0.96470000  0.68620000  0.90330000  1.0 0.5782500808
C  C124  1  0.03530000  0.18620000  0.59670000  1.0 0.5782500808
C  C125  1  0.99870000  0.26410000  0.10290000  1.0 -0.0064025612
C  C126  1  0.00130000  0.76410000  0.39710000  1.0 -0.0064025612
C  C127  1  0.00130000  0.73590000  0.89710000  1.0 -0.0064025612
C  C128  1  0.99870000  0.23590000  0.60290000  1.0 -0.0064025612
C  C129  1  0.05870000  0.22910000  0.07930000  1.0 -0.1060174624
C  C130  1  0.94130000  0.72910000  0.42070000  1.0 -0.1060174624
C  C131  1  0.94130000  0.77090000  0.92070000  1.0 -0.1060174624
C  C132  1  0.05870000  0.27090000  0.57930000  1.0 -0.1060174624
C  C133  1  0.02270000  0.18290000  0.08300000  1.0 -0.0019555208
C  C134  1  0.97730000  0.68290000  0.41700000  1.0 -0.0019555208
C  C135  1  0.97730000  0.81710000  0.91700000  1.0 -0.0019555208
C  C136  1  0.02270000  0.31710000  0.58300000  1.0 -0.0019555208
C  C137  1  0.08460000  0.14520000  0.05840000  1.0 0.5904091154
C  C138  1  0.91540000  0.64520000  0.44160000  1.0 0.5904091154
C  C139  1  0.91540000  0.85480000  0.94160000  1.0 0.5904091154
C  C140  1  0.08460000  0.35480000  0.55840000  1.0 0.5904091154
C  C141  1  0.92840000  0.17110000  0.10870000  1.0 -0.1967948919
C  C142  1  0.07160000  0.67110000  0.39130000  1.0 -0.1967948919
C  C143  1  0.07160000  0.82890000  0.89130000  1.0 -0.1967948919
C  C144  1  0.92840000  0.32890000  0.60870000  1.0 -0.1967948919
C  C145  1  0.86770000  0.20650000  0.13060000  1.0 0.2386069526
C  C146  1  0.13230000  0.70650000  0.36940000  1.0 0.2386069526
C  C147  1  0.13230000  0.79350000  0.86940000  1.0 0.2386069526
C  C148  1  0.86770000  0.29350000  0.63060000  1.0 0.2386069526
C  C149  1  0.90310000  0.25330000  0.12760000  1.0 -0.1801181431
C  C150  1  0.09690000  0.75330000  0.37240000  1.0 -0.1801181431
C  C151  1  0.09690000  0.74670000  0.87240000  1.0 -0.1801181431
C  C152  1  0.90310000  0.24670000  0.62760000  1.0 -0.1801181431
C  C153  1  0.73850000  0.14970000  0.16320000  1.0 0.0797248773
C  C154  1  0.26150000  0.64970000  0.33680000  1.0 0.0797248773
C  C155  1  0.26150000  0.85030000  0.83680000  1.0 0.0797248773
C  C156  1  0.73850000  0.35030000  0.66320000  1.0 0.0797248773
C  C157  1  0.63280000  0.15200000  0.19090000  1.0 -0.1967948919
C  C158  1  0.36720000  0.65200000  0.30910000  1.0 -0.1967948919
C  C159  1  0.36720000  0.84800000  0.80910000  1.0 -0.1967948919
C  C160  1  0.63280000  0.34800000  0.69090000  1.0 -0.1967948919
C  C161  1  0.78680000  0.45380000  0.99410000  1.0 0.5904091154
C  C162  1  0.21320000  0.95380000  0.50590000  1.0 0.5904091154
C  C163  1  0.21320000  0.54620000  0.00590000  1.0 0.5904091154
C  C164  1  0.78680000  0.04620000  0.49410000  1.0 0.5904091154
C  C165  1  0.65160000  0.46220000  0.95890000  1.0 -0.0064025612
C  C166  1  0.34840000  0.96220000  0.54110000  1.0 -0.0064025612
C  C167  1  0.34840000  0.53780000  0.04110000  1.0 -0.0064025612
C  C168  1  0.65160000  0.03780000  0.45890000  1.0 -0.0064025612
C  C169  1  0.54970000  0.44200000  0.97600000  1.0 -0.117995448
C  C170  1  0.45030000  0.94200000  0.52400000  1.0 -0.117995448
C  C171  1  0.45030000  0.55800000  0.02400000  1.0 -0.117995448
C  C172  1  0.54970000  0.05800000  0.47600000  1.0 -0.117995448
C  C173  1  0.42260000  0.45360000  0.94620000  1.0 0.0096000747
C  C174  1  0.57740000  0.95360000  0.55380000  1.0 0.0096000747
C  C175  1  0.57740000  0.54640000  0.05380000  1.0 0.0096000747
C  C176  1  0.42260000  0.04640000  0.44620000  1.0 0.0096000747
C  C177  1  0.31790000  0.43520000  0.96800000  1.0 0.5718067889
C  C178  1  0.68210000  0.93520000  0.53200000  1.0 0.5718067889
C  C179  1  0.68210000  0.56480000  0.03200000  1.0 0.5718067889
C  C180  1  0.31790000  0.06480000  0.46800000  1.0 0.5718067889
C  C181  1  0.39370000  0.48620000  0.89840000  1.0 -0.2491612579
C  C182  1  0.60630000  0.98620000  0.60160000  1.0 -0.2491612579
C  C183  1  0.60630000  0.51380000  0.10160000  1.0 -0.2491612579
C  C184  1  0.39370000  0.01380000  0.39840000  1.0 -0.2491612579
C  C185  1  0.49480000  0.50570000  0.88110000  1.0 0.2489093547
C  C186  1  0.50520000  0.00570000  0.61890000  1.0 0.2489093547
C  C187  1  0.50520000  0.49430000  0.11890000  1.0 0.2489093547
C  C188  1  0.49480000  0.99430000  0.38110000  1.0 0.2489093547
C  C189  1  0.62250000  0.49370000  0.91040000  1.0 -0.2319813056
C  C190  1  0.37750000  0.99370000  0.58960000  1.0 -0.2319813056
C  C191  1  0.37750000  0.50630000  0.08960000  1.0 -0.2319813056
C  C192  1  0.62250000  0.00630000  0.41040000  1.0 -0.2319813056
C  C193  1  0.34840000  0.55520000  0.80680000  1.0 0.2241031433
C  C194  1  0.65160000  0.05520000  0.69320000  1.0 0.2241031433
C  C195  1  0.65160000  0.44480000  0.19320000  1.0 0.2259426419
C  C196  1  0.34840000  0.94480000  0.30680000  1.0 0.2259426419
C  C197  1  0.30880000  0.58140000  0.83680000  1.0 -0.3192628245
C  C198  1  0.69120000  0.08140000  0.66320000  1.0 -0.3192628245
C  C199  1  0.69120000  0.41860000  0.16320000  1.0 -0.3192628245
C  C200  1  0.30880000  0.91860000  0.33680000  1.0 -0.3192628245
C  C201  1  0.66180000  0.51540000  0.72780000  1.0 0.0479098134
C  C202  1  0.33820000  0.01540000  0.77220000  1.0 0.0479098134
C  C203  1  0.33820000  0.48460000  0.27220000  1.0 0.0479098134
C  C204  1  0.66180000  0.98460000  0.22780000  1.0 0.0479098134
C  C205  1  0.65520000  0.46610000  0.76320000  1.0 -0.2380931205
C  C206  1  0.34480000  0.96610000  0.73680000  1.0 -0.2380931205
C  C207  1  0.34480000  0.53390000  0.23680000  1.0 -0.2380931205
C  C208  1  0.65520000  0.03390000  0.26320000  1.0 -0.2380931205
C  C209  1  0.91880000  0.71330000  0.21080000  1.0 -0.1967948919
C  C210  1  0.08120000  0.21330000  0.28920000  1.0 -0.1967948919
C  C211  1  0.08120000  0.28670000  0.78920000  1.0 -0.1967948919
C  C212  1  0.91880000  0.78670000  0.71080000  1.0 -0.1967948919
C  C213  1  0.66400000  0.15060000  0.21200000  1.0 -0.1885723107
C  C214  1  0.33600000  0.65060000  0.28800000  1.0 -0.1885723107
C  C215  1  0.33600000  0.84940000  0.78800000  1.0 -0.1885723107
C  C216  1  0.66400000  0.34940000  0.71200000  1.0 -0.1885723107
C  C217  1  0.35570000  0.60200000  0.77310000  1.0 -0.3004557635
C  C218  1  0.64430000  0.10200000  0.72690000  1.0 -0.3004557635
C  C219  1  0.64430000  0.39800000  0.22690000  1.0 -0.3004557635
C  C220  1  0.35570000  0.89800000  0.27310000  1.0 -0.3004557635
O  O1  1  0.70910000  0.52560000  0.67310000  1.0 0.0167466612
O  O2  1  0.29090000  0.02560000  0.82690000  1.0 0.0167466612
O  O3  1  0.29090000  0.47440000  0.32690000  1.0 0.0167466612
O  O4  1  0.70910000  0.97440000  0.17310000  1.0 0.0167466612
O  O5  1  0.90150000  0.47810000  0.51620000  1.0 -0.6424549813
O  O6  1  0.09850000  0.97810000  0.98380000  1.0 -0.6424549813
O  O7  1  0.09850000  0.52190000  0.48380000  1.0 -0.6424549813
O  O8  1  0.90150000  0.02190000  0.01620000  1.0 -0.6424549813
O  O9  1  0.66210000  0.44030000  0.36710000  1.0 -0.0616785106
O  O10  1  0.33790000  0.94030000  0.13290000  1.0 -0.0616785106
O  O11  1  0.33790000  0.55970000  0.63290000  1.0 -0.0616785106
O  O12  1  0.66210000  0.05970000  0.86710000  1.0 -0.0616785106
O  O13  1  0.05750000  0.42410000  0.45000000  1.0 -0.9441543416
O  O14  1  0.94250000  0.92410000  0.05000000  1.0 -0.9487434502
O  O15  1  0.94250000  0.57590000  0.55000000  1.0 -0.9441543416
O  O16  1  0.05750000  0.07590000  0.95000000  1.0 -0.9441543416
O  O17  1  0.77430000  0.42130000  0.46560000  1.0 -0.4722168441
O  O18  1  0.22570000  0.92130000  0.03440000  1.0 -0.4722168441
O  O19  1  0.22570000  0.57870000  0.53440000  1.0 -0.4722168441
O  O20  1  0.77430000  0.07870000  0.96560000  1.0 -0.4722168441
O  O21  1  0.18610000  0.39450000  0.36560000  1.0 -0.2716285731
O  O22  1  0.81390000  0.89450000  0.13440000  1.0 -0.2628961797
O  O23  1  0.81390000  0.60550000  0.63440000  1.0 -0.2628961797
O  O24  1  0.18610000  0.10550000  0.86560000  1.0 -0.2716285731
O  O25  1  0.11340000  0.42490000  0.04750000  1.0 -0.9487434502
O  O26  1  0.88660000  0.92490000  0.45250000  1.0 -0.9487434502
O  O27  1  0.88660000  0.57510000  0.95250000  1.0 -0.9487434502
O  O28  1  0.11340000  0.07510000  0.54750000  1.0 -0.9487434502
O  O29  1  0.34250000  0.40570000  0.48920000  1.0 -0.540641648
O  O30  1  0.65750000  0.90570000  0.01080000  1.0 -0.540641648
O  O31  1  0.65750000  0.59430000  0.51080000  1.0 -0.540641648
O  O32  1  0.34250000  0.09430000  0.98920000  1.0 -0.540641648
O  O33  1  0.29760000  0.31260000  0.44310000  1.0 -0.3279278274
O  O34  1  0.70240000  0.81260000  0.05690000  1.0 -0.3279278274
O  O35  1  0.70240000  0.68740000  0.55690000  1.0 -0.3279278274
O  O36  1  0.29760000  0.18740000  0.94310000  1.0 -0.3279278274
O  O37  1  0.29190000  0.45390000  0.55400000  1.0 -0.5303521152
O  O38  1  0.70810000  0.95390000  0.94600000  1.0 -0.5303521152
O  O39  1  0.70810000  0.54610000  0.44600000  1.0 -0.5303521152
O  O40  1  0.29190000  0.04610000  0.05400000  1.0 -0.5303521152
O  O41  1  0.33720000  0.39190000  0.13710000  1.0 -0.2319813056
O  O42  1  0.66280000  0.89190000  0.36290000  1.0 -0.2319813056
O  O43  1  0.66280000  0.60810000  0.86290000  1.0 -0.2319813056
O  O44  1  0.33720000  0.10810000  0.63710000  1.0 -0.2319813056
O  O45  1  0.36720000  0.31630000  0.05280000  1.0 -0.3134610499
O  O46  1  0.63280000  0.81630000  0.44720000  1.0 -0.3134610499
O  O47  1  0.63280000  0.68370000  0.94720000  1.0 -0.3134610499
O  O48  1  0.36720000  0.18370000  0.55280000  1.0 -0.3134610499
O  O49  1  0.83050000  0.34710000  0.39500000  1.0 -0.5303521152
O  O50  1  0.16950000  0.84710000  0.10500000  1.0 -0.5303521152
O  O51  1  0.16950000  0.65290000  0.60500000  1.0 -0.5303521152
O  O52  1  0.83050000  0.15290000  0.89500000  1.0 -0.5303521152
O  O53  1  0.02890000  0.32230000  0.40710000  1.0 -0.540641648
O  O54  1  0.97110000  0.82230000  0.09290000  1.0 -0.540641648
O  O55  1  0.97110000  0.67770000  0.59290000  1.0 -0.540641648
O  O56  1  0.02890000  0.17770000  0.90710000  1.0 -0.540641648
O  O57  1  0.11050000  0.15610000  0.46820000  1.0 -0.5525811384
O  O58  1  0.88950000  0.65610000  0.03180000  1.0 -0.5525811384
O  O59  1  0.88950000  0.84390000  0.53180000  1.0 -0.5525811384
O  O60  1  0.11050000  0.34390000  0.96820000  1.0 -0.5525811384
O  O61  1  0.95110000  0.10500000  0.43120000  1.0 -0.5303521152
O  O62  1  0.04890000  0.60500000  0.06880000  1.0 -0.5303521152
O  O63  1  0.04890000  0.89500000  0.56880000  1.0 -0.5303521152
O  O64  1  0.95110000  0.39500000  0.93120000  1.0 -0.5303521152
O  O65  1  0.56760000  0.20300000  0.32550000  1.0 -0.3134610499
O  O66  1  0.43240000  0.70300000  0.17450000  1.0 -0.3134610499
O  O67  1  0.43240000  0.79700000  0.67450000  1.0 -0.3134610499
O  O68  1  0.56760000  0.29700000  0.82550000  1.0 -0.3134610499
O  O69  1  0.87030000  0.50830000  0.38680000  1.0 -0.4902268271
O  O70  1  0.12970000  0.00830000  0.11320000  1.0 -0.4902268271
O  O71  1  0.12970000  0.49170000  0.61320000  1.0 -0.4902268271
O  O72  1  0.87030000  0.99170000  0.88680000  1.0 -0.4902268271
O  O73  1  0.86650000  0.44560000  0.33350000  1.0 -0.5043613757
O  O74  1  0.13350000  0.94560000  0.16650000  1.0 -0.5043613757
O  O75  1  0.13350000  0.55440000  0.66650000  1.0 -0.5043613757
O  O76  1  0.86650000  0.05440000  0.83350000  1.0 -0.5043613757
O  O77  1  0.00940000  0.44290000  0.16210000  1.0 -0.540641648
O  O78  1  0.99060000  0.94290000  0.33790000  1.0 -0.540641648
O  O79  1  0.99060000  0.55710000  0.83790000  1.0 -0.540641648
O  O80  1  0.00940000  0.05710000  0.66210000  1.0 -0.540641648
O  O81  1  0.03510000  0.50670000  0.11370000  1.0 -0.540641648
O  O82  1  0.96490000  0.00670000  0.38630000  1.0 -0.540641648
O  O83  1  0.96490000  0.49330000  0.88630000  1.0 -0.540641648
O  O84  1  0.03510000  0.99330000  0.61370000  1.0 -0.540641648
O  O85  1  0.93680000  0.63610000  0.25010000  1.0 -0.279313236
O  O86  1  0.06320000  0.13610000  0.24990000  1.0 -0.279313236
O  O87  1  0.06320000  0.36390000  0.74990000  1.0 -0.279313236
O  O88  1  0.93680000  0.86390000  0.75010000  1.0 -0.279313236
O  O89  1  0.95230000  0.34450000  0.09880000  1.0 -0.540641648
O  O90  1  0.04770000  0.84450000  0.40120000  1.0 -0.540641648
O  O91  1  0.04770000  0.65550000  0.90120000  1.0 -0.540641648
O  O92  1  0.95230000  0.15550000  0.59880000  1.0 -0.540641648
O  O93  1  0.14280000  0.32150000  0.09070000  1.0 -0.5525811384
O  O94  1  0.85720000  0.82150000  0.40930000  1.0 -0.5525811384
O  O95  1  0.85720000  0.67850000  0.90930000  1.0 -0.5525811384
O  O96  1  0.14280000  0.17850000  0.59070000  1.0 -0.5525811384
O  O97  1  0.16610000  0.15650000  0.03240000  1.0 -0.5667832638
O  O98  1  0.83390000  0.65650000  0.46760000  1.0 -0.5667832638
O  O99  1  0.83390000  0.84350000  0.96760000  1.0 -0.5667832638
O  O100  1  0.16610000  0.34350000  0.53240000  1.0 -0.5667832638
O  O101  1  0.05110000  0.10400000  0.06490000  1.0 -0.540641648
O  O102  1  0.94890000  0.60400000  0.43510000  1.0 -0.540641648
O  O103  1  0.94890000  0.89600000  0.93510000  1.0 -0.540641648
O  O104  1  0.05110000  0.39600000  0.56490000  1.0 -0.540641648
O  O105  1  0.77690000  0.19870000  0.15920000  1.0 -0.2716285731
O  O106  1  0.22310000  0.69870000  0.34080000  1.0 -0.2716285731
O  O107  1  0.22310000  0.80130000  0.84080000  1.0 -0.2716285731
O  O108  1  0.77690000  0.30130000  0.65920000  1.0 -0.2716285731
O  O109  1  0.80680000  0.42270000  0.03390000  1.0 -0.5243937667
O  O110  1  0.19320000  0.92270000  0.46610000  1.0 -0.5243937667
O  O111  1  0.19320000  0.57730000  0.96610000  1.0 -0.5243937667
O  O112  1  0.80680000  0.07730000  0.53390000  1.0 -0.5243937667
O  O113  1  0.87440000  0.47891000  0.98420000  1.0 -0.6282227631
O  O114  1  0.12560000  0.97891000  0.51580000  1.0 -0.6282227631
O  O115  1  0.12560000  0.52109000  0.01580000  1.0 -0.6282227631
O  O116  1  0.87440000  0.02109000  0.48420000  1.0 -0.6282227631
O  O117  1  0.20660000  0.45080000  0.94170000  1.0 -0.562044635
O  O118  1  0.79340000  0.95080000  0.55830000  1.0 -0.562044635
O  O119  1  0.79340000  0.54920000  0.05830000  1.0 -0.562044635
O  O120  1  0.20660000  0.04920000  0.44170000  1.0 -0.562044635
O  O121  1  0.34750000  0.40690000  0.01110000  1.0 -0.540641648
O  O122  1  0.65250000  0.90690000  0.48890000  1.0 -0.540641648
O  O123  1  0.65250000  0.59310000  0.98890000  1.0 -0.540641648
O  O124  1  0.34750000  0.09310000  0.51110000  1.0 -0.540641648
O  O125  1  0.47750000  0.53910000  0.83700000  1.0 -0.3192628245
O  O126  1  0.52250000  0.03910000  0.66300000  1.0 -0.3192628245
O  O127  1  0.52250000  0.46090000  0.16300000  1.0 -0.3192628245
O  O128  1  0.47750000  0.96090000  0.33700000  1.0 -0.3192628245
O  O129  1  0.73810000  0.50680000  0.68970000  1.0 -0.0216890401
O  O130  1  0.26190000  0.00680000  0.81030000  1.0 -0.0216890401
O  O131  1  0.26190000  0.49320000  0.31030000  1.0 -0.0216890401
O  O132  1  0.73810000  0.99320000  0.18970000  1.0 -0.0216890401
