# DDEC6 charges by PACMAN v1.1 (https://github.com/mtap-research/PACMAN-charge/)
data_UVUCIZ_ASR_pacman
_symmetry_space_group_name_H-M   'P 1'
_cell_length_a   10.94670000
_cell_length_b   28.69100000
_cell_length_c   23.14320000
_cell_angle_alpha   90.00000000
_cell_angle_beta   102.23800000
_cell_angle_gamma   90.00000000
_symmetry_Int_Tables_number   1
_chemical_formula_structural   Co6H52C55O29
_chemical_formula_sum   'Co24 H208 C220 O116'
_cell_volume   7103.45006418
_cell_formula_units_Z   4
loop_
 _symmetry_equiv_pos_site_id
 _symmetry_equiv_pos_as_xyz
  1  'x, y, z'
loop_
 _atom_site_type_symbol
 _atom_site_label
 _atom_site_symmetry_multiplicity
 _atom_site_fract_x
 _atom_site_fract_y
 _atom_site_fract_z
 _atom_site_occupancy
 _atom_site_charge
Co  Co1  1  0.07639000  0.54725000  0.03864000  1.0 1.0894052349
Co  Co2  1  0.92361000  0.45275000  0.96136000  1.0 1.0894052349
Co  Co3  1  0.42361000  0.04725000  0.46136000  1.0 1.0894052349
Co  Co4  1  0.57639000  0.95275000  0.53864000  1.0 1.0894052349
Co  Co5  1  0.88243000  0.58405000  0.92015000  1.0 0.9589470588
Co  Co6  1  0.11757000  0.41595000  0.07985000  1.0 0.9679852687
Co  Co7  1  0.61757000  0.08405000  0.57985000  1.0 0.9589470588
Co  Co8  1  0.38243000  0.91595000  0.42015000  1.0 0.9679852687
Co  Co9  1  0.17517000  0.63220000  0.96144000  1.0 1.0125353299
Co  Co10  1  0.82483000  0.36780000  0.03856000  1.0 1.0125353299
Co  Co11  1  0.32483000  0.13220000  0.53856000  1.0 1.0125353299
Co  Co12  1  0.67517000  0.86780000  0.46144000  1.0 1.0125353299
Co  Co13  1  0.06217000  0.95707000  0.97634000  1.0 1.0770387612
Co  Co14  1  0.93783000  0.04293000  0.02366000  1.0 1.0770387612
Co  Co15  1  0.43783000  0.45707000  0.52366000  1.0 1.0770387612
Co  Co16  1  0.56217000  0.54293000  0.47634000  1.0 1.0770387612
Co  Co17  1  0.46054000  0.58004000  0.59737000  1.0 0.8094456755
Co  Co18  1  0.53946000  0.41996000  0.40263000  1.0 0.8094456755
Co  Co19  1  0.03946000  0.08004000  0.90263000  1.0 0.8094456755
Co  Co20  1  0.96054000  0.91996000  0.09737000  1.0 0.8094456755
Co  Co21  1  0.71392000  0.62748000  0.55475000  1.0 1.0031152628
Co  Co22  1  0.28608000  0.37252000  0.44525000  1.0 1.0031152628
Co  Co23  1  0.78608000  0.12748000  0.94525000  1.0 1.0031152628
Co  Co24  1  0.21392000  0.87252000  0.05475000  1.0 1.0031152628
H  H1  1  0.55394000  0.58548000  0.99137000  1.0 0.1287757956
H  H2  1  0.44606000  0.41452000  0.00863000  1.0 0.1287757956
H  H3  1  0.94606000  0.08548000  0.50863000  1.0 0.1287757956
H  H4  1  0.05394000  0.91452000  0.49137000  1.0 0.1287757956
H  H5  1  0.79187000  0.48330000  0.09950000  1.0 0.1287757956
H  H6  1  0.20813000  0.51670000  0.90050000  1.0 0.1287757956
H  H7  1  0.70813000  0.98330000  0.40050000  1.0 0.1287757956
H  H8  1  0.29187000  0.01670000  0.59950000  1.0 0.1287757956
H  H9  1  0.40682000  0.50026000  0.11492000  1.0 0.1202374281
H  H10  1  0.59318000  0.49974000  0.88508000  1.0 0.1202374281
H  H11  1  0.09318000  0.00026000  0.38508000  1.0 0.1202374281
H  H12  1  0.90682000  0.99974000  0.61492000  1.0 0.1202374281
H  H13  1  0.44759000  0.42194000  0.12945000  1.0 0.0675930716
H  H14  1  0.55241000  0.57806000  0.87055000  1.0 0.0675930716
H  H15  1  0.05241000  0.92194000  0.37055000  1.0 0.0675930716
H  H16  1  0.94759000  0.07806000  0.62945000  1.0 0.0675930716
H  H17  1  0.48494000  0.45190000  0.19923000  1.0 0.0618002795
H  H18  1  0.51506000  0.54810000  0.80077000  1.0 0.0618002795
H  H19  1  0.01506000  0.95190000  0.30077000  1.0 0.0618002795
H  H20  1  0.98494000  0.04810000  0.69923000  1.0 0.0618002795
H  H21  1  0.64635000  0.39001000  0.23769000  1.0 0.0904998987
H  H22  1  0.35365000  0.60999000  0.76231000  1.0 0.0904998987
H  H23  1  0.85365000  0.89001000  0.26231000  1.0 0.0904998987
H  H24  1  0.14635000  0.10999000  0.73769000  1.0 0.0904998987
H  H25  1  0.60675000  0.36078000  0.16834000  1.0 0.0995341633
H  H26  1  0.39325000  0.63922000  0.83166000  1.0 0.0995341633
H  H27  1  0.89325000  0.86078000  0.33166000  1.0 0.0995341633
H  H28  1  0.10675000  0.13922000  0.66834000  1.0 0.0995341633
H  H29  1  0.49606000  0.32393000  0.24136000  1.0 0.1202374281
H  H30  1  0.50394000  0.67607000  0.75864000  1.0 0.1202374281
H  H31  1  0.00394000  0.82393000  0.25864000  1.0 0.1202374281
H  H32  1  0.99606000  0.17607000  0.74136000  1.0 0.1202374281
H  H33  1  0.42679000  0.37830000  0.25347000  1.0 0.1202374281
H  H34  1  0.57321000  0.62170000  0.74653000  1.0 0.1202374281
H  H35  1  0.07321000  0.87830000  0.24653000  1.0 0.1202374281
H  H36  1  0.92679000  0.12170000  0.75347000  1.0 0.1202374281
H  H37  1  0.38308000  0.35016000  0.18332000  1.0 0.1202374281
H  H38  1  0.61692000  0.64984000  0.81668000  1.0 0.1202374281
H  H39  1  0.11692000  0.85016000  0.31668000  1.0 0.1202374281
H  H40  1  0.88308000  0.14984000  0.68332000  1.0 0.1202374281
H  H41  1  0.07827000  0.76443000  0.94158000  1.0 0.1202374281
H  H42  1  0.92173000  0.23557000  0.05842000  1.0 0.1202374281
H  H43  1  0.42173000  0.26443000  0.55842000  1.0 0.1202374281
H  H44  1  0.57827000  0.73557000  0.44158000  1.0 0.1202374281
H  H45  1  0.77873000  0.86470000  0.91090000  1.0 0.1287757956
H  H46  1  0.22127000  0.13530000  0.08910000  1.0 0.1287757956
H  H47  1  0.72127000  0.36470000  0.58910000  1.0 0.1287757956
H  H48  1  0.27873000  0.63530000  0.41090000  1.0 0.1287757956
H  H49  1  0.69466000  0.71722000  0.88213000  1.0 0.1287757956
H  H50  1  0.30534000  0.28278000  0.11787000  1.0 0.1287757956
H  H51  1  0.80534000  0.21722000  0.61787000  1.0 0.1287757956
H  H52  1  0.19466000  0.78278000  0.38213000  1.0 0.1287757956
H  H53  1  0.60887000  0.85912000  0.82526000  1.0 0.0797191784
H  H54  1  0.39113000  0.14088000  0.17474000  1.0 0.0797191784
H  H55  1  0.89113000  0.35912000  0.67474000  1.0 0.0797191784
H  H56  1  0.10887000  0.64088000  0.32526000  1.0 0.0797191784
H  H57  1  0.57926000  0.87435000  0.89515000  1.0 0.0904998987
H  H58  1  0.42074000  0.12565000  0.10485000  1.0 0.0904998987
H  H59  1  0.92074000  0.37435000  0.60485000  1.0 0.0904998987
H  H60  1  0.07926000  0.62565000  0.39515000  1.0 0.0904998987
H  H61  1  0.23921000  0.83414000  0.83727000  1.0 0.1287757956
H  H62  1  0.76079000  0.16586000  0.16273000  1.0 0.1287757956
H  H63  1  0.26079000  0.33414000  0.66273000  1.0 0.1287757956
H  H64  1  0.73921000  0.66586000  0.33727000  1.0 0.1287757956
H  H65  1  0.35881000  0.79234000  0.87353000  1.0 0.1287757956
H  H66  1  0.64119000  0.20766000  0.12647000  1.0 0.1287757956
H  H67  1  0.14119000  0.29234000  0.62647000  1.0 0.1287757956
H  H68  1  0.85881000  0.70766000  0.37353000  1.0 0.1287757956
H  H69  1  0.32688000  0.84654000  0.90789000  1.0 0.1579656266
H  H70  1  0.67312000  0.15346000  0.09211000  1.0 0.1579656266
H  H71  1  0.17312000  0.34654000  0.59211000  1.0 0.1579656266
H  H72  1  0.82688000  0.65346000  0.40789000  1.0 0.1579656266
H  H73  1  0.68604000  0.54745000  0.75718000  1.0 0.1202374281
H  H74  1  0.31396000  0.45255000  0.24282000  1.0 0.1202374281
H  H75  1  0.81396000  0.04745000  0.74282000  1.0 0.1202374281
H  H76  1  0.18604000  0.95255000  0.25718000  1.0 0.1202374281
H  H77  1  0.58361000  0.41786000  0.66055000  1.0 0.1466852389
H  H78  1  0.41639000  0.58214000  0.33945000  1.0 0.1466852389
H  H79  1  0.91639000  0.91786000  0.83945000  1.0 0.1466852389
H  H80  1  0.08361000  0.08214000  0.16055000  1.0 0.1466852389
H  H81  1  0.84106000  0.41738000  0.83156000  1.0 0.1287757956
H  H82  1  0.15894000  0.58262000  0.16844000  1.0 0.1287757956
H  H83  1  0.65894000  0.91738000  0.66844000  1.0 0.1287757956
H  H84  1  0.34106000  0.08262000  0.33156000  1.0 0.1287757956
H  H85  1  0.77246000  0.34272000  0.82543000  1.0 0.0618002795
H  H86  1  0.22754000  0.65728000  0.17457000  1.0 0.0618002795
H  H87  1  0.72754000  0.84272000  0.67457000  1.0 0.0618002795
H  H88  1  0.27246000  0.15728000  0.32543000  1.0 0.0618002795
H  H89  1  0.90256000  0.35451000  0.79190000  1.0 0.0618002795
H  H90  1  0.09744000  0.64549000  0.20810000  1.0 0.0618002795
H  H91  1  0.59744000  0.85451000  0.70810000  1.0 0.0618002795
H  H92  1  0.40256000  0.14549000  0.29190000  1.0 0.0618002795
H  H93  1  0.84759000  0.28582000  0.72509000  1.0 0.0904998987
H  H94  1  0.15241000  0.71418000  0.27491000  1.0 0.0904998987
H  H95  1  0.65241000  0.78582000  0.77491000  1.0 0.0904998987
H  H96  1  0.34759000  0.21418000  0.22509000  1.0 0.0904998987
H  H97  1  0.87801000  0.27104000  0.80038000  1.0 0.0797191784
H  H98  1  0.12199000  0.72896000  0.19962000  1.0 0.0797191784
H  H99  1  0.62199000  0.77104000  0.69962000  1.0 0.0797191784
H  H100  1  0.37801000  0.22896000  0.30038000  1.0 0.0797191784
H  H101  1  0.68984000  0.22775000  0.74295000  1.0 0.1202374281
H  H102  1  0.31016000  0.77225000  0.25705000  1.0 0.1202374281
H  H103  1  0.81016000  0.72775000  0.75705000  1.0 0.1202374281
H  H104  1  0.18984000  0.27225000  0.24295000  1.0 0.1202374281
H  H105  1  0.64853000  0.26367000  0.79885000  1.0 0.1202374281
H  H106  1  0.35147000  0.73633000  0.20115000  1.0 0.1202374281
H  H107  1  0.85147000  0.76367000  0.70115000  1.0 0.1202374281
H  H108  1  0.14853000  0.23633000  0.29885000  1.0 0.1202374281
H  H109  1  0.61252000  0.28199000  0.72304000  1.0 0.1202374281
H  H110  1  0.38748000  0.71801000  0.27696000  1.0 0.1202374281
H  H111  1  0.88748000  0.78199000  0.77696000  1.0 0.1202374281
H  H112  1  0.11252000  0.21801000  0.22304000  1.0 0.1202374281
H  H113  1  0.08021000  0.58166000  0.52693000  1.0 0.1287757956
H  H114  1  0.91979000  0.41834000  0.47307000  1.0 0.1287757956
H  H115  1  0.41979000  0.08166000  0.97307000  1.0 0.1287757956
H  H116  1  0.58021000  0.91834000  0.02693000  1.0 0.1287757956
H  H117  1  0.81654000  0.51725000  0.38427000  1.0 0.1287757956
H  H118  1  0.18346000  0.48275000  0.61573000  1.0 0.1287757956
H  H119  1  0.68346000  0.01725000  0.11573000  1.0 0.1287757956
H  H120  1  0.31654000  0.98275000  0.88427000  1.0 0.1287757956
H  H121  1  0.21214000  0.50020000  0.39246000  1.0 0.1287757956
H  H122  1  0.78786000  0.49980000  0.60754000  1.0 0.1287757956
H  H123  1  0.28786000  0.00020000  0.10754000  1.0 0.1287757956
H  H124  1  0.71214000  0.99980000  0.89246000  1.0 0.1287757956
H  H125  1  0.81431000  0.45793000  0.32409000  1.0 0.0618002795
H  H126  1  0.18569000  0.54207000  0.67591000  1.0 0.0618002795
H  H127  1  0.68569000  0.95793000  0.17591000  1.0 0.0618002795
H  H128  1  0.31431000  0.04207000  0.82409000  1.0 0.0618002795
H  H129  1  0.89201000  0.44376000  0.26603000  1.0 0.0904998987
H  H130  1  0.10799000  0.55624000  0.73397000  1.0 0.0904998987
H  H131  1  0.60799000  0.94376000  0.23397000  1.0 0.0904998987
H  H132  1  0.39201000  0.05624000  0.76603000  1.0 0.0904998987
H  H133  1  0.80176000  0.54243000  0.29086000  1.0 0.0904998987
H  H134  1  0.19824000  0.45757000  0.70914000  1.0 0.0904998987
H  H135  1  0.69824000  0.04243000  0.20914000  1.0 0.0904998987
H  H136  1  0.30176000  0.95757000  0.79086000  1.0 0.0904998987
H  H137  1  0.73077000  0.50389000  0.23330000  1.0 0.0904998987
H  H138  1  0.26923000  0.49611000  0.76670000  1.0 0.0904998987
H  H139  1  0.76923000  0.00389000  0.26670000  1.0 0.0904998987
H  H140  1  0.23077000  0.99611000  0.73330000  1.0 0.0904998987
H  H141  1  0.86602000  0.56438000  0.19674000  1.0 0.1146141998
H  H142  1  0.13398000  0.43562000  0.80326000  1.0 0.1146141998
H  H143  1  0.63398000  0.06438000  0.30326000  1.0 0.1146141998
H  H144  1  0.36602000  0.93562000  0.69674000  1.0 0.1146141998
H  H145  1  0.99780000  0.54455000  0.25001000  1.0 0.1202374281
H  H146  1  0.00220000  0.45545000  0.74999000  1.0 0.1202374281
H  H147  1  0.50220000  0.04455000  0.24999000  1.0 0.1202374281
H  H148  1  0.49780000  0.95545000  0.75001000  1.0 0.1202374281
H  H149  1  0.92643000  0.50693000  0.19109000  1.0 0.1202374281
H  H150  1  0.07357000  0.49307000  0.80891000  1.0 0.1202374281
H  H151  1  0.57357000  0.00693000  0.30891000  1.0 0.1202374281
H  H152  1  0.42643000  0.99307000  0.69109000  1.0 0.1202374281
H  H153  1  0.62281000  0.75774000  0.56369000  1.0 0.1287757956
H  H154  1  0.37719000  0.24226000  0.43631000  1.0 0.1287757956
H  H155  1  0.87719000  0.25774000  0.93631000  1.0 0.1287757956
H  H156  1  0.12281000  0.74226000  0.06369000  1.0 0.1287757956
H  H157  1  0.35891000  0.85703000  0.60645000  1.0 0.1287757956
H  H158  1  0.64109000  0.14297000  0.39355000  1.0 0.1287757956
H  H159  1  0.14109000  0.35703000  0.89355000  1.0 0.1287757956
H  H160  1  0.85891000  0.64297000  0.10645000  1.0 0.1287757956
H  H161  1  0.31546000  0.70979000  0.64060000  1.0 0.1373864003
H  H162  1  0.68454000  0.29021000  0.35940000  1.0 0.1373864003
H  H163  1  0.18454000  0.20979000  0.85940000  1.0 0.1373864003
H  H164  1  0.81546000  0.79021000  0.14060000  1.0 0.1373864003
H  H165  1  0.22131000  0.86115000  0.66970000  1.0 0.0618002795
H  H166  1  0.77869000  0.13885000  0.33030000  1.0 0.0618002795
H  H167  1  0.27869000  0.36115000  0.83030000  1.0 0.0618002795
H  H168  1  0.72131000  0.63885000  0.16970000  1.0 0.0618002795
H  H169  1  0.15747000  0.85109000  0.59261000  1.0 0.0675930716
H  H170  1  0.84253000  0.14891000  0.40739000  1.0 0.0675930716
H  H171  1  0.34253000  0.35109000  0.90739000  1.0 0.0675930716
H  H172  1  0.65747000  0.64891000  0.09261000  1.0 0.0675930716
H  H173  1  0.84121000  0.81121000  0.61044000  1.0 0.1202374281
H  H174  1  0.15879000  0.18879000  0.38956000  1.0 0.1202374281
H  H175  1  0.65879000  0.31121000  0.88956000  1.0 0.1202374281
H  H176  1  0.34121000  0.68879000  0.11044000  1.0 0.1202374281
H  H177  1  0.92651000  0.83014000  0.55752000  1.0 0.1373864003
H  H178  1  0.07349000  0.16986000  0.44248000  1.0 0.1373864003
H  H179  1  0.57349000  0.33014000  0.94248000  1.0 0.1373864003
H  H180  1  0.42651000  0.66986000  0.05752000  1.0 0.1373864003
H  H181  1  0.96204000  0.77536000  0.59378000  1.0 0.1202374281
H  H182  1  0.03796000  0.22464000  0.40622000  1.0 0.1202374281
H  H183  1  0.53796000  0.27536000  0.90622000  1.0 0.1202374281
H  H184  1  0.46204000  0.72464000  0.09378000  1.0 0.1202374281
H  H185  1  0.00023000  0.87189000  0.65551000  1.0 0.0904998987
H  H186  1  0.99977000  0.12811000  0.34449000  1.0 0.0904998987
H  H187  1  0.49977000  0.37189000  0.84449000  1.0 0.0904998987
H  H188  1  0.50023000  0.62811000  0.15551000  1.0 0.0904998987
H  H189  1  0.03345000  0.81796000  0.69285000  1.0 0.0904998987
H  H190  1  0.96655000  0.18204000  0.30715000  1.0 0.0904998987
H  H191  1  0.46655000  0.31796000  0.80715000  1.0 0.0904998987
H  H192  1  0.53345000  0.68204000  0.19285000  1.0 0.0904998987
H  H193  1  0.08344000  0.55171000  0.94114000  1.0 0.382510867
H  H194  1  0.91656000  0.44829000  0.05886000  1.0 0.382510867
H  H195  1  0.41656000  0.05171000  0.55886000  1.0 0.382510867
H  H196  1  0.58344000  0.94829000  0.44114000  1.0 0.382510867
H  H197  1  0.66302000  0.55831000  0.57867000  1.0 0.3744199388
H  H198  1  0.33698000  0.44169000  0.42133000  1.0 0.3744199388
H  H199  1  0.83698000  0.05831000  0.92133000  1.0 0.3744199388
H  H200  1  0.16302000  0.94169000  0.07867000  1.0 0.3744199388
H  H201  1  0.24451000  0.70149000  0.93388000  1.0 0.397102531
H  H202  1  0.75549000  0.29851000  0.06612000  1.0 0.397102531
H  H203  1  0.25549000  0.20149000  0.56612000  1.0 0.397102531
H  H204  1  0.74451000  0.79851000  0.43388000  1.0 0.397102531
H  H205  1  0.77025000  0.61934000  0.65675000  1.0 0.3905102275
H  H206  1  0.22975000  0.38066000  0.34325000  1.0 0.3905102275
H  H207  1  0.72975000  0.11934000  0.84325000  1.0 0.3905102275
H  H208  1  0.27025000  0.88066000  0.15675000  1.0 0.3905102275
C  C1  1  0.33832000  0.56570000  0.03227000  1.0 0.5902117781
C  C2  1  0.66168000  0.43430000  0.96773000  1.0 0.5902117781
C  C3  1  0.16168000  0.06570000  0.46773000  1.0 0.5902117781
C  C4  1  0.83832000  0.93430000  0.53227000  1.0 0.5902117781
C  C5  1  0.46833000  0.54518000  0.05149000  1.0 -0.0117090842
C  C6  1  0.53167000  0.45482000  0.94851000  1.0 -0.0117090842
C  C7  1  0.03167000  0.04518000  0.44851000  1.0 -0.0117090842
C  C8  1  0.96833000  0.95482000  0.55149000  1.0 -0.0117090842
C  C9  1  0.56848000  0.55853000  0.02558000  1.0 -0.1418305723
C  C10  1  0.43152000  0.44147000  0.97442000  1.0 -0.1418305723
C  C11  1  0.93152000  0.05853000  0.47442000  1.0 -0.1418305723
C  C12  1  0.06848000  0.94147000  0.52558000  1.0 -0.1418305723
C  C13  1  0.68679000  0.53624000  0.04279000  1.0 -0.0198264318
C  C14  1  0.31321000  0.46376000  0.95721000  1.0 -0.0198264318
C  C15  1  0.81321000  0.03624000  0.45721000  1.0 -0.0198264318
C  C16  1  0.18679000  0.96376000  0.54279000  1.0 -0.0198264318
C  C17  1  0.79359000  0.54739000  0.01366000  1.0 0.6150262318
C  C18  1  0.20641000  0.45261000  0.98634000  1.0 0.6150262318
C  C19  1  0.70641000  0.04739000  0.48634000  1.0 0.6150262318
C  C20  1  0.29359000  0.95261000  0.51366000  1.0 0.6150262318
C  C21  1  0.70209000  0.50116000  0.08595000  1.0 -0.1982030917
C  C22  1  0.29791000  0.49884000  0.91405000  1.0 -0.1982030917
C  C23  1  0.79791000  0.00116000  0.41405000  1.0 -0.1982030917
C  C24  1  0.20209000  0.99884000  0.58595000  1.0 -0.1982030917
C  C25  1  0.60191000  0.48741000  0.11157000  1.0 0.2609483451
C  C26  1  0.39809000  0.51259000  0.88843000  1.0 0.2609483451
C  C27  1  0.89809000  0.98741000  0.38843000  1.0 0.2609483451
C  C28  1  0.10191000  0.01259000  0.61157000  1.0 0.2609483451
C  C29  1  0.48571000  0.50993000  0.09521000  1.0 -0.2232724391
C  C30  1  0.51429000  0.49007000  0.90479000  1.0 -0.2232724391
C  C31  1  0.01429000  0.00993000  0.40479000  1.0 -0.2232724391
C  C32  1  0.98571000  0.99007000  0.59521000  1.0 -0.2232724391
C  C33  1  0.52292000  0.42842000  0.16912000  1.0 0.0478092655
C  C34  1  0.47708000  0.57158000  0.83088000  1.0 0.0478092655
C  C35  1  0.97708000  0.92842000  0.33088000  1.0 0.0478092655
C  C36  1  0.02292000  0.07158000  0.66912000  1.0 0.0478092655
C  C37  1  0.56860000  0.38287000  0.19952000  1.0 -0.1208194948
C  C38  1  0.43140000  0.61713000  0.80048000  1.0 -0.1208194948
C  C39  1  0.93140000  0.88287000  0.30048000  1.0 -0.1208194948
C  C40  1  0.06860000  0.11713000  0.69952000  1.0 -0.1208194948
C  C41  1  0.46284000  0.35752000  0.22046000  1.0 -0.3481342557
C  C42  1  0.53716000  0.64248000  0.77954000  1.0 -0.3481342557
C  C43  1  0.03716000  0.85752000  0.27954000  1.0 -0.3481342557
C  C44  1  0.96284000  0.14248000  0.72046000  1.0 -0.3481342557
C  C45  1  0.93731000  0.68436000  0.91433000  1.0 0.6086712219
C  C46  1  0.06269000  0.31564000  0.08567000  1.0 0.6086712219
C  C47  1  0.56269000  0.18436000  0.58567000  1.0 0.6086712219
C  C48  1  0.43731000  0.81564000  0.41433000  1.0 0.6086712219
C  C49  1  0.89156000  0.73480000  0.91074000  1.0 -0.0198264318
C  C50  1  0.10844000  0.26520000  0.08926000  1.0 -0.0198264318
C  C51  1  0.60844000  0.23480000  0.58926000  1.0 -0.0198264318
C  C52  1  0.39156000  0.76520000  0.41074000  1.0 -0.0198264318
C  C53  1  0.97850000  0.77172000  0.92627000  1.0 -0.1418305723
C  C54  1  0.02150000  0.22828000  0.07373000  1.0 -0.1418305723
C  C55  1  0.52150000  0.27172000  0.57373000  1.0 -0.1418305723
C  C56  1  0.47850000  0.72828000  0.42627000  1.0 -0.1418305723
C  C57  1  0.93719000  0.81842000  0.92540000  1.0 -0.0117090842
C  C58  1  0.06281000  0.18158000  0.07460000  1.0 -0.0117090842
C  C59  1  0.56281000  0.31842000  0.57460000  1.0 -0.0117090842
C  C60  1  0.43719000  0.68158000  0.42540000  1.0 -0.0117090842
C  C61  1  0.02809000  0.85700000  0.94890000  1.0 0.5902117781
C  C62  1  0.97191000  0.14300000  0.05110000  1.0 0.5902117781
C  C63  1  0.47191000  0.35700000  0.55110000  1.0 0.5902117781
C  C64  1  0.52809000  0.64300000  0.44890000  1.0 0.5902117781
C  C65  1  0.80918000  0.82858000  0.90914000  1.0 -0.1982030917
C  C66  1  0.19082000  0.17142000  0.09086000  1.0 -0.1982030917
C  C67  1  0.69082000  0.32858000  0.59086000  1.0 -0.1982030917
C  C68  1  0.30918000  0.67142000  0.40914000  1.0 -0.1982030917
C  C69  1  0.72268000  0.79210000  0.89373000  1.0 0.249658253
C  C70  1  0.27732000  0.20790000  0.10627000  1.0 0.249658253
C  C71  1  0.77732000  0.29210000  0.60627000  1.0 0.249658253
C  C72  1  0.22268000  0.70790000  0.39373000  1.0 0.249658253
C  C73  1  0.76326000  0.74531000  0.89451000  1.0 -0.1921912905
C  C74  1  0.23674000  0.25469000  0.10549000  1.0 -0.1921912905
C  C75  1  0.73674000  0.24531000  0.60549000  1.0 -0.1921912905
C  C76  1  0.26326000  0.75469000  0.39451000  1.0 -0.1921912905
C  C77  1  0.55499000  0.84756000  0.85820000  1.0 -3.43337e-05
C  C78  1  0.44501000  0.15244000  0.14180000  1.0 -3.43337e-05
C  C79  1  0.94501000  0.34756000  0.64180000  1.0 -3.43337e-05
C  C80  1  0.05499000  0.65244000  0.35820000  1.0 -3.43337e-05
C  C81  1  0.42479000  0.85977000  0.84328000  1.0 0.0092156795
C  C82  1  0.57521000  0.14023000  0.15672000  1.0 0.0092156795
C  C83  1  0.07521000  0.35977000  0.65672000  1.0 0.0092156795
C  C84  1  0.92479000  0.64023000  0.34328000  1.0 0.0092156795
C  C85  1  0.33458000  0.82975000  0.86481000  1.0 -0.3481342557
C  C86  1  0.66542000  0.17025000  0.13519000  1.0 -0.3481342557
C  C87  1  0.16542000  0.32975000  0.63519000  1.0 -0.3481342557
C  C88  1  0.83458000  0.67025000  0.36481000  1.0 -0.3481342557
C  C89  1  0.84045000  0.51547000  0.84778000  1.0 0.5902117781
C  C90  1  0.15955000  0.48453000  0.15222000  1.0 0.5902117781
C  C91  1  0.65955000  0.01547000  0.65222000  1.0 0.5902117781
C  C92  1  0.34045000  0.98453000  0.34778000  1.0 0.5902117781
C  C93  1  0.76997000  0.48543000  0.79981000  1.0 -0.0117090842
C  C94  1  0.23003000  0.51457000  0.20019000  1.0 -0.0117090842
C  C95  1  0.73003000  0.98543000  0.70019000  1.0 -0.0117090842
C  C96  1  0.26997000  0.01457000  0.29981000  1.0 -0.0117090842
C  C97  1  0.69142000  0.50964000  0.75435000  1.0 -0.1317775399
C  C98  1  0.30858000  0.49036000  0.24565000  1.0 -0.1317775399
C  C99  1  0.80858000  0.00964000  0.74565000  1.0 -0.1317775399
C  C100  1  0.19142000  0.99036000  0.25435000  1.0 -0.1317775399
C  C101  1  0.62219000  0.48658000  0.70463000  1.0 -0.0198264318
C  C102  1  0.37781000  0.51342000  0.29537000  1.0 -0.0198264318
C  C103  1  0.87781000  0.98658000  0.79537000  1.0 -0.0198264318
C  C104  1  0.12219000  0.01342000  0.20463000  1.0 -0.0198264318
C  C105  1  0.55305000  0.52033000  0.66116000  1.0 0.5436397605
C  C106  1  0.44695000  0.47967000  0.33884000  1.0 0.5436397605
C  C107  1  0.94695000  0.02033000  0.83884000  1.0 0.5436397605
C  C108  1  0.05305000  0.97967000  0.16116000  1.0 0.5436397605
C  C109  1  0.63227000  0.43763000  0.69939000  1.0 -0.1982030917
C  C110  1  0.36773000  0.56237000  0.30061000  1.0 -0.1982030917
C  C111  1  0.86773000  0.93763000  0.80061000  1.0 -0.1982030917
C  C112  1  0.13227000  0.06237000  0.19939000  1.0 -0.1982030917
C  C113  1  0.71339000  0.41319000  0.74563000  1.0 0.2609483451
C  C114  1  0.28661000  0.58681000  0.25437000  1.0 0.2609483451
C  C115  1  0.78661000  0.91319000  0.75437000  1.0 0.2609483451
C  C116  1  0.21339000  0.08681000  0.24563000  1.0 0.2609483451
C  C117  1  0.77965000  0.43664000  0.79618000  1.0 -0.2110351762
C  C118  1  0.22035000  0.56336000  0.20382000  1.0 -0.2110351762
C  C119  1  0.72035000  0.93664000  0.70382000  1.0 -0.2110351762
C  C120  1  0.27965000  0.06336000  0.29618000  1.0 -0.2110351762
C  C121  1  0.80707000  0.33949000  0.78379000  1.0 0.032496402
C  C122  1  0.19293000  0.66051000  0.21621000  1.0 0.032496402
C  C123  1  0.69293000  0.83949000  0.71621000  1.0 0.032496402
C  C124  1  0.30707000  0.16051000  0.28379000  1.0 0.032496402
C  C125  1  0.80914000  0.28871000  0.76540000  1.0 -0.1208194948
C  C126  1  0.19086000  0.71129000  0.23460000  1.0 -0.1208194948
C  C127  1  0.69086000  0.78871000  0.73460000  1.0 -0.1208194948
C  C128  1  0.30914000  0.21129000  0.26540000  1.0 -0.1208194948
C  C129  1  0.68288000  0.26421000  0.75716000  1.0 -0.3385802843
C  C130  1  0.31712000  0.73579000  0.24284000  1.0 -0.3385802843
C  C131  1  0.81712000  0.76421000  0.74284000  1.0 -0.3385802843
C  C132  1  0.18288000  0.23579000  0.25716000  1.0 -0.3385802843
C  C133  1  0.29737000  0.54797000  0.49473000  1.0 0.6086712219
C  C134  1  0.70263000  0.45203000  0.50527000  1.0 0.6086712219
C  C135  1  0.20263000  0.04797000  0.00527000  1.0 0.6086712219
C  C136  1  0.79737000  0.95203000  0.99473000  1.0 0.6086712219
C  C137  1  0.16361000  0.54145000  0.46381000  1.0 -0.0259541329
C  C138  1  0.83639000  0.45855000  0.53619000  1.0 -0.0259541329
C  C139  1  0.33639000  0.04145000  0.03619000  1.0 -0.0259541329
C  C140  1  0.66361000  0.95855000  0.96381000  1.0 -0.0259541329
C  C141  1  0.06253000  0.56104000  0.48613000  1.0 -0.1496820636
C  C142  1  0.93747000  0.43896000  0.51387000  1.0 -0.1496820636
C  C143  1  0.43747000  0.06104000  0.01387000  1.0 -0.1496820636
C  C144  1  0.56253000  0.93896000  0.98613000  1.0 -0.1496820636
C  C145  1  0.93818000  0.55157000  0.45692000  1.0 -0.0117090842
C  C146  1  0.06182000  0.44843000  0.54308000  1.0 -0.0117090842
C  C147  1  0.56182000  0.05157000  0.04308000  1.0 -0.0117090842
C  C148  1  0.43818000  0.94843000  0.95692000  1.0 -0.0117090842
C  C149  1  0.82498000  0.56807000  0.47939000  1.0 0.5902117781
C  C150  1  0.17502000  0.43193000  0.52061000  1.0 0.5902117781
C  C151  1  0.67502000  0.06807000  0.02061000  1.0 0.5902117781
C  C152  1  0.32498000  0.93193000  0.97939000  1.0 0.5902117781
C  C153  1  0.91395000  0.52407000  0.40531000  1.0 -0.2273343038
C  C154  1  0.08605000  0.47593000  0.59469000  1.0 -0.2273343038
C  C155  1  0.58605000  0.02407000  0.09469000  1.0 -0.2273343038
C  C156  1  0.41395000  0.97593000  0.90531000  1.0 -0.2273343038
C  C157  1  0.01313000  0.50651000  0.38198000  1.0 0.2609483451
C  C158  1  0.98687000  0.49349000  0.61802000  1.0 0.2609483451
C  C159  1  0.48687000  0.00651000  0.11802000  1.0 0.2609483451
C  C160  1  0.51313000  0.99349000  0.88198000  1.0 0.2609483451
C  C161  1  0.13733000  0.51491000  0.41165000  1.0 -0.1921912905
C  C162  1  0.86267000  0.48509000  0.58835000  1.0 -0.1982030917
C  C163  1  0.36267000  0.01491000  0.08835000  1.0 -0.1921912905
C  C164  1  0.63733000  0.98509000  0.91165000  1.0 -0.1982030917
C  C165  1  0.87637000  0.47206000  0.29611000  1.0 0.0388164725
C  C166  1  0.12363000  0.52794000  0.70389000  1.0 0.0388164725
C  C167  1  0.62363000  0.97206000  0.20389000  1.0 0.0388164725
C  C168  1  0.37637000  0.02794000  0.79611000  1.0 0.0388164725
C  C169  1  0.82159000  0.51478000  0.26090000  1.0 -0.1418305723
C  C170  1  0.17841000  0.48522000  0.73910000  1.0 -0.1418305723
C  C171  1  0.67841000  0.01478000  0.23910000  1.0 -0.1418305723
C  C172  1  0.32159000  0.98522000  0.76090000  1.0 -0.1418305723
C  C173  1  0.90739000  0.53374000  0.22244000  1.0 -0.3385802843
C  C174  1  0.09261000  0.46626000  0.77756000  1.0 -0.3385802843
C  C175  1  0.59261000  0.03374000  0.27756000  1.0 -0.3385802843
C  C176  1  0.40739000  0.96626000  0.72244000  1.0 -0.3385802843
C  C177  1  0.52011000  0.67965000  0.59941000  1.0 0.5902117781
C  C178  1  0.47989000  0.32035000  0.40059000  1.0 0.5902117781
C  C179  1  0.97989000  0.17965000  0.90059000  1.0 0.5902117781
C  C180  1  0.02011000  0.82035000  0.09941000  1.0 0.5902117781
C  C181  1  0.47505000  0.72916000  0.60282000  1.0 -0.0198264318
C  C182  1  0.52495000  0.27084000  0.39718000  1.0 -0.0198264318
C  C183  1  0.02495000  0.22916000  0.89718000  1.0 -0.0198264318
C  C184  1  0.97505000  0.77084000  0.10282000  1.0 -0.0198264318
C  C185  1  0.54057000  0.76586000  0.58181000  1.0 -0.1317775399
C  C186  1  0.45943000  0.23414000  0.41819000  1.0 -0.1317775399
C  C187  1  0.95943000  0.26586000  0.91819000  1.0 -0.1317775399
C  C188  1  0.04057000  0.73414000  0.08181000  1.0 -0.1317775399
C  C189  1  0.49789000  0.81198000  0.58442000  1.0 -0.0117090842
C  C190  1  0.50211000  0.18802000  0.41558000  1.0 -0.0117090842
C  C191  1  0.00211000  0.31198000  0.91558000  1.0 -0.0117090842
C  C192  1  0.99789000  0.68802000  0.08442000  1.0 -0.0117090842
C  C193  1  0.56044000  0.85288000  0.56198000  1.0 0.5802117996
C  C194  1  0.43956000  0.14712000  0.43802000  1.0 0.5802117996
C  C195  1  0.93956000  0.35288000  0.93802000  1.0 0.5802117996
C  C196  1  0.06044000  0.64712000  0.06198000  1.0 0.5802117996
C  C197  1  0.38939000  0.82091000  0.60580000  1.0 -0.2232724391
C  C198  1  0.61061000  0.17909000  0.39420000  1.0 -0.2232724391
C  C199  1  0.11061000  0.32091000  0.89420000  1.0 -0.2232724391
C  C200  1  0.88939000  0.67909000  0.10580000  1.0 -0.2232724391
C  C201  1  0.32193000  0.78425000  0.62444000  1.0 0.2609483451
C  C202  1  0.67807000  0.21575000  0.37556000  1.0 0.2609483451
C  C203  1  0.17807000  0.28425000  0.87556000  1.0 0.2609483451
C  C204  1  0.82193000  0.71575000  0.12444000  1.0 0.2609483451
C  C205  1  0.36636000  0.73814000  0.62427000  1.0 -0.1921912905
C  C206  1  0.63364000  0.26186000  0.37573000  1.0 -0.1921912905
C  C207  1  0.13364000  0.23814000  0.87573000  1.0 -0.1921912905
C  C208  1  0.86636000  0.76186000  0.12427000  1.0 -0.1921912905
C  C209  1  0.16038000  0.83759000  0.63795000  1.0 0.0388164725
C  C210  1  0.83962000  0.16241000  0.36205000  1.0 0.0388164725
C  C211  1  0.33962000  0.33759000  0.86205000  1.0 0.0388164725
C  C212  1  0.66038000  0.66241000  0.13795000  1.0 0.0388164725
C  C213  1  0.93516000  0.81175000  0.60028000  1.0 -0.3481342557
C  C214  1  0.06484000  0.18825000  0.39972000  1.0 -0.3481342557
C  C215  1  0.56484000  0.31175000  0.89972000  1.0 -0.3481342557
C  C216  1  0.43516000  0.68825000  0.10028000  1.0 -0.3481342557
C  C217  1  0.02932000  0.83538000  0.64973000  1.0 -0.1208194948
C  C218  1  0.97068000  0.16462000  0.35027000  1.0 -0.1208194948
C  C219  1  0.47068000  0.33538000  0.85027000  1.0 -0.1208194948
C  C220  1  0.52932000  0.66462000  0.14973000  1.0 -0.1208194948
O  O1  1  0.31798000  0.59276000  0.98716000  1.0 -0.4997429289
O  O2  1  0.68202000  0.40724000  0.01284000  1.0 -0.4997429289
O  O3  1  0.18202000  0.09276000  0.51284000  1.0 -0.4997429289
O  O4  1  0.81798000  0.90724000  0.48716000  1.0 -0.4997429289
O  O5  1  0.05808000  0.57878000  0.96212000  1.0 -0.8740509487
O  O6  1  0.94192000  0.42122000  0.03788000  1.0 -0.8769849576
O  O7  1  0.44192000  0.07878000  0.53788000  1.0 -0.8740509487
O  O8  1  0.55808000  0.92122000  0.46212000  1.0 -0.8769849576
O  O9  1  0.25652000  0.55403000  0.06264000  1.0 -0.5686763264
O  O10  1  0.74348000  0.44597000  0.93736000  1.0 -0.5686763264
O  O11  1  0.24348000  0.05403000  0.43736000  1.0 -0.5686763264
O  O12  1  0.75652000  0.94597000  0.56264000  1.0 -0.5686763264
O  O13  1  0.59983000  0.57707000  0.55066000  1.0 -0.8257424421
O  O14  1  0.40017000  0.42293000  0.44934000  1.0 -0.8257424421
O  O15  1  0.90017000  0.07707000  0.94934000  1.0 -0.8257424421
O  O16  1  0.09983000  0.92293000  0.05066000  1.0 -0.8257424421
O  O17  1  0.89296000  0.52045000  0.02257000  1.0 -0.6528058835
O  O18  1  0.10704000  0.47955000  0.97743000  1.0 -0.6528058835
O  O19  1  0.60704000  0.02045000  0.47743000  1.0 -0.6528058835
O  O20  1  0.39296000  0.97955000  0.52257000  1.0 -0.6528058835
O  O21  1  0.29061000  0.67305000  0.94812000  1.0 -0.7200092115
O  O22  1  0.70939000  0.32695000  0.05188000  1.0 -0.7200092115
O  O23  1  0.20939000  0.17305000  0.55188000  1.0 -0.7200092115
O  O24  1  0.79061000  0.82695000  0.44812000  1.0 -0.7200092115
O  O25  1  0.78493000  0.58317000  0.97956000  1.0 -0.5215314664
O  O26  1  0.21507000  0.41683000  0.02044000  1.0 -0.5215314664
O  O27  1  0.71507000  0.08317000  0.52044000  1.0 -0.5215314664
O  O28  1  0.28493000  0.91683000  0.47956000  1.0 -0.5215314664
O  O29  1  0.80082000  0.60443000  0.62464000  1.0 -0.7264574208
O  O30  1  0.19918000  0.39557000  0.37536000  1.0 -0.7264574208
O  O31  1  0.69918000  0.10443000  0.87536000  1.0 -0.7264574208
O  O32  1  0.30082000  0.89557000  0.12464000  1.0 -0.7264574208
O  O33  1  0.62753000  0.45120000  0.15114000  1.0 -0.2273343038
O  O34  1  0.37247000  0.54880000  0.84886000  1.0 -0.2273343038
O  O35  1  0.87247000  0.95120000  0.34886000  1.0 -0.2273343038
O  O36  1  0.12753000  0.04880000  0.65114000  1.0 -0.2273343038
O  O37  1  0.85564000  0.65124000  0.91034000  1.0 -0.5365881361
O  O38  1  0.14436000  0.34876000  0.08966000  1.0 -0.5365881361
O  O39  1  0.64436000  0.15124000  0.58966000  1.0 -0.5365881361
O  O40  1  0.35564000  0.84876000  0.41034000  1.0 -0.5365881361
O  O41  1  0.05614000  0.67874000  0.92149000  1.0 -0.5686763264
O  O42  1  0.94386000  0.32126000  0.07851000  1.0 -0.5686763264
O  O43  1  0.44386000  0.17874000  0.57851000  1.0 -0.5686763264
O  O44  1  0.55614000  0.82126000  0.42149000  1.0 -0.5686763264
O  O45  1  0.13228000  0.84370000  0.98074000  1.0 -0.5107009299
O  O46  1  0.86772000  0.15630000  0.01926000  1.0 -0.5107009299
O  O47  1  0.36772000  0.34370000  0.51926000  1.0 -0.5107009299
O  O48  1  0.63228000  0.65630000  0.48074000  1.0 -0.5107009299
O  O49  1  0.99256000  0.90015000  0.93765000  1.0 -0.560739655
O  O50  1  0.00744000  0.09985000  0.06235000  1.0 -0.560739655
O  O51  1  0.50744000  0.40015000  0.56235000  1.0 -0.560739655
O  O52  1  0.49256000  0.59985000  0.43765000  1.0 -0.560739655
O  O53  1  0.59528000  0.79990000  0.87778000  1.0 -0.2110351762
O  O54  1  0.40472000  0.20010000  0.12222000  1.0 -0.2110351762
O  O55  1  0.90472000  0.29990000  0.62222000  1.0 -0.2110351762
O  O56  1  0.09528000  0.70010000  0.37778000  1.0 -0.2110351762
O  O57  1  0.90468000  0.50119000  0.89860000  1.0 -0.5852443613
O  O58  1  0.09532000  0.49881000  0.10140000  1.0 -0.5852443613
O  O59  1  0.59532000  0.00119000  0.60140000  1.0 -0.5852443613
O  O60  1  0.40468000  0.99881000  0.39860000  1.0 -0.5852443613
O  O61  1  0.83646000  0.56022000  0.83908000  1.0 -0.5215314664
O  O62  1  0.16354000  0.43978000  0.16092000  1.0 -0.5215314664
O  O63  1  0.66354000  0.06022000  0.66092000  1.0 -0.5215314664
O  O64  1  0.33646000  0.93978000  0.33908000  1.0 -0.5215314664
O  O65  1  0.56666000  0.56505000  0.67133000  1.0 -0.4669435099
O  O66  1  0.43334000  0.43495000  0.32867000  1.0 -0.4669435099
O  O67  1  0.93334000  0.06505000  0.82867000  1.0 -0.4669435099
O  O68  1  0.06666000  0.93495000  0.17133000  1.0 -0.4669435099
O  O69  1  0.47633000  0.51154000  0.61110000  1.0 -0.4942702986
O  O70  1  0.52367000  0.48846000  0.38890000  1.0 -0.4942702986
O  O71  1  0.02367000  0.01154000  0.88890000  1.0 -0.4942702986
O  O72  1  0.97633000  0.98846000  0.11110000  1.0 -0.4942702986
O  O73  1  0.72466000  0.36593000  0.73708000  1.0 -0.2110351762
O  O74  1  0.27534000  0.63407000  0.26292000  1.0 -0.2110351762
O  O75  1  0.77534000  0.86593000  0.76292000  1.0 -0.2110351762
O  O76  1  0.22466000  0.13407000  0.23708000  1.0 -0.2110351762
O  O77  1  0.38674000  0.52065000  0.48086000  1.0 -0.6417525746
O  O78  1  0.61326000  0.47935000  0.51914000  1.0 -0.6417525746
O  O79  1  0.11326000  0.02065000  0.01914000  1.0 -0.6417525746
O  O80  1  0.88674000  0.97935000  0.98086000  1.0 -0.6417525746
O  O81  1  0.32269000  0.57981000  0.53366000  1.0 -0.4669435099
O  O82  1  0.67731000  0.42019000  0.46634000  1.0 -0.4669435099
O  O83  1  0.17731000  0.07981000  0.96634000  1.0 -0.4669435099
O  O84  1  0.82269000  0.92019000  0.03366000  1.0 -0.4669435099
O  O85  1  0.72071000  0.54703000  0.45671000  1.0 -0.560739655
O  O86  1  0.27929000  0.45297000  0.54329000  1.0 -0.560739655
O  O87  1  0.77929000  0.04703000  0.04329000  1.0 -0.560739655
O  O88  1  0.22071000  0.95297000  0.95671000  1.0 -0.560739655
O  O89  1  0.83879000  0.60038000  0.51834000  1.0 -0.4997429289
O  O90  1  0.16121000  0.39962000  0.48166000  1.0 -0.4997429289
O  O91  1  0.66121000  0.10038000  0.98166000  1.0 -0.4997429289
O  O92  1  0.33879000  0.89962000  0.01834000  1.0 -0.4997429289
O  O93  1  0.00028000  0.48034000  0.33191000  1.0 -0.1921912905
O  O94  1  0.99972000  0.51966000  0.66809000  1.0 -0.1921912905
O  O95  1  0.49972000  0.98034000  0.16809000  1.0 -0.1921912905
O  O96  1  0.50028000  0.01966000  0.83191000  1.0 -0.1921912905
O  O97  1  0.63281000  0.67408000  0.59224000  1.0 -0.52960575
O  O98  1  0.36719000  0.32592000  0.40776000  1.0 -0.52960575
O  O99  1  0.86719000  0.17408000  0.90776000  1.0 -0.52960575
O  O100  1  0.13281000  0.82592000  0.09224000  1.0 -0.52960575
O  O101  1  0.44228000  0.64644000  0.60315000  1.0 -0.4997429289
O  O102  1  0.55772000  0.35356000  0.39685000  1.0 -0.4997429289
O  O103  1  0.05772000  0.14644000  0.89685000  1.0 -0.4997429289
O  O104  1  0.94228000  0.85356000  0.10315000  1.0 -0.4997429289
O  O105  1  0.64416000  0.84225000  0.53286000  1.0 -0.5107009299
O  O106  1  0.35584000  0.15775000  0.46714000  1.0 -0.5107009299
O  O107  1  0.85584000  0.34225000  0.96714000  1.0 -0.5107009299
O  O108  1  0.14416000  0.65775000  0.03286000  1.0 -0.5107009299
O  O109  1  0.52456000  0.89437000  0.57242000  1.0 -0.5542968549
O  O110  1  0.47544000  0.10563000  0.42758000  1.0 -0.5542968549
O  O111  1  0.97544000  0.39437000  0.92758000  1.0 -0.5542968549
O  O112  1  0.02456000  0.60563000  0.07242000  1.0 -0.5542968549
O  O113  1  0.21291000  0.79090000  0.64347000  1.0 -0.2110351762
O  O114  1  0.78709000  0.20910000  0.35653000  1.0 -0.2110351762
O  O115  1  0.28709000  0.29090000  0.85653000  1.0 -0.2110351762
O  O116  1  0.71291000  0.70910000  0.14347000  1.0 -0.2110351762
