# DDEC6 charges by PACMAN v1.1 (https://github.com/mtap-research/PACMAN-charge/)
data_UVUCEV_ASR_pacman
_symmetry_space_group_name_H-M   'P 1'
_cell_length_a   10.94340000
_cell_length_b   28.60350000
_cell_length_c   22.54490000
_cell_angle_alpha   90.00000000
_cell_angle_beta   99.58700000
_cell_angle_gamma   90.00000000
_symmetry_Int_Tables_number   1
_chemical_formula_structural   Co6H40C50O27
_chemical_formula_sum   'Co24 H160 C200 O108'
_cell_volume   6958.43523190
_cell_formula_units_Z   4
loop_
 _symmetry_equiv_pos_site_id
 _symmetry_equiv_pos_as_xyz
  1  'x, y, z'
loop_
 _atom_site_type_symbol
 _atom_site_label
 _atom_site_symmetry_multiplicity
 _atom_site_fract_x
 _atom_site_fract_y
 _atom_site_fract_z
 _atom_site_occupancy
 _atom_site_charge
Co  Co1  1  0.45912000  0.42113000  0.59791000  1.0 0.8053956897
Co  Co2  1  0.54088000  0.57887000  0.40209000  1.0 0.8053956897
Co  Co3  1  0.04088000  0.92113000  0.90209000  1.0 0.8053956897
Co  Co4  1  0.95912000  0.07887000  0.09791000  1.0 0.8053956897
Co  Co5  1  0.70818000  0.37350000  0.54435000  1.0 0.9533539485
Co  Co6  1  0.29182000  0.62650000  0.45565000  1.0 0.9565253229
Co  Co7  1  0.79182000  0.87350000  0.95565000  1.0 0.9533539485
Co  Co8  1  0.20818000  0.12650000  0.04435000  1.0 0.9565253229
Co  Co9  1  0.88816000  0.41271000  0.91349000  1.0 0.9673133464
Co  Co10  1  0.11184000  0.58729000  0.08651000  1.0 0.9673133464
Co  Co11  1  0.61184000  0.91271000  0.58651000  1.0 0.9673133464
Co  Co12  1  0.38816000  0.08729000  0.41349000  1.0 0.9673133464
Co  Co13  1  0.16420000  0.37326000  0.95780000  1.0 0.9533539485
Co  Co14  1  0.83580000  0.62674000  0.04220000  1.0 0.9533539485
Co  Co15  1  0.33580000  0.87326000  0.54220000  1.0 0.9533539485
Co  Co16  1  0.66420000  0.12674000  0.45780000  1.0 0.9533539485
Co  Co17  1  0.06331000  0.04225000  0.97040000  1.0 1.0786988707
Co  Co18  1  0.93669000  0.95775000  0.02960000  1.0 1.0786988707
Co  Co19  1  0.43669000  0.54225000  0.52960000  1.0 1.0786988707
Co  Co20  1  0.56331000  0.45775000  0.47040000  1.0 1.0786988707
Co  Co21  1  0.06824000  0.45263000  0.03685000  1.0 1.037428406
Co  Co22  1  0.93176000  0.54737000  0.96315000  1.0 1.037428406
Co  Co23  1  0.43176000  0.95263000  0.46315000  1.0 1.037428406
Co  Co24  1  0.56824000  0.04737000  0.53685000  1.0 1.037428406
H  H1  1  0.07732000  0.41598000  0.52371000  1.0 0.1293966328
H  H2  1  0.92268000  0.58402000  0.47629000  1.0 0.1293966328
H  H3  1  0.42268000  0.91598000  0.97629000  1.0 0.1293966328
H  H4  1  0.57732000  0.08402000  0.02371000  1.0 0.1293966328
H  H5  1  0.83590000  0.48607000  0.37859000  1.0 0.1293966328
H  H6  1  0.16410000  0.51393000  0.62141000  1.0 0.1293966328
H  H7  1  0.66410000  0.98607000  0.12141000  1.0 0.1293966328
H  H8  1  0.33590000  0.01393000  0.87859000  1.0 0.1293966328
H  H9  1  0.23384000  0.49701000  0.39189000  1.0 0.1223525911
H  H10  1  0.76616000  0.50299000  0.60811000  1.0 0.1223525911
H  H11  1  0.26616000  0.99701000  0.10811000  1.0 0.1223525911
H  H12  1  0.73384000  0.00299000  0.89189000  1.0 0.1223525911
H  H13  1  0.93765000  0.56039000  0.26181000  1.0 0.0823879207
H  H14  1  0.06235000  0.43961000  0.73819000  1.0 0.0823879207
H  H15  1  0.56235000  0.06039000  0.23819000  1.0 0.0823879207
H  H16  1  0.43765000  0.93961000  0.76181000  1.0 0.0823879207
H  H17  1  0.84439000  0.54001000  0.31462000  1.0 0.0517026549
H  H18  1  0.15561000  0.45999000  0.68538000  1.0 0.0517026549
H  H19  1  0.65561000  0.04001000  0.18538000  1.0 0.0517026549
H  H20  1  0.34439000  0.95999000  0.81462000  1.0 0.0517026549
H  H21  1  0.79326000  0.49440000  0.21947000  1.0 0.1293966328
H  H22  1  0.20674000  0.50560000  0.78053000  1.0 0.1293966328
H  H23  1  0.70674000  0.99440000  0.28053000  1.0 0.1293966328
H  H24  1  0.29326000  0.00560000  0.71947000  1.0 0.1293966328
H  H25  1  0.95320000  0.48010000  0.22062000  1.0 0.1383148185
H  H26  1  0.04680000  0.51990000  0.77938000  1.0 0.1383148185
H  H27  1  0.54680000  0.98010000  0.27938000  1.0 0.1383148185
H  H28  1  0.45320000  0.01990000  0.72062000  1.0 0.1383148185
H  H29  1  0.87104000  0.45596000  0.27579000  1.0 0.1223525911
H  H30  1  0.12896000  0.54404000  0.72421000  1.0 0.1223525911
H  H31  1  0.62896000  0.95596000  0.22421000  1.0 0.1223525911
H  H32  1  0.37104000  0.04404000  0.77579000  1.0 0.1223525911
H  H33  1  0.62204000  0.24280000  0.55800000  1.0 0.1293966328
H  H34  1  0.37796000  0.75720000  0.44200000  1.0 0.1293966328
H  H35  1  0.87796000  0.74280000  0.94200000  1.0 0.1293966328
H  H36  1  0.12204000  0.25720000  0.05800000  1.0 0.1293966328
H  H37  1  0.37881000  0.14303000  0.62035000  1.0 0.1293966328
H  H38  1  0.62119000  0.85697000  0.37965000  1.0 0.1293966328
H  H39  1  0.12119000  0.64303000  0.87965000  1.0 0.1293966328
H  H40  1  0.87881000  0.35697000  0.12035000  1.0 0.1293966328
H  H41  1  0.32889000  0.29075000  0.65295000  1.0 0.1293966328
H  H42  1  0.67111000  0.70925000  0.34705000  1.0 0.1293966328
H  H43  1  0.17111000  0.79075000  0.84705000  1.0 0.1293966328
H  H44  1  0.82889000  0.20925000  0.15295000  1.0 0.1293966328
H  H45  1  0.26990000  0.13713000  0.68988000  1.0 0.0587454922
H  H46  1  0.73010000  0.86287000  0.31012000  1.0 0.0587454922
H  H47  1  0.23010000  0.63713000  0.81012000  1.0 0.0587454922
H  H48  1  0.76990000  0.36287000  0.18988000  1.0 0.0587454922
H  H49  1  0.17237000  0.14912000  0.61924000  1.0 0.066157204
H  H50  1  0.82763000  0.85088000  0.38076000  1.0 0.066157204
H  H51  1  0.32763000  0.64912000  0.88076000  1.0 0.066157204
H  H52  1  0.67237000  0.35088000  0.11924000  1.0 0.066157204
H  H53  1  0.04423000  0.12366000  0.69407000  1.0 0.1293966328
H  H54  1  0.95577000  0.87634000  0.30593000  1.0 0.1293966328
H  H55  1  0.45577000  0.62366000  0.80593000  1.0 0.1293966328
H  H56  1  0.54423000  0.37634000  0.19407000  1.0 0.1293966328
H  H57  1  0.10661000  0.16864000  0.74543000  1.0 0.1383148185
H  H58  1  0.89339000  0.83136000  0.25457000  1.0 0.1383148185
H  H59  1  0.39339000  0.66864000  0.75457000  1.0 0.1383148185
H  H60  1  0.60661000  0.33136000  0.24543000  1.0 0.1383148185
H  H61  1  0.01242000  0.18365000  0.67543000  1.0 0.1383148185
H  H62  1  0.98758000  0.81635000  0.32457000  1.0 0.1383148185
H  H63  1  0.48758000  0.68365000  0.82457000  1.0 0.1383148185
H  H64  1  0.51242000  0.31635000  0.17543000  1.0 0.1383148185
H  H65  1  0.71612000  0.45011000  0.75699000  1.0 0.1223525911
H  H66  1  0.28388000  0.54989000  0.24301000  1.0 0.1223525911
H  H67  1  0.78388000  0.95011000  0.74301000  1.0 0.1223525911
H  H68  1  0.21612000  0.04989000  0.25699000  1.0 0.1223525911
H  H69  1  0.82791000  0.58439000  0.83338000  1.0 0.1223525911
H  H70  1  0.17209000  0.41561000  0.16662000  1.0 0.1223525911
H  H71  1  0.67209000  0.08439000  0.66666667  1.0 0.1223525911
H  H72  1  0.32791000  0.91561000  0.33338000  1.0 0.1223525911
H  H73  1  0.55142000  0.57651000  0.67014000  1.0 0.1383148185
H  H74  1  0.44858000  0.42349000  0.32986000  1.0 0.1383148185
H  H75  1  0.94858000  0.07651000  0.82986000  1.0 0.1383148185
H  H76  1  0.05142000  0.92349000  0.17014000  1.0 0.1383148185
H  H77  1  0.83958000  0.65411000  0.79748000  1.0 0.0517026549
H  H78  1  0.16042000  0.34589000  0.20252000  1.0 0.0517026549
H  H79  1  0.66042000  0.15411000  0.70252000  1.0 0.0517026549
H  H80  1  0.33958000  0.84589000  0.29748000  1.0 0.0517026549
H  H81  1  0.71348000  0.64992000  0.83920000  1.0 0.0587454922
H  H82  1  0.28652000  0.35008000  0.16080000  1.0 0.0587454922
H  H83  1  0.78652000  0.14992000  0.66080000  1.0 0.0587454922
H  H84  1  0.21348000  0.85008000  0.33920000  1.0 0.0587454922
H  H85  1  0.76099000  0.73192000  0.82591000  1.0 0.1293966328
H  H86  1  0.23901000  0.26808000  0.17409000  1.0 0.1293966328
H  H87  1  0.73901000  0.23192000  0.67409000  1.0 0.1293966328
H  H88  1  0.26099000  0.76808000  0.32591000  1.0 0.1293966328
H  H89  1  0.74967000  0.72637000  0.74620000  1.0 0.1293966328
H  H90  1  0.25033000  0.27363000  0.25380000  1.0 0.1293966328
H  H91  1  0.75033000  0.22637000  0.75380000  1.0 0.1293966328
H  H92  1  0.24967000  0.77363000  0.24620000  1.0 0.1293966328
H  H93  1  0.61397000  0.72133000  0.78033000  1.0 0.1293966328
H  H94  1  0.38603000  0.27867000  0.21967000  1.0 0.1293966328
H  H95  1  0.88603000  0.22133000  0.71967000  1.0 0.1293966328
H  H96  1  0.11397000  0.77867000  0.28033000  1.0 0.1293966328
H  H97  1  0.09304000  0.23577000  0.93593000  1.0 0.1223525911
H  H98  1  0.90696000  0.76423000  0.06407000  1.0 0.1293966328
H  H99  1  0.40696000  0.73577000  0.56407000  1.0 0.1293966328
H  H100  1  0.59304000  0.26423000  0.43593000  1.0 0.1293966328
H  H101  1  0.79864000  0.13552000  0.88659000  1.0 0.1223525911
H  H102  1  0.20136000  0.86448000  0.11341000  1.0 0.1223525911
H  H103  1  0.70136000  0.63552000  0.61341000  1.0 0.1223525911
H  H104  1  0.29864000  0.36448000  0.38659000  1.0 0.1223525911
H  H105  1  0.72278000  0.28387000  0.86115000  1.0 0.1293966328
H  H106  1  0.27722000  0.71613000  0.13885000  1.0 0.1293966328
H  H107  1  0.77722000  0.78387000  0.63885000  1.0 0.1293966328
H  H108  1  0.22278000  0.21613000  0.36115000  1.0 0.1293966328
H  H109  1  0.58609000  0.14111000  0.88921000  1.0 0.0587454922
H  H110  1  0.41391000  0.85889000  0.11079000  1.0 0.0587454922
H  H111  1  0.91391000  0.64111000  0.61079000  1.0 0.0587454922
H  H112  1  0.08609000  0.35889000  0.38921000  1.0 0.0587454922
H  H113  1  0.63302000  0.13284000  0.81723000  1.0 0.0587454922
H  H114  1  0.36698000  0.86716000  0.18277000  1.0 0.0587454922
H  H115  1  0.86698000  0.63284000  0.68277000  1.0 0.0587454922
H  H116  1  0.13302000  0.36716000  0.31723000  1.0 0.0587454922
H  H117  1  0.38692000  0.17923000  0.83659000  1.0 0.1383148185
H  H118  1  0.61308000  0.82077000  0.16341000  1.0 0.1383148185
H  H119  1  0.11308000  0.67923000  0.66341000  1.0 0.1383148185
H  H120  1  0.88692000  0.32077000  0.33659000  1.0 0.1383148185
H  H121  1  0.40383000  0.12048000  0.81224000  1.0 0.1223525911
H  H122  1  0.59617000  0.87952000  0.18776000  1.0 0.1223525911
H  H123  1  0.09617000  0.62048000  0.68776000  1.0 0.1223525911
H  H124  1  0.90383000  0.37952000  0.31224000  1.0 0.1223525911
H  H125  1  0.43407000  0.16846000  0.76557000  1.0 0.1223525911
H  H126  1  0.56593000  0.83154000  0.23443000  1.0 0.1223525911
H  H127  1  0.06593000  0.66846000  0.73443000  1.0 0.1223525911
H  H128  1  0.93407000  0.33154000  0.26557000  1.0 0.1223525911
H  H129  1  0.55553000  0.41433000  0.98319000  1.0 0.1223525911
H  H130  1  0.44447000  0.58567000  0.01681000  1.0 0.1223525911
H  H131  1  0.94447000  0.91433000  0.51681000  1.0 0.1223525911
H  H132  1  0.05553000  0.08567000  0.48319000  1.0 0.1223525911
H  H133  1  0.40340000  0.49328000  0.11993000  1.0 0.1383148185
H  H134  1  0.59660000  0.50672000  0.88007000  1.0 0.1383148185
H  H135  1  0.09660000  0.99328000  0.38007000  1.0 0.1383148185
H  H136  1  0.90340000  0.00672000  0.61993000  1.0 0.1383148185
H  H137  1  0.78936000  0.50678000  0.10636000  1.0 0.1293966328
H  H138  1  0.21064000  0.49322000  0.89364000  1.0 0.1293966328
H  H139  1  0.71064000  0.00678000  0.39364000  1.0 0.1293966328
H  H140  1  0.28936000  0.99322000  0.60636000  1.0 0.1293966328
H  H141  1  0.51255000  0.60620000  0.24722000  1.0 0.1786180855
H  H142  1  0.48745000  0.39380000  0.75278000  1.0 0.1786180855
H  H143  1  0.98745000  0.10620000  0.25278000  1.0 0.1786180855
H  H144  1  0.01255000  0.89380000  0.74722000  1.0 0.1786180855
H  H145  1  0.67200000  0.58700000  0.24680000  1.0 0.1607576282
H  H146  1  0.32800000  0.41300000  0.75320000  1.0 0.1607576282
H  H147  1  0.82800000  0.08700000  0.25320000  1.0 0.1607576282
H  H148  1  0.17200000  0.91300000  0.74680000  1.0 0.1607576282
H  H149  1  0.59949000  0.63240000  0.19676000  1.0 0.1607576282
H  H150  1  0.40051000  0.36760000  0.80324000  1.0 0.1607576282
H  H151  1  0.90051000  0.13240000  0.30324000  1.0 0.1607576282
H  H152  1  0.09949000  0.86760000  0.69676000  1.0 0.1607576282
H  H153  1  0.65315000  0.44922000  0.57087000  1.0 0.3786447616
H  H154  1  0.34685000  0.55078000  0.42913000  1.0 0.3786447616
H  H155  1  0.84685000  0.94922000  0.92913000  1.0 0.3786447616
H  H156  1  0.15315000  0.05078000  0.07087000  1.0 0.3786447616
H  H157  1  0.07671000  0.45391000  0.93589000  1.0 0.3786447616
H  H158  1  0.92329000  0.54609000  0.06411000  1.0 0.3786447616
H  H159  1  0.42329000  0.95391000  0.56411000  1.0 0.3786447616
H  H160  1  0.57671000  0.04609000  0.43589000  1.0 0.3786447616
C  C1  1  0.29857000  0.45177000  0.49708000  1.0 0.6097452711
C  C2  1  0.70143000  0.54823000  0.50292000  1.0 0.6097452711
C  C3  1  0.20143000  0.95177000  0.00292000  1.0 0.6097452711
C  C4  1  0.79857000  0.04823000  0.99708000  1.0 0.6097452711
C  C5  1  0.17024000  0.45684000  0.46262000  1.0 -0.0200625507
C  C6  1  0.82976000  0.54316000  0.53738000  1.0 -0.0200625507
C  C7  1  0.32976000  0.95684000  0.03738000  1.0 -0.0200625507
C  C8  1  0.67024000  0.04316000  0.96262000  1.0 -0.0200625507
C  C9  1  0.06473000  0.43807000  0.48350000  1.0 -0.1464574812
C  C10  1  0.93527000  0.56193000  0.51650000  1.0 -0.1464574812
C  C11  1  0.43527000  0.93807000  0.01650000  1.0 -0.1464574812
C  C12  1  0.56473000  0.06193000  0.98350000  1.0 -0.1464574812
C  C13  1  0.94527000  0.44955000  0.45290000  1.0 -0.0122828824
C  C14  1  0.05473000  0.55045000  0.54710000  1.0 -0.0122828824
C  C15  1  0.55473000  0.94955000  0.04710000  1.0 -0.0122828824
C  C16  1  0.44527000  0.05045000  0.95290000  1.0 -0.0122828824
C  C17  1  0.82862000  0.43465000  0.47501000  1.0 0.5968920523
C  C18  1  0.17138000  0.56535000  0.52499000  1.0 0.5968920523
C  C19  1  0.67138000  0.93465000  0.02499000  1.0 0.5968920523
C  C20  1  0.32862000  0.06535000  0.97501000  1.0 0.5968920523
C  C21  1  0.93003000  0.47760000  0.40057000  1.0 -0.2288055225
C  C22  1  0.06997000  0.52240000  0.59943000  1.0 -0.2288055225
C  C23  1  0.56997000  0.97760000  0.09943000  1.0 -0.2288055225
C  C24  1  0.43003000  0.02240000  0.90057000  1.0 -0.2288055225
C  C25  1  0.03485000  0.49431000  0.37882000  1.0 0.2567288996
C  C26  1  0.96515000  0.50569000  0.62118000  1.0 0.2567288996
C  C27  1  0.46515000  0.99431000  0.12118000  1.0 0.2567288996
C  C28  1  0.53485000  0.00569000  0.87882000  1.0 0.2567288996
C  C29  1  0.15377000  0.48376000  0.40993000  1.0 -0.1981721335
C  C30  1  0.84623000  0.51624000  0.59007000  1.0 -0.1981721335
C  C31  1  0.34623000  0.98376000  0.09007000  1.0 -0.1981721335
C  C32  1  0.65377000  0.01624000  0.90993000  1.0 -0.1981721335
C  C33  1  0.91832000  0.52986000  0.28882000  1.0 0.0823879207
C  C34  1  0.08168000  0.47014000  0.71118000  1.0 0.0823879207
C  C35  1  0.58168000  0.02986000  0.21118000  1.0 0.0823879207
C  C36  1  0.41832000  0.97014000  0.78882000  1.0 0.0823879207
C  C37  1  0.88221000  0.48752000  0.24904000  1.0 -0.3962635948
C  C38  1  0.11779000  0.51248000  0.75096000  1.0 -0.3962635948
C  C39  1  0.61779000  0.98752000  0.25096000  1.0 -0.3962635948
C  C40  1  0.38221000  0.01248000  0.74904000  1.0 -0.3962635948
C  C41  1  0.52028000  0.32208000  0.59706000  1.0 0.5968920523
C  C42  1  0.47972000  0.67792000  0.40294000  1.0 0.5968920523
C  C43  1  0.97972000  0.82208000  0.90294000  1.0 0.5968920523
C  C44  1  0.02028000  0.17792000  0.09706000  1.0 0.5968920523
C  C45  1  0.48115000  0.27243000  0.60559000  1.0 -0.0200625507
C  C46  1  0.51885000  0.72757000  0.39441000  1.0 -0.0200625507
C  C47  1  0.01885000  0.77243000  0.89441000  1.0 -0.0200625507
C  C48  1  0.98115000  0.22757000  0.10559000  1.0 -0.0200625507
C  C49  1  0.54510000  0.23555000  0.58205000  1.0 -0.1283749967
C  C50  1  0.45490000  0.76445000  0.41795000  1.0 -0.1283749967
C  C51  1  0.95490000  0.73555000  0.91795000  1.0 -0.1283749967
C  C52  1  0.04510000  0.26445000  0.08205000  1.0 -0.1283749967
C  C53  1  0.50742000  0.18921000  0.58866000  1.0 -0.0122828824
C  C54  1  0.49258000  0.81079000  0.41134000  1.0 -0.0122828824
C  C55  1  0.99258000  0.68921000  0.91134000  1.0 -0.0122828824
C  C56  1  0.00742000  0.31079000  0.08866000  1.0 -0.0122828824
C  C57  1  0.56681000  0.14896000  0.56167000  1.0 0.583071825
C  C58  1  0.43319000  0.85104000  0.43833000  1.0 0.583071825
C  C59  1  0.93319000  0.64896000  0.93833000  1.0 0.583071825
C  C60  1  0.06681000  0.35104000  0.06167000  1.0 0.583071825
C  C61  1  0.40683000  0.17937000  0.61794000  1.0 -0.2288055225
C  C62  1  0.59317000  0.82063000  0.38206000  1.0 -0.2288055225
C  C63  1  0.09317000  0.67937000  0.88206000  1.0 -0.2288055225
C  C64  1  0.90683000  0.32063000  0.11794000  1.0 -0.2288055225
C  C65  1  0.34285000  0.21587000  0.64069000  1.0 0.2505057202
C  C66  1  0.65715000  0.78413000  0.35931000  1.0 0.2505057202
C  C67  1  0.15715000  0.71587000  0.85931000  1.0 0.2505057202
C  C68  1  0.84285000  0.28413000  0.14069000  1.0 0.2505057202
C  C69  1  0.38017000  0.26260000  0.63506000  1.0 -0.1981721335
C  C70  1  0.61983000  0.73740000  0.36494000  1.0 -0.1981721335
C  C71  1  0.11983000  0.76260000  0.86494000  1.0 -0.1981721335
C  C72  1  0.88017000  0.23740000  0.13506000  1.0 -0.1981721335
C  C73  1  0.19617000  0.16058000  0.66677000  1.0 0.0823879207
C  C74  1  0.80383000  0.83942000  0.33323000  1.0 0.0823879207
C  C75  1  0.30383000  0.66058000  0.83323000  1.0 0.0823879207
C  C76  1  0.69617000  0.33942000  0.16677000  1.0 0.0823879207
C  C77  1  0.08372000  0.15931000  0.69746000  1.0 -0.3887580662
C  C78  1  0.91628000  0.84069000  0.30254000  1.0 -0.3887580662
C  C79  1  0.41628000  0.65931000  0.80254000  1.0 -0.3887580662
C  C80  1  0.58372000  0.34069000  0.19746000  1.0 -0.3887580662
C  C81  1  0.55610000  0.47861000  0.66333000  1.0 0.5217849137
C  C82  1  0.44390000  0.52139000  0.33667000  1.0 0.5217849137
C  C83  1  0.94390000  0.97861000  0.83667000  1.0 0.5217849137
C  C84  1  0.05610000  0.02139000  0.16333000  1.0 0.5217849137
C  C85  1  0.62473000  0.51009000  0.70847000  1.0 -0.0309148655
C  C86  1  0.37527000  0.48991000  0.29153000  1.0 -0.0309148655
C  C87  1  0.87527000  0.01009000  0.79153000  1.0 -0.0309148655
C  C88  1  0.12473000  0.98991000  0.20847000  1.0 -0.0309148655
C  C89  1  0.70639000  0.48810000  0.75498000  1.0 -0.1179038464
C  C90  1  0.29361000  0.51190000  0.24502000  1.0 -0.1179038464
C  C91  1  0.79361000  0.98810000  0.74502000  1.0 -0.1179038464
C  C92  1  0.20639000  0.01190000  0.25498000  1.0 -0.1179038464
C  C93  1  0.77991000  0.51513000  0.79884000  1.0 -0.0309148655
C  C94  1  0.22009000  0.48487000  0.20116000  1.0 -0.0309148655
C  C95  1  0.72009000  0.01513000  0.70116000  1.0 -0.0309148655
C  C96  1  0.27991000  0.98487000  0.29884000  1.0 -0.0309148655
C  C97  1  0.86904000  0.48976000  0.84503000  1.0 0.5862839193
C  C98  1  0.13096000  0.51024000  0.15497000  1.0 0.5862839193
C  C99  1  0.63096000  0.98976000  0.65497000  1.0 0.5862839193
C  C100  1  0.36904000  0.01024000  0.34503000  1.0 0.5862839193
C  C101  1  0.76994000  0.56424000  0.79812000  1.0 -0.2211299567
C  C102  1  0.23006000  0.43576000  0.20188000  1.0 -0.2211299567
C  C103  1  0.73006000  0.06424000  0.70188000  1.0 -0.2211299567
C  C104  1  0.26994000  0.93576000  0.29812000  1.0 -0.2211299567
C  C105  1  0.68589000  0.58615000  0.75209000  1.0 0.2505057202
C  C106  1  0.31411000  0.41385000  0.24791000  1.0 0.2505057202
C  C107  1  0.81411000  0.08615000  0.74791000  1.0 0.2505057202
C  C108  1  0.18589000  0.91385000  0.25209000  1.0 0.2505057202
C  C109  1  0.61381000  0.55909000  0.70648000  1.0 -0.1981721335
C  C110  1  0.38619000  0.44091000  0.29352000  1.0 -0.1981721335
C  C111  1  0.88619000  0.05909000  0.79352000  1.0 -0.1981721335
C  C112  1  0.11381000  0.94091000  0.20648000  1.0 -0.1981721335
C  C113  1  0.73949000  0.66150000  0.79610000  1.0 0.0872296746
C  C114  1  0.26051000  0.33850000  0.20390000  1.0 0.0872296746
C  C115  1  0.76051000  0.16150000  0.70390000  1.0 0.0872296746
C  C116  1  0.23949000  0.83850000  0.29610000  1.0 0.0872296746
C  C117  1  0.71352000  0.71312000  0.78578000  1.0 -0.3962635948
C  C118  1  0.28648000  0.28688000  0.21422000  1.0 -0.3962635948
C  C119  1  0.78648000  0.21312000  0.71422000  1.0 -0.3962635948
C  C120  1  0.21352000  0.78688000  0.28578000  1.0 -0.3962635948
C  C121  1  0.95472000  0.31533000  0.90396000  1.0 0.6097452711
C  C122  1  0.04528000  0.68467000  0.09604000  1.0 0.6097452711
C  C123  1  0.54528000  0.81533000  0.59604000  1.0 0.6097452711
C  C124  1  0.45472000  0.18467000  0.40396000  1.0 0.6097452711
C  C125  1  0.91359000  0.26519000  0.89758000  1.0 -0.0200625507
C  C126  1  0.08641000  0.73481000  0.10242000  1.0 -0.0200625507
C  C127  1  0.58641000  0.76519000  0.60242000  1.0 -0.0200625507
C  C128  1  0.41359000  0.23481000  0.39758000  1.0 -0.0200625507
C  C129  1  0.99658000  0.22820000  0.91685000  1.0 -0.1283749967
C  C130  1  0.00342000  0.77180000  0.08315000  1.0 -0.1283749967
C  C131  1  0.50342000  0.72820000  0.58315000  1.0 -0.1283749967
C  C132  1  0.49658000  0.27180000  0.41685000  1.0 -0.1283749967
C  C133  1  0.95328000  0.18167000  0.91313000  1.0 -0.0200625507
C  C134  1  0.04672000  0.81833000  0.08687000  1.0 -0.0200625507
C  C135  1  0.54672000  0.68167000  0.58687000  1.0 -0.0200625507
C  C136  1  0.45328000  0.31833000  0.41313000  1.0 -0.0200625507
C  C137  1  0.03638000  0.14225000  0.93902000  1.0 0.5968920523
C  C138  1  0.96362000  0.85775000  0.06098000  1.0 0.5968920523
C  C139  1  0.46362000  0.64225000  0.56098000  1.0 0.5968920523
C  C140  1  0.53638000  0.35775000  0.43902000  1.0 0.5968920523
C  C141  1  0.82886000  0.17191000  0.88921000  1.0 -0.2125497608
C  C142  1  0.17114000  0.82809000  0.11079000  1.0 -0.2125497608
C  C143  1  0.67114000  0.67191000  0.61079000  1.0 -0.2125497608
C  C144  1  0.32886000  0.32809000  0.38921000  1.0 -0.2125497608
C  C145  1  0.74696000  0.20874000  0.86992000  1.0 0.2423602314
C  C146  1  0.25304000  0.79126000  0.13008000  1.0 0.2423602314
C  C147  1  0.75304000  0.70874000  0.63008000  1.0 0.2423602314
C  C148  1  0.24696000  0.29126000  0.36992000  1.0 0.2423602314
C  C149  1  0.78862000  0.25539000  0.87476000  1.0 -0.1894218503
C  C150  1  0.21138000  0.74461000  0.12524000  1.0 -0.1894218503
C  C151  1  0.71138000  0.75539000  0.62524000  1.0 -0.1894218503
C  C152  1  0.28862000  0.24461000  0.37476000  1.0 -0.1894218503
C  C153  1  0.57693000  0.15509000  0.84278000  1.0 0.0872296746
C  C154  1  0.42307000  0.84491000  0.15722000  1.0 0.0872296746
C  C155  1  0.92307000  0.65509000  0.65722000  1.0 0.0872296746
C  C156  1  0.07693000  0.34491000  0.34278000  1.0 0.0872296746
C  C157  1  0.44269000  0.15618000  0.81245000  1.0 -0.3848777442
C  C158  1  0.55731000  0.84382000  0.18755000  1.0 -0.3848777442
C  C159  1  0.05731000  0.65618000  0.68755000  1.0 -0.3848777442
C  C160  1  0.94269000  0.34382000  0.31245000  1.0 -0.3848777442
C  C161  1  0.79287000  0.44901000  0.01009000  1.0 0.6097452711
C  C162  1  0.20713000  0.55099000  0.98991000  1.0 0.6097452711
C  C163  1  0.70713000  0.94901000  0.48991000  1.0 0.6097452711
C  C164  1  0.29287000  0.05099000  0.51009000  1.0 0.6097452711
C  C165  1  0.68461000  0.45877000  0.04117000  1.0 -0.0200625507
C  C166  1  0.31539000  0.54123000  0.95883000  1.0 -0.0200625507
C  C167  1  0.81539000  0.95877000  0.45883000  1.0 -0.0200625507
C  C168  1  0.18461000  0.04123000  0.54117000  1.0 -0.0200625507
C  C169  1  0.56627000  0.43857000  0.02149000  1.0 -0.1179038464
C  C170  1  0.43373000  0.56143000  0.97851000  1.0 -0.1179038464
C  C171  1  0.93373000  0.93857000  0.47851000  1.0 -0.1179038464
C  C172  1  0.06627000  0.06143000  0.52149000  1.0 -0.1179038464
C  C173  1  0.46418000  0.45091000  0.04927000  1.0 -0.0200625507
C  C174  1  0.53582000  0.54909000  0.95073000  1.0 -0.0200625507
C  C175  1  0.03582000  0.95091000  0.45073000  1.0 -0.0200625507
C  C176  1  0.96418000  0.04909000  0.54927000  1.0 -0.0200625507
C  C177  1  0.33333333  0.43385000  0.02808000  1.0 0.5968920523
C  C178  1  0.66666667  0.56615000  0.97192000  1.0 0.5968920523
C  C179  1  0.16668000  0.93385000  0.47192000  1.0 0.5968920523
C  C180  1  0.83332000  0.06615000  0.52808000  1.0 0.5968920523
C  C181  1  0.48068000  0.48266000  0.09803000  1.0 -0.1981721335
C  C182  1  0.51932000  0.51734000  0.90197000  1.0 -0.1981721335
C  C183  1  0.01932000  0.98266000  0.40197000  1.0 -0.1981721335
C  C184  1  0.98068000  0.01734000  0.59803000  1.0 -0.1981721335
C  C185  1  0.59775000  0.50176000  0.11654000  1.0 0.2326471628
C  C186  1  0.40225000  0.49824000  0.88346000  1.0 0.2326471628
C  C187  1  0.90225000  0.00176000  0.38346000  1.0 0.2326471628
C  C188  1  0.09775000  0.99824000  0.61654000  1.0 0.2326471628
C  C189  1  0.69962000  0.49044000  0.08977000  1.0 -0.1839066176
C  C190  1  0.30038000  0.50956000  0.91023000  1.0 -0.1839066176
C  C191  1  0.80038000  0.99044000  0.41023000  1.0 -0.1839066176
C  C192  1  0.19962000  0.00956000  0.58977000  1.0 -0.1839066176
C  C193  1  0.53192000  0.56636000  0.16910000  1.0 0.1383148185
C  C194  1  0.46808000  0.43364000  0.83090000  1.0 0.1383148185
C  C195  1  0.96808000  0.06636000  0.33090000  1.0 0.1383148185
C  C196  1  0.03192000  0.93364000  0.66910000  1.0 0.1383148185
C  C197  1  0.58382000  0.59859000  0.21902000  1.0 -0.4185786201
C  C198  1  0.41618000  0.40141000  0.78098000  1.0 -0.4185786201
C  C199  1  0.91618000  0.09859000  0.28098000  1.0 -0.4185786201
C  C200  1  0.08382000  0.90141000  0.71902000  1.0 -0.4185786201
O  O1  1  0.03411000  0.52271000  0.32972000  1.0 -0.2125497608
O  O2  1  0.96589000  0.47729000  0.67028000  1.0 -0.2125497608
O  O3  1  0.46589000  0.02271000  0.17028000  1.0 -0.2125497608
O  O4  1  0.53411000  0.97729000  0.82972000  1.0 -0.2125497608
O  O5  1  0.38806000  0.47997000  0.48418000  1.0 -0.6498610704
O  O6  1  0.61194000  0.52003000  0.51582000  1.0 -0.6498610704
O  O7  1  0.11194000  0.97997000  0.01582000  1.0 -0.6498610704
O  O8  1  0.88806000  0.02003000  0.98418000  1.0 -0.6498610704
O  O9  1  0.59964000  0.42523000  0.54798000  1.0 -0.8422589629
O  O10  1  0.40036000  0.57477000  0.45202000  1.0 -0.8422589629
O  O11  1  0.90036000  0.92523000  0.95202000  1.0 -0.8422589629
O  O12  1  0.09964000  0.07477000  0.04798000  1.0 -0.8422589629
O  O13  1  0.31762000  0.42109000  0.53873000  1.0 -0.4707564442
O  O14  1  0.68238000  0.57891000  0.46127000  1.0 -0.4707564442
O  O15  1  0.18238000  0.92109000  0.96127000  1.0 -0.4707564442
O  O16  1  0.81762000  0.07891000  0.03873000  1.0 -0.4707564442
O  O17  1  0.05223000  0.42565000  0.95665000  1.0 -0.8737384706
O  O18  1  0.94777000  0.57435000  0.04335000  1.0 -0.8737384706
O  O19  1  0.44777000  0.92565000  0.54335000  1.0 -0.8750281959
O  O20  1  0.55223000  0.07435000  0.45665000  1.0 -0.8737384706
O  O21  1  0.83913000  0.40587000  0.51981000  1.0 -0.55942941
O  O22  1  0.16087000  0.59413000  0.48019000  1.0 -0.55942941
O  O23  1  0.66087000  0.90587000  0.98019000  1.0 -0.55942941
O  O24  1  0.33913000  0.09413000  0.01981000  1.0 -0.55942941
O  O25  1  0.72520000  0.45184000  0.44761000  1.0 -0.5701101823
O  O26  1  0.27480000  0.54816000  0.55239000  1.0 -0.5701101823
O  O27  1  0.77480000  0.95184000  0.05239000  1.0 -0.5701101823
O  O28  1  0.22520000  0.04816000  0.94761000  1.0 -0.5701101823
O  O29  1  0.44488000  0.35539000  0.60471000  1.0 -0.5010240703
O  O30  1  0.55512000  0.64461000  0.39529000  1.0 -0.5010240703
O  O31  1  0.05512000  0.85539000  0.89529000  1.0 -0.5010240703
O  O32  1  0.94488000  0.14461000  0.10471000  1.0 -0.5010240703
O  O33  1  0.62805000  0.32727000  0.58178000  1.0 -0.5514360248
O  O34  1  0.37195000  0.67273000  0.41822000  1.0 -0.5514360248
O  O35  1  0.87195000  0.82727000  0.91822000  1.0 -0.5514360248
O  O36  1  0.12805000  0.17273000  0.08178000  1.0 -0.5514360248
O  O37  1  0.65481000  0.15865000  0.53215000  1.0 -0.5299244701
O  O38  1  0.34519000  0.84135000  0.46785000  1.0 -0.5299244701
O  O39  1  0.84519000  0.65865000  0.96785000  1.0 -0.5299244701
O  O40  1  0.15481000  0.34135000  0.03215000  1.0 -0.5299244701
O  O41  1  0.52250000  0.10800000  0.56867000  1.0 -0.5514360248
O  O42  1  0.47750000  0.89200000  0.43133000  1.0 -0.5514360248
O  O43  1  0.97750000  0.60800000  0.93133000  1.0 -0.5514360248
O  O44  1  0.02250000  0.39200000  0.06867000  1.0 -0.5514360248
O  O45  1  0.24146000  0.20833000  0.66819000  1.0 -0.2125497608
O  O46  1  0.75854000  0.79167000  0.33181000  1.0 -0.2125497608
O  O47  1  0.25854000  0.70833000  0.83181000  1.0 -0.2125497608
O  O48  1  0.74146000  0.29167000  0.16819000  1.0 -0.2125497608
O  O49  1  0.47461000  0.49013000  0.61612000  1.0 -0.5299244701
O  O50  1  0.52539000  0.50987000  0.38388000  1.0 -0.5299244701
O  O51  1  0.02539000  0.99013000  0.88388000  1.0 -0.5299244701
O  O52  1  0.97461000  0.00987000  0.11612000  1.0 -0.5299244701
O  O53  1  0.57349000  0.43361000  0.66854000  1.0 -0.4707564442
O  O54  1  0.42651000  0.56639000  0.33146000  1.0 -0.4707564442
O  O55  1  0.92651000  0.93361000  0.83146000  1.0 -0.4707564442
O  O56  1  0.07349000  0.06639000  0.16854000  1.0 -0.4707564442
O  O57  1  0.87935000  0.44482000  0.83758000  1.0 -0.5514360248
O  O58  1  0.12065000  0.55518000  0.16242000  1.0 -0.5514360248
O  O59  1  0.62065000  0.94482000  0.66242000  1.0 -0.5514360248
O  O60  1  0.37935000  0.05518000  0.33758000  1.0 -0.5514360248
O  O61  1  0.93600000  0.51050000  0.88956000  1.0 -0.55942941
O  O62  1  0.06400000  0.48950000  0.11044000  1.0 -0.55942941
O  O63  1  0.56400000  0.01050000  0.61044000  1.0 -0.55942941
O  O64  1  0.43600000  0.98950000  0.38956000  1.0 -0.55942941
O  O65  1  0.66870000  0.63378000  0.74808000  1.0 -0.2125497608
O  O66  1  0.33130000  0.36622000  0.25192000  1.0 -0.2125497608
O  O67  1  0.83130000  0.13378000  0.75192000  1.0 -0.2125497608
O  O68  1  0.16870000  0.86622000  0.24808000  1.0 -0.2125497608
O  O69  1  0.87117000  0.34738000  0.89568000  1.0 -0.5514360248
O  O70  1  0.12883000  0.65262000  0.10432000  1.0 -0.5514360248
O  O71  1  0.62883000  0.84738000  0.60432000  1.0 -0.5514360248
O  O72  1  0.37117000  0.15262000  0.39568000  1.0 -0.5514360248
O  O73  1  0.07200000  0.32409000  0.91791000  1.0 -0.5786189764
O  O74  1  0.92800000  0.67591000  0.08209000  1.0 -0.5786189764
O  O75  1  0.42800000  0.82409000  0.58209000  1.0 -0.5786189764
O  O76  1  0.57200000  0.17591000  0.41791000  1.0 -0.5786189764
O  O77  1  0.14383000  0.15376000  0.96769000  1.0 -0.5299244701
O  O78  1  0.85617000  0.84624000  0.03231000  1.0 -0.5299244701
O  O79  1  0.35617000  0.65376000  0.53231000  1.0 -0.5299244701
O  O80  1  0.64383000  0.34624000  0.46769000  1.0 -0.5299244701
O  O81  1  0.99284000  0.09998000  0.93338000  1.0 -0.55942941
O  O82  1  0.00716000  0.90002000  0.06662000  1.0 -0.55942941
O  O83  1  0.50716000  0.59998000  0.56662000  1.0 -0.55942941
O  O84  1  0.49284000  0.40002000  0.43338000  1.0 -0.55942941
O  O85  1  0.62422000  0.20253000  0.84502000  1.0 -0.2125497608
O  O86  1  0.37578000  0.79747000  0.15498000  1.0 -0.2125497608
O  O87  1  0.87578000  0.70253000  0.65498000  1.0 -0.2125497608
O  O88  1  0.12422000  0.29747000  0.34502000  1.0 -0.2125497608
O  O89  1  0.78427000  0.41481000  0.97256000  1.0 -0.5299244701
O  O90  1  0.21573000  0.58519000  0.02744000  1.0 -0.5299244701
O  O91  1  0.71573000  0.91481000  0.52744000  1.0 -0.5299244701
O  O92  1  0.28427000  0.08519000  0.47256000  1.0 -0.5299244701
O  O93  1  0.89090000  0.47602000  0.02137000  1.0 -0.6306593446
O  O94  1  0.10910000  0.52398000  0.97863000  1.0 -0.6306593446
O  O95  1  0.60910000  0.97602000  0.47863000  1.0 -0.6306593446
O  O96  1  0.39090000  0.02398000  0.52137000  1.0 -0.6306593446
O  O97  1  0.24873000  0.45005000  0.05600000  1.0 -0.5701101823
O  O98  1  0.75127000  0.54995000  0.94400000  1.0 -0.5701101823
O  O99  1  0.25127000  0.95005000  0.44400000  1.0 -0.5701101823
O  O100  1  0.74873000  0.04995000  0.55600000  1.0 -0.5701101823
O  O101  1  0.31331000  0.40486000  0.98349000  1.0 -0.55942941
O  O102  1  0.68669000  0.59514000  0.01651000  1.0 -0.55942941
O  O103  1  0.18669000  0.90486000  0.51651000  1.0 -0.55942941
O  O104  1  0.81331000  0.09514000  0.48349000  1.0 -0.55942941
O  O105  1  0.62078000  0.53500000  0.16430000  1.0 -0.1894218503
O  O106  1  0.37922000  0.46500000  0.83570000  1.0 -0.1894218503
O  O107  1  0.87922000  0.03500000  0.33570000  1.0 -0.1894218503
O  O108  1  0.12078000  0.96500000  0.66430000  1.0 -0.1894218503
