# DDEC6 charges by PACMAN v1.1 (https://github.com/mtap-research/PACMAN-charge/)
data_UVUCIZ_FSR_pacman
_symmetry_space_group_name_H-M   'P 1'
_cell_length_a   10.94670000
_cell_length_b   28.69100000
_cell_length_c   23.41010000
_cell_angle_alpha   90.00000000
_cell_angle_beta   104.95400000
_cell_angle_gamma   90.00000000
_symmetry_Int_Tables_number   1
_chemical_formula_structural   Co6H64C59O33
_chemical_formula_sum   'Co24 H256 C236 O132'
_cell_volume   7103.44832579
_cell_formula_units_Z   4
loop_
 _symmetry_equiv_pos_site_id
 _symmetry_equiv_pos_as_xyz
  1  'x, y, z'
loop_
 _atom_site_type_symbol
 _atom_site_label
 _atom_site_symmetry_multiplicity
 _atom_site_fract_x
 _atom_site_fract_y
 _atom_site_fract_z
 _atom_site_occupancy
 _atom_site_charge
Co  Co1  1  0.03898000  0.54590000  0.96274000  1.0 1.0816312958
Co  Co2  1  0.96102000  0.04590000  0.53726000  1.0 1.0816312958
Co  Co3  1  0.96102000  0.45410000  0.03726000  1.0 1.0816312958
Co  Co4  1  0.03898000  0.95410000  0.46274000  1.0 1.0816312958
Co  Co5  1  0.22045000  0.62975000  0.04867000  1.0 1.1296160151
Co  Co6  1  0.77955000  0.12975000  0.45133000  1.0 1.1296160151
Co  Co7  1  0.77955000  0.37025000  0.95133000  1.0 1.1296160151
Co  Co8  1  0.22045000  0.87025000  0.54867000  1.0 1.1296160151
Co  Co9  1  0.95596000  0.58988000  0.07905000  1.0 0.9995541652
Co  Co10  1  0.04404000  0.08988000  0.42095000  1.0 0.9995541652
Co  Co11  1  0.04404000  0.41012000  0.92095000  1.0 0.9995541652
Co  Co12  1  0.95596000  0.91012000  0.57905000  1.0 0.9995541652
Co  Co13  1  0.08803000  0.54503000  0.52873000  1.0 1.0816312958
Co  Co14  1  0.91197000  0.04503000  0.97127000  1.0 1.0816312958
Co  Co15  1  0.91197000  0.45497000  0.47127000  1.0 1.0816312958
Co  Co16  1  0.08803000  0.95497000  0.02873000  1.0 1.0816312958
Co  Co17  1  0.17290000  0.62970000  0.44079000  1.0 1.0716987182
Co  Co18  1  0.82710000  0.12970000  0.05921000  1.0 1.0716987182
Co  Co19  1  0.82710000  0.37030000  0.55921000  1.0 1.0716987182
Co  Co20  1  0.17290000  0.87030000  0.94079000  1.0 1.0716987182
Co  Co21  1  0.87469000  0.58587000  0.40759000  1.0 0.9911512513
Co  Co22  1  0.12531000  0.08587000  0.09241000  1.0 0.9911512513
Co  Co23  1  0.12531000  0.41413000  0.59241000  1.0 0.9911512513
Co  Co24  1  0.87469000  0.91413000  0.90759000  1.0 0.9911512513
H  H1  1  0.56110000  0.58090000  0.00110000  1.0 0.1388012891
H  H2  1  0.43890000  0.08090000  0.49890000  1.0 0.1388012891
H  H3  1  0.43890000  0.41910000  0.99890000  1.0 0.1388012891
H  H4  1  0.56110000  0.91910000  0.50110000  1.0 0.1388012891
H  H5  1  0.30690000  0.50040000  0.88480000  1.0 0.1388012891
H  H6  1  0.69310000  0.00040000  0.61520000  1.0 0.1388012891
H  H7  1  0.69310000  0.49960000  0.11520000  1.0 0.1388012891
H  H8  1  0.30690000  0.99960000  0.38480000  1.0 0.1388012891
H  H9  1  0.68300000  0.48430000  0.90160000  1.0 0.1388012891
H  H10  1  0.31700000  0.98430000  0.59840000  1.0 0.1388012891
H  H11  1  0.31700000  0.51570000  0.09840000  1.0 0.1388012891
H  H12  1  0.68300000  0.01570000  0.40160000  1.0 0.1388012891
H  H13  1  0.31870000  0.42160000  0.86560000  1.0 0.1094947615
H  H14  1  0.68130000  0.92160000  0.63440000  1.0 0.1094947615
H  H15  1  0.68130000  0.57840000  0.13440000  1.0 0.1094947615
H  H16  1  0.31870000  0.07840000  0.36560000  1.0 0.1094947615
H  H17  1  0.29220000  0.44880000  0.80360000  1.0 0.1010003344
H  H18  1  0.70780000  0.94880000  0.69640000  1.0 0.1010003344
H  H19  1  0.70780000  0.55120000  0.19640000  1.0 0.1010003344
H  H20  1  0.29220000  0.05120000  0.30360000  1.0 0.1010003344
H  H21  1  0.39980000  0.38920000  0.76570000  1.0 0.1010003344
H  H22  1  0.60020000  0.88920000  0.73430000  1.0 0.1010003344
H  H23  1  0.60020000  0.61080000  0.23430000  1.0 0.1010003344
H  H24  1  0.39980000  0.11080000  0.26570000  1.0 0.1010003344
H  H25  1  0.42490000  0.36200000  0.82740000  1.0 0.1094947615
H  H26  1  0.57510000  0.86200000  0.67260000  1.0 0.1094947615
H  H27  1  0.57510000  0.63800000  0.17260000  1.0 0.1094947615
H  H28  1  0.42490000  0.13800000  0.32740000  1.0 0.1094947615
H  H29  1  0.14630000  0.54990000  0.07110000  1.0 0.3906285171
H  H30  1  0.85370000  0.04990000  0.42890000  1.0 0.3906285171
H  H31  1  0.85370000  0.45010000  0.92890000  1.0 0.3906285171
H  H32  1  0.14630000  0.95010000  0.57110000  1.0 0.3906285171
H  H33  1  0.25000000  0.32890000  0.75860000  1.0 0.1306110347
H  H34  1  0.75000000  0.82890000  0.74140000  1.0 0.1306110347
H  H35  1  0.75000000  0.67110000  0.24140000  1.0 0.1306110347
H  H36  1  0.25000000  0.17110000  0.25860000  1.0 0.1306110347
H  H37  1  0.17910000  0.37820000  0.75070000  1.0 0.1388012891
H  H38  1  0.82090000  0.87820000  0.74930000  1.0 0.1388012891
H  H39  1  0.82090000  0.62180000  0.24930000  1.0 0.1388012891
H  H40  1  0.17910000  0.12180000  0.25070000  1.0 0.1388012891
H  H41  1  0.20420000  0.35100000  0.81230000  1.0 0.1388012891
H  H42  1  0.79580000  0.85100000  0.68770000  1.0 0.1388012891
H  H43  1  0.79580000  0.64900000  0.18770000  1.0 0.1388012891
H  H44  1  0.20420000  0.14900000  0.31230000  1.0 0.1388012891
H  H45  1  0.92240000  0.54110000  0.24680000  1.0 0.1306110347
H  H46  1  0.07760000  0.04110000  0.25320000  1.0 0.1306110347
H  H47  1  0.07760000  0.45890000  0.75320000  1.0 0.1306110347
H  H48  1  0.92240000  0.95890000  0.74680000  1.0 0.1306110347
H  H49  1  0.00870000  0.42180000  0.17210000  1.0 0.1388012891
H  H50  1  0.99130000  0.92180000  0.32790000  1.0 0.1388012891
H  H51  1  0.99130000  0.57820000  0.82790000  1.0 0.1388012891
H  H52  1  0.00870000  0.07820000  0.67210000  1.0 0.1388012891
H  H53  1  0.11710000  0.76180000  0.06220000  1.0 0.1388012891
H  H54  1  0.88290000  0.26180000  0.43780000  1.0 0.1388012891
H  H55  1  0.88290000  0.23820000  0.93780000  1.0 0.1388012891
H  H56  1  0.11710000  0.73820000  0.56220000  1.0 0.1388012891
H  H57  1  0.81580000  0.72330000  0.12240000  1.0 0.1486856942
H  H58  1  0.18420000  0.22330000  0.37760000  1.0 0.1486856942
H  H59  1  0.18420000  0.27670000  0.87760000  1.0 0.1486856942
H  H60  1  0.81580000  0.77670000  0.62240000  1.0 0.1486856942
H  H61  1  0.92790000  0.41830000  0.33280000  1.0 0.1602318626
H  H62  1  0.07210000  0.91830000  0.16720000  1.0 0.1602318626
H  H63  1  0.07210000  0.58170000  0.66720000  1.0 0.1602318626
H  H64  1  0.92790000  0.08170000  0.83280000  1.0 0.1602318626
H  H65  1  0.87510000  0.85980000  0.09300000  1.0 0.1306110347
H  H66  1  0.12490000  0.35980000  0.40700000  1.0 0.1306110347
H  H67  1  0.12490000  0.14020000  0.90700000  1.0 0.1306110347
H  H68  1  0.87510000  0.64020000  0.59300000  1.0 0.1306110347
H  H69  1  0.95240000  0.34240000  0.17690000  1.0 0.0929420622
H  H70  1  0.04760000  0.84240000  0.32310000  1.0 0.0929420622
H  H71  1  0.04760000  0.65760000  0.82310000  1.0 0.0929420622
H  H72  1  0.95240000  0.15760000  0.67690000  1.0 0.0929420622
H  H73  1  0.09970000  0.35350000  0.20480000  1.0 0.0929420622
H  H74  1  0.90030000  0.85350000  0.29520000  1.0 0.0929420622
H  H75  1  0.90030000  0.64650000  0.79520000  1.0 0.0929420622
H  H76  1  0.09970000  0.14650000  0.70480000  1.0 0.0929420622
H  H77  1  0.76720000  0.86380000  0.16850000  1.0 0.1094947615
H  H78  1  0.23280000  0.36380000  0.33150000  1.0 0.1094947615
H  H79  1  0.23280000  0.13620000  0.83150000  1.0 0.1094947615
H  H80  1  0.76720000  0.63620000  0.66850000  1.0 0.1094947615
H  H81  1  0.67540000  0.86850000  0.10310000  1.0 0.1094947615
H  H82  1  0.32460000  0.36850000  0.39690000  1.0 0.1094947615
H  H83  1  0.32460000  0.13150000  0.89690000  1.0 0.1094947615
H  H84  1  0.67540000  0.63150000  0.60310000  1.0 0.1094947615
H  H85  1  0.11230000  0.28850000  0.27080000  1.0 0.1010003344
H  H86  1  0.88770000  0.78850000  0.22920000  1.0 0.1010003344
H  H87  1  0.88770000  0.71150000  0.72920000  1.0 0.1010003344
H  H88  1  0.11230000  0.21150000  0.77080000  1.0 0.1010003344
H  H89  1  0.07520000  0.27200000  0.20330000  1.0 0.1010003344
H  H90  1  0.92480000  0.77200000  0.29670000  1.0 0.1010003344
H  H91  1  0.92480000  0.72800000  0.79670000  1.0 0.1010003344
H  H92  1  0.07520000  0.22800000  0.70330000  1.0 0.1010003344
H  H93  1  0.56010000  0.57580000  0.48080000  1.0 0.1388012891
H  H94  1  0.43990000  0.07580000  0.01920000  1.0 0.1388012891
H  H95  1  0.43990000  0.42420000  0.51920000  1.0 0.1388012891
H  H96  1  0.56010000  0.92420000  0.98080000  1.0 0.1388012891
H  H97  1  0.45170000  0.51570000  0.61680000  1.0 0.1306110347
H  H98  1  0.54830000  0.01570000  0.88320000  1.0 0.1306110347
H  H99  1  0.54830000  0.48430000  0.38320000  1.0 0.1306110347
H  H100  1  0.45170000  0.98430000  0.11680000  1.0 0.1306110347
H  H101  1  0.94800000  0.23400000  0.25520000  1.0 0.1306110347
H  H102  1  0.05200000  0.73400000  0.24480000  1.0 0.1306110347
H  H103  1  0.05200000  0.76600000  0.74480000  1.0 0.1306110347
H  H104  1  0.94800000  0.26600000  0.75520000  1.0 0.1306110347
H  H105  1  0.86160000  0.26650000  0.20530000  1.0 0.1213768022
H  H106  1  0.13840000  0.76650000  0.29470000  1.0 0.1213768022
H  H107  1  0.13840000  0.73350000  0.79470000  1.0 0.1213768022
H  H108  1  0.86160000  0.23350000  0.70530000  1.0 0.1213768022
H  H109  1  0.89890000  0.28310000  0.27290000  1.0 0.1306110347
H  H110  1  0.10110000  0.78310000  0.22710000  1.0 0.1306110347
H  H111  1  0.10110000  0.71690000  0.72710000  1.0 0.1306110347
H  H112  1  0.89890000  0.21690000  0.77290000  1.0 0.1306110347
H  H113  1  0.40480000  0.83650000  0.15830000  1.0 0.1388012891
H  H114  1  0.59520000  0.33650000  0.34170000  1.0 0.1388012891
H  H115  1  0.59520000  0.16350000  0.84170000  1.0 0.1388012891
H  H116  1  0.40480000  0.66350000  0.65830000  1.0 0.1388012891
H  H117  1  0.47330000  0.80090000  0.12400000  1.0 0.1388012891
H  H118  1  0.52670000  0.30090000  0.37600000  1.0 0.1388012891
H  H119  1  0.52670000  0.19910000  0.87600000  1.0 0.1388012891
H  H120  1  0.47330000  0.69910000  0.62400000  1.0 0.1388012891
H  H121  1  0.43640000  0.85210000  0.09810000  1.0 0.1486856942
H  H122  1  0.56360000  0.35210000  0.40190000  1.0 0.1486856942
H  H123  1  0.56360000  0.14790000  0.90190000  1.0 0.1486856942
H  H124  1  0.43640000  0.64790000  0.59810000  1.0 0.1486856942
H  H125  1  0.81590000  0.50480000  0.60750000  1.0 0.1388012891
H  H126  1  0.18410000  0.00480000  0.89250000  1.0 0.1388012891
H  H127  1  0.18410000  0.49520000  0.39250000  1.0 0.1388012891
H  H128  1  0.81590000  0.99520000  0.10750000  1.0 0.1388012891
H  H129  1  0.50270000  0.46010000  0.67770000  1.0 0.1010003344
H  H130  1  0.49730000  0.96010000  0.82230000  1.0 0.1010003344
H  H131  1  0.49730000  0.53990000  0.32230000  1.0 0.1010003344
H  H132  1  0.50270000  0.03990000  0.17770000  1.0 0.1010003344
H  H133  1  0.61600000  0.44370000  0.73200000  1.0 0.1010003344
H  H134  1  0.38400000  0.94370000  0.76800000  1.0 0.1010003344
H  H135  1  0.38400000  0.55630000  0.26800000  1.0 0.1010003344
H  H136  1  0.61600000  0.05630000  0.23200000  1.0 0.1010003344
H  H137  1  0.03870000  0.76180000  0.43570000  1.0 0.1388012891
H  H138  1  0.96130000  0.26180000  0.06430000  1.0 0.1388012891
H  H139  1  0.96130000  0.23820000  0.56430000  1.0 0.1388012891
H  H140  1  0.03870000  0.73820000  0.93570000  1.0 0.1388012891
H  H141  1  0.68410000  0.71750000  0.35580000  1.0 0.1602318626
H  H142  1  0.31590000  0.21750000  0.14420000  1.0 0.1602318626
H  H143  1  0.31590000  0.28250000  0.64420000  1.0 0.1602318626
H  H144  1  0.68410000  0.78250000  0.85580000  1.0 0.1602318626
H  H145  1  0.52140000  0.53660000  0.71060000  1.0 0.0929420622
H  H146  1  0.47860000  0.03660000  0.78940000  1.0 0.0929420622
H  H147  1  0.47860000  0.46340000  0.28940000  1.0 0.0929420622
H  H148  1  0.52140000  0.96340000  0.21060000  1.0 0.0929420622
H  H149  1  0.51040000  0.50420000  0.76460000  1.0 0.0929420622
H  H150  1  0.48960000  0.00420000  0.73540000  1.0 0.0929420622
H  H151  1  0.48960000  0.49580000  0.23540000  1.0 0.0929420622
H  H152  1  0.51040000  0.99580000  0.26460000  1.0 0.0929420622
H  H153  1  0.67010000  0.56050000  0.79780000  1.0 0.1213768022
H  H154  1  0.32990000  0.06050000  0.70220000  1.0 0.1213768022
H  H155  1  0.32990000  0.43950000  0.20220000  1.0 0.1213768022
H  H156  1  0.67010000  0.93950000  0.29780000  1.0 0.1213768022
H  H157  1  0.74350000  0.54210000  0.75130000  1.0 0.1213768022
H  H158  1  0.25650000  0.04210000  0.74870000  1.0 0.1213768022
H  H159  1  0.25650000  0.45790000  0.24870000  1.0 0.1213768022
H  H160  1  0.74350000  0.95790000  0.25130000  1.0 0.1213768022
H  H161  1  0.73250000  0.50970000  0.80540000  1.0 0.1306110347
H  H162  1  0.26750000  0.00970000  0.69460000  1.0 0.1306110347
H  H163  1  0.26750000  0.49030000  0.19460000  1.0 0.1306110347
H  H164  1  0.73250000  0.99030000  0.30540000  1.0 0.1306110347
H  H165  1  0.75060000  0.85450000  0.39160000  1.0 0.1388012891
H  H166  1  0.24940000  0.35450000  0.10840000  1.0 0.1388012891
H  H167  1  0.24940000  0.14550000  0.60840000  1.0 0.1388012891
H  H168  1  0.75060000  0.64550000  0.89160000  1.0 0.1388012891
H  H169  1  0.53710000  0.86640000  0.33870000  1.0 0.0623722118
H  H170  1  0.46290000  0.36640000  0.16130000  1.0 0.0623722118
H  H171  1  0.46290000  0.13360000  0.66130000  1.0 0.0623722118
H  H172  1  0.53710000  0.63360000  0.83870000  1.0 0.0623722118
H  H173  1  0.54990000  0.85000000  0.40540000  1.0 0.0929420622
H  H174  1  0.45010000  0.35000000  0.09460000  1.0 0.0929420622
H  H175  1  0.45010000  0.15000000  0.59460000  1.0 0.0929420622
H  H176  1  0.54990000  0.65000000  0.90540000  1.0 0.0929420622
H  H177  1  0.33550000  0.87090000  0.34490000  1.0 0.0766861085
H  H178  1  0.66450000  0.37090000  0.15510000  1.0 0.0766861085
H  H179  1  0.66450000  0.12910000  0.65510000  1.0 0.0766861085
H  H180  1  0.33550000  0.62910000  0.84490000  1.0 0.0766861085
H  H181  1  0.33760000  0.82140000  0.31390000  1.0 0.0929420622
H  H182  1  0.66240000  0.32140000  0.18610000  1.0 0.0929420622
H  H183  1  0.66240000  0.17860000  0.68610000  1.0 0.0929420622
H  H184  1  0.33760000  0.67860000  0.81390000  1.0 0.0929420622
H  H185  1  0.23510000  0.81410000  0.39220000  1.0 0.1957664479
H  H186  1  0.76490000  0.31410000  0.10780000  1.0 0.1939261485
H  H187  1  0.76490000  0.18590000  0.60780000  1.0 0.1939261485
H  H188  1  0.23510000  0.68590000  0.89220000  1.0 0.1939261485
H  H189  1  0.35930000  0.83280000  0.43870000  1.0 0.1306110347
H  H190  1  0.64070000  0.33280000  0.06130000  1.0 0.1306110347
H  H191  1  0.64070000  0.16720000  0.56130000  1.0 0.1306110347
H  H192  1  0.35930000  0.66720000  0.93870000  1.0 0.1306110347
H  H193  1  0.36120000  0.78330000  0.40760000  1.0 0.1795903523
H  H194  1  0.63880000  0.28330000  0.09240000  1.0 0.1795903523
H  H195  1  0.63880000  0.21670000  0.59240000  1.0 0.1795903523
H  H196  1  0.36120000  0.71670000  0.90760000  1.0 0.1795903523
H  H197  1  0.38600000  0.59000000  0.14100000  1.0 0.3690862883
H  H198  1  0.61400000  0.09000000  0.35900000  1.0 0.3690862883
H  H199  1  0.61400000  0.41000000  0.85900000  1.0 0.3690862883
H  H200  1  0.38600000  0.91000000  0.64100000  1.0 0.3690862883
H  H201  1  0.31300000  0.62520000  0.16300000  1.0 0.3972850893
H  H202  1  0.68700000  0.12520000  0.33700000  1.0 0.3972850893
H  H203  1  0.68700000  0.37480000  0.83700000  1.0 0.3972850893
H  H204  1  0.31300000  0.87480000  0.66300000  1.0 0.3972850893
H  H205  1  0.34200000  0.70860000  0.04200000  1.0 0.3806374152
H  H206  1  0.65800000  0.20860000  0.45800000  1.0 0.3806374152
H  H207  1  0.65800000  0.29140000  0.95800000  1.0 0.3806374152
H  H208  1  0.34200000  0.79140000  0.54200000  1.0 0.3806374152
H  H209  1  0.08040000  0.54940000  0.42040000  1.0 0.3806374152
H  H210  1  0.91960000  0.04940000  0.07960000  1.0 0.3806374152
H  H211  1  0.91960000  0.45060000  0.57960000  1.0 0.3806374152
H  H212  1  0.08040000  0.95060000  0.92040000  1.0 0.3806374152
H  H213  1  0.14650000  0.60800000  0.32050000  1.0 0.3906285171
H  H214  1  0.85350000  0.10800000  0.17950000  1.0 0.3906285171
H  H215  1  0.85350000  0.39200000  0.67950000  1.0 0.3906285171
H  H216  1  0.14650000  0.89200000  0.82050000  1.0 0.3906285171
H  H217  1  0.51140000  0.82590000  0.22790000  1.0 0.1010003344
H  H218  1  0.48860000  0.32590000  0.27210000  1.0 0.1010003344
H  H219  1  0.48860000  0.17410000  0.77210000  1.0 0.1010003344
H  H220  1  0.51140000  0.67410000  0.72790000  1.0 0.1010003344
H  H221  1  0.66060000  0.83510000  0.24690000  1.0 0.1306110347
H  H222  1  0.33940000  0.33510000  0.25310000  1.0 0.1306110347
H  H223  1  0.33940000  0.16490000  0.75310000  1.0 0.1306110347
H  H224  1  0.66060000  0.66490000  0.74690000  1.0 0.1306110347
H  H225  1  0.60490000  0.79090000  0.20690000  1.0 0.1388012891
H  H226  1  0.39510000  0.29090000  0.29310000  1.0 0.1388012891
H  H227  1  0.39510000  0.20910000  0.79310000  1.0 0.1388012891
H  H228  1  0.60490000  0.70910000  0.70690000  1.0 0.1388012891
H  H229  1  0.38930000  0.81600000  0.25730000  1.0 0.0766861085
H  H230  1  0.61070000  0.31600000  0.24270000  1.0 0.0766861085
H  H231  1  0.61070000  0.18400000  0.74270000  1.0 0.0766861085
H  H232  1  0.38930000  0.68400000  0.75730000  1.0 0.0766861085
H  H233  1  0.34550000  0.81480000  0.31770000  1.0 0.0929420622
H  H234  1  0.65450000  0.31480000  0.18230000  1.0 0.0929420622
H  H235  1  0.65450000  0.18520000  0.68230000  1.0 0.0929420622
H  H236  1  0.34550000  0.68520000  0.81770000  1.0 0.0929420622
H  H237  1  0.53640000  0.85770000  0.36340000  1.0 0.0623722118
H  H238  1  0.46360000  0.35770000  0.13660000  1.0 0.0623722118
H  H239  1  0.46360000  0.14230000  0.63660000  1.0 0.0623722118
H  H240  1  0.53640000  0.64230000  0.86340000  1.0 0.0623722118
H  H241  1  0.58150000  0.84850000  0.30430000  1.0 0.0766861085
H  H242  1  0.41850000  0.34850000  0.19570000  1.0 0.0766861085
H  H243  1  0.41850000  0.15150000  0.69570000  1.0 0.0742183555
H  H244  1  0.58150000  0.65150000  0.80430000  1.0 0.0742183555
H  H245  1  0.25140000  0.87890000  0.25940000  1.0 0.1213768022
H  H246  1  0.74860000  0.37890000  0.24060000  1.0 0.1213768022
H  H247  1  0.74860000  0.12110000  0.74060000  1.0 0.1213768022
H  H248  1  0.25140000  0.62110000  0.75940000  1.0 0.1213768022
H  H249  1  0.38830000  0.89850000  0.25940000  1.0 0.1306110347
H  H250  1  0.61170000  0.39850000  0.24060000  1.0 0.1306110347
H  H251  1  0.61170000  0.10150000  0.74060000  1.0 0.1306110347
H  H252  1  0.38830000  0.60150000  0.75940000  1.0 0.1306110347
H  H253  1  0.34460000  0.89730000  0.31950000  1.0 0.0929420622
H  H254  1  0.65540000  0.39730000  0.18050000  1.0 0.0929420622
H  H255  1  0.65540000  0.10270000  0.68050000  1.0 0.0929420622
H  H256  1  0.34460000  0.60270000  0.81950000  1.0 0.0929420622
C  C1  1  0.31180000  0.56525000  0.96650000  1.0 0.5739571978
C  C2  1  0.68820000  0.06525000  0.53350000  1.0 0.5739571978
C  C3  1  0.68820000  0.43475000  0.03350000  1.0 0.5739571978
C  C4  1  0.31180000  0.93475000  0.46650000  1.0 0.5739571978
C  C5  1  0.41933000  0.54442000  0.94563000  1.0 0.0094558648
C  C6  1  0.58067000  0.04442000  0.55437000  1.0 0.0094558648
C  C7  1  0.58067000  0.45558000  0.05437000  1.0 0.0094558648
C  C8  1  0.41933000  0.95558000  0.44563000  1.0 0.0094558648
C  C9  1  0.54330000  0.55685000  0.97220000  1.0 -0.1560968231
C  C10  1  0.45670000  0.05685000  0.52780000  1.0 -0.1560968231
C  C11  1  0.45670000  0.44315000  0.02780000  1.0 -0.1560968231
C  C12  1  0.54330000  0.94315000  0.47220000  1.0 -0.1560968231
C  C13  1  0.39200000  0.50893000  0.90280000  1.0 -0.2480151277
C  C14  1  0.60800000  0.00893000  0.59720000  1.0 -0.2480151277
C  C15  1  0.60800000  0.49107000  0.09720000  1.0 -0.2480151277
C  C16  1  0.39200000  0.99107000  0.40280000  1.0 -0.2480151277
C  C17  1  0.64210000  0.53380000  0.95630000  1.0 -0.0028844812
C  C18  1  0.35790000  0.03380000  0.54370000  1.0 -0.0028844812
C  C19  1  0.35790000  0.46620000  0.04370000  1.0 -0.0028844812
C  C20  1  0.64210000  0.96620000  0.45630000  1.0 -0.0028844812
C  C21  1  0.49080000  0.48650000  0.88730000  1.0 0.2698728819
C  C22  1  0.50920000  0.98650000  0.61270000  1.0 0.2698728819
C  C23  1  0.50920000  0.51350000  0.11270000  1.0 0.2698728819
C  C24  1  0.49080000  0.01350000  0.38730000  1.0 0.2698728819
C  C25  1  0.77560000  0.54415000  0.98920000  1.0 0.6013501216
C  C26  1  0.22440000  0.04415000  0.51080000  1.0 0.6013501216
C  C27  1  0.22440000  0.45585000  0.01080000  1.0 0.6013501216
C  C28  1  0.77560000  0.95585000  0.48920000  1.0 0.6013501216
C  C29  1  0.61590000  0.49921000  0.91330000  1.0 -0.2279778566
C  C30  1  0.38410000  0.99921000  0.58670000  1.0 -0.2279778566
C  C31  1  0.38410000  0.50079000  0.08670000  1.0 -0.2279778566
C  C32  1  0.61590000  0.00079000  0.41330000  1.0 -0.2279778566
C  C33  1  0.35190000  0.42773000  0.83080000  1.0 -0.0237003225
C  C34  1  0.64810000  0.92773000  0.66920000  1.0 -0.0237003225
C  C35  1  0.64810000  0.57227000  0.16920000  1.0 -0.0237003225
C  C36  1  0.35190000  0.07227000  0.33080000  1.0 -0.0237003225
C  C37  1  0.36480000  0.38270000  0.79990000  1.0 -0.1397135067
C  C38  1  0.63520000  0.88270000  0.70010000  1.0 -0.1397135067
C  C39  1  0.63520000  0.61730000  0.20010000  1.0 -0.1397135067
C  C40  1  0.36480000  0.11730000  0.29990000  1.0 -0.1397135067
C  C41  1  0.23830000  0.35800000  0.77850000  1.0 -0.3642391037
C  C42  1  0.76170000  0.85800000  0.72150000  1.0 -0.3657778174
C  C43  1  0.76170000  0.64200000  0.22150000  1.0 -0.3657778174
C  C44  1  0.23830000  0.14200000  0.27850000  1.0 -0.3642391037
C  C45  1  0.98800000  0.51387000  0.15220000  1.0 0.5902275224
C  C46  1  0.01200000  0.01387000  0.34780000  1.0 0.5902275224
C  C47  1  0.01200000  0.48613000  0.84780000  1.0 0.5902275224
C  C48  1  0.98800000  0.98613000  0.65220000  1.0 0.5902275224
C  C49  1  0.01140000  0.68546000  0.09150000  1.0 0.5826635588
C  C50  1  0.98860000  0.18546000  0.40850000  1.0 0.5826635588
C  C51  1  0.98860000  0.31454000  0.90850000  1.0 0.5826635588
C  C52  1  0.01140000  0.81454000  0.59150000  1.0 0.5826635588
C  C53  1  0.96930000  0.48594000  0.20280000  1.0 -0.0028844812
C  C54  1  0.03070000  0.98594000  0.29720000  1.0 -0.0028844812
C  C55  1  0.03070000  0.51406000  0.79720000  1.0 -0.0063156045
C  C56  1  0.96930000  0.01406000  0.70280000  1.0 -0.0063156045
C  C57  1  0.97290000  0.73560000  0.09290000  1.0 0.0023001992
C  C58  1  0.02710000  0.23560000  0.40710000  1.0 0.0023001992
C  C59  1  0.02710000  0.26440000  0.90710000  1.0 0.0023001992
C  C60  1  0.97290000  0.76440000  0.59290000  1.0 0.0023001992
C  C61  1  0.93380000  0.50829000  0.24800000  1.0 -0.1397135067
C  C62  1  0.06620000  0.00829000  0.25200000  1.0 -0.1397135067
C  C63  1  0.06620000  0.49171000  0.75200000  1.0 -0.1397135067
C  C64  1  0.93380000  0.99171000  0.74800000  1.0 -0.1397135067
C  C65  1  0.98740000  0.43736000  0.20410000  1.0 -0.2392282407
C  C66  1  0.01260000  0.93736000  0.29590000  1.0 -0.2392282407
C  C67  1  0.01260000  0.56264000  0.79590000  1.0 -0.2392282407
C  C68  1  0.98740000  0.06264000  0.70410000  1.0 -0.2392282407
C  C69  1  0.04330000  0.76982000  0.07430000  1.0 -0.1288779299
C  C70  1  0.95670000  0.26982000  0.42570000  1.0 -0.1288779299
C  C71  1  0.95670000  0.23018000  0.92570000  1.0 -0.1288779299
C  C72  1  0.04330000  0.73018000  0.57430000  1.0 -0.1288779299
C  C73  1  0.86470000  0.74696000  0.11040000  1.0 -0.2172872793
C  C74  1  0.13530000  0.24696000  0.38960000  1.0 -0.2172872793
C  C75  1  0.13530000  0.25304000  0.88960000  1.0 -0.2172872793
C  C76  1  0.86470000  0.75304000  0.61040000  1.0 -0.2172872793
C  C77  1  0.91500000  0.48297000  0.29540000  1.0 -0.0028844812
C  C78  1  0.08500000  0.98297000  0.20460000  1.0 -0.0028844812
C  C79  1  0.08500000  0.51703000  0.70460000  1.0 -0.0028844812
C  C80  1  0.91500000  0.01703000  0.79540000  1.0 -0.0028844812
C  C81  1  0.97310000  0.41249000  0.25320000  1.0 0.2698728819
C  C82  1  0.02690000  0.91249000  0.24680000  1.0 0.2698728819
C  C83  1  0.02690000  0.58751000  0.74680000  1.0 0.2698728819
C  C84  1  0.97310000  0.08751000  0.75320000  1.0 0.2698728819
C  C85  1  0.00480000  0.81573000  0.07350000  1.0 0.0023001992
C  C86  1  0.99520000  0.31573000  0.42650000  1.0 0.0023001992
C  C87  1  0.99520000  0.18427000  0.92650000  1.0 0.0023001992
C  C88  1  0.00480000  0.68427000  0.57350000  1.0 0.0023001992
C  C89  1  0.82890000  0.79360000  0.11030000  1.0 0.247798406
C  C90  1  0.17110000  0.29360000  0.38970000  1.0 0.247798406
C  C91  1  0.17110000  0.20640000  0.88970000  1.0 0.247798406
C  C92  1  0.82890000  0.70640000  0.61030000  1.0 0.247798406
C  C93  1  0.87890000  0.50870000  0.34430000  1.0 0.5739571978
C  C94  1  0.12110000  0.00870000  0.15570000  1.0 0.5739571978
C  C95  1  0.12110000  0.49130000  0.65570000  1.0 0.5739571978
C  C96  1  0.87890000  0.99130000  0.84430000  1.0 0.5739571978
C  C97  1  0.93700000  0.43527000  0.29930000  1.0 -0.2172872793
C  C98  1  0.06300000  0.93527000  0.20070000  1.0 -0.2172872793
C  C99  1  0.06300000  0.56473000  0.70070000  1.0 -0.2172872793
C  C100  1  0.93700000  0.06473000  0.79930000  1.0 -0.2172872793
C  C101  1  0.07280000  0.85345000  0.04990000  1.0 0.5902275224
C  C102  1  0.92720000  0.35345000  0.45010000  1.0 0.5902275224
C  C103  1  0.92720000  0.14655000  0.95010000  1.0 0.5902275224
C  C104  1  0.07280000  0.64655000  0.54990000  1.0 0.5902275224
C  C105  1  0.89900000  0.82798000  0.09240000  1.0 -0.2279778566
C  C106  1  0.10100000  0.32798000  0.40760000  1.0 -0.2279778566
C  C107  1  0.10100000  0.17202000  0.90760000  1.0 -0.2279778566
C  C108  1  0.89900000  0.67202000  0.59240000  1.0 -0.2279778566
C  C109  1  0.35590000  0.56670000  0.52130000  1.0 0.5826635588
C  C110  1  0.64410000  0.06670000  0.97870000  1.0 0.5826635588
C  C111  1  0.64410000  0.43330000  0.47870000  1.0 0.5826635588
C  C112  1  0.35590000  0.93330000  0.02130000  1.0 0.5826635588
C  C113  1  0.02260000  0.34037000  0.21330000  1.0 -0.0391772301
C  C114  1  0.97740000  0.84037000  0.28670000  1.0 -0.0391772301
C  C115  1  0.97740000  0.65963000  0.78670000  1.0 -0.0391772301
C  C116  1  0.02260000  0.15963000  0.71330000  1.0 -0.0391772301
C  C117  1  0.69350000  0.84990000  0.13990000  1.0 -0.0771415509
C  C118  1  0.30650000  0.34990000  0.36010000  1.0 -0.0771415509
C  C119  1  0.30650000  0.15010000  0.86010000  1.0 -0.0771415509
C  C120  1  0.69350000  0.65010000  0.63990000  1.0 -0.0771415509
C  C121  1  0.48870000  0.54907000  0.54610000  1.0 0.0023001992
C  C122  1  0.51130000  0.04907000  0.95390000  1.0 0.0023001992
C  C123  1  0.51130000  0.45093000  0.45390000  1.0 0.0023001992
C  C124  1  0.48870000  0.95093000  0.04610000  1.0 0.0023001992
C  C125  1  0.04490000  0.28960000  0.23330000  1.0 -0.1397135067
C  C126  1  0.95510000  0.78960000  0.26670000  1.0 -0.1397135067
C  C127  1  0.95510000  0.71040000  0.76670000  1.0 -0.1397135067
C  C128  1  0.04490000  0.21040000  0.73330000  1.0 -0.1397135067
C  C129  1  0.57980000  0.84970000  0.16540000  1.0 0.1306110347
C  C130  1  0.42020000  0.34970000  0.33460000  1.0 0.1306110347
C  C131  1  0.42020000  0.15030000  0.83460000  1.0 0.1306110347
C  C132  1  0.57980000  0.65030000  0.66540000  1.0 0.1306110347
C  C133  1  0.58000000  0.55780000  0.51600000  1.0 -0.1528623596
C  C134  1  0.42000000  0.05780000  0.98400000  1.0 -0.1528623596
C  C135  1  0.42000000  0.44220000  0.48400000  1.0 -0.1528623596
C  C136  1  0.58000000  0.94220000  0.01600000  1.0 -0.1528623596
C  C137  1  0.51580000  0.52226000  0.59730000  1.0 -0.2392282407
C  C138  1  0.48420000  0.02226000  0.90270000  1.0 -0.2392282407
C  C139  1  0.48420000  0.47774000  0.40270000  1.0 -0.2392282407
C  C140  1  0.51580000  0.97774000  0.09730000  1.0 -0.2392282407
C  C141  1  0.92820000  0.26630000  0.24250000  1.0 -0.3783931579
C  C142  1  0.07180000  0.76630000  0.25750000  1.0 -0.3783931579
C  C143  1  0.07180000  0.73370000  0.75750000  1.0 -0.3783931579
C  C144  1  0.92820000  0.23370000  0.74250000  1.0 -0.3783931579
C  C145  1  0.46570000  0.83370000  0.13430000  1.0 -0.3964116122
C  C146  1  0.53430000  0.33370000  0.36570000  1.0 -0.3964116122
C  C147  1  0.53430000  0.16630000  0.86570000  1.0 -0.3964116122
C  C148  1  0.46570000  0.66630000  0.63430000  1.0 -0.3964116122
C  C149  1  0.70040000  0.53990000  0.53780000  1.0 -0.0028844812
C  C150  1  0.29960000  0.03990000  0.96220000  1.0 -0.0028844812
C  C151  1  0.29960000  0.46010000  0.46220000  1.0 -0.0028844812
C  C152  1  0.70040000  0.96010000  0.03780000  1.0 -0.0028844812
C  C153  1  0.63590000  0.50540000  0.61950000  1.0 0.2627781932
C  C154  1  0.36410000  0.00540000  0.88050000  1.0 0.2627781932
C  C155  1  0.36410000  0.49460000  0.38050000  1.0 0.2627781932
C  C156  1  0.63590000  0.99460000  0.11950000  1.0 0.2627781932
C  C157  1  0.79590000  0.54645000  0.50300000  1.0 0.6013501216
C  C158  1  0.20410000  0.04645000  0.99700000  1.0 0.6013501216
C  C159  1  0.20410000  0.45355000  0.49700000  1.0 0.6013501216
C  C160  1  0.79590000  0.95355000  0.00300000  1.0 0.6013501216
C  C161  1  0.91620000  0.68352000  0.39740000  1.0 0.5826635588
C  C162  1  0.08380000  0.18352000  0.10260000  1.0 0.5826635588
C  C163  1  0.08380000  0.31648000  0.60260000  1.0 0.5826635588
C  C164  1  0.91620000  0.81648000  0.89740000  1.0 0.5826635588
C  C165  1  0.73170000  0.51500000  0.59100000  1.0 -0.2076026495
C  C166  1  0.26830000  0.01500000  0.90900000  1.0 -0.2076026495
C  C167  1  0.26830000  0.48500000  0.40900000  1.0 -0.2076026495
C  C168  1  0.73170000  0.98500000  0.09100000  1.0 -0.2076026495
C  C169  1  0.86820000  0.73292000  0.39540000  1.0 0.0094558648
C  C170  1  0.13180000  0.23292000  0.10460000  1.0 0.0094558648
C  C171  1  0.13180000  0.26708000  0.60460000  1.0 0.0094558648
C  C172  1  0.86820000  0.76708000  0.89540000  1.0 0.0094558648
C  C173  1  0.58490000  0.46960000  0.70410000  1.0 -0.0286435551
C  C174  1  0.41510000  0.96960000  0.79590000  1.0 -0.0286435551
C  C175  1  0.41510000  0.53040000  0.29590000  1.0 -0.0286435551
C  C176  1  0.58490000  0.03040000  0.20410000  1.0 -0.0286435551
C  C177  1  0.95170000  0.76837000  0.41880000  1.0 -0.1243067696
C  C178  1  0.04830000  0.26837000  0.08120000  1.0 -0.1243067696
C  C179  1  0.04830000  0.23163000  0.58120000  1.0 -0.1243067696
C  C180  1  0.95170000  0.73163000  0.91880000  1.0 -0.1243067696
C  C181  1  0.74100000  0.74200000  0.37190000  1.0 -0.2076026495
C  C182  1  0.25900000  0.24200000  0.12810000  1.0 -0.2076026495
C  C183  1  0.25900000  0.25800000  0.62810000  1.0 -0.2076026495
C  C184  1  0.74100000  0.75800000  0.87190000  1.0 -0.2076026495
C  C185  1  0.56560000  0.51250000  0.73870000  1.0 -0.1397135067
C  C186  1  0.43440000  0.01250000  0.76130000  1.0 -0.1397135067
C  C187  1  0.43440000  0.48750000  0.26130000  1.0 -0.1397135067
C  C188  1  0.56560000  0.98750000  0.23870000  1.0 -0.1397135067
C  C189  1  0.90690000  0.81364000  0.41730000  1.0 0.0023001992
C  C190  1  0.09310000  0.31364000  0.08270000  1.0 0.0023001992
C  C191  1  0.09310000  0.18636000  0.58270000  1.0 0.0023001992
C  C192  1  0.90690000  0.68636000  0.91730000  1.0 0.0023001992
C  C193  1  0.69760000  0.78730000  0.37200000  1.0 0.1957664479
C  C194  1  0.30240000  0.28730000  0.12800000  1.0 0.1957664479
C  C195  1  0.30240000  0.21270000  0.62800000  1.0 0.1957664479
C  C196  1  0.69760000  0.71270000  0.87200000  1.0 0.1957664479
C  C197  1  0.68900000  0.53310000  0.77670000  1.0 -0.3657778174
C  C198  1  0.31100000  0.03310000  0.72330000  1.0 -0.3657778174
C  C199  1  0.31100000  0.46690000  0.22330000  1.0 -0.3657778174
C  C200  1  0.68900000  0.96690000  0.27670000  1.0 -0.3657778174
C  C201  1  0.99520000  0.85337000  0.44200000  1.0 0.5826635588
C  C202  1  0.00480000  0.35337000  0.05800000  1.0 0.5826635588
C  C203  1  0.00480000  0.14663000  0.55800000  1.0 0.5826635588
C  C204  1  0.99520000  0.64663000  0.94200000  1.0 0.5826635588
C  C205  1  0.78040000  0.82328000  0.39330000  1.0 -0.2392282407
C  C206  1  0.21960000  0.32328000  0.10670000  1.0 -0.2392282407
C  C207  1  0.21960000  0.17672000  0.60670000  1.0 -0.2392282407
C  C208  1  0.78040000  0.67672000  0.89330000  1.0 -0.2392282407
C  C209  1  0.51350000  0.84180000  0.36340000  1.0 -0.0502662617
C  C210  1  0.48650000  0.34180000  0.13660000  1.0 -0.0502662617
C  C211  1  0.48650000  0.15820000  0.63660000  1.0 -0.0502662617
C  C212  1  0.51350000  0.65820000  0.86340000  1.0 -0.0502662617
C  C213  1  0.37120000  0.83910000  0.35090000  1.0 -0.1528623596
C  C214  1  0.62880000  0.33910000  0.14910000  1.0 -0.1528623596
C  C215  1  0.62880000  0.16090000  0.64910000  1.0 -0.1528623596
C  C216  1  0.37120000  0.66090000  0.85090000  1.0 -0.1528623596
C  C217  1  0.32770000  0.81510000  0.40210000  1.0 -0.0882094033
C  C218  1  0.67230000  0.31510000  0.09790000  1.0 -0.0882094033
C  C219  1  0.67230000  0.18490000  0.59790000  1.0 -0.0882094033
C  C220  1  0.32770000  0.68490000  0.90210000  1.0 -0.0882094033
C  C221  1  0.58990000  0.82350000  0.21530000  1.0 -0.4186353381
C  C222  1  0.41010000  0.32350000  0.28470000  1.0 -0.4186353381
C  C223  1  0.41010000  0.17650000  0.78470000  1.0 -0.4186353381
C  C224  1  0.58990000  0.67650000  0.71530000  1.0 -0.4186353381
C  C225  1  0.39450000  0.83260000  0.29490000  1.0 -0.1118419539
C  C226  1  0.60550000  0.33260000  0.20510000  1.0 -0.1118419539
C  C227  1  0.60550000  0.16740000  0.70510000  1.0 -0.1118419539
C  C228  1  0.39450000  0.66740000  0.79490000  1.0 -0.1118419539
C  C229  1  0.52900000  0.83630000  0.32960000  1.0 -0.0063156045
C  C230  1  0.47100000  0.33630000  0.17040000  1.0 -0.0063156045
C  C231  1  0.47100000  0.16370000  0.67040000  1.0 -0.0063156045
C  C232  1  0.52900000  0.66370000  0.82960000  1.0 -0.0063156045
C  C233  1  0.34020000  0.88110000  0.28220000  1.0 -0.3783931579
C  C234  1  0.65980000  0.38110000  0.21780000  1.0 -0.3783931579
C  C235  1  0.65980000  0.11890000  0.71780000  1.0 -0.3783931579
C  C236  1  0.34020000  0.61890000  0.78220000  1.0 -0.3783931579
O  O1  1  0.20289000  0.55123000  0.94039000  1.0 -0.561198182
O  O2  1  0.79711000  0.05123000  0.55961000  1.0 -0.55044883
O  O3  1  0.79711000  0.44877000  0.05961000  1.0 -0.561198182
O  O4  1  0.20289000  0.94877000  0.44039000  1.0 -0.561198182
O  O5  1  0.09674000  0.57471000  0.04514000  1.0 -0.9572068225
O  O6  1  0.90326000  0.07471000  0.45486000  1.0 -0.9572068225
O  O7  1  0.90326000  0.42529000  0.95486000  1.0 -0.9572068225
O  O8  1  0.09674000  0.92529000  0.54514000  1.0 -0.9572068225
O  O9  1  0.86588000  0.51999000  0.97968000  1.0 -0.6253155987
O  O10  1  0.13412000  0.01999000  0.52032000  1.0 -0.6253155987
O  O11  1  0.13412000  0.48001000  0.02032000  1.0 -0.6253155987
O  O12  1  0.86588000  0.98001000  0.47968000  1.0 -0.6253155987
O  O13  1  0.02169000  0.49555000  0.11029000  1.0 -0.561198182
O  O14  1  0.97831000  0.99555000  0.38971000  1.0 -0.561198182
O  O15  1  0.97831000  0.50445000  0.88971000  1.0 -0.5687543565
O  O16  1  0.02169000  0.00445000  0.61029000  1.0 -0.561198182
O  O17  1  0.94982000  0.89378000  0.43142000  1.0 -0.561198182
O  O18  1  0.05018000  0.39378000  0.06858000  1.0 -0.561198182
O  O19  1  0.05018000  0.10622000  0.56858000  1.0 -0.561198182
O  O20  1  0.94982000  0.60622000  0.93142000  1.0 -0.561198182
O  O21  1  0.33917000  0.59331000  0.00897000  1.0 -0.55044883
O  O22  1  0.66083000  0.09331000  0.49103000  1.0 -0.55044883
O  O23  1  0.66083000  0.40669000  0.99103000  1.0 -0.55044883
O  O24  1  0.33917000  0.90669000  0.50897000  1.0 -0.55044883
O  O25  1  0.47540000  0.44914000  0.84920000  1.0 -0.2172872793
O  O26  1  0.52460000  0.94914000  0.65080000  1.0 -0.2172872793
O  O27  1  0.52460000  0.55086000  0.15080000  1.0 -0.2172872793
O  O28  1  0.47540000  0.05086000  0.34920000  1.0 -0.2172872793
O  O29  1  0.78976000  0.57624000  0.02706000  1.0 -0.5297959592
O  O30  1  0.21024000  0.07624000  0.47294000  1.0 -0.5297959592
O  O31  1  0.21024000  0.42376000  0.97294000  1.0 -0.5297959592
O  O32  1  0.78976000  0.92376000  0.52706000  1.0 -0.5297959592
O  O33  1  0.92551000  0.65555000  0.08811000  1.0 -0.55044883
O  O34  1  0.07449000  0.15555000  0.41189000  1.0 -0.55044883
O  O35  1  0.07449000  0.34445000  0.91189000  1.0 -0.55044883
O  O36  1  0.92551000  0.84445000  0.58811000  1.0 -0.55044883
O  O37  1  0.97167000  0.55802000  0.15517000  1.0 -0.55044883
O  O38  1  0.02833000  0.05802000  0.34483000  1.0 -0.55044883
O  O39  1  0.02833000  0.44198000  0.84483000  1.0 -0.55044883
O  O40  1  0.97167000  0.94198000  0.65517000  1.0 -0.55044883
O  O41  1  0.12473000  0.67684000  0.09363000  1.0 -0.5916191484
O  O42  1  0.87527000  0.17684000  0.40637000  1.0 -0.5916191484
O  O43  1  0.87527000  0.32316000  0.90637000  1.0 -0.5916191484
O  O44  1  0.12473000  0.82316000  0.59363000  1.0 -0.5916191484
O  O45  1  0.10450000  0.84297000  0.47160000  1.0 -0.5776265831
O  O46  1  0.89550000  0.34297000  0.02840000  1.0 -0.5776265831
O  O47  1  0.89550000  0.15703000  0.52840000  1.0 -0.5687543565
O  O48  1  0.10450000  0.65703000  0.97160000  1.0 -0.5687543565
O  O49  1  0.27605000  0.55170000  0.54755000  1.0 -0.55044883
O  O50  1  0.72395000  0.05170000  0.95245000  1.0 -0.55044883
O  O51  1  0.72395000  0.44830000  0.45245000  1.0 -0.55044883
O  O52  1  0.27605000  0.94830000  0.04755000  1.0 -0.55044883
O  O53  1  0.33443000  0.59319000  0.47763000  1.0 -0.5297959592
O  O54  1  0.66557000  0.09319000  0.02237000  1.0 -0.5297959592
O  O55  1  0.66557000  0.40681000  0.52237000  1.0 -0.5297959592
O  O56  1  0.33443000  0.90681000  0.97763000  1.0 -0.5297959592
O  O57  1  0.99145000  0.36552000  0.26055000  1.0 -0.1883748709
O  O58  1  0.00855000  0.86552000  0.23945000  1.0 -0.1883748709
O  O59  1  0.00855000  0.63448000  0.73945000  1.0 -0.1883748709
O  O60  1  0.99145000  0.13448000  0.76055000  1.0 -0.1883748709
O  O61  1  0.72010000  0.80211000  0.12760000  1.0 -0.1883748709
O  O62  1  0.27990000  0.30211000  0.37240000  1.0 -0.1883748709
O  O63  1  0.27990000  0.19789000  0.87240000  1.0 -0.1883748709
O  O64  1  0.72010000  0.69789000  0.62760000  1.0 -0.1883748709
O  O65  1  0.84556000  0.55150000  0.33346000  1.0 -0.55044883
O  O66  1  0.15444000  0.05150000  0.16654000  1.0 -0.55044883
O  O67  1  0.15444000  0.44850000  0.66654000  1.0 -0.55044883
O  O68  1  0.84556000  0.94850000  0.83346000  1.0 -0.55044883
O  O69  1  0.88363000  0.48997000  0.39193000  1.0 -0.5371814738
O  O70  1  0.11637000  0.98997000  0.10807000  1.0 -0.5371814738
O  O71  1  0.11637000  0.51003000  0.60807000  1.0 -0.5371814738
O  O72  1  0.88363000  0.01003000  0.89193000  1.0 -0.5371814738
O  O73  1  0.15291000  0.84236000  0.02171000  1.0 -0.5916191484
O  O74  1  0.84709000  0.34236000  0.47829000  1.0 -0.5916191484
O  O75  1  0.84709000  0.15764000  0.97829000  1.0 -0.5916191484
O  O76  1  0.15291000  0.65764000  0.52171000  1.0 -0.5916191484
O  O77  1  0.03916000  0.89449000  0.05846000  1.0 -0.5687543565
O  O78  1  0.96084000  0.39449000  0.44154000  1.0 -0.5687543565
O  O79  1  0.96084000  0.10551000  0.94154000  1.0 -0.5687543565
O  O80  1  0.03916000  0.60551000  0.55846000  1.0 -0.5687543565
O  O81  1  0.89523000  0.52187000  0.51553000  1.0 -0.6233927379
O  O82  1  0.10477000  0.02187000  0.98447000  1.0 -0.6233927379
O  O83  1  0.10477000  0.47813000  0.48447000  1.0 -0.6233927379
O  O84  1  0.89523000  0.97813000  0.01553000  1.0 -0.6233927379
O  O85  1  0.76990000  0.57582000  0.46250000  1.0 -0.5115463804
O  O86  1  0.23010000  0.07582000  0.03750000  1.0 -0.5115463804
O  O87  1  0.23010000  0.42418000  0.53750000  1.0 -0.5115463804
O  O88  1  0.76990000  0.92418000  0.96250000  1.0 -0.5115463804
O  O89  1  0.83352000  0.65189000  0.39472000  1.0 -0.55044883
O  O90  1  0.16648000  0.15189000  0.10528000  1.0 -0.55044883
O  O91  1  0.16648000  0.34811000  0.60528000  1.0 -0.55044883
O  O92  1  0.83352000  0.84811000  0.89472000  1.0 -0.55044883
O  O93  1  0.67430000  0.47767000  0.66900000  1.0 -0.174056388
O  O94  1  0.32570000  0.97767000  0.83100000  1.0 -0.174056388
O  O95  1  0.32570000  0.52233000  0.33100000  1.0 -0.174056388
O  O96  1  0.67430000  0.02233000  0.16900000  1.0 -0.174056388
O  O97  1  0.03037000  0.67703000  0.40177000  1.0 -0.5776265831
O  O98  1  0.96963000  0.17703000  0.09823000  1.0 -0.5776265831
O  O99  1  0.96963000  0.32297000  0.59823000  1.0 -0.5776265831
O  O100  1  0.03037000  0.82297000  0.90177000  1.0 -0.5776265831
O  O101  1  0.56880000  0.79302000  0.34930000  1.0 -0.1528623596
O  O102  1  0.43120000  0.29302000  0.15070000  1.0 -0.1528623596
O  O103  1  0.43120000  0.20698000  0.65070000  1.0 -0.1528623596
O  O104  1  0.56880000  0.70698000  0.84930000  1.0 -0.1528623596
O  O105  1  0.30980000  0.60373000  0.13490000  1.0 -0.6899274657
O  O106  1  0.69020000  0.10373000  0.36510000  1.0 -0.6899274657
O  O107  1  0.69020000  0.39627000  0.86510000  1.0 -0.6899274657
O  O108  1  0.30980000  0.89627000  0.63490000  1.0 -0.6899274657
O  O109  1  0.35826000  0.68084000  0.06026000  1.0 -0.8454552065
O  O110  1  0.64174000  0.18084000  0.43974000  1.0 -0.8454552065
O  O111  1  0.64174000  0.31916000  0.93974000  1.0 -0.8426116775
O  O112  1  0.35826000  0.81916000  0.56026000  1.0 -0.8426116775
O  O113  1  0.05547000  0.57424000  0.44517000  1.0 -0.9246253144
O  O114  1  0.94453000  0.07424000  0.05483000  1.0 -0.9255960654
O  O115  1  0.94453000  0.42576000  0.55483000  1.0 -0.9255960654
O  O116  1  0.05547000  0.92576000  0.94517000  1.0 -0.9246253144
O  O117  1  0.18310000  0.60123000  0.35830000  1.0 -0.8563990663
O  O118  1  0.81690000  0.10123000  0.14170000  1.0 -0.8563990663
O  O119  1  0.81690000  0.39877000  0.64170000  1.0 -0.8563990663
O  O120  1  0.18310000  0.89877000  0.85830000  1.0 -0.8563990663
O  O121  1  0.29330000  0.68460000  0.42540000  1.0 0.1010003344
O  O122  1  0.70670000  0.18460000  0.07460000  1.0 0.1094947615
O  O123  1  0.70670000  0.31540000  0.57460000  1.0 0.1010003344
O  O124  1  0.29330000  0.81540000  0.92540000  1.0 0.1010003344
O  O125  1  0.26770000  0.78730000  0.42240000  1.0 -0.316413201
O  O126  1  0.73230000  0.28730000  0.07760000  1.0 -0.316413201
O  O127  1  0.73230000  0.21270000  0.57760000  1.0 -0.316413201
O  O128  1  0.26770000  0.71270000  0.92240000  1.0 -0.316413201
O  O129  1  0.34100000  0.67110000  0.45100000  1.0 0.0407965249
O  O130  1  0.65900000  0.17110000  0.04900000  1.0 0.0407965249
O  O131  1  0.65900000  0.32890000  0.54900000  1.0 0.0407965249
O  O132  1  0.34100000  0.82890000  0.95100000  1.0 0.0346417878
