# DDEC6 charges by PACMAN v1.1 (https://github.com/mtap-research/PACMAN-charge/)
data_UVUGAV_ASR_pacman
_symmetry_space_group_name_H-M   'P 1'
_cell_length_a   17.04160000
_cell_length_b   17.04160000
_cell_length_c   17.04160000
_cell_angle_alpha   108.36800000
_cell_angle_beta   108.36800000
_cell_angle_gamma   108.36800000
_symmetry_Int_Tables_number   1
_chemical_formula_structural   Zn2H8(C5O2)5
_chemical_formula_sum   'Zn12 H48 C150 O60'
_cell_volume   3957.83115604
_cell_formula_units_Z   6
loop_
 _symmetry_equiv_pos_site_id
 _symmetry_equiv_pos_as_xyz
  1  'x, y, z'
loop_
 _atom_site_type_symbol
 _atom_site_label
 _atom_site_symmetry_multiplicity
 _atom_site_fract_x
 _atom_site_fract_y
 _atom_site_fract_z
 _atom_site_occupancy
 _atom_site_charge
Zn  Zn1  1  0.66410000  0.22903000  0.86633000  1.0 0.904686001
Zn  Zn2  1  0.22903000  0.86633000  0.66410000  1.0 0.904686001
Zn  Zn3  1  0.86633000  0.66410000  0.22903000  1.0 0.904686001
Zn  Zn4  1  0.33590000  0.77097000  0.13367000  1.0 0.904686001
Zn  Zn5  1  0.77097000  0.13367000  0.33590000  1.0 0.904686001
Zn  Zn6  1  0.13367000  0.33590000  0.77097000  1.0 0.904686001
Zn  Zn7  1  0.42525000  0.11374000  0.76987000  1.0 0.9815347463
Zn  Zn8  1  0.11374000  0.76987000  0.42525000  1.0 0.9815347463
Zn  Zn9  1  0.76987000  0.42525000  0.11374000  1.0 0.9815347463
Zn  Zn10  1  0.57475000  0.88626000  0.23013000  1.0 0.9815347463
Zn  Zn11  1  0.88626000  0.23013000  0.57475000  1.0 0.9815347463
Zn  Zn12  1  0.23013000  0.57475000  0.88626000  1.0 0.9815347463
H  H1  1  0.39240000  0.33370000  0.85420000  1.0 0.139445056
H  H2  1  0.33370000  0.85420000  0.39240000  1.0 0.139445056
H  H3  1  0.85420000  0.39240000  0.33370000  1.0 0.139445056
H  H4  1  0.60760000  0.66630000  0.14580000  1.0 0.139445056
H  H5  1  0.66630000  0.14580000  0.60760000  1.0 0.139445056
H  H6  1  0.14580000  0.60760000  0.66630000  1.0 0.139445056
H  H7  1  0.48870000  0.60520000  0.90970000  1.0 0.1512419949
H  H8  1  0.60520000  0.90970000  0.48870000  1.0 0.1512419949
H  H9  1  0.90970000  0.48870000  0.60520000  1.0 0.1512419949
H  H10  1  0.51130000  0.39480000  0.09030000  1.0 0.1512419949
H  H11  1  0.39480000  0.09030000  0.51130000  1.0 0.1512419949
H  H12  1  0.09030000  0.51130000  0.39480000  1.0 0.1512419949
H  H13  1  0.66330000  0.48900000  0.92750000  1.0 0.1512419949
H  H14  1  0.48900000  0.92750000  0.66330000  1.0 0.1512419949
H  H15  1  0.92750000  0.66330000  0.48900000  1.0 0.1512419949
H  H16  1  0.33670000  0.51100000  0.07250000  1.0 0.1512419949
H  H17  1  0.51100000  0.07250000  0.33670000  1.0 0.1512419949
H  H18  1  0.07250000  0.33670000  0.51100000  1.0 0.1512419949
H  H19  1  0.94660000  0.33760000  0.90060000  1.0 0.139445056
H  H20  1  0.33760000  0.90060000  0.94660000  1.0 0.139445056
H  H21  1  0.90060000  0.94660000  0.33760000  1.0 0.139445056
H  H22  1  0.05340000  0.66240000  0.09940000  1.0 0.139445056
H  H23  1  0.66240000  0.09940000  0.05340000  1.0 0.139445056
H  H24  1  0.09940000  0.05340000  0.66240000  1.0 0.139445056
H  H25  1  0.20380000  0.53210000  0.11130000  1.0 0.1309839308
H  H26  1  0.53210000  0.11130000  0.20380000  1.0 0.1309839308
H  H27  1  0.11130000  0.20380000  0.53210000  1.0 0.1309839308
H  H28  1  0.79620000  0.46790000  0.88870000  1.0 0.1309839308
H  H29  1  0.46790000  0.88870000  0.79620000  1.0 0.1309839308
H  H30  1  0.88870000  0.79620000  0.46790000  1.0 0.1309839308
H  H31  1  0.98720000  0.44650000  0.16750000  1.0 0.1512419949
H  H32  1  0.44650000  0.16750000  0.98720000  1.0 0.1512419949
H  H33  1  0.16750000  0.98720000  0.44650000  1.0 0.1512419949
H  H34  1  0.01280000  0.55350000  0.83250000  1.0 0.1512419949
H  H35  1  0.55350000  0.83250000  0.01280000  1.0 0.1512419949
H  H36  1  0.83250000  0.01280000  0.55350000  1.0 0.1512419949
H  H37  1  0.28160000  0.55650000  0.25690000  1.0 0.1040596634
H  H38  1  0.55650000  0.25690000  0.28160000  1.0 0.1040596634
H  H39  1  0.25690000  0.28160000  0.55650000  1.0 0.1040596634
H  H40  1  0.71840000  0.44350000  0.74310000  1.0 0.1040596634
H  H41  1  0.44350000  0.74310000  0.71840000  1.0 0.1040596634
H  H42  1  0.74310000  0.71840000  0.44350000  1.0 0.1040596634
H  H43  1  0.27470000  0.65200000  0.27540000  1.0 0.1141366929
H  H44  1  0.65200000  0.27540000  0.27470000  1.0 0.1141366929
H  H45  1  0.27540000  0.27470000  0.65200000  1.0 0.1141366929
H  H46  1  0.72530000  0.34800000  0.72460000  1.0 0.1141366929
H  H47  1  0.34800000  0.72460000  0.72530000  1.0 0.1141366929
H  H48  1  0.72460000  0.72530000  0.34800000  1.0 0.1141366929
C  C1  1  0.54816000  0.31809000  0.88175000  1.0 0.596974191
C  C2  1  0.31809000  0.88175000  0.54816000  1.0 0.596974191
C  C3  1  0.88175000  0.54816000  0.31809000  1.0 0.596974191
C  C4  1  0.45184000  0.68191000  0.11825000  1.0 0.596974191
C  C5  1  0.68191000  0.11825000  0.45184000  1.0 0.596974191
C  C6  1  0.11825000  0.45184000  0.68191000  1.0 0.596974191
C  C7  1  0.53034000  0.39995000  0.88971000  1.0 -0.0103577467
C  C8  1  0.39995000  0.88971000  0.53034000  1.0 -0.0103577467
C  C9  1  0.88971000  0.53034000  0.39995000  1.0 -0.0103577467
C  C10  1  0.46966000  0.60005000  0.11029000  1.0 -0.0103577467
C  C11  1  0.60005000  0.11029000  0.46966000  1.0 -0.0103577467
C  C12  1  0.11029000  0.46966000  0.60005000  1.0 -0.0103577467
C  C13  1  0.44186000  0.39135000  0.87129000  1.0 -0.1294940355
C  C14  1  0.39135000  0.87129000  0.44186000  1.0 -0.1294940355
C  C15  1  0.87129000  0.44186000  0.39135000  1.0 -0.1294940355
C  C16  1  0.55814000  0.60865000  0.12871000  1.0 -0.1294940355
C  C17  1  0.60865000  0.12871000  0.55814000  1.0 -0.1294940355
C  C18  1  0.12871000  0.55814000  0.60865000  1.0 -0.1294940355
C  C19  1  0.42674000  0.46820000  0.87826000  1.0 -0.0103577467
C  C20  1  0.46820000  0.87826000  0.42674000  1.0 -0.0103577467
C  C21  1  0.87826000  0.42674000  0.46820000  1.0 -0.0103577467
C  C22  1  0.57326000  0.53180000  0.12174000  1.0 -0.0103577467
C  C23  1  0.53180000  0.12174000  0.57326000  1.0 -0.0103577467
C  C24  1  0.12174000  0.57326000  0.53180000  1.0 -0.0103577467
C  C25  1  0.33183000  0.46025000  0.85872000  1.0 0.596974191
C  C26  1  0.46025000  0.85872000  0.33183000  1.0 0.596974191
C  C27  1  0.85872000  0.33183000  0.46025000  1.0 0.596974191
C  C28  1  0.66817000  0.53975000  0.14128000  1.0 0.596974191
C  C29  1  0.53975000  0.14128000  0.66817000  1.0 0.596974191
C  C30  1  0.14128000  0.66817000  0.53975000  1.0 0.596974191
C  C31  1  0.49930000  0.55270000  0.90420000  1.0 -0.1794702142
C  C32  1  0.55270000  0.90420000  0.49930000  1.0 -0.1794702142
C  C33  1  0.90420000  0.49930000  0.55270000  1.0 -0.1794702142
C  C34  1  0.50070000  0.44730000  0.09580000  1.0 -0.1794702142
C  C35  1  0.44730000  0.09580000  0.50070000  1.0 -0.1794702142
C  C36  1  0.09580000  0.50070000  0.44730000  1.0 -0.1794702142
C  C37  1  0.58710000  0.56030000  0.92190000  1.0 0.2370345265
C  C38  1  0.56030000  0.92190000  0.58710000  1.0 0.2370345265
C  C39  1  0.92190000  0.58710000  0.56030000  1.0 0.2370345265
C  C40  1  0.41290000  0.43970000  0.07810000  1.0 0.2370345265
C  C41  1  0.43970000  0.07810000  0.41290000  1.0 0.2370345265
C  C42  1  0.07810000  0.41290000  0.43970000  1.0 0.2370345265
C  C43  1  0.60300000  0.48380000  0.91500000  1.0 -0.190977487
C  C44  1  0.48380000  0.91500000  0.60300000  1.0 -0.190977487
C  C45  1  0.91500000  0.60300000  0.48380000  1.0 -0.190977487
C  C46  1  0.39700000  0.51620000  0.08500000  1.0 -0.190977487
C  C47  1  0.51620000  0.08500000  0.39700000  1.0 -0.190977487
C  C48  1  0.08500000  0.39700000  0.51620000  1.0 -0.190977487
C  C49  1  0.74550000  0.66690000  0.97970000  1.0 0.0902010992
C  C50  1  0.66690000  0.97970000  0.74550000  1.0 0.0902010992
C  C51  1  0.97970000  0.74550000  0.66690000  1.0 0.0902010992
C  C52  1  0.25450000  0.33310000  0.02030000  1.0 0.0902010992
C  C53  1  0.33310000  0.02030000  0.25450000  1.0 0.0902010992
C  C54  1  0.02030000  0.25450000  0.33310000  1.0 0.0902010992
C  C55  1  0.80670000  0.77820000  0.01720000  1.0 0.0588105714
C  C56  1  0.77820000  0.01720000  0.80670000  1.0 0.0588105714
C  C57  1  0.01720000  0.80670000  0.77820000  1.0 0.0588105714
C  C58  1  0.19330000  0.22180000  0.98280000  1.0 0.0588105714
C  C59  1  0.22180000  0.98280000  0.19330000  1.0 0.0588105714
C  C60  1  0.98280000  0.19330000  0.22180000  1.0 0.0588105714
C  C61  1  0.79550000  0.82360000  0.09550000  1.0 -0.1476102277
C  C62  1  0.82360000  0.09550000  0.79550000  1.0 -0.1476102277
C  C63  1  0.09550000  0.79550000  0.82360000  1.0 -0.1476102277
C  C64  1  0.20450000  0.17640000  0.90450000  1.0 -0.1476102277
C  C65  1  0.17640000  0.90450000  0.20450000  1.0 -0.1476102277
C  C66  1  0.90450000  0.20450000  0.17640000  1.0 -0.1476102277
C  C67  1  0.84855000  0.33469000  0.99466000  1.0 0.5884645254
C  C68  1  0.33469000  0.99466000  0.84855000  1.0 0.5884645254
C  C69  1  0.99466000  0.84855000  0.33469000  1.0 0.5884645254
C  C70  1  0.15145000  0.66531000  0.00534000  1.0 0.5884645254
C  C71  1  0.66531000  0.00534000  0.15145000  1.0 0.5884645254
C  C72  1  0.00534000  0.15145000  0.66531000  1.0 0.5884645254
C  C73  1  0.95172000  0.38575000  0.02943000  1.0 -0.0103577467
C  C74  1  0.38575000  0.02943000  0.95172000  1.0 -0.0103577467
C  C75  1  0.02943000  0.95172000  0.38575000  1.0 -0.0049556507
C  C76  1  0.04828000  0.61425000  0.97057000  1.0 -0.0049556507
C  C77  1  0.61425000  0.97057000  0.04828000  1.0 -0.0049556507
C  C78  1  0.97057000  0.04828000  0.61425000  1.0 -0.0103577467
C  C79  1  0.98670000  0.37894000  0.96496000  1.0 -0.1294940355
C  C80  1  0.37894000  0.96496000  0.98670000  1.0 -0.1294940355
C  C81  1  0.96496000  0.98670000  0.37894000  1.0 -0.1294940355
C  C82  1  0.01330000  0.62106000  0.03504000  1.0 -0.1294940355
C  C83  1  0.62106000  0.03504000  0.01330000  1.0 -0.1294940355
C  C84  1  0.03504000  0.01330000  0.62106000  1.0 -0.1294940355
C  C85  1  0.08053000  0.43321000  0.99596000  1.0 -0.0103577467
C  C86  1  0.43321000  0.99596000  0.08053000  1.0 -0.0103577467
C  C87  1  0.99596000  0.08053000  0.43321000  1.0 -0.0103577467
C  C88  1  0.91947000  0.56679000  0.00404000  1.0 -0.0103577467
C  C89  1  0.56679000  0.00404000  0.91947000  1.0 -0.0103577467
C  C90  1  0.00404000  0.91947000  0.56679000  1.0 -0.0103577467
C  C91  1  0.11787000  0.43268000  0.92795000  1.0 0.5811255247
C  C92  1  0.43268000  0.92795000  0.11787000  1.0 0.5811255247
C  C93  1  0.92795000  0.11787000  0.43268000  1.0 0.5811255247
C  C94  1  0.88213000  0.56732000  0.07205000  1.0 0.5811255247
C  C95  1  0.56732000  0.07205000  0.88213000  1.0 0.5811255247
C  C96  1  0.07205000  0.88213000  0.56732000  1.0 0.5811255247
C  C97  1  0.14014000  0.49278000  0.09068000  1.0 -0.2357910007
C  C98  1  0.49278000  0.09068000  0.14014000  1.0 -0.2357910007
C  C99  1  0.09068000  0.14014000  0.49278000  1.0 -0.2357910007
C  C100  1  0.85986000  0.50722000  0.90932000  1.0 -0.2357910007
C  C101  1  0.50722000  0.90932000  0.85986000  1.0 -0.2357910007
C  C102  1  0.90932000  0.85986000  0.50722000  1.0 -0.2357910007
C  C103  1  0.10563000  0.49408000  0.15449000  1.0 0.2469383597
C  C104  1  0.49408000  0.15449000  0.10563000  1.0 0.2469383597
C  C105  1  0.15449000  0.10563000  0.49408000  1.0 0.2469383597
C  C106  1  0.89437000  0.50592000  0.84551000  1.0 0.2469383597
C  C107  1  0.50592000  0.84551000  0.89437000  1.0 0.2469383597
C  C108  1  0.84551000  0.89437000  0.50592000  1.0 0.2469383597
C  C109  1  0.01115000  0.44273000  0.12392000  1.0 -0.2081652909
C  C110  1  0.44273000  0.12392000  0.01115000  1.0 -0.2081652909
C  C111  1  0.12392000  0.01115000  0.44273000  1.0 -0.2081652909
C  C112  1  0.98885000  0.55727000  0.87608000  1.0 -0.2081652909
C  C113  1  0.55727000  0.87608000  0.98885000  1.0 -0.2081652909
C  C114  1  0.87608000  0.98885000  0.55727000  1.0 -0.2081652909
C  C115  1  0.25790000  0.59690000  0.28670000  1.0 -0.0309107383
C  C116  1  0.59690000  0.28670000  0.25790000  1.0 -0.0309107383
C  C117  1  0.28670000  0.25790000  0.59690000  1.0 -0.0309107383
C  C118  1  0.74210000  0.40310000  0.71330000  1.0 -0.0309107383
C  C119  1  0.40310000  0.71330000  0.74210000  1.0 -0.0309107383
C  C120  1  0.71330000  0.74210000  0.40310000  1.0 -0.0309107383
C  C121  1  0.30010000  0.62740000  0.39160000  1.0 0.0466698676
C  C122  1  0.62740000  0.39160000  0.30010000  1.0 0.0466698676
C  C123  1  0.39160000  0.30010000  0.62740000  1.0 0.0466698676
C  C124  1  0.69990000  0.37260000  0.60840000  1.0 0.0466698676
C  C125  1  0.37260000  0.60840000  0.69990000  1.0 0.0466698676
C  C126  1  0.60840000  0.69990000  0.37260000  1.0 0.0466698676
C  C127  1  0.30590000  0.54970000  0.40680000  1.0 0.0178902877
C  C128  1  0.54970000  0.40680000  0.30590000  1.0 0.0178902877
C  C129  1  0.40680000  0.30590000  0.54970000  1.0 0.0178902877
C  C130  1  0.69410000  0.45030000  0.59320000  1.0 0.0178902877
C  C131  1  0.45030000  0.59320000  0.69410000  1.0 0.0178902877
C  C132  1  0.59320000  0.69410000  0.45030000  1.0 0.0178902877
C  C133  1  0.65930000  0.72700000  0.98120000  1.0 0.0178902877
C  C134  1  0.72700000  0.98120000  0.65930000  1.0 0.0178902877
C  C135  1  0.98120000  0.65930000  0.72700000  1.0 0.0178902877
C  C136  1  0.34070000  0.27300000  0.01880000  1.0 0.0178902877
C  C137  1  0.27300000  0.01880000  0.34070000  1.0 0.0178902877
C  C138  1  0.01880000  0.34070000  0.27300000  1.0 0.0178902877
C  C139  1  0.75520000  0.80630000  0.01480000  1.0 0.0434916716
C  C140  1  0.80630000  0.01480000  0.75520000  1.0 0.0434916716
C  C141  1  0.01480000  0.75520000  0.80630000  1.0 0.0434916716
C  C142  1  0.24480000  0.19370000  0.98520000  1.0 0.0434916716
C  C143  1  0.19370000  0.98520000  0.24480000  1.0 0.0434916716
C  C144  1  0.98520000  0.24480000  0.19370000  1.0 0.0434916716
C  C145  1  0.39690000  0.65840000  0.43690000  1.0 -0.1576326966
C  C146  1  0.65840000  0.43690000  0.39690000  1.0 -0.1576326966
C  C147  1  0.43690000  0.39690000  0.65840000  1.0 -0.1576326966
C  C148  1  0.60310000  0.34160000  0.56310000  1.0 -0.1576326966
C  C149  1  0.34160000  0.56310000  0.60310000  1.0 -0.1576326966
C  C150  1  0.56310000  0.60310000  0.34160000  1.0 -0.1576326966
O  O1  1  0.62763000  0.32770000  0.89185000  1.0 -0.5503689527
O  O2  1  0.32770000  0.89185000  0.62763000  1.0 -0.5503689527
O  O3  1  0.89185000  0.62763000  0.32770000  1.0 -0.5503689527
O  O4  1  0.37237000  0.67230000  0.10815000  1.0 -0.5503689527
O  O5  1  0.67230000  0.10815000  0.37237000  1.0 -0.5503689527
O  O6  1  0.10815000  0.37237000  0.67230000  1.0 -0.5503689527
O  O7  1  0.48310000  0.24435000  0.86623000  1.0 -0.5618153245
O  O8  1  0.24435000  0.86623000  0.48310000  1.0 -0.5618153245
O  O9  1  0.86623000  0.48310000  0.24435000  1.0 -0.5618153245
O  O10  1  0.51690000  0.75565000  0.13377000  1.0 -0.5618153245
O  O11  1  0.75565000  0.13377000  0.51690000  1.0 -0.5618153245
O  O12  1  0.13377000  0.51690000  0.75565000  1.0 -0.5618153245
O  O13  1  0.26765000  0.38130000  0.83220000  1.0 -0.5393080443
O  O14  1  0.38130000  0.83220000  0.26765000  1.0 -0.5393080443
O  O15  1  0.83220000  0.26765000  0.38130000  1.0 -0.5393080443
O  O16  1  0.73235000  0.61870000  0.16780000  1.0 -0.5393080443
O  O17  1  0.61870000  0.16780000  0.73235000  1.0 -0.5393080443
O  O18  1  0.16780000  0.73235000  0.61870000  1.0 -0.5393080443
O  O19  1  0.32266000  0.53295000  0.86899000  1.0 -0.5618153245
O  O20  1  0.53295000  0.86899000  0.32266000  1.0 -0.5618153245
O  O21  1  0.86899000  0.32266000  0.53295000  1.0 -0.5618153245
O  O22  1  0.67734000  0.46705000  0.13101000  1.0 -0.5618153245
O  O23  1  0.46705000  0.13101000  0.67734000  1.0 -0.5618153245
O  O24  1  0.13101000  0.67734000  0.46705000  1.0 -0.5618153245
O  O25  1  0.65790000  0.64300000  0.94720000  1.0 -0.1158551106
O  O26  1  0.64300000  0.94720000  0.65790000  1.0 -0.1158551106
O  O27  1  0.94720000  0.65790000  0.64300000  1.0 -0.1158551106
O  O28  1  0.34210000  0.35700000  0.05280000  1.0 -0.1158551106
O  O29  1  0.35700000  0.05280000  0.34210000  1.0 -0.1158551106
O  O30  1  0.05280000  0.34210000  0.35700000  1.0 -0.1158551106
O  O31  1  0.81787000  0.34174000  0.05336000  1.0 -0.5503689527
O  O32  1  0.34174000  0.05336000  0.81787000  1.0 -0.5503689527
O  O33  1  0.05336000  0.81787000  0.34174000  1.0 -0.5503689527
O  O34  1  0.18213000  0.65826000  0.94664000  1.0 -0.5503689527
O  O35  1  0.65826000  0.94664000  0.18213000  1.0 -0.5503689527
O  O36  1  0.94664000  0.18213000  0.65826000  1.0 -0.5503689527
O  O37  1  0.79876000  0.28763000  0.90830000  1.0 -0.497523728
O  O38  1  0.28763000  0.90830000  0.79876000  1.0 -0.497523728
O  O39  1  0.90830000  0.79876000  0.28763000  1.0 -0.497523728
O  O40  1  0.20124000  0.71237000  0.09170000  1.0 -0.497523728
O  O41  1  0.71237000  0.09170000  0.20124000  1.0 -0.497523728
O  O42  1  0.09170000  0.20124000  0.71237000  1.0 -0.497523728
O  O43  1  0.07101000  0.36273000  0.84727000  1.0 -0.5276854962
O  O44  1  0.36273000  0.84727000  0.07101000  1.0 -0.5276854962
O  O45  1  0.84727000  0.07101000  0.36273000  1.0 -0.5276854962
O  O46  1  0.92899000  0.63727000  0.15273000  1.0 -0.5276854962
O  O47  1  0.63727000  0.15273000  0.92899000  1.0 -0.5276854962
O  O48  1  0.15273000  0.92899000  0.63727000  1.0 -0.5276854962
O  O49  1  0.19342000  0.50047000  0.95309000  1.0 -0.566083325
O  O50  1  0.50047000  0.95309000  0.19342000  1.0 -0.566083325
O  O51  1  0.95309000  0.19342000  0.50047000  1.0 -0.566083325
O  O52  1  0.80658000  0.49953000  0.04691000  1.0 -0.566083325
O  O53  1  0.49953000  0.04691000  0.80658000  1.0 -0.566083325
O  O54  1  0.04691000  0.80658000  0.49953000  1.0 -0.566083325
O  O55  1  0.15842000  0.54658000  0.24933000  1.0 -0.171382311
O  O56  1  0.54658000  0.24933000  0.15842000  1.0 -0.171382311
O  O57  1  0.24933000  0.15842000  0.54658000  1.0 -0.171382311
O  O58  1  0.84158000  0.45342000  0.75067000  1.0 -0.171382311
O  O59  1  0.45342000  0.75067000  0.84158000  1.0 -0.171382311
O  O60  1  0.75067000  0.84158000  0.45342000  1.0 -0.171382311
