# DDEC6 charges by PACMAN v1.1 (https://github.com/mtap-research/PACMAN-charge/)
data_UVUWAL_FSR_pacman
_symmetry_space_group_name_H-M   'P 1'
_cell_length_a   15.45560000
_cell_length_b   18.38120000
_cell_length_c   31.09010000
_cell_angle_alpha   90.00000000
_cell_angle_beta   90.00000000
_cell_angle_gamma   90.00000000
_symmetry_Int_Tables_number   1
_chemical_formula_structural   Zn2H18C32S(NO2)4
_chemical_formula_sum   'Zn16 H144 C256 S8 N32 O64'
_cell_volume   8832.46344829
_cell_formula_units_Z   8
loop_
 _symmetry_equiv_pos_site_id
 _symmetry_equiv_pos_as_xyz
  1  'x, y, z'
loop_
 _atom_site_type_symbol
 _atom_site_label
 _atom_site_symmetry_multiplicity
 _atom_site_fract_x
 _atom_site_fract_y
 _atom_site_fract_z
 _atom_site_occupancy
 _atom_site_charge
Zn  Zn1  1  0.92651000  0.66645000  0.62421000  1.0 0.8244221704
Zn  Zn2  1  0.92634000  0.82538000  0.62595000  1.0 0.8287883894
Zn  Zn3  1  0.42651000  0.83355000  0.37579000  1.0 0.8244221704
Zn  Zn4  1  0.42634000  0.67462000  0.37405000  1.0 0.8287883894
Zn  Zn5  1  0.42651000  0.66645000  0.87579000  1.0 0.8244221704
Zn  Zn6  1  0.42634000  0.82538000  0.87405000  1.0 0.8287883894
Zn  Zn7  1  0.92651000  0.83355000  0.12421000  1.0 0.8244221704
Zn  Zn8  1  0.92634000  0.67462000  0.12595000  1.0 0.8287883894
Zn  Zn9  1  0.57349000  0.33355000  0.12421000  1.0 0.8244221704
Zn  Zn10  1  0.57366000  0.17462000  0.12595000  1.0 0.8287883894
Zn  Zn11  1  0.07349000  0.16645000  0.87579000  1.0 0.8244221704
Zn  Zn12  1  0.07366000  0.32538000  0.87405000  1.0 0.8287883894
Zn  Zn13  1  0.07349000  0.33355000  0.37579000  1.0 0.8244221704
Zn  Zn14  1  0.07366000  0.17462000  0.37405000  1.0 0.8287883894
Zn  Zn15  1  0.57349000  0.16645000  0.62421000  1.0 0.8244221704
Zn  Zn16  1  0.57366000  0.32538000  0.62595000  1.0 0.8287883894
H  H1  1  0.74210000  0.85090000  0.73080000  1.0 0.121637058
H  H2  1  0.63690000  0.85060000  0.78330000  1.0 0.121637058
H  H3  1  0.63510000  0.63250000  0.78190000  1.0 0.121637058
H  H4  1  0.74030000  0.63270000  0.72930000  1.0 0.121637058
H  H5  1  0.71520000  0.64000000  0.53280000  1.0 0.121637058
H  H6  1  0.61000000  0.64110000  0.48020000  1.0 0.121637058
H  H7  1  0.62680000  0.85840000  0.47380000  1.0 0.121637058
H  H8  1  0.73150000  0.85690000  0.52640000  1.0 0.121637058
H  H9  1  0.89640000  0.53590000  0.67870000  1.0 0.121637058
H  H10  1  0.89870000  0.41190000  0.67510000  1.0 0.137409945
H  H11  1  0.95120000  0.42810000  0.54890000  1.0 0.137409945
H  H12  1  0.94680000  0.55250000  0.55650000  1.0 0.121637058
H  H13  1  0.83640000  0.18350000  0.65310000  1.0 0.1129070566
H  H14  1  0.83670000  0.30790000  0.65280000  1.0 0.1129070566
H  H15  1  0.79830000  0.07360000  0.62060000  1.0 0.137409945
H  H16  1  0.80050000  0.95050000  0.62920000  1.0 0.121637058
H  H17  1  0.05000000  0.94480000  0.61710000  1.0 0.1259344117
H  H18  1  0.05590000  0.06790000  0.60600000  1.0 0.137409945
H  H19  1  0.24210000  0.64910000  0.26920000  1.0 0.121637058
H  H20  1  0.13690000  0.64940000  0.21670000  1.0 0.121637058
H  H21  1  0.13510000  0.86750000  0.21810000  1.0 0.121637058
H  H22  1  0.24030000  0.86730000  0.27070000  1.0 0.121637058
H  H23  1  0.21520000  0.86000000  0.46720000  1.0 0.121637058
H  H24  1  0.11000000  0.85890000  0.51980000  1.0 0.121637058
H  H25  1  0.12680000  0.64160000  0.52620000  1.0 0.121637058
H  H26  1  0.23150000  0.64310000  0.47360000  1.0 0.121637058
H  H27  1  0.39640000  0.96410000  0.32130000  1.0 0.121637058
H  H28  1  0.39870000  0.08810000  0.32490000  1.0 0.137409945
H  H29  1  0.45120000  0.07190000  0.45110000  1.0 0.137409945
H  H30  1  0.44680000  0.94750000  0.44350000  1.0 0.121637058
H  H31  1  0.33640000  0.31650000  0.34690000  1.0 0.1129070566
H  H32  1  0.33670000  0.19210000  0.34720000  1.0 0.1129070566
H  H33  1  0.29830000  0.42640000  0.37940000  1.0 0.137409945
H  H34  1  0.30050000  0.54950000  0.37080000  1.0 0.121637058
H  H35  1  0.55000000  0.55520000  0.38290000  1.0 0.1259344117
H  H36  1  0.55590000  0.43210000  0.39400000  1.0 0.137409945
H  H37  1  0.24210000  0.85090000  0.76920000  1.0 0.121637058
H  H38  1  0.13690000  0.85060000  0.71670000  1.0 0.121637058
H  H39  1  0.13510000  0.63250000  0.71810000  1.0 0.121637058
H  H40  1  0.24030000  0.63270000  0.77070000  1.0 0.121637058
H  H41  1  0.21520000  0.64000000  0.96720000  1.0 0.121637058
H  H42  1  0.11000000  0.64110000  0.01980000  1.0 0.121637058
H  H43  1  0.12680000  0.85840000  0.02620000  1.0 0.121637058
H  H44  1  0.23150000  0.85690000  0.97360000  1.0 0.121637058
H  H45  1  0.39640000  0.53590000  0.82130000  1.0 0.121637058
H  H46  1  0.39870000  0.41190000  0.82490000  1.0 0.137409945
H  H47  1  0.45120000  0.42810000  0.95110000  1.0 0.137409945
H  H48  1  0.44680000  0.55250000  0.94350000  1.0 0.121637058
H  H49  1  0.33640000  0.18350000  0.84690000  1.0 0.1129070566
H  H50  1  0.33670000  0.30790000  0.84720000  1.0 0.1129070566
H  H51  1  0.29830000  0.07360000  0.87940000  1.0 0.137409945
H  H52  1  0.30050000  0.95050000  0.87080000  1.0 0.121637058
H  H53  1  0.55000000  0.94480000  0.88290000  1.0 0.1259344117
H  H54  1  0.55590000  0.06790000  0.89400000  1.0 0.137409945
H  H55  1  0.74210000  0.64910000  0.23080000  1.0 0.121637058
H  H56  1  0.63690000  0.64940000  0.28330000  1.0 0.121637058
H  H57  1  0.63510000  0.86750000  0.28190000  1.0 0.121637058
H  H58  1  0.74030000  0.86730000  0.22930000  1.0 0.121637058
H  H59  1  0.71520000  0.86000000  0.03280000  1.0 0.121637058
H  H60  1  0.61000000  0.85890000  0.98020000  1.0 0.121637058
H  H61  1  0.62680000  0.64160000  0.97380000  1.0 0.121637058
H  H62  1  0.73150000  0.64310000  0.02640000  1.0 0.121637058
H  H63  1  0.89640000  0.96410000  0.17870000  1.0 0.121637058
H  H64  1  0.89870000  0.08810000  0.17510000  1.0 0.137409945
H  H65  1  0.95120000  0.07190000  0.04890000  1.0 0.137409945
H  H66  1  0.94680000  0.94750000  0.05650000  1.0 0.121637058
H  H67  1  0.83640000  0.31650000  0.15310000  1.0 0.1129070566
H  H68  1  0.83670000  0.19210000  0.15280000  1.0 0.1129070566
H  H69  1  0.79830000  0.42640000  0.12060000  1.0 0.137409945
H  H70  1  0.80050000  0.54950000  0.12920000  1.0 0.121637058
H  H71  1  0.05000000  0.55520000  0.11710000  1.0 0.1259344117
H  H72  1  0.05590000  0.43210000  0.10600000  1.0 0.137409945
H  H73  1  0.75790000  0.14910000  0.23080000  1.0 0.121637058
H  H74  1  0.86310000  0.14940000  0.28330000  1.0 0.121637058
H  H75  1  0.86490000  0.36750000  0.28190000  1.0 0.121637058
H  H76  1  0.75970000  0.36730000  0.22930000  1.0 0.121637058
H  H77  1  0.78480000  0.36000000  0.03280000  1.0 0.121637058
H  H78  1  0.89000000  0.35890000  0.98020000  1.0 0.121637058
H  H79  1  0.87320000  0.14160000  0.97380000  1.0 0.121637058
H  H80  1  0.76850000  0.14310000  0.02640000  1.0 0.121637058
H  H81  1  0.60360000  0.46410000  0.17870000  1.0 0.121637058
H  H82  1  0.60130000  0.58810000  0.17510000  1.0 0.137409945
H  H83  1  0.54880000  0.57190000  0.04890000  1.0 0.137409945
H  H84  1  0.55320000  0.44750000  0.05650000  1.0 0.121637058
H  H85  1  0.66360000  0.81650000  0.15310000  1.0 0.1129070566
H  H86  1  0.66330000  0.69210000  0.15280000  1.0 0.1129070566
H  H87  1  0.70170000  0.92640000  0.12060000  1.0 0.137409945
H  H88  1  0.69950000  0.04950000  0.12920000  1.0 0.121637058
H  H89  1  0.45000000  0.05520000  0.11710000  1.0 0.1259344117
H  H90  1  0.44410000  0.93210000  0.10600000  1.0 0.137409945
H  H91  1  0.25790000  0.35090000  0.76920000  1.0 0.121637058
H  H92  1  0.36310000  0.35060000  0.71670000  1.0 0.121637058
H  H93  1  0.36490000  0.13250000  0.71810000  1.0 0.121637058
H  H94  1  0.25970000  0.13270000  0.77070000  1.0 0.121637058
H  H95  1  0.28480000  0.14000000  0.96720000  1.0 0.121637058
H  H96  1  0.39000000  0.14110000  0.01980000  1.0 0.121637058
H  H97  1  0.37320000  0.35840000  0.02620000  1.0 0.121637058
H  H98  1  0.26850000  0.35690000  0.97360000  1.0 0.121637058
H  H99  1  0.10360000  0.03590000  0.82130000  1.0 0.121637058
H  H100  1  0.10130000  0.91190000  0.82490000  1.0 0.137409945
H  H101  1  0.04880000  0.92810000  0.95110000  1.0 0.137409945
H  H102  1  0.05320000  0.05250000  0.94350000  1.0 0.121637058
H  H103  1  0.16360000  0.68350000  0.84690000  1.0 0.1129070566
H  H104  1  0.16330000  0.80790000  0.84720000  1.0 0.1129070566
H  H105  1  0.20170000  0.57360000  0.87940000  1.0 0.137409945
H  H106  1  0.19950000  0.45050000  0.87080000  1.0 0.121637058
H  H107  1  0.95000000  0.44480000  0.88290000  1.0 0.1259344117
H  H108  1  0.94410000  0.56790000  0.89400000  1.0 0.137409945
H  H109  1  0.25790000  0.14910000  0.26920000  1.0 0.121637058
H  H110  1  0.36310000  0.14940000  0.21670000  1.0 0.121637058
H  H111  1  0.36490000  0.36750000  0.21810000  1.0 0.121637058
H  H112  1  0.25970000  0.36730000  0.27070000  1.0 0.121637058
H  H113  1  0.28480000  0.36000000  0.46720000  1.0 0.121637058
H  H114  1  0.39000000  0.35890000  0.51980000  1.0 0.121637058
H  H115  1  0.37320000  0.14160000  0.52620000  1.0 0.121637058
H  H116  1  0.26850000  0.14310000  0.47360000  1.0 0.121637058
H  H117  1  0.10360000  0.46410000  0.32130000  1.0 0.121637058
H  H118  1  0.10130000  0.58810000  0.32490000  1.0 0.137409945
H  H119  1  0.04880000  0.57190000  0.45110000  1.0 0.137409945
H  H120  1  0.05320000  0.44750000  0.44350000  1.0 0.121637058
H  H121  1  0.16360000  0.81650000  0.34690000  1.0 0.1129070566
H  H122  1  0.16330000  0.69210000  0.34720000  1.0 0.1129070566
H  H123  1  0.20170000  0.92640000  0.37940000  1.0 0.137409945
H  H124  1  0.19950000  0.04950000  0.37080000  1.0 0.121637058
H  H125  1  0.95000000  0.05520000  0.38290000  1.0 0.1259344117
H  H126  1  0.94410000  0.93210000  0.39400000  1.0 0.137409945
H  H127  1  0.75790000  0.35090000  0.73080000  1.0 0.121637058
H  H128  1  0.86310000  0.35060000  0.78330000  1.0 0.121637058
H  H129  1  0.86490000  0.13250000  0.78190000  1.0 0.121637058
H  H130  1  0.75970000  0.13270000  0.72930000  1.0 0.121637058
H  H131  1  0.78480000  0.14000000  0.53280000  1.0 0.121637058
H  H132  1  0.89000000  0.14110000  0.48020000  1.0 0.121637058
H  H133  1  0.87320000  0.35840000  0.47380000  1.0 0.121637058
H  H134  1  0.76850000  0.35690000  0.52640000  1.0 0.121637058
H  H135  1  0.60360000  0.03590000  0.67870000  1.0 0.121637058
H  H136  1  0.60130000  0.91190000  0.67510000  1.0 0.137409945
H  H137  1  0.54880000  0.92810000  0.54890000  1.0 0.137409945
H  H138  1  0.55320000  0.05250000  0.55650000  1.0 0.121637058
H  H139  1  0.66360000  0.68350000  0.65310000  1.0 0.1129070566
H  H140  1  0.66330000  0.80790000  0.65280000  1.0 0.1129070566
H  H141  1  0.70170000  0.57360000  0.62060000  1.0 0.137409945
H  H142  1  0.69950000  0.45050000  0.62920000  1.0 0.121637058
H  H143  1  0.45000000  0.44480000  0.61710000  1.0 0.1259344117
H  H144  1  0.44410000  0.56790000  0.60600000  1.0 0.137409945
C  C1  1  0.81700000  0.74243000  0.68784000  1.0 0.5693525196
C  C2  1  0.75140000  0.74177000  0.72390000  1.0 -0.0279350522
C  C3  1  0.72020000  0.80690000  0.74084000  1.0 -0.1202762435
C  C4  1  0.65710000  0.80677000  0.77234000  1.0 -0.0986500551
C  C5  1  0.62378000  0.74146000  0.78771000  1.0 -0.0219636399
C  C6  1  0.65610000  0.67647000  0.77144000  1.0 -0.0986500551
C  C7  1  0.71930000  0.67663000  0.73988000  1.0 -0.1103620869
C  C8  1  0.55230000  0.74120000  0.82039000  1.0 0.5877473028
C  C9  1  0.80240000  0.74750000  0.56930000  1.0 0.5693525196
C  C10  1  0.73380000  0.74826000  0.53516000  1.0 -0.0399247595
C  C11  1  0.69730000  0.68400000  0.52098000  1.0 -0.1103620869
C  C12  1  0.63440000  0.68463000  0.48936000  1.0 -0.0986500551
C  C13  1  0.60740000  0.74984000  0.47124000  1.0 -0.0279350522
C  C14  1  0.64440000  0.81431000  0.48558000  1.0 -0.1103620869
C  C15  1  0.70700000  0.81339000  0.51716000  1.0 -0.1202762435
C  C16  1  0.53990000  0.75064000  0.43647000  1.0 0.5754459993
C  C17  1  0.90810000  0.51380000  0.65239000  1.0 0.0835348972
C  C18  1  0.90910000  0.43927000  0.65048000  1.0 -0.2086492743
C  C19  1  0.92610000  0.40442000  0.61108000  1.0 0.137409945
C  C20  1  0.94020000  0.44858000  0.57573000  1.0 -0.1871133382
C  C21  1  0.93780000  0.52354000  0.58059000  1.0 0.090522136
C  C22  1  0.92800000  0.32430000  0.60921000  1.0 0.0032092209
C  C23  1  0.98380000  0.28477000  0.58122000  1.0 0.1259344117
C  C24  1  0.98520000  0.20623000  0.58200000  1.0 0.121637058
C  C25  1  0.92900000  0.16667000  0.60969000  1.0 0.0032092209
C  C26  1  0.87480000  0.20744000  0.63494000  1.0 -0.1284627971
C  C27  1  0.87490000  0.28376000  0.63466000  1.0 -0.1284627971
C  C28  1  0.92770000  0.08666000  0.61254000  1.0 0.137409945
C  C29  1  0.85060000  0.04870000  0.61952000  1.0 -0.2043074174
C  C30  1  0.85250000  0.97470000  0.62473000  1.0 0.0835348972
C  C31  1  0.99870000  0.97126000  0.61733000  1.0 0.090522136
C  C32  1  0.00290000  0.04553000  0.61110000  1.0 -0.1809372725
C  C33  1  0.31700000  0.75757000  0.31216000  1.0 0.5693525196
C  C34  1  0.25140000  0.75823000  0.27610000  1.0 -0.0279350522
C  C35  1  0.22020000  0.69310000  0.25916000  1.0 -0.1202762435
C  C36  1  0.15710000  0.69323000  0.22766000  1.0 -0.0986500551
C  C37  1  0.12378000  0.75854000  0.21229000  1.0 -0.0219636399
C  C38  1  0.15610000  0.82353000  0.22856000  1.0 -0.0986500551
C  C39  1  0.21930000  0.82337000  0.26012000  1.0 -0.1103620869
C  C40  1  0.05230000  0.75880000  0.17961000  1.0 0.5877473028
C  C41  1  0.30240000  0.75250000  0.43070000  1.0 0.5693525196
C  C42  1  0.23380000  0.75174000  0.46484000  1.0 -0.0399247595
C  C43  1  0.19730000  0.81600000  0.47902000  1.0 -0.1103620869
C  C44  1  0.13440000  0.81537000  0.51064000  1.0 -0.0986500551
C  C45  1  0.10740000  0.75016000  0.52876000  1.0 -0.0279350522
C  C46  1  0.14440000  0.68569000  0.51442000  1.0 -0.0986500551
C  C47  1  0.20700000  0.68661000  0.48284000  1.0 -0.1202762435
C  C48  1  0.03990000  0.74936000  0.56353000  1.0 0.5754459993
C  C49  1  0.40810000  0.98620000  0.34761000  1.0 0.0835348972
C  C50  1  0.40910000  0.06073000  0.34952000  1.0 -0.2086492743
C  C51  1  0.42610000  0.09558000  0.38892000  1.0 0.137409945
C  C52  1  0.44020000  0.05142000  0.42427000  1.0 -0.1871133382
C  C53  1  0.43780000  0.97646000  0.41941000  1.0 0.090522136
C  C54  1  0.42800000  0.17570000  0.39079000  1.0 0.0032092209
C  C55  1  0.48380000  0.21523000  0.41878000  1.0 0.1259344117
C  C56  1  0.48520000  0.29377000  0.41800000  1.0 0.121637058
C  C57  1  0.42900000  0.33333333  0.39031000  1.0 0.0032092209
C  C58  1  0.37480000  0.29256000  0.36506000  1.0 -0.1284627971
C  C59  1  0.37490000  0.21624000  0.36534000  1.0 -0.1284627971
C  C60  1  0.42770000  0.41334000  0.38746000  1.0 0.137409945
C  C61  1  0.35060000  0.45130000  0.38048000  1.0 -0.2043074174
C  C62  1  0.35250000  0.52530000  0.37527000  1.0 0.0835348972
C  C63  1  0.49870000  0.52874000  0.38267000  1.0 0.090522136
C  C64  1  0.50290000  0.45447000  0.38890000  1.0 -0.1809372725
C  C65  1  0.31700000  0.74243000  0.81216000  1.0 0.5693525196
C  C66  1  0.25140000  0.74177000  0.77610000  1.0 -0.0279350522
C  C67  1  0.22020000  0.80690000  0.75916000  1.0 -0.1202762435
C  C68  1  0.15710000  0.80677000  0.72766000  1.0 -0.0986500551
C  C69  1  0.12378000  0.74146000  0.71229000  1.0 -0.0219636399
C  C70  1  0.15610000  0.67647000  0.72856000  1.0 -0.0986500551
C  C71  1  0.21930000  0.67663000  0.76012000  1.0 -0.1103620869
C  C72  1  0.05230000  0.74120000  0.67961000  1.0 0.5877473028
C  C73  1  0.30240000  0.74750000  0.93070000  1.0 0.5693525196
C  C74  1  0.23380000  0.74826000  0.96484000  1.0 -0.0399247595
C  C75  1  0.19730000  0.68400000  0.97902000  1.0 -0.1103620869
C  C76  1  0.13440000  0.68463000  0.01064000  1.0 -0.0986500551
C  C77  1  0.10740000  0.74984000  0.02876000  1.0 -0.0279350522
C  C78  1  0.14440000  0.81431000  0.01442000  1.0 -0.1103620869
C  C79  1  0.20700000  0.81339000  0.98284000  1.0 -0.1202762435
C  C80  1  0.03990000  0.75064000  0.06353000  1.0 0.5754459993
C  C81  1  0.40810000  0.51380000  0.84761000  1.0 0.0835348972
C  C82  1  0.40910000  0.43927000  0.84952000  1.0 -0.2086492743
C  C83  1  0.42610000  0.40442000  0.88892000  1.0 0.137409945
C  C84  1  0.44020000  0.44858000  0.92427000  1.0 -0.1871133382
C  C85  1  0.43780000  0.52354000  0.91941000  1.0 0.090522136
C  C86  1  0.42800000  0.32430000  0.89079000  1.0 0.0032092209
C  C87  1  0.48380000  0.28477000  0.91878000  1.0 0.1259344117
C  C88  1  0.48520000  0.20623000  0.91800000  1.0 0.121637058
C  C89  1  0.42900000  0.16667000  0.89031000  1.0 0.0032092209
C  C90  1  0.37480000  0.20744000  0.86506000  1.0 -0.1284627971
C  C91  1  0.37490000  0.28376000  0.86534000  1.0 -0.1284627971
C  C92  1  0.42770000  0.08666000  0.88746000  1.0 0.137409945
C  C93  1  0.35060000  0.04870000  0.88048000  1.0 -0.2043074174
C  C94  1  0.35250000  0.97470000  0.87527000  1.0 0.0835348972
C  C95  1  0.49870000  0.97126000  0.88267000  1.0 0.090522136
C  C96  1  0.50290000  0.04553000  0.88890000  1.0 -0.1809372725
C  C97  1  0.81700000  0.75757000  0.18784000  1.0 0.5693525196
C  C98  1  0.75140000  0.75823000  0.22390000  1.0 -0.0279350522
C  C99  1  0.72020000  0.69310000  0.24084000  1.0 -0.1202762435
C  C100  1  0.65710000  0.69323000  0.27234000  1.0 -0.0986500551
C  C101  1  0.62378000  0.75854000  0.28771000  1.0 -0.0219636399
C  C102  1  0.65610000  0.82353000  0.27144000  1.0 -0.0986500551
C  C103  1  0.71930000  0.82337000  0.23988000  1.0 -0.1103620869
C  C104  1  0.55230000  0.75880000  0.32039000  1.0 0.5877473028
C  C105  1  0.80240000  0.75250000  0.06930000  1.0 0.5693525196
C  C106  1  0.73380000  0.75174000  0.03516000  1.0 -0.0399247595
C  C107  1  0.69730000  0.81600000  0.02098000  1.0 -0.1103620869
C  C108  1  0.63440000  0.81537000  0.98936000  1.0 -0.0986500551
C  C109  1  0.60740000  0.75016000  0.97124000  1.0 -0.0279350522
C  C110  1  0.64440000  0.68569000  0.98558000  1.0 -0.1103620869
C  C111  1  0.70700000  0.68661000  0.01716000  1.0 -0.1202762435
C  C112  1  0.53990000  0.74936000  0.93647000  1.0 0.5754459993
C  C113  1  0.90810000  0.98620000  0.15239000  1.0 0.0835348972
C  C114  1  0.90910000  0.06073000  0.15048000  1.0 -0.2086492743
C  C115  1  0.92610000  0.09558000  0.11108000  1.0 0.137409945
C  C116  1  0.94020000  0.05142000  0.07573000  1.0 -0.1871133382
C  C117  1  0.93780000  0.97646000  0.08059000  1.0 0.090522136
C  C118  1  0.92800000  0.17570000  0.10921000  1.0 0.0032092209
C  C119  1  0.98380000  0.21523000  0.08122000  1.0 0.1259344117
C  C120  1  0.98520000  0.29377000  0.08200000  1.0 0.121637058
C  C121  1  0.92900000  0.33333333  0.10969000  1.0 0.0032092209
C  C122  1  0.87480000  0.29256000  0.13494000  1.0 -0.1284627971
C  C123  1  0.87490000  0.21624000  0.13466000  1.0 -0.1284627971
C  C124  1  0.92770000  0.41334000  0.11254000  1.0 0.137409945
C  C125  1  0.85060000  0.45130000  0.11952000  1.0 -0.2043074174
C  C126  1  0.85250000  0.52530000  0.12473000  1.0 0.0835348972
C  C127  1  0.99870000  0.52874000  0.11733000  1.0 0.090522136
C  C128  1  0.00290000  0.45447000  0.11110000  1.0 -0.1809372725
C  C129  1  0.68300000  0.25757000  0.18784000  1.0 0.5693525196
C  C130  1  0.74860000  0.25823000  0.22390000  1.0 -0.0279350522
C  C131  1  0.77980000  0.19310000  0.24084000  1.0 -0.1202762435
C  C132  1  0.84290000  0.19323000  0.27234000  1.0 -0.0986500551
C  C133  1  0.87622000  0.25854000  0.28771000  1.0 -0.0219636399
C  C134  1  0.84390000  0.32353000  0.27144000  1.0 -0.0986500551
C  C135  1  0.78070000  0.32337000  0.23988000  1.0 -0.1103620869
C  C136  1  0.94770000  0.25880000  0.32039000  1.0 0.5877473028
C  C137  1  0.69760000  0.25250000  0.06930000  1.0 0.5693525196
C  C138  1  0.76620000  0.25174000  0.03516000  1.0 -0.0399247595
C  C139  1  0.80270000  0.31600000  0.02098000  1.0 -0.1103620869
C  C140  1  0.86560000  0.31537000  0.98936000  1.0 -0.0986500551
C  C141  1  0.89260000  0.25016000  0.97124000  1.0 -0.0279350522
C  C142  1  0.85560000  0.18569000  0.98558000  1.0 -0.1103620869
C  C143  1  0.79300000  0.18661000  0.01716000  1.0 -0.1202762435
C  C144  1  0.96010000  0.24936000  0.93647000  1.0 0.5754459993
C  C145  1  0.59190000  0.48620000  0.15239000  1.0 0.0835348972
C  C146  1  0.59090000  0.56073000  0.15048000  1.0 -0.2086492743
C  C147  1  0.57390000  0.59558000  0.11108000  1.0 0.137409945
C  C148  1  0.55980000  0.55142000  0.07573000  1.0 -0.1871133382
C  C149  1  0.56220000  0.47646000  0.08059000  1.0 0.090522136
C  C150  1  0.57200000  0.67570000  0.10921000  1.0 0.0032092209
C  C151  1  0.51620000  0.71523000  0.08122000  1.0 0.1259344117
C  C152  1  0.51480000  0.79377000  0.08200000  1.0 0.121637058
C  C153  1  0.57100000  0.83333000  0.10969000  1.0 0.0032092209
C  C154  1  0.62520000  0.79256000  0.13494000  1.0 -0.1284627971
C  C155  1  0.62510000  0.71624000  0.13466000  1.0 -0.1284627971
C  C156  1  0.57230000  0.91334000  0.11254000  1.0 0.137409945
C  C157  1  0.64940000  0.95130000  0.11952000  1.0 -0.2043074174
C  C158  1  0.64750000  0.02530000  0.12473000  1.0 0.0835348972
C  C159  1  0.50130000  0.02874000  0.11733000  1.0 0.090522136
C  C160  1  0.49710000  0.95447000  0.11110000  1.0 -0.1809372725
C  C161  1  0.18300000  0.24243000  0.81216000  1.0 0.5693525196
C  C162  1  0.24860000  0.24177000  0.77610000  1.0 -0.0279350522
C  C163  1  0.27980000  0.30690000  0.75916000  1.0 -0.1202762435
C  C164  1  0.34290000  0.30677000  0.72766000  1.0 -0.0986500551
C  C165  1  0.37622000  0.24146000  0.71229000  1.0 -0.0219636399
C  C166  1  0.34390000  0.17647000  0.72856000  1.0 -0.0986500551
C  C167  1  0.28070000  0.17663000  0.76012000  1.0 -0.1103620869
C  C168  1  0.44770000  0.24120000  0.67961000  1.0 0.5877473028
C  C169  1  0.19760000  0.24750000  0.93070000  1.0 0.5693525196
C  C170  1  0.26620000  0.24826000  0.96484000  1.0 -0.0399247595
C  C171  1  0.30270000  0.18400000  0.97902000  1.0 -0.1103620869
C  C172  1  0.36560000  0.18463000  0.01064000  1.0 -0.0986500551
C  C173  1  0.39260000  0.24984000  0.02876000  1.0 -0.0279350522
C  C174  1  0.35560000  0.31431000  0.01442000  1.0 -0.1103620869
C  C175  1  0.29300000  0.31339000  0.98284000  1.0 -0.1202762435
C  C176  1  0.46010000  0.25064000  0.06353000  1.0 0.5754459993
C  C177  1  0.09190000  0.01380000  0.84761000  1.0 0.0835348972
C  C178  1  0.09090000  0.93927000  0.84952000  1.0 -0.2086492743
C  C179  1  0.07390000  0.90442000  0.88892000  1.0 0.137409945
C  C180  1  0.05980000  0.94858000  0.92427000  1.0 -0.1871133382
C  C181  1  0.06220000  0.02354000  0.91941000  1.0 0.090522136
C  C182  1  0.07200000  0.82430000  0.89079000  1.0 0.0032092209
C  C183  1  0.01620000  0.78477000  0.91878000  1.0 0.1259344117
C  C184  1  0.01480000  0.70623000  0.91800000  1.0 0.121637058
C  C185  1  0.07100000  0.66666667  0.89031000  1.0 0.0032092209
C  C186  1  0.12520000  0.70744000  0.86506000  1.0 -0.1284627971
C  C187  1  0.12510000  0.78376000  0.86534000  1.0 -0.1284627971
C  C188  1  0.07230000  0.58666000  0.88746000  1.0 0.137409945
C  C189  1  0.14940000  0.54870000  0.88048000  1.0 -0.2043074174
C  C190  1  0.14750000  0.47470000  0.87527000  1.0 0.0835348972
C  C191  1  0.00130000  0.47126000  0.88267000  1.0 0.090522136
C  C192  1  0.99710000  0.54553000  0.88890000  1.0 -0.1809372725
C  C193  1  0.18300000  0.25757000  0.31216000  1.0 0.5693525196
C  C194  1  0.24860000  0.25823000  0.27610000  1.0 -0.0279350522
C  C195  1  0.27980000  0.19310000  0.25916000  1.0 -0.1202762435
C  C196  1  0.34290000  0.19323000  0.22766000  1.0 -0.0986500551
C  C197  1  0.37622000  0.25854000  0.21229000  1.0 -0.0219636399
C  C198  1  0.34390000  0.32353000  0.22856000  1.0 -0.0986500551
C  C199  1  0.28070000  0.32337000  0.26012000  1.0 -0.1103620869
C  C200  1  0.44770000  0.25880000  0.17961000  1.0 0.5877473028
C  C201  1  0.19760000  0.25250000  0.43070000  1.0 0.5693525196
C  C202  1  0.26620000  0.25174000  0.46484000  1.0 -0.0399247595
C  C203  1  0.30270000  0.31600000  0.47902000  1.0 -0.1103620869
C  C204  1  0.36560000  0.31537000  0.51064000  1.0 -0.0986500551
C  C205  1  0.39260000  0.25016000  0.52876000  1.0 -0.0279350522
C  C206  1  0.35560000  0.18569000  0.51442000  1.0 -0.0986500551
C  C207  1  0.29300000  0.18661000  0.48284000  1.0 -0.1202762435
C  C208  1  0.46010000  0.24936000  0.56353000  1.0 0.5754459993
C  C209  1  0.09190000  0.48620000  0.34761000  1.0 0.0835348972
C  C210  1  0.09090000  0.56073000  0.34952000  1.0 -0.2086492743
C  C211  1  0.07390000  0.59558000  0.38892000  1.0 0.137409945
C  C212  1  0.05980000  0.55142000  0.42427000  1.0 -0.1871133382
C  C213  1  0.06220000  0.47646000  0.41941000  1.0 0.090522136
C  C214  1  0.07200000  0.67570000  0.39079000  1.0 0.0032092209
C  C215  1  0.01620000  0.71523000  0.41878000  1.0 0.1259344117
C  C216  1  0.01480000  0.79377000  0.41800000  1.0 0.121637058
C  C217  1  0.07100000  0.83333000  0.39031000  1.0 0.0032092209
C  C218  1  0.12520000  0.79256000  0.36506000  1.0 -0.1284627971
C  C219  1  0.12510000  0.71624000  0.36534000  1.0 -0.1284627971
C  C220  1  0.07230000  0.91334000  0.38746000  1.0 0.137409945
C  C221  1  0.14940000  0.95130000  0.38048000  1.0 -0.2043074174
C  C222  1  0.14750000  0.02530000  0.37527000  1.0 0.0835348972
C  C223  1  0.00130000  0.02874000  0.38267000  1.0 0.090522136
C  C224  1  0.99710000  0.95447000  0.38890000  1.0 -0.1809372725
C  C225  1  0.68300000  0.24243000  0.68784000  1.0 0.5693525196
C  C226  1  0.74860000  0.24177000  0.72390000  1.0 -0.0279350522
C  C227  1  0.77980000  0.30690000  0.74084000  1.0 -0.1202762435
C  C228  1  0.84290000  0.30677000  0.77234000  1.0 -0.0986500551
C  C229  1  0.87622000  0.24146000  0.78771000  1.0 -0.0219636399
C  C230  1  0.84390000  0.17647000  0.77144000  1.0 -0.0986500551
C  C231  1  0.78070000  0.17663000  0.73988000  1.0 -0.1103620869
C  C232  1  0.94770000  0.24120000  0.82039000  1.0 0.5877473028
C  C233  1  0.69760000  0.24750000  0.56930000  1.0 0.5693525196
C  C234  1  0.76620000  0.24826000  0.53516000  1.0 -0.0399247595
C  C235  1  0.80270000  0.18400000  0.52098000  1.0 -0.1103620869
C  C236  1  0.86560000  0.18463000  0.48936000  1.0 -0.0986500551
C  C237  1  0.89260000  0.24984000  0.47124000  1.0 -0.0279350522
C  C238  1  0.85560000  0.31431000  0.48558000  1.0 -0.1103620869
C  C239  1  0.79300000  0.31339000  0.51716000  1.0 -0.1202762435
C  C240  1  0.96010000  0.25064000  0.43647000  1.0 0.5754459993
C  C241  1  0.59190000  0.01380000  0.65239000  1.0 0.0835348972
C  C242  1  0.59090000  0.93927000  0.65048000  1.0 -0.2086492743
C  C243  1  0.57390000  0.90442000  0.61108000  1.0 0.137409945
C  C244  1  0.55980000  0.94858000  0.57573000  1.0 -0.1871133382
C  C245  1  0.56220000  0.02354000  0.58059000  1.0 0.090522136
C  C246  1  0.57200000  0.82430000  0.60921000  1.0 0.0032092209
C  C247  1  0.51620000  0.78477000  0.58122000  1.0 0.1259344117
C  C248  1  0.51480000  0.70623000  0.58200000  1.0 0.121637058
C  C249  1  0.57100000  0.66666667  0.60969000  1.0 0.0032092209
C  C250  1  0.62520000  0.70744000  0.63494000  1.0 -0.1284627971
C  C251  1  0.62510000  0.78376000  0.63466000  1.0 -0.1284627971
C  C252  1  0.57230000  0.58666000  0.61254000  1.0 0.137409945
C  C253  1  0.64940000  0.54870000  0.61952000  1.0 -0.2043074174
C  C254  1  0.64750000  0.47470000  0.62473000  1.0 0.0835348972
C  C255  1  0.50130000  0.47126000  0.61733000  1.0 0.090522136
C  C256  1  0.49710000  0.54553000  0.61110000  1.0 -0.1809372725
S  S1  1  0.08630000  0.24523000  0.52929000  1.0 0.4123129816
S  S2  1  0.58630000  0.25477000  0.47071000  1.0 0.4123129816
S  S3  1  0.58630000  0.24523000  0.97071000  1.0 0.4123129816
S  S4  1  0.08630000  0.25477000  0.02929000  1.0 0.4123129816
S  S5  1  0.41370000  0.75477000  0.02929000  1.0 0.4123129816
S  S6  1  0.91370000  0.74523000  0.97071000  1.0 0.4123129816
S  S7  1  0.91370000  0.75477000  0.47071000  1.0 0.4123129816
S  S8  1  0.41370000  0.74523000  0.52929000  1.0 0.4123129816
N  N1  1  0.92311000  0.55611000  0.61832000  1.0 -0.2086492743
N  N2  1  0.92482000  0.93572000  0.62372000  1.0 -0.2086492743
N  N3  1  0.03937000  0.31310000  0.55220000  1.0 -0.3704104266
N  N4  1  0.04189000  0.17750000  0.55369000  1.0 -0.3704104266
N  N5  1  0.42311000  0.94389000  0.38168000  1.0 -0.2086492743
N  N6  1  0.42482000  0.56428000  0.37628000  1.0 -0.2086492743
N  N7  1  0.53937000  0.18690000  0.44780000  1.0 -0.3704104266
N  N8  1  0.54189000  0.32250000  0.44631000  1.0 -0.3704104266
N  N9  1  0.42311000  0.55611000  0.88168000  1.0 -0.2086492743
N  N10  1  0.42482000  0.93572000  0.87628000  1.0 -0.2086492743
N  N11  1  0.53937000  0.31310000  0.94780000  1.0 -0.3704104266
N  N12  1  0.54189000  0.17750000  0.94631000  1.0 -0.3704104266
N  N13  1  0.92311000  0.94389000  0.11832000  1.0 -0.2086492743
N  N14  1  0.92482000  0.56428000  0.12372000  1.0 -0.2086492743
N  N15  1  0.03937000  0.18690000  0.05220000  1.0 -0.3704104266
N  N16  1  0.04189000  0.32250000  0.05369000  1.0 -0.3704104266
N  N17  1  0.57689000  0.44389000  0.11832000  1.0 -0.2086492743
N  N18  1  0.57518000  0.06428000  0.12372000  1.0 -0.2086492743
N  N19  1  0.46063000  0.68690000  0.05220000  1.0 -0.3704104266
N  N20  1  0.45811000  0.82250000  0.05369000  1.0 -0.3704104266
N  N21  1  0.07689000  0.05611000  0.88168000  1.0 -0.2086492743
N  N22  1  0.07518000  0.43572000  0.87628000  1.0 -0.2086492743
N  N23  1  0.96063000  0.81310000  0.94780000  1.0 -0.3704104266
N  N24  1  0.95811000  0.67750000  0.94631000  1.0 -0.3704104266
N  N25  1  0.07689000  0.44389000  0.38168000  1.0 -0.2086492743
N  N26  1  0.07518000  0.06428000  0.37628000  1.0 -0.2086492743
N  N27  1  0.96063000  0.68690000  0.44780000  1.0 -0.3704104266
N  N28  1  0.95811000  0.82250000  0.44631000  1.0 -0.3704104266
N  N29  1  0.57689000  0.05611000  0.61832000  1.0 -0.2086492743
N  N30  1  0.57518000  0.43572000  0.62372000  1.0 -0.2086492743
N  N31  1  0.46063000  0.81310000  0.55220000  1.0 -0.3704104266
N  N32  1  0.45811000  0.67750000  0.55369000  1.0 -0.3704104266
O  O1  1  0.84379000  0.68216000  0.67487000  1.0 -0.5393146901
O  O2  1  0.83759000  0.80332000  0.67289000  1.0 -0.5393146901
O  O3  1  0.52729000  0.68091000  0.83387000  1.0 -0.5300671561
O  O4  1  0.52161000  0.80223000  0.83034000  1.0 -0.5393146901
O  O5  1  0.82642000  0.68681000  0.58324000  1.0 -0.5393146901
O  O6  1  0.83222000  0.80766000  0.58122000  1.0 -0.5393146901
O  O7  1  0.51699000  0.69012000  0.42195000  1.0 -0.5393146901
O  O8  1  0.51038000  0.81126000  0.42560000  1.0 -0.5393146901
O  O9  1  0.34379000  0.81784000  0.32513000  1.0 -0.5393146901
O  O10  1  0.33759000  0.69668000  0.32711000  1.0 -0.5393146901
O  O11  1  0.02729000  0.81909000  0.16613000  1.0 -0.5300671561
O  O12  1  0.02161000  0.69777000  0.16966000  1.0 -0.5393146901
O  O13  1  0.32642000  0.81319000  0.41676000  1.0 -0.5393146901
O  O14  1  0.33222000  0.69234000  0.41878000  1.0 -0.5393146901
O  O15  1  0.01699000  0.80988000  0.57805000  1.0 -0.5393146901
O  O16  1  0.01038000  0.68874000  0.57440000  1.0 -0.5393146901
O  O17  1  0.34379000  0.68216000  0.82513000  1.0 -0.5393146901
O  O18  1  0.33759000  0.80332000  0.82711000  1.0 -0.5393146901
O  O19  1  0.02729000  0.68091000  0.66613000  1.0 -0.5300671561
O  O20  1  0.02161000  0.80223000  0.66966000  1.0 -0.5393146901
O  O21  1  0.32642000  0.68681000  0.91676000  1.0 -0.5393146901
O  O22  1  0.33222000  0.80766000  0.91878000  1.0 -0.5393146901
O  O23  1  0.01699000  0.69012000  0.07805000  1.0 -0.5393146901
O  O24  1  0.01038000  0.81126000  0.07440000  1.0 -0.5393146901
O  O25  1  0.84379000  0.81784000  0.17487000  1.0 -0.5393146901
O  O26  1  0.83759000  0.69668000  0.17289000  1.0 -0.5393146901
O  O27  1  0.52729000  0.81909000  0.33387000  1.0 -0.5300671561
O  O28  1  0.52161000  0.69777000  0.33034000  1.0 -0.5393146901
O  O29  1  0.82642000  0.81319000  0.08324000  1.0 -0.5393146901
O  O30  1  0.83222000  0.69234000  0.08122000  1.0 -0.5393146901
O  O31  1  0.51699000  0.80988000  0.92195000  1.0 -0.5393146901
O  O32  1  0.51038000  0.68874000  0.92560000  1.0 -0.5393146901
O  O33  1  0.65621000  0.31784000  0.17487000  1.0 -0.5393146901
O  O34  1  0.66241000  0.19668000  0.17289000  1.0 -0.5393146901
O  O35  1  0.97271000  0.31909000  0.33387000  1.0 -0.5300671561
O  O36  1  0.97839000  0.19777000  0.33034000  1.0 -0.5393146901
O  O37  1  0.67358000  0.31319000  0.08324000  1.0 -0.5393146901
O  O38  1  0.66778000  0.19234000  0.08122000  1.0 -0.5393146901
O  O39  1  0.98301000  0.30988000  0.92195000  1.0 -0.5393146901
O  O40  1  0.98962000  0.18874000  0.92560000  1.0 -0.5393146901
O  O41  1  0.15621000  0.18216000  0.82513000  1.0 -0.5393146901
O  O42  1  0.16241000  0.30332000  0.82711000  1.0 -0.5393146901
O  O43  1  0.47271000  0.18091000  0.66613000  1.0 -0.5300671561
O  O44  1  0.47839000  0.30223000  0.66966000  1.0 -0.5393146901
O  O45  1  0.17358000  0.18681000  0.91676000  1.0 -0.5393146901
O  O46  1  0.16778000  0.30766000  0.91878000  1.0 -0.5393146901
O  O47  1  0.48301000  0.19012000  0.07805000  1.0 -0.5393146901
O  O48  1  0.48962000  0.31126000  0.07440000  1.0 -0.5393146901
O  O49  1  0.15621000  0.31784000  0.32513000  1.0 -0.5393146901
O  O50  1  0.16241000  0.19668000  0.32711000  1.0 -0.5393146901
O  O51  1  0.47271000  0.31909000  0.16613000  1.0 -0.5300671561
O  O52  1  0.47839000  0.19777000  0.16966000  1.0 -0.5393146901
O  O53  1  0.17358000  0.31319000  0.41676000  1.0 -0.5393146901
O  O54  1  0.16778000  0.19234000  0.41878000  1.0 -0.5393146901
O  O55  1  0.48301000  0.30988000  0.57805000  1.0 -0.5393146901
O  O56  1  0.48962000  0.18874000  0.57440000  1.0 -0.5393146901
O  O57  1  0.65621000  0.18216000  0.67487000  1.0 -0.5393146901
O  O58  1  0.66241000  0.30332000  0.67289000  1.0 -0.5393146901
O  O59  1  0.97271000  0.18091000  0.83387000  1.0 -0.5300671561
O  O60  1  0.97839000  0.30223000  0.83034000  1.0 -0.5393146901
O  O61  1  0.67358000  0.18681000  0.58324000  1.0 -0.5393146901
O  O62  1  0.66778000  0.30766000  0.58122000  1.0 -0.5393146901
O  O63  1  0.98301000  0.19012000  0.42195000  1.0 -0.5393146901
O  O64  1  0.98962000  0.31126000  0.42560000  1.0 -0.5393146901
