# DDEC6 charges by PACMAN v1.1 (https://github.com/mtap-research/PACMAN-charge/)
data_UWUKII_ASR_pacman
_symmetry_space_group_name_H-M   'P 1'
_cell_length_a   16.03320000
_cell_length_b   20.89350000
_cell_length_c   28.16940000
_cell_angle_alpha   90.00000000
_cell_angle_beta   90.00000000
_cell_angle_gamma   90.00000000
_symmetry_Int_Tables_number   1
_chemical_formula_structural   Co4H23C48(N3O5)4
_chemical_formula_sum   'Co16 H92 C192 N48 O80'
_cell_volume   9436.45784672
_cell_formula_units_Z   4
loop_
 _symmetry_equiv_pos_site_id
 _symmetry_equiv_pos_as_xyz
  1  'x, y, z'
loop_
 _atom_site_type_symbol
 _atom_site_label
 _atom_site_symmetry_multiplicity
 _atom_site_fract_x
 _atom_site_fract_y
 _atom_site_fract_z
 _atom_site_occupancy
 _atom_site_charge
Co  Co1  1  0.24881000  0.84315000  0.83513000  1.0 0.8484550149
Co  Co2  1  0.75119000  0.15685000  0.33513000  1.0 0.8484550149
Co  Co3  1  0.74881000  0.65685000  0.33513000  1.0 0.8484550149
Co  Co4  1  0.25119000  0.34315000  0.83513000  1.0 0.8484550149
Co  Co5  1  0.37802000  0.27677000  0.92494000  1.0 1.007815662
Co  Co6  1  0.62198000  0.72323000  0.42494000  1.0 1.007815662
Co  Co7  1  0.87802000  0.22323000  0.42494000  1.0 1.007815662
Co  Co8  1  0.12198000  0.77677000  0.92494000  1.0 1.007815662
Co  Co9  1  0.87824000  0.45832000  0.86409000  1.0 1.0156940848
Co  Co10  1  0.12176000  0.54168000  0.36409000  1.0 1.0156940848
Co  Co11  1  0.37824000  0.04168000  0.36409000  1.0 1.0156940848
Co  Co12  1  0.62176000  0.95832000  0.86409000  1.0 1.0156940848
Co  Co13  1  0.75059000  0.39153000  0.95422000  1.0 0.8822308212
Co  Co14  1  0.24941000  0.60847000  0.45422000  1.0 0.8822308212
Co  Co15  1  0.25059000  0.10847000  0.45422000  1.0 0.8822308212
Co  Co16  1  0.74941000  0.89153000  0.95422000  1.0 0.8822308212
H  H1  1  0.43810000  0.86840000  0.80900000  1.0 0.2891164378
H  H2  1  0.56190000  0.13160000  0.30900000  1.0 0.2891164378
H  H3  1  0.93810000  0.63160000  0.30900000  1.0 0.2891164378
H  H4  1  0.06190000  0.36840000  0.80900000  1.0 0.2891164378
H  H5  1  0.55170000  0.79910000  0.80370000  1.0 0.1510103015
H  H6  1  0.44830000  0.20090000  0.30370000  1.0 0.1510103015
H  H7  1  0.05170000  0.70090000  0.30370000  1.0 0.1510103015
H  H8  1  0.94830000  0.29910000  0.80370000  1.0 0.1510103015
H  H9  1  0.40440000  0.51260000  0.84350000  1.0 0.1320638579
H  H10  1  0.59560000  0.48740000  0.34350000  1.0 0.1320638579
H  H11  1  0.90440000  0.98740000  0.34350000  1.0 0.1320638579
H  H12  1  0.09560000  0.01260000  0.84350000  1.0 0.1320638579
H  H13  1  0.64320000  0.57570000  0.83470000  1.0 0.1510103015
H  H14  1  0.35680000  0.42430000  0.33470000  1.0 0.1510103015
H  H15  1  0.14320000  0.92430000  0.33470000  1.0 0.1510103015
H  H16  1  0.85680000  0.07570000  0.83470000  1.0 0.1510103015
H  H17  1  0.59100000  0.39300000  0.87330000  1.0 0.1320638579
H  H18  1  0.40900000  0.60700000  0.37330000  1.0 0.1320638579
H  H19  1  0.09100000  0.10700000  0.37330000  1.0 0.1320638579
H  H20  1  0.90900000  0.89300000  0.87330000  1.0 0.1320638579
H  H21  1  0.08870000  0.52520000  0.71410000  1.0 0.1398439587
H  H22  1  0.91130000  0.47480000  0.21410000  1.0 0.1398439587
H  H23  1  0.58870000  0.97480000  0.21410000  1.0 0.1398439587
H  H24  1  0.41130000  0.02520000  0.71410000  1.0 0.1398439587
H  H25  1  0.05580000  0.60930000  0.84160000  1.0 0.1398439587
H  H26  1  0.94420000  0.39070000  0.34160000  1.0 0.1398439587
H  H27  1  0.55580000  0.89070000  0.34160000  1.0 0.1398439587
H  H28  1  0.44420000  0.10930000  0.84160000  1.0 0.1398439587
H  H29  1  0.17970000  0.70300000  0.73780000  1.0 0.1320638579
H  H30  1  0.82030000  0.29700000  0.23780000  1.0 0.1320638579
H  H31  1  0.67970000  0.79700000  0.23780000  1.0 0.1320638579
H  H32  1  0.32030000  0.20300000  0.73780000  1.0 0.1320638579
H  H33  1  0.16990000  0.59580000  0.56580000  1.0 0.1398439587
H  H34  1  0.83010000  0.40420000  0.06580000  1.0 0.1398439587
H  H35  1  0.66990000  0.90420000  0.06580000  1.0 0.1398439587
H  H36  1  0.33010000  0.09580000  0.56580000  1.0 0.1398439587
H  H37  1  0.37350000  0.69340000  0.60760000  1.0 0.1320638579
H  H38  1  0.62650000  0.30660000  0.10760000  1.0 0.1320638579
H  H39  1  0.87350000  0.80660000  0.10760000  1.0 0.1320638579
H  H40  1  0.12650000  0.19340000  0.60760000  1.0 0.1320638579
H  H41  1  0.40300000  0.84490000  0.91780000  1.0 0.1320638579
H  H42  1  0.59700000  0.15510000  0.41780000  1.0 0.1320638579
H  H43  1  0.90300000  0.65510000  0.41780000  1.0 0.1320638579
H  H44  1  0.09700000  0.34490000  0.91780000  1.0 0.1320638579
H  H45  1  0.36050000  0.66360000  0.95890000  1.0 0.1510103015
H  H46  1  0.63950000  0.33640000  0.45890000  1.0 0.1510103015
H  H47  1  0.86050000  0.83640000  0.45890000  1.0 0.1510103015
H  H48  1  0.13950000  0.16360000  0.95890000  1.0 0.1510103015
H  H49  1  0.36180000  0.69150000  0.52510000  1.0 0.2891164378
H  H50  1  0.63820000  0.30850000  0.02510000  1.0 0.2891164378
H  H51  1  0.86180000  0.80850000  0.02510000  1.0 0.2891164378
H  H52  1  0.13820000  0.19150000  0.52510000  1.0 0.2891164378
H  H53  1  0.59460000  0.72570000  0.95280000  1.0 0.1510103015
H  H54  1  0.40540000  0.27430000  0.45280000  1.0 0.1510103015
H  H55  1  0.09460000  0.77430000  0.45280000  1.0 0.1510103015
H  H56  1  0.90540000  0.22570000  0.95280000  1.0 0.1510103015
H  H57  1  0.43850000  0.43780000  0.97290000  1.0 0.1510103015
H  H58  1  0.56150000  0.56220000  0.47290000  1.0 0.1510103015
H  H59  1  0.93850000  0.06220000  0.47290000  1.0 0.1510103015
H  H60  1  0.06150000  0.93780000  0.97290000  1.0 0.1510103015
H  H61  1  0.65740000  0.53250000  0.97030000  1.0 0.1320638579
H  H62  1  0.34260000  0.46750000  0.47030000  1.0 0.1320638579
H  H63  1  0.15740000  0.96750000  0.47030000  1.0 0.1320638579
H  H64  1  0.84260000  0.03250000  0.97030000  1.0 0.1320638579
H  H65  1  0.55800000  0.36750000  0.97400000  1.0 0.2891164378
H  H66  1  0.44200000  0.63250000  0.47400000  1.0 0.2891164378
H  H67  1  0.05800000  0.13250000  0.47400000  1.0 0.2891164378
H  H68  1  0.94200000  0.86750000  0.97400000  1.0 0.2891164378
H  H69  1  0.94890000  0.62130000  0.95000000  1.0 0.1398439587
H  H70  1  0.05110000  0.37870000  0.45000000  1.0 0.1398439587
H  H71  1  0.44890000  0.87870000  0.45000000  1.0 0.1398439587
H  H72  1  0.55110000  0.12130000  0.95000000  1.0 0.1398439587
H  H73  1  0.82060000  0.52910000  0.05080000  1.0 0.1510103015
H  H74  1  0.17940000  0.47090000  0.55080000  1.0 0.1510103015
H  H75  1  0.32060000  0.97090000  0.55080000  1.0 0.1510103015
H  H76  1  0.67940000  0.02910000  0.05080000  1.0 0.1510103015
H  H77  1  0.92680000  0.70250000  0.07660000  1.0 0.1213587851
H  H78  1  0.07320000  0.29750000  0.57660000  1.0 0.1213587851
H  H79  1  0.42680000  0.79750000  0.57660000  1.0 0.1213587851
H  H80  1  0.57320000  0.20250000  0.07660000  1.0 0.1213587851
H  H81  1  0.69830000  0.49570000  0.20750000  1.0 0.1398439587
H  H82  1  0.30170000  0.50430000  0.70750000  1.0 0.1398439587
H  H83  1  0.19830000  0.00430000  0.70750000  1.0 0.1398439587
H  H84  1  0.80170000  0.99570000  0.20750000  1.0 0.1398439587
H  H85  1  0.82190000  0.65920000  0.22170000  1.0 0.1320638579
H  H86  1  0.17810000  0.34080000  0.72170000  1.0 0.1320638579
H  H87  1  0.32190000  0.84080000  0.72170000  1.0 0.1320638579
H  H88  1  0.67810000  0.15920000  0.22170000  1.0 0.1320638579
H  H89  1  0.67820000  0.54570000  0.27930000  1.0 0.2891164378
H  H90  1  0.32180000  0.45430000  0.77930000  1.0 0.2891164378
H  H91  1  0.17820000  0.95430000  0.77930000  1.0 0.2891164378
H  H92  1  0.82180000  0.04570000  0.27930000  1.0 0.2891164378
C  C1  1  0.38450000  0.73390000  0.81910000  1.0 0.1398439587
C  C2  1  0.61550000  0.26610000  0.31910000  1.0 0.1398439587
C  C3  1  0.88450000  0.76610000  0.31910000  1.0 0.1398439587
C  C4  1  0.11550000  0.23390000  0.81910000  1.0 0.1320638579
C  C5  1  0.46980000  0.72890000  0.81460000  1.0 -0.0990798465
C  C6  1  0.53020000  0.27110000  0.31460000  1.0 -0.0990798465
C  C7  1  0.96980000  0.77110000  0.31460000  1.0 -0.0990798465
C  C8  1  0.03020000  0.22890000  0.81460000  1.0 -0.0900224082
C  C9  1  0.49640000  0.78750000  0.80870000  1.0 -0.0047373155
C  C10  1  0.50360000  0.21250000  0.30870000  1.0 -0.0047373155
C  C11  1  0.99640000  0.71250000  0.30870000  1.0 -0.0047373155
C  C12  1  0.00360000  0.28750000  0.80870000  1.0 -0.0047373155
C  C13  1  0.52630000  0.67150000  0.82270000  1.0 0.487765494
C  C14  1  0.47370000  0.32850000  0.32270000  1.0 0.487765494
C  C15  1  0.02630000  0.82850000  0.32270000  1.0 0.487765494
C  C16  1  0.97370000  0.17150000  0.82270000  1.0 0.487765494
C  C17  1  0.52120000  0.55550000  0.83630000  1.0 0.2414895028
C  C18  1  0.47880000  0.44450000  0.33630000  1.0 0.2414895028
C  C19  1  0.02120000  0.94450000  0.33630000  1.0 0.2414895028
C  C20  1  0.97880000  0.05550000  0.83630000  1.0 0.2414895028
C  C21  1  0.46140000  0.50490000  0.84560000  1.0 -0.13963153
C  C22  1  0.53860000  0.49510000  0.34560000  1.0 -0.13963153
C  C23  1  0.96140000  0.99510000  0.34560000  1.0 -0.13963153
C  C24  1  0.03860000  0.00490000  0.84560000  1.0 -0.13963153
C  C25  1  0.60460000  0.54370000  0.84140000  1.0 -0.1516324698
C  C26  1  0.39540000  0.45630000  0.34140000  1.0 -0.1516324698
C  C27  1  0.10460000  0.95630000  0.34140000  1.0 -0.1516324698
C  C28  1  0.89540000  0.04370000  0.84140000  1.0 -0.1516324698
C  C29  1  0.49130000  0.44420000  0.85780000  1.0 -0.0098877792
C  C30  1  0.50870000  0.55580000  0.35780000  1.0 -0.0098877792
C  C31  1  0.99130000  0.05580000  0.35780000  1.0 -0.0098877792
C  C32  1  0.00870000  0.94420000  0.85780000  1.0 -0.0098877792
C  C33  1  0.63190000  0.48370000  0.85650000  1.0 0.008192785
C  C34  1  0.36810000  0.51630000  0.35650000  1.0 0.008192785
C  C35  1  0.13190000  0.01630000  0.35650000  1.0 0.008192785
C  C36  1  0.86810000  0.98370000  0.85650000  1.0 0.008192785
C  C37  1  0.57270000  0.43330000  0.86400000  1.0 -0.1193992771
C  C38  1  0.42730000  0.56670000  0.36400000  1.0 -0.1193992771
C  C39  1  0.07270000  0.06670000  0.36400000  1.0 -0.1193992771
C  C40  1  0.92730000  0.93330000  0.86400000  1.0 -0.1193992771
C  C41  1  0.42760000  0.39050000  0.86690000  1.0 0.6066232056
C  C42  1  0.57240000  0.60950000  0.36690000  1.0 0.6066232056
C  C43  1  0.92760000  0.10950000  0.36690000  1.0 0.6066232056
C  C44  1  0.07240000  0.89050000  0.86690000  1.0 0.6066232056
C  C45  1  0.72310000  0.47200000  0.86050000  1.0 0.5684984356
C  C46  1  0.27690000  0.52800000  0.36050000  1.0 0.5684984356
C  C47  1  0.22310000  0.02800000  0.36050000  1.0 0.5684984356
C  C48  1  0.77690000  0.97200000  0.86050000  1.0 0.5684984356
C  C49  1  0.01350000  0.50280000  0.79640000  1.0 0.5626901717
C  C50  1  0.98650000  0.49720000  0.29640000  1.0 0.5626901717
C  C51  1  0.51350000  0.99720000  0.29640000  1.0 0.5626901717
C  C52  1  0.48650000  0.00280000  0.79640000  1.0 0.5626901717
C  C53  1  0.06040000  0.55970000  0.77870000  1.0 -0.0098877792
C  C54  1  0.93960000  0.44030000  0.27870000  1.0 -0.0098877792
C  C55  1  0.56040000  0.94030000  0.27870000  1.0 -0.0098877792
C  C56  1  0.43960000  0.05970000  0.77870000  1.0 -0.0098877792
C  C57  1  0.09530000  0.56040000  0.73390000  1.0 -0.1634141586
C  C58  1  0.90470000  0.43960000  0.23390000  1.0 -0.1634141586
C  C59  1  0.59530000  0.93960000  0.23390000  1.0 -0.1634141586
C  C60  1  0.40470000  0.06040000  0.73390000  1.0 -0.1634141586
C  C61  1  0.07620000  0.61120000  0.81070000  1.0 -0.0900224082
C  C62  1  0.92380000  0.38880000  0.31070000  1.0 -0.0900224082
C  C63  1  0.57620000  0.88880000  0.31070000  1.0 -0.0900224082
C  C64  1  0.42380000  0.11120000  0.81070000  1.0 -0.0900224082
C  C65  1  0.13960000  0.61260000  0.71820000  1.0 0.2197548535
C  C66  1  0.86040000  0.38740000  0.21820000  1.0 0.2197548535
C  C67  1  0.63960000  0.88740000  0.21820000  1.0 0.2197548535
C  C68  1  0.36040000  0.11260000  0.71820000  1.0 0.2197548535
C  C69  1  0.12160000  0.66380000  0.79610000  1.0 -0.0098877792
C  C70  1  0.87840000  0.33620000  0.29610000  1.0 -0.0098877792
C  C71  1  0.62160000  0.83620000  0.29610000  1.0 -0.0098877792
C  C72  1  0.37840000  0.16380000  0.79610000  1.0 -0.0047373155
C  C73  1  0.15210000  0.66666667  0.74880000  1.0 -0.13963153
C  C74  1  0.84790000  0.33333333  0.24880000  1.0 -0.13963153
C  C75  1  0.65210000  0.83333000  0.24880000  1.0 -0.13963153
C  C76  1  0.34790000  0.16667000  0.74880000  1.0 -0.13963153
C  C77  1  0.14150000  0.72140000  0.82760000  1.0 0.5917906195
C  C78  1  0.85850000  0.27860000  0.32760000  1.0 0.5917906195
C  C79  1  0.64150000  0.77860000  0.32760000  1.0 0.5917906195
C  C80  1  0.35850000  0.22140000  0.82760000  1.0 0.5917906195
C  C81  1  0.24240000  0.63890000  0.65610000  1.0 0.4293659061
C  C82  1  0.75760000  0.36110000  0.15610000  1.0 0.4293659061
C  C83  1  0.74240000  0.86110000  0.15610000  1.0 0.4293659061
C  C84  1  0.25760000  0.13890000  0.65610000  1.0 0.4293659061
C  C85  1  0.27760000  0.76350000  0.93030000  1.0 0.5684984356
C  C86  1  0.72240000  0.23650000  0.43030000  1.0 0.5684984356
C  C87  1  0.77760000  0.73650000  0.43030000  1.0 0.5684984356
C  C88  1  0.22240000  0.26350000  0.93030000  1.0 0.5684984356
C  C89  1  0.26120000  0.64080000  0.60780000  1.0 -0.1193992771
C  C90  1  0.73880000  0.35920000  0.10780000  1.0 -0.1121028632
C  C91  1  0.76120000  0.85920000  0.10780000  1.0 -0.1193992771
C  C92  1  0.23880000  0.14080000  0.60780000  1.0 -0.1121028632
C  C93  1  0.36790000  0.75360000  0.93440000  1.0 -0.0222257888
C  C94  1  0.63210000  0.24640000  0.43440000  1.0 -0.0222257888
C  C95  1  0.86790000  0.74640000  0.43440000  1.0 -0.0222257888
C  C96  1  0.13210000  0.25360000  0.93440000  1.0 -0.0222257888
C  C97  1  0.21760000  0.62110000  0.56530000  1.0 0.0484965325
C  C98  1  0.78240000  0.37890000  0.06530000  1.0 0.0484965325
C  C99  1  0.71760000  0.87890000  0.06530000  1.0 0.0484965325
C  C100  1  0.28240000  0.12110000  0.56530000  1.0 0.0484965325
C  C101  1  0.33120000  0.67460000  0.58980000  1.0 0.0594371029
C  C102  1  0.66880000  0.32540000  0.08980000  1.0 0.0594371029
C  C103  1  0.83120000  0.82540000  0.08980000  1.0 0.0594371029
C  C104  1  0.16880000  0.17460000  0.58980000  1.0 0.0594371029
C  C105  1  0.42280000  0.80460000  0.92610000  1.0 -0.1121028632
C  C106  1  0.57720000  0.19540000  0.42610000  1.0 -0.1121028632
C  C107  1  0.92280000  0.69540000  0.42610000  1.0 -0.1121028632
C  C108  1  0.07720000  0.30460000  0.92610000  1.0 -0.1121028632
C  C109  1  0.39740000  0.69560000  0.94960000  1.0 -0.1193992771
C  C110  1  0.60260000  0.30440000  0.44960000  1.0 -0.1193992771
C  C111  1  0.89740000  0.80440000  0.44960000  1.0 -0.1193992771
C  C112  1  0.10260000  0.19560000  0.94960000  1.0 -0.1193992771
C  C113  1  0.50950000  0.79260000  0.93090000  1.0 0.008192785
C  C114  1  0.49050000  0.20740000  0.43090000  1.0 0.008192785
C  C115  1  0.00950000  0.70740000  0.43090000  1.0 0.008192785
C  C116  1  0.99050000  0.29260000  0.93090000  1.0 0.008192785
C  C117  1  0.48290000  0.68500000  0.95090000  1.0 0.2197548535
C  C118  1  0.51710000  0.31500000  0.45090000  1.0 0.2197548535
C  C119  1  0.98290000  0.81500000  0.45090000  1.0 0.2197548535
C  C120  1  0.01710000  0.18500000  0.95090000  1.0 0.2197548535
C  C121  1  0.53840000  0.73240000  0.94620000  1.0 -0.1634141586
C  C122  1  0.46160000  0.26760000  0.44620000  1.0 -0.1634141586
C  C123  1  0.03840000  0.76760000  0.44620000  1.0 -0.1634141586
C  C124  1  0.96160000  0.23240000  0.94620000  1.0 -0.1634141586
C  C125  1  0.57370000  0.84450000  0.92110000  1.0 0.5964572683
C  C126  1  0.42630000  0.15550000  0.42110000  1.0 0.5964572683
C  C127  1  0.07370000  0.65550000  0.42110000  1.0 0.5964572683
C  C128  1  0.92630000  0.34450000  0.92110000  1.0 0.5964572683
C  C129  1  0.47870000  0.56650000  0.97250000  1.0 0.4611198262
C  C130  1  0.52130000  0.43350000  0.47250000  1.0 0.4611198262
C  C131  1  0.97870000  0.93350000  0.47250000  1.0 0.4611198262
C  C132  1  0.02130000  0.06650000  0.97250000  1.0 0.4611198262
C  C133  1  0.53030000  0.51030000  0.97360000  1.0 -0.0990798465
C  C134  1  0.46970000  0.48970000  0.47360000  1.0 -0.0990798465
C  C135  1  0.03030000  0.98970000  0.47360000  1.0 -0.0990798465
C  C136  1  0.96970000  0.01030000  0.97360000  1.0 -0.0990798465
C  C137  1  0.49470000  0.44870000  0.97290000  1.0 0.008192785
C  C138  1  0.50530000  0.55130000  0.47290000  1.0 0.008192785
C  C139  1  0.99470000  0.05130000  0.47290000  1.0 0.008192785
C  C140  1  0.00530000  0.94870000  0.97290000  1.0 0.008192785
C  C141  1  0.61830000  0.49960000  0.97060000  1.0 0.0764624656
C  C142  1  0.38170000  0.50040000  0.47060000  1.0 0.0764624656
C  C143  1  0.11830000  0.00040000  0.47060000  1.0 0.0764624656
C  C144  1  0.88170000  0.99960000  0.97060000  1.0 0.0764624656
C  C145  1  0.86070000  0.51790000  0.96250000  1.0 0.6066232056
C  C146  1  0.13930000  0.48210000  0.46250000  1.0 0.6066232056
C  C147  1  0.36070000  0.98210000  0.46250000  1.0 0.6066232056
C  C148  1  0.63930000  0.01790000  0.96250000  1.0 0.6066232056
C  C149  1  0.88050000  0.56780000  0.99860000  1.0 -0.0098877792
C  C150  1  0.11950000  0.43220000  0.49860000  1.0 -0.0098877792
C  C151  1  0.38050000  0.93220000  0.49860000  1.0 -0.0098877792
C  C152  1  0.61950000  0.06780000  0.99860000  1.0 -0.0098877792
C  C153  1  0.92800000  0.62080000  0.98080000  1.0 -0.0900224082
C  C154  1  0.07200000  0.37920000  0.48080000  1.0 -0.0900224082
C  C155  1  0.42800000  0.87920000  0.48080000  1.0 -0.0900224082
C  C156  1  0.57200000  0.12080000  0.98080000  1.0 -0.0900224082
C  C157  1  0.85260000  0.56440000  0.04220000  1.0 -0.13963153
C  C158  1  0.14740000  0.43560000  0.54220000  1.0 -0.13963153
C  C159  1  0.35260000  0.93560000  0.54220000  1.0 -0.13963153
C  C160  1  0.64740000  0.06440000  0.04220000  1.0 -0.13963153
C  C161  1  0.94080000  0.66970000  0.01090000  1.0 -0.0222257888
C  C162  1  0.05920000  0.33030000  0.51090000  1.0 -0.0222257888
C  C163  1  0.44080000  0.83030000  0.51090000  1.0 -0.0222257888
C  C164  1  0.55920000  0.16970000  0.01090000  1.0 -0.0222257888
C  C165  1  0.86830000  0.61050000  0.07630000  1.0 0.280058156
C  C166  1  0.13170000  0.38950000  0.57630000  1.0 0.280058156
C  C167  1  0.36830000  0.88950000  0.57630000  1.0 0.280058156
C  C168  1  0.63170000  0.11050000  0.07630000  1.0 0.280058156
C  C169  1  0.91540000  0.66800000  0.05680000  1.0 -0.13963153
C  C170  1  0.08460000  0.33200000  0.55680000  1.0 -0.13963153
C  C171  1  0.41540000  0.83200000  0.55680000  1.0 -0.13963153
C  C172  1  0.58460000  0.16800000  0.05680000  1.0 -0.13963153
C  C173  1  0.99080000  0.72840000  0.99380000  1.0 0.5964572683
C  C174  1  0.00920000  0.27160000  0.49380000  1.0 0.5964572683
C  C175  1  0.49080000  0.77160000  0.49380000  1.0 0.5964572683
C  C176  1  0.50920000  0.22840000  0.99380000  1.0 0.5964572683
C  C177  1  0.79510000  0.56710000  0.14410000  1.0 0.4428318173
C  C178  1  0.20490000  0.43290000  0.64410000  1.0 0.4428318173
C  C179  1  0.29510000  0.93290000  0.64410000  1.0 0.4428318173
C  C180  1  0.70490000  0.06710000  0.14410000  1.0 0.4428318173
C  C181  1  0.76820000  0.57860000  0.19070000  1.0 -0.1674866348
C  C182  1  0.23180000  0.42140000  0.69070000  1.0 -0.1674866348
C  C183  1  0.26820000  0.92140000  0.69070000  1.0 -0.1674866348
C  C184  1  0.73180000  0.07860000  0.19070000  1.0 -0.1674866348
C  C185  1  0.71890000  0.53520000  0.21720000  1.0 0.0379138898
C  C186  1  0.28110000  0.46480000  0.71720000  1.0 0.0379138898
C  C187  1  0.21890000  0.96480000  0.71720000  1.0 0.0379138898
C  C188  1  0.78110000  0.03520000  0.21720000  1.0 0.0379138898
C  C189  1  0.78550000  0.62510000  0.22630000  1.0 0.0904783339
C  C190  1  0.21450000  0.37490000  0.72630000  1.0 0.0904783339
C  C191  1  0.28550000  0.87490000  0.72630000  1.0 0.0904783339
C  C192  1  0.71450000  0.12510000  0.22630000  1.0 0.0904783339
N  N1  1  0.36000000  0.79630000  0.81730000  1.0 -0.2286989211
N  N2  1  0.64000000  0.20370000  0.31730000  1.0 -0.2286989211
N  N3  1  0.86000000  0.70370000  0.31730000  1.0 -0.2286989211
N  N4  1  0.14000000  0.29630000  0.81730000  1.0 -0.2286989211
N  N5  1  0.24830000  0.88390000  0.76370000  1.0 -0.181404189
N  N6  1  0.75170000  0.11610000  0.26370000  1.0 -0.181404189
N  N7  1  0.74830000  0.61610000  0.26370000  1.0 -0.181404189
N  N8  1  0.25170000  0.38390000  0.76370000  1.0 -0.181404189
N  N9  1  0.43340000  0.82750000  0.81110000  1.0 -0.052676738
N  N10  1  0.56660000  0.17250000  0.31110000  1.0 -0.052676738
N  N11  1  0.93340000  0.67250000  0.31110000  1.0 -0.052676738
N  N12  1  0.06660000  0.32750000  0.81110000  1.0 -0.052676738
N  N13  1  0.48480000  0.61620000  0.82820000  1.0 -0.429110688
N  N14  1  0.51520000  0.38380000  0.32820000  1.0 -0.429110688
N  N15  1  0.98480000  0.88380000  0.32820000  1.0 -0.429110688
N  N16  1  0.01520000  0.11620000  0.82820000  1.0 -0.429110688
N  N17  1  0.17040000  0.61390000  0.67090000  1.0 -0.4143023088
N  N18  1  0.82960000  0.38610000  0.17090000  1.0 -0.4143023088
N  N19  1  0.67040000  0.88610000  0.17090000  1.0 -0.4143023088
N  N20  1  0.32960000  0.11390000  0.67090000  1.0 -0.4143023088
N  N21  1  0.25320000  0.64340000  0.52420000  1.0 -0.2286989211
N  N22  1  0.74680000  0.35660000  0.02420000  1.0 -0.2286989211
N  N23  1  0.75320000  0.85660000  0.02420000  1.0 -0.2286989211
N  N24  1  0.24680000  0.14340000  0.52420000  1.0 -0.2248849988
N  N25  1  0.32480000  0.67410000  0.54310000  1.0 -0.0839128932
N  N26  1  0.67520000  0.32590000  0.04310000  1.0 -0.0900224082
N  N27  1  0.82480000  0.82590000  0.04310000  1.0 -0.0839128932
N  N28  1  0.17520000  0.17410000  0.54310000  1.0 -0.0839128932
N  N29  1  0.51810000  0.62330000  0.96580000  1.0 -0.429110688
N  N30  1  0.48190000  0.37670000  0.46580000  1.0 -0.429110688
N  N31  1  0.01810000  0.87670000  0.46580000  1.0 -0.429110688
N  N32  1  0.98190000  0.12330000  0.96580000  1.0 -0.429110688
N  N33  1  0.56230000  0.40850000  0.97220000  1.0 -0.0839128932
N  N34  1  0.43770000  0.59150000  0.47220000  1.0 -0.0839128932
N  N35  1  0.06230000  0.09150000  0.47220000  1.0 -0.0839128932
N  N36  1  0.93770000  0.90850000  0.97220000  1.0 -0.0839128932
N  N37  1  0.63790000  0.43980000  0.96850000  1.0 -0.2286989211
N  N38  1  0.36210000  0.56020000  0.46850000  1.0 -0.2286989211
N  N39  1  0.13790000  0.06020000  0.46850000  1.0 -0.2286989211
N  N40  1  0.86210000  0.93980000  0.96850000  1.0 -0.2286989211
N  N41  1  0.84370000  0.61190000  0.12160000  1.0 -0.4183785662
N  N42  1  0.15630000  0.38810000  0.62160000  1.0 -0.4183785662
N  N43  1  0.34370000  0.88810000  0.62160000  1.0 -0.4183785662
N  N44  1  0.65630000  0.11190000  0.12160000  1.0 -0.4183785662
N  N45  1  0.70900000  0.56220000  0.25750000  1.0 -0.037676201
N  N46  1  0.29100000  0.43780000  0.75750000  1.0 -0.037676201
N  N47  1  0.20900000  0.93780000  0.75750000  1.0 -0.037676201
N  N48  1  0.79100000  0.06220000  0.25750000  1.0 -0.037676201
O  O1  1  0.14310000  0.89750000  0.84740000  1.0 -0.5803354725
O  O2  1  0.85690000  0.10250000  0.34740000  1.0 -0.5803354725
O  O3  1  0.64310000  0.60250000  0.34740000  1.0 -0.5803354725
O  O4  1  0.35690000  0.39750000  0.84740000  1.0 -0.5803354725
O  O5  1  0.18550000  0.76370000  0.81090000  1.0 -0.5295601338
O  O6  1  0.81450000  0.23630000  0.31090000  1.0 -0.5295601338
O  O7  1  0.68550000  0.73630000  0.31090000  1.0 -0.5295601338
O  O8  1  0.31450000  0.26370000  0.81090000  1.0 -0.5295601338
O  O9  1  0.24730000  0.81020000  0.90500000  1.0 -0.6107500761
O  O10  1  0.75270000  0.18980000  0.40500000  1.0 -0.6107500761
O  O11  1  0.74730000  0.68980000  0.40500000  1.0 -0.6107500761
O  O12  1  0.25270000  0.31020000  0.90500000  1.0 -0.6107500761
O  O13  1  0.60040000  0.67760000  0.82550000  1.0 -0.4183785662
O  O14  1  0.39960000  0.32240000  0.32550000  1.0 -0.4183785662
O  O15  1  0.10040000  0.82240000  0.32550000  1.0 -0.4183785662
O  O16  1  0.89960000  0.17760000  0.82550000  1.0 -0.4183785662
O  O17  1  0.44810000  0.34670000  0.89360000  1.0 -0.5378498405
O  O18  1  0.55190000  0.65330000  0.39360000  1.0 -0.5378498405
O  O19  1  0.94810000  0.15330000  0.39360000  1.0 -0.5378498405
O  O20  1  0.05190000  0.84670000  0.89360000  1.0 -0.5378498405
O  O21  1  0.75240000  0.42500000  0.88300000  1.0 -0.5803354725
O  O22  1  0.24760000  0.57500000  0.38300000  1.0 -0.5803354725
O  O23  1  0.25240000  0.07500000  0.38300000  1.0 -0.5803354725
O  O24  1  0.74760000  0.92500000  0.88300000  1.0 -0.5803354725
O  O25  1  0.77230000  0.51140000  0.84140000  1.0 -0.501018843
O  O26  1  0.22770000  0.48860000  0.34140000  1.0 -0.4944480031
O  O27  1  0.27230000  0.98860000  0.34140000  1.0 -0.501018843
O  O28  1  0.72770000  0.01140000  0.84140000  1.0 -0.4944480031
O  O29  1  0.97140000  0.51030000  0.83280000  1.0 -0.5174387961
O  O30  1  0.02860000  0.48970000  0.33280000  1.0 -0.5174387961
O  O31  1  0.47140000  0.98970000  0.33280000  1.0 -0.5174387961
O  O32  1  0.52860000  0.01030000  0.83280000  1.0 -0.5174387961
O  O33  1  0.94990000  0.38780000  0.89550000  1.0 -0.5295601338
O  O34  1  0.05010000  0.61220000  0.39550000  1.0 -0.5295601338
O  O35  1  0.44990000  0.11220000  0.39550000  1.0 -0.5295601338
O  O36  1  0.55010000  0.88780000  0.89550000  1.0 -0.5295601338
O  O37  1  0.88990000  0.51760000  0.92160000  1.0 -0.5093239635
O  O38  1  0.11010000  0.48240000  0.42160000  1.0 -0.501018843
O  O39  1  0.38990000  0.98240000  0.42160000  1.0 -0.501018843
O  O40  1  0.61010000  0.01760000  0.92160000  1.0 -0.501018843
O  O41  1  0.01720000  0.45420000  0.77320000  1.0 -0.5295601338
O  O42  1  0.98280000  0.54580000  0.27320000  1.0 -0.5295601338
O  O43  1  0.51720000  0.04580000  0.27320000  1.0 -0.5295601338
O  O44  1  0.48280000  0.95420000  0.77320000  1.0 -0.5295601338
O  O45  1  0.11260000  0.71520000  0.86830000  1.0 -0.5295601338
O  O46  1  0.88740000  0.28480000  0.36830000  1.0 -0.5295601338
O  O47  1  0.61260000  0.78480000  0.36830000  1.0 -0.5295601338
O  O48  1  0.38740000  0.21520000  0.86830000  1.0 -0.5295601338
O  O49  1  0.03320000  0.72100000  0.95650000  1.0 -0.5295601338
O  O50  1  0.96680000  0.27900000  0.45650000  1.0 -0.5295601338
O  O51  1  0.53320000  0.77900000  0.45650000  1.0 -0.5295601338
O  O52  1  0.46680000  0.22100000  0.95650000  1.0 -0.5295601338
O  O53  1  0.22930000  0.72720000  0.95060000  1.0 -0.4689275741
O  O54  1  0.77070000  0.27280000  0.45060000  1.0 -0.4689275741
O  O55  1  0.72930000  0.77280000  0.45060000  1.0 -0.4689275741
O  O56  1  0.27070000  0.22720000  0.95060000  1.0 -0.4689275741
O  O57  1  0.29640000  0.65800000  0.68680000  1.0 -0.5093239635
O  O58  1  0.70360000  0.34200000  0.18680000  1.0 -0.5093239635
O  O59  1  0.79640000  0.84200000  0.18680000  1.0 -0.5093239635
O  O60  1  0.20360000  0.15800000  0.68680000  1.0 -0.5093239635
O  O61  1  0.64620000  0.83720000  0.94000000  1.0 -0.573284921
O  O62  1  0.35380000  0.16280000  0.44000000  1.0 -0.573284921
O  O63  1  0.14620000  0.66280000  0.44000000  1.0 -0.573284921
O  O64  1  0.85380000  0.33720000  0.94000000  1.0 -0.573284921
O  O65  1  0.39910000  0.56250000  0.97240000  1.0 -0.4752649933
O  O66  1  0.60090000  0.43750000  0.47240000  1.0 -0.4752649933
O  O67  1  0.89910000  0.93750000  0.47240000  1.0 -0.4752649933
O  O68  1  0.10090000  0.06250000  0.97240000  1.0 -0.4752649933
O  O69  1  0.81350000  0.46980000  0.97880000  1.0 -0.5930611312
O  O70  1  0.18650000  0.53020000  0.47880000  1.0 -0.5930611312
O  O71  1  0.31350000  0.03020000  0.47880000  1.0 -0.5930611312
O  O72  1  0.68650000  0.96980000  0.97880000  1.0 -0.5930611312
O  O73  1  0.98200000  0.78060000  0.01640000  1.0 -0.5995784372
O  O74  1  0.01800000  0.21940000  0.51640000  1.0 -0.5995784372
O  O75  1  0.48200000  0.71940000  0.51640000  1.0 -0.5995784372
O  O76  1  0.51800000  0.28060000  0.01640000  1.0 -0.5995784372
O  O77  1  0.76070000  0.52420000  0.12130000  1.0 -0.451960501
O  O78  1  0.23930000  0.47580000  0.62130000  1.0 -0.451960501
O  O79  1  0.26070000  0.97580000  0.62130000  1.0 -0.451960501
O  O80  1  0.73930000  0.02420000  0.12130000  1.0 -0.451960501
