# DDEC6 charges by PACMAN v1.1 (https://github.com/mtap-research/PACMAN-charge/)
data_UXIRUP_FSR_pacman
_symmetry_space_group_name_H-M   'P 1'
_cell_length_a   29.91540000
_cell_length_b   29.91540000
_cell_length_c   29.91540000
_cell_angle_alpha   60.00000000
_cell_angle_beta   60.00000000
_cell_angle_gamma   60.00000000
_symmetry_Int_Tables_number   1
_chemical_formula_structural   Co2H10C24(NO4)3
_chemical_formula_sum   'Co24 H120 C288 N36 O144'
_cell_volume   18930.82081180
_cell_formula_units_Z   12
loop_
 _symmetry_equiv_pos_site_id
 _symmetry_equiv_pos_as_xyz
  1  'x, y, z'
loop_
 _atom_site_type_symbol
 _atom_site_label
 _atom_site_symmetry_multiplicity
 _atom_site_fract_x
 _atom_site_fract_y
 _atom_site_fract_z
 _atom_site_occupancy
 _atom_site_charge
Co  Co1  1  0.36171000  0.98725000  0.01275000  1.0 0.9393513792
Co  Co2  1  0.98725000  0.36171000  0.63829000  1.0 0.9393513792
Co  Co3  1  0.01275000  0.63829000  0.36171000  1.0 0.9393513792
Co  Co4  1  0.63829000  0.01275000  0.98725000  1.0 0.9393513792
Co  Co5  1  0.01275000  0.36171000  0.98725000  1.0 0.9393513792
Co  Co6  1  0.63829000  0.98725000  0.36171000  1.0 0.9393513792
Co  Co7  1  0.36171000  0.01275000  0.63829000  1.0 0.9393513792
Co  Co8  1  0.98725000  0.63829000  0.01275000  1.0 0.9393513792
Co  Co9  1  0.98725000  0.01275000  0.36171000  1.0 0.9393513792
Co  Co10  1  0.36171000  0.63829000  0.98725000  1.0 0.9393513792
Co  Co11  1  0.63829000  0.36171000  0.01275000  1.0 0.9393513792
Co  Co12  1  0.01275000  0.98725000  0.63829000  1.0 0.9393513792
Co  Co13  1  0.26519000  0.98851000  0.01149000  1.0 1.0892660611
Co  Co14  1  0.98851000  0.26519000  0.73481000  1.0 1.0892660611
Co  Co15  1  0.01149000  0.73481000  0.26519000  1.0 1.0892660611
Co  Co16  1  0.73481000  0.01149000  0.98851000  1.0 1.0892660611
Co  Co17  1  0.01149000  0.26519000  0.98851000  1.0 1.0892660611
Co  Co18  1  0.73481000  0.98851000  0.26519000  1.0 1.0892660611
Co  Co19  1  0.26519000  0.01149000  0.73481000  1.0 1.0892660611
Co  Co20  1  0.98851000  0.73481000  0.01149000  1.0 1.0892660611
Co  Co21  1  0.98851000  0.01149000  0.26519000  1.0 1.0892660611
Co  Co22  1  0.26519000  0.73481000  0.98851000  1.0 1.0892660611
Co  Co23  1  0.73481000  0.26519000  0.01149000  1.0 1.0892660611
Co  Co24  1  0.01149000  0.98851000  0.73481000  1.0 1.0892660611
H  H1  1  0.17850000  0.15950000  0.98490000  1.0 0.1469942076
H  H2  1  0.15950000  0.17850000  0.67710000  1.0 0.1469942076
H  H3  1  0.98490000  0.67710000  0.17850000  1.0 0.1469942076
H  H4  1  0.67710000  0.98490000  0.15950000  1.0 0.1469942076
H  H5  1  0.98490000  0.17850000  0.15950000  1.0 0.1469942076
H  H6  1  0.67710000  0.15950000  0.17850000  1.0 0.1469942076
H  H7  1  0.17850000  0.98490000  0.67710000  1.0 0.1469942076
H  H8  1  0.15950000  0.67710000  0.98490000  1.0 0.1469942076
H  H9  1  0.15950000  0.98490000  0.17850000  1.0 0.1469942076
H  H10  1  0.17850000  0.67710000  0.15950000  1.0 0.1469942076
H  H11  1  0.67710000  0.17850000  0.98490000  1.0 0.1469942076
H  H12  1  0.98490000  0.15950000  0.67710000  1.0 0.1469942076
H  H13  1  0.82150000  0.84050000  0.01510000  1.0 0.1469942076
H  H14  1  0.84050000  0.82150000  0.32290000  1.0 0.1469942076
H  H15  1  0.01510000  0.32290000  0.82150000  1.0 0.1469942076
H  H16  1  0.32290000  0.01510000  0.84050000  1.0 0.1469942076
H  H17  1  0.01510000  0.82150000  0.84050000  1.0 0.1469942076
H  H18  1  0.32290000  0.84050000  0.82150000  1.0 0.1469942076
H  H19  1  0.82150000  0.01510000  0.32290000  1.0 0.1469942076
H  H20  1  0.84050000  0.32290000  0.01510000  1.0 0.1469942076
H  H21  1  0.84050000  0.01510000  0.82150000  1.0 0.1469942076
H  H22  1  0.82150000  0.32290000  0.84050000  1.0 0.1469942076
H  H23  1  0.32290000  0.82150000  0.01510000  1.0 0.1469942076
H  H24  1  0.01510000  0.84050000  0.32290000  1.0 0.1469942076
H  H25  1  0.18450000  0.30070000  0.96450000  1.0 0.1469942076
H  H26  1  0.30070000  0.18450000  0.55030000  1.0 0.1469942076
H  H27  1  0.96450000  0.55030000  0.18450000  1.0 0.1469942076
H  H28  1  0.55030000  0.96450000  0.30070000  1.0 0.1469942076
H  H29  1  0.96450000  0.18450000  0.30070000  1.0 0.1469942076
H  H30  1  0.55030000  0.30070000  0.18450000  1.0 0.1469942076
H  H31  1  0.18450000  0.96450000  0.55030000  1.0 0.1469942076
H  H32  1  0.30070000  0.55030000  0.96450000  1.0 0.1469942076
H  H33  1  0.30070000  0.96450000  0.18450000  1.0 0.1469942076
H  H34  1  0.18450000  0.55030000  0.30070000  1.0 0.1469942076
H  H35  1  0.55030000  0.18450000  0.96450000  1.0 0.1469942076
H  H36  1  0.96450000  0.30070000  0.55030000  1.0 0.1469942076
H  H37  1  0.81550000  0.69930000  0.03550000  1.0 0.1469942076
H  H38  1  0.69930000  0.81550000  0.44970000  1.0 0.1469942076
H  H39  1  0.03550000  0.44970000  0.81550000  1.0 0.1469942076
H  H40  1  0.44970000  0.03550000  0.69930000  1.0 0.1469942076
H  H41  1  0.03550000  0.81550000  0.69930000  1.0 0.1469942076
H  H42  1  0.44970000  0.69930000  0.81550000  1.0 0.1469942076
H  H43  1  0.81550000  0.03550000  0.44970000  1.0 0.1469942076
H  H44  1  0.69930000  0.44970000  0.03550000  1.0 0.1469942076
H  H45  1  0.69930000  0.03550000  0.81550000  1.0 0.1469942076
H  H46  1  0.81550000  0.44970000  0.69930000  1.0 0.1469942076
H  H47  1  0.44970000  0.81550000  0.03550000  1.0 0.1469942076
H  H48  1  0.03550000  0.69930000  0.44970000  1.0 0.1469942076
H  H49  1  0.31160000  0.16280000  0.98420000  1.0 0.137188388
H  H50  1  0.16280000  0.31160000  0.54140000  1.0 0.137188388
H  H51  1  0.98420000  0.54140000  0.31160000  1.0 0.137188388
H  H52  1  0.54140000  0.98420000  0.16280000  1.0 0.137188388
H  H53  1  0.98420000  0.31160000  0.16280000  1.0 0.137188388
H  H54  1  0.54140000  0.16280000  0.31160000  1.0 0.137188388
H  H55  1  0.31160000  0.98420000  0.54140000  1.0 0.137188388
H  H56  1  0.16280000  0.54140000  0.98420000  1.0 0.137188388
H  H57  1  0.16280000  0.98420000  0.31160000  1.0 0.137188388
H  H58  1  0.31160000  0.54140000  0.16280000  1.0 0.137188388
H  H59  1  0.54140000  0.31160000  0.98420000  1.0 0.137188388
H  H60  1  0.98420000  0.16280000  0.54140000  1.0 0.137188388
H  H61  1  0.68840000  0.83720000  0.01580000  1.0 0.137188388
H  H62  1  0.83720000  0.68840000  0.45860000  1.0 0.137188388
H  H63  1  0.01580000  0.45860000  0.68840000  1.0 0.137188388
H  H64  1  0.45860000  0.01580000  0.83720000  1.0 0.137188388
H  H65  1  0.01580000  0.68840000  0.83720000  1.0 0.137188388
H  H66  1  0.45860000  0.83720000  0.68840000  1.0 0.137188388
H  H67  1  0.68840000  0.01580000  0.45860000  1.0 0.137188388
H  H68  1  0.83720000  0.45860000  0.01580000  1.0 0.137188388
H  H69  1  0.83720000  0.01580000  0.68840000  1.0 0.137188388
H  H70  1  0.68840000  0.45860000  0.83720000  1.0 0.137188388
H  H71  1  0.45860000  0.68840000  0.01580000  1.0 0.137188388
H  H72  1  0.01580000  0.83720000  0.45860000  1.0 0.137188388
H  H73  1  0.30970000  0.24290000  0.97970000  1.0 0.2787129128
H  H74  1  0.24290000  0.30970000  0.46770000  1.0 0.2787129128
H  H75  1  0.97970000  0.46770000  0.30970000  1.0 0.2787129128
H  H76  1  0.46770000  0.97970000  0.24290000  1.0 0.2787129128
H  H77  1  0.97970000  0.30970000  0.24290000  1.0 0.2787129128
H  H78  1  0.46770000  0.24290000  0.30970000  1.0 0.2787129128
H  H79  1  0.30970000  0.97970000  0.46770000  1.0 0.2787129128
H  H80  1  0.24290000  0.46770000  0.97970000  1.0 0.2787129128
H  H81  1  0.24290000  0.97970000  0.30970000  1.0 0.2787129128
H  H82  1  0.30970000  0.46770000  0.24290000  1.0 0.2787129128
H  H83  1  0.46770000  0.30970000  0.97970000  1.0 0.2787129128
H  H84  1  0.97970000  0.24290000  0.46770000  1.0 0.2787129128
H  H85  1  0.69030000  0.75710000  0.02030000  1.0 0.2787129128
H  H86  1  0.75710000  0.69030000  0.53230000  1.0 0.2787129128
H  H87  1  0.02030000  0.53230000  0.69030000  1.0 0.2787129128
H  H88  1  0.53230000  0.02030000  0.75710000  1.0 0.2787129128
H  H89  1  0.02030000  0.69030000  0.75710000  1.0 0.2787129128
H  H90  1  0.53230000  0.75710000  0.69030000  1.0 0.2787129128
H  H91  1  0.69030000  0.02030000  0.53230000  1.0 0.2787129128
H  H92  1  0.75710000  0.53230000  0.02030000  1.0 0.2787129128
H  H93  1  0.75710000  0.02030000  0.69030000  1.0 0.2787129128
H  H94  1  0.69030000  0.53230000  0.75710000  1.0 0.2787129128
H  H95  1  0.53230000  0.69030000  0.02030000  1.0 0.2787129128
H  H96  1  0.02030000  0.75710000  0.53230000  1.0 0.2787129128
H  H97  1  0.38350000  0.26330000  0.94810000  1.0 0.1275060443
H  H98  1  0.26330000  0.38350000  0.40510000  1.0 0.1275060443
H  H99  1  0.94810000  0.40510000  0.38350000  1.0 0.1275060443
H  H100  1  0.40510000  0.94810000  0.26330000  1.0 0.1275060443
H  H101  1  0.94810000  0.38350000  0.26330000  1.0 0.1275060443
H  H102  1  0.40510000  0.26330000  0.38350000  1.0 0.1275060443
H  H103  1  0.38350000  0.94810000  0.40510000  1.0 0.1275060443
H  H104  1  0.26330000  0.40510000  0.94810000  1.0 0.1275060443
H  H105  1  0.26330000  0.94810000  0.38350000  1.0 0.1275060443
H  H106  1  0.38350000  0.40510000  0.26330000  1.0 0.1275060443
H  H107  1  0.40510000  0.38350000  0.94810000  1.0 0.1275060443
H  H108  1  0.94810000  0.26330000  0.40510000  1.0 0.1275060443
H  H109  1  0.61650000  0.73670000  0.05190000  1.0 0.1275060443
H  H110  1  0.73670000  0.61650000  0.59490000  1.0 0.1275060443
H  H111  1  0.05190000  0.59490000  0.61650000  1.0 0.1275060443
H  H112  1  0.59490000  0.05190000  0.73670000  1.0 0.1275060443
H  H113  1  0.05190000  0.61650000  0.73670000  1.0 0.1275060443
H  H114  1  0.59490000  0.73670000  0.61650000  1.0 0.1275060443
H  H115  1  0.61650000  0.05190000  0.59490000  1.0 0.1275060443
H  H116  1  0.73670000  0.59490000  0.05190000  1.0 0.1275060443
H  H117  1  0.73670000  0.05190000  0.61650000  1.0 0.1275060443
H  H118  1  0.61650000  0.59490000  0.73670000  1.0 0.1275060443
H  H119  1  0.59490000  0.61650000  0.05190000  1.0 0.1275060443
H  H120  1  0.05190000  0.73670000  0.59490000  1.0 0.1275060443
C  C1  1  0.11390000  0.26370000  0.97490000  1.0 0.5889675014
C  C2  1  0.26370000  0.11390000  0.64750000  1.0 0.5889675014
C  C3  1  0.97490000  0.64750000  0.11390000  1.0 0.5889675014
C  C4  1  0.64750000  0.97490000  0.26370000  1.0 0.5889675014
C  C5  1  0.97490000  0.11390000  0.26370000  1.0 0.5889675014
C  C6  1  0.64750000  0.26370000  0.11390000  1.0 0.5889675014
C  C7  1  0.11390000  0.97490000  0.64750000  1.0 0.5889675014
C  C8  1  0.26370000  0.64750000  0.97490000  1.0 0.5889675014
C  C9  1  0.26370000  0.97490000  0.11390000  1.0 0.5889675014
C  C10  1  0.11390000  0.64750000  0.26370000  1.0 0.5889675014
C  C11  1  0.64750000  0.11390000  0.97490000  1.0 0.5889675014
C  C12  1  0.97490000  0.26370000  0.64750000  1.0 0.5889675014
C  C13  1  0.88610000  0.73630000  0.02510000  1.0 0.5889675014
C  C14  1  0.73630000  0.88610000  0.35250000  1.0 0.5889675014
C  C15  1  0.02510000  0.35250000  0.88610000  1.0 0.5889675014
C  C16  1  0.35250000  0.02510000  0.73630000  1.0 0.5889675014
C  C17  1  0.02510000  0.88610000  0.73630000  1.0 0.5889675014
C  C18  1  0.35250000  0.73630000  0.88610000  1.0 0.5889675014
C  C19  1  0.88610000  0.02510000  0.35250000  1.0 0.5889675014
C  C20  1  0.73630000  0.35250000  0.02510000  1.0 0.5889675014
C  C21  1  0.73630000  0.02510000  0.88610000  1.0 0.5889675014
C  C22  1  0.88610000  0.35250000  0.73630000  1.0 0.5889675014
C  C23  1  0.35250000  0.88610000  0.02510000  1.0 0.5889675014
C  C24  1  0.02510000  0.73630000  0.35250000  1.0 0.5889675014
C  C25  1  0.27671000  0.09089000  0.99529000  1.0 0.5889675014
C  C26  1  0.09089000  0.27671000  0.63711000  1.0 0.5889675014
C  C27  1  0.99529000  0.63711000  0.27671000  1.0 0.5889675014
C  C28  1  0.63711000  0.99529000  0.09089000  1.0 0.5889675014
C  C29  1  0.99529000  0.27671000  0.09089000  1.0 0.5889675014
C  C30  1  0.63711000  0.09089000  0.27671000  1.0 0.5889675014
C  C31  1  0.27671000  0.99529000  0.63711000  1.0 0.5889675014
C  C32  1  0.09089000  0.63711000  0.99529000  1.0 0.5889675014
C  C33  1  0.09089000  0.99529000  0.27671000  1.0 0.5889675014
C  C34  1  0.27671000  0.63711000  0.09089000  1.0 0.5889675014
C  C35  1  0.63711000  0.27671000  0.99529000  1.0 0.5889675014
C  C36  1  0.99529000  0.09089000  0.63711000  1.0 0.5889675014
C  C37  1  0.72329000  0.90911000  0.00471000  1.0 0.5889675014
C  C38  1  0.90911000  0.72329000  0.36289000  1.0 0.5889675014
C  C39  1  0.00471000  0.36289000  0.72329000  1.0 0.5889675014
C  C40  1  0.36289000  0.00471000  0.90911000  1.0 0.5889675014
C  C41  1  0.00471000  0.72329000  0.90911000  1.0 0.5889675014
C  C42  1  0.36289000  0.90911000  0.72329000  1.0 0.5889675014
C  C43  1  0.72329000  0.00471000  0.36289000  1.0 0.5889675014
C  C44  1  0.90911000  0.36289000  0.00471000  1.0 0.5889675014
C  C45  1  0.90911000  0.00471000  0.72329000  1.0 0.5889675014
C  C46  1  0.72329000  0.36289000  0.90911000  1.0 0.5889675014
C  C47  1  0.36289000  0.72329000  0.00471000  1.0 0.5889675014
C  C48  1  0.00471000  0.90911000  0.36289000  1.0 0.5889675014
C  C49  1  0.24995000  0.15175000  0.98465000  1.0 -0.0014323257
C  C50  1  0.15175000  0.24995000  0.61365000  1.0 -0.0014323257
C  C51  1  0.98465000  0.61365000  0.24995000  1.0 -0.0014323257
C  C52  1  0.61365000  0.98465000  0.15175000  1.0 -0.0014323257
C  C53  1  0.98465000  0.24995000  0.15175000  1.0 -0.0014323257
C  C54  1  0.61365000  0.15175000  0.24995000  1.0 -0.0014323257
C  C55  1  0.24995000  0.98465000  0.61365000  1.0 -0.0014323257
C  C56  1  0.15175000  0.61365000  0.98465000  1.0 -0.0014323257
C  C57  1  0.15175000  0.98465000  0.24995000  1.0 -0.0014323257
C  C58  1  0.24995000  0.61365000  0.15175000  1.0 -0.0014323257
C  C59  1  0.61365000  0.24995000  0.98465000  1.0 -0.0014323257
C  C60  1  0.98465000  0.15175000  0.61365000  1.0 -0.0014323257
C  C61  1  0.75005000  0.84825000  0.01535000  1.0 -0.0014323257
C  C62  1  0.84825000  0.75005000  0.38635000  1.0 -0.0014323257
C  C63  1  0.01535000  0.38635000  0.75005000  1.0 -0.0014323257
C  C64  1  0.38635000  0.01535000  0.84825000  1.0 -0.0014323257
C  C65  1  0.01535000  0.75005000  0.84825000  1.0 -0.0014323257
C  C66  1  0.38635000  0.84825000  0.75005000  1.0 -0.0014323257
C  C67  1  0.75005000  0.01535000  0.38635000  1.0 -0.0014323257
C  C68  1  0.84825000  0.38635000  0.01535000  1.0 -0.0014323257
C  C69  1  0.84825000  0.01535000  0.75005000  1.0 -0.0014323257
C  C70  1  0.75005000  0.38635000  0.84825000  1.0 -0.0014323257
C  C71  1  0.38635000  0.75005000  0.01535000  1.0 -0.0014323257
C  C72  1  0.01535000  0.84825000  0.38635000  1.0 -0.0014323257
C  C73  1  0.19710000  0.17870000  0.98190000  1.0 -0.1026212847
C  C74  1  0.17870000  0.19710000  0.64230000  1.0 -0.1026212847
C  C75  1  0.98190000  0.64230000  0.19710000  1.0 -0.1026212847
C  C76  1  0.64230000  0.98190000  0.17870000  1.0 -0.1026212847
C  C77  1  0.98190000  0.19710000  0.17870000  1.0 -0.1026212847
C  C78  1  0.64230000  0.17870000  0.19710000  1.0 -0.1026212847
C  C79  1  0.19710000  0.98190000  0.64230000  1.0 -0.1026212847
C  C80  1  0.17870000  0.64230000  0.98190000  1.0 -0.1026212847
C  C81  1  0.17870000  0.98190000  0.19710000  1.0 -0.1026212847
C  C82  1  0.19710000  0.64230000  0.17870000  1.0 -0.1026212847
C  C83  1  0.64230000  0.19710000  0.98190000  1.0 -0.1026212847
C  C84  1  0.98190000  0.17870000  0.64230000  1.0 -0.1026212847
C  C85  1  0.80290000  0.82130000  0.01810000  1.0 -0.1026212847
C  C86  1  0.82130000  0.80290000  0.35770000  1.0 -0.1026212847
C  C87  1  0.01810000  0.35770000  0.80290000  1.0 -0.1026212847
C  C88  1  0.35770000  0.01810000  0.82130000  1.0 -0.1053006829
C  C89  1  0.01810000  0.80290000  0.82130000  1.0 -0.1026212847
C  C90  1  0.35770000  0.82130000  0.80290000  1.0 -0.1026212847
C  C91  1  0.80290000  0.01810000  0.35770000  1.0 -0.1026212847
C  C92  1  0.82130000  0.35770000  0.01810000  1.0 -0.1053006829
C  C93  1  0.82130000  0.01810000  0.80290000  1.0 -0.1026212847
C  C94  1  0.80290000  0.35770000  0.82130000  1.0 -0.1026212847
C  C95  1  0.35770000  0.80290000  0.01810000  1.0 -0.1026212847
C  C96  1  0.01810000  0.82130000  0.35770000  1.0 -0.1026212847
C  C97  1  0.17227000  0.23473000  0.97483000  1.0 -0.0014323257
C  C98  1  0.23473000  0.17227000  0.61817000  1.0 -0.0014323257
C  C99  1  0.97483000  0.61817000  0.17227000  1.0 -0.0014323257
C  C100  1  0.61817000  0.97483000  0.23473000  1.0 -0.0014323257
C  C101  1  0.97483000  0.17227000  0.23473000  1.0 -0.0014323257
C  C102  1  0.61817000  0.23473000  0.17227000  1.0 -0.0014323257
C  C103  1  0.17227000  0.97483000  0.61817000  1.0 -0.0014323257
C  C104  1  0.23473000  0.61817000  0.97483000  1.0 -0.0014323257
C  C105  1  0.23473000  0.97483000  0.17227000  1.0 -0.0014323257
C  C106  1  0.17227000  0.61817000  0.23473000  1.0 -0.0014323257
C  C107  1  0.61817000  0.17227000  0.97483000  1.0 -0.0014323257
C  C108  1  0.97483000  0.23473000  0.61817000  1.0 -0.0014323257
C  C109  1  0.82773000  0.76527000  0.02517000  1.0 -0.0014323257
C  C110  1  0.76527000  0.82773000  0.38183000  1.0 -0.0014323257
C  C111  1  0.02517000  0.38183000  0.82773000  1.0 -0.0014323257
C  C112  1  0.38183000  0.02517000  0.76527000  1.0 -0.0014323257
C  C113  1  0.02517000  0.82773000  0.76527000  1.0 -0.0014323257
C  C114  1  0.38183000  0.76527000  0.82773000  1.0 -0.0014323257
C  C115  1  0.82773000  0.02517000  0.38183000  1.0 -0.0014323257
C  C116  1  0.76527000  0.38183000  0.02517000  1.0 -0.0014323257
C  C117  1  0.76527000  0.02517000  0.82773000  1.0 -0.0014323257
C  C118  1  0.82773000  0.38183000  0.76527000  1.0 -0.0014323257
C  C119  1  0.38183000  0.82773000  0.02517000  1.0 -0.0014323257
C  C120  1  0.02517000  0.76527000  0.38183000  1.0 -0.0014323257
C  C121  1  0.20090000  0.26350000  0.96930000  1.0 -0.1726173927
C  C122  1  0.26350000  0.20090000  0.56630000  1.0 -0.1726173927
C  C123  1  0.96930000  0.56630000  0.20090000  1.0 -0.1726173927
C  C124  1  0.56630000  0.96930000  0.26350000  1.0 -0.1726173927
C  C125  1  0.96930000  0.20090000  0.26350000  1.0 -0.1726173927
C  C126  1  0.56630000  0.26350000  0.20090000  1.0 -0.1726173927
C  C127  1  0.20090000  0.96930000  0.56630000  1.0 -0.1726173927
C  C128  1  0.26350000  0.56630000  0.96930000  1.0 -0.1726173927
C  C129  1  0.26350000  0.96930000  0.20090000  1.0 -0.1726173927
C  C130  1  0.20090000  0.56630000  0.26350000  1.0 -0.1726173927
C  C131  1  0.56630000  0.20090000  0.96930000  1.0 -0.1726173927
C  C132  1  0.96930000  0.26350000  0.56630000  1.0 -0.1726173927
C  C133  1  0.79910000  0.73650000  0.03070000  1.0 -0.1726173927
C  C134  1  0.73650000  0.79910000  0.43370000  1.0 -0.1726173927
C  C135  1  0.03070000  0.43370000  0.79910000  1.0 -0.1726173927
C  C136  1  0.43370000  0.03070000  0.73650000  1.0 -0.1726173927
C  C137  1  0.03070000  0.79910000  0.73650000  1.0 -0.1726173927
C  C138  1  0.43370000  0.73650000  0.79910000  1.0 -0.1726173927
C  C139  1  0.79910000  0.03070000  0.43370000  1.0 -0.1726173927
C  C140  1  0.73650000  0.43370000  0.03070000  1.0 -0.1726173927
C  C141  1  0.73650000  0.03070000  0.79910000  1.0 -0.1726173927
C  C142  1  0.79910000  0.43370000  0.73650000  1.0 -0.1726173927
C  C143  1  0.43370000  0.79910000  0.03070000  1.0 -0.1726173927
C  C144  1  0.03070000  0.73650000  0.43370000  1.0 -0.1726173927
C  C145  1  0.25270000  0.23670000  0.97110000  1.0 0.2016560044
C  C146  1  0.23670000  0.25270000  0.53950000  1.0 0.2016560044
C  C147  1  0.97110000  0.53950000  0.25270000  1.0 0.2016560044
C  C148  1  0.53950000  0.97110000  0.23670000  1.0 0.2016560044
C  C149  1  0.97110000  0.25270000  0.23670000  1.0 0.2016560044
C  C150  1  0.53950000  0.23670000  0.25270000  1.0 0.2016560044
C  C151  1  0.25270000  0.97110000  0.53950000  1.0 0.2016560044
C  C152  1  0.23670000  0.53950000  0.97110000  1.0 0.2016560044
C  C153  1  0.23670000  0.97110000  0.25270000  1.0 0.2016560044
C  C154  1  0.25270000  0.53950000  0.23670000  1.0 0.2016560044
C  C155  1  0.53950000  0.25270000  0.97110000  1.0 0.2016560044
C  C156  1  0.97110000  0.23670000  0.53950000  1.0 0.2016560044
C  C157  1  0.74730000  0.76330000  0.02890000  1.0 0.2016560044
C  C158  1  0.76330000  0.74730000  0.46050000  1.0 0.2016560044
C  C159  1  0.02890000  0.46050000  0.74730000  1.0 0.2016560044
C  C160  1  0.46050000  0.02890000  0.76330000  1.0 0.2016560044
C  C161  1  0.02890000  0.74730000  0.76330000  1.0 0.2016560044
C  C162  1  0.46050000  0.76330000  0.74730000  1.0 0.2016560044
C  C163  1  0.74730000  0.02890000  0.46050000  1.0 0.2016560044
C  C164  1  0.76330000  0.46050000  0.02890000  1.0 0.2016560044
C  C165  1  0.76330000  0.02890000  0.74730000  1.0 0.2016560044
C  C166  1  0.74730000  0.46050000  0.76330000  1.0 0.2016560044
C  C167  1  0.46050000  0.74730000  0.02890000  1.0 0.2016560044
C  C168  1  0.02890000  0.76330000  0.46050000  1.0 0.2016560044
C  C169  1  0.27700000  0.18080000  0.98060000  1.0 -0.1992682492
C  C170  1  0.18080000  0.27700000  0.56160000  1.0 -0.1992682492
C  C171  1  0.98060000  0.56160000  0.27700000  1.0 -0.1992682492
C  C172  1  0.56160000  0.98060000  0.18080000  1.0 -0.1992682492
C  C173  1  0.98060000  0.27700000  0.18080000  1.0 -0.1992682492
C  C174  1  0.56160000  0.18080000  0.27700000  1.0 -0.1992682492
C  C175  1  0.27700000  0.98060000  0.56160000  1.0 -0.1992682492
C  C176  1  0.18080000  0.56160000  0.98060000  1.0 -0.1992682492
C  C177  1  0.18080000  0.98060000  0.27700000  1.0 -0.1992682492
C  C178  1  0.27700000  0.56160000  0.18080000  1.0 -0.1992682492
C  C179  1  0.56160000  0.27700000  0.98060000  1.0 -0.1992682492
C  C180  1  0.98060000  0.18080000  0.56160000  1.0 -0.1992682492
C  C181  1  0.72300000  0.81920000  0.01940000  1.0 -0.1992682492
C  C182  1  0.81920000  0.72300000  0.43840000  1.0 -0.1992682492
C  C183  1  0.01940000  0.43840000  0.72300000  1.0 -0.1992682492
C  C184  1  0.43840000  0.01940000  0.81920000  1.0 -0.1992682492
C  C185  1  0.01940000  0.72300000  0.81920000  1.0 -0.1992682492
C  C186  1  0.43840000  0.81920000  0.72300000  1.0 -0.1992682492
C  C187  1  0.72300000  0.01940000  0.43840000  1.0 -0.1992682492
C  C188  1  0.81920000  0.43840000  0.01940000  1.0 -0.1992682492
C  C189  1  0.81920000  0.01940000  0.72300000  1.0 -0.1992682492
C  C190  1  0.72300000  0.43840000  0.81920000  1.0 -0.1992682492
C  C191  1  0.43840000  0.72300000  0.01940000  1.0 -0.1992682492
C  C192  1  0.01940000  0.81920000  0.43840000  1.0 -0.1992682492
C  C193  1  0.27510000  0.31710000  0.94870000  1.0 0.4564159367
C  C194  1  0.31710000  0.27510000  0.45910000  1.0 0.4564159367
C  C195  1  0.94870000  0.45910000  0.27510000  1.0 0.4564159367
C  C196  1  0.45910000  0.94870000  0.31710000  1.0 0.4564159367
C  C197  1  0.94870000  0.27510000  0.31710000  1.0 0.4564159367
C  C198  1  0.45910000  0.31710000  0.27510000  1.0 0.4564159367
C  C199  1  0.27510000  0.94870000  0.45910000  1.0 0.4564159367
C  C200  1  0.31710000  0.45910000  0.94870000  1.0 0.4564159367
C  C201  1  0.31710000  0.94870000  0.27510000  1.0 0.4564159367
C  C202  1  0.27510000  0.45910000  0.31710000  1.0 0.4564159367
C  C203  1  0.45910000  0.27510000  0.94870000  1.0 0.4564159367
C  C204  1  0.94870000  0.31710000  0.45910000  1.0 0.4564159367
C  C205  1  0.72490000  0.68290000  0.05130000  1.0 0.4564159367
C  C206  1  0.68290000  0.72490000  0.54090000  1.0 0.4564159367
C  C207  1  0.05130000  0.54090000  0.72490000  1.0 0.4564159367
C  C208  1  0.54090000  0.05130000  0.68290000  1.0 0.4564159367
C  C209  1  0.05130000  0.72490000  0.68290000  1.0 0.4564159367
C  C210  1  0.54090000  0.68290000  0.72490000  1.0 0.4564159367
C  C211  1  0.72490000  0.05130000  0.54090000  1.0 0.4544362022
C  C212  1  0.68290000  0.54090000  0.05130000  1.0 0.4564159367
C  C213  1  0.68290000  0.05130000  0.72490000  1.0 0.4564159367
C  C214  1  0.72490000  0.54090000  0.68290000  1.0 0.4564159367
C  C215  1  0.54090000  0.72490000  0.05130000  1.0 0.4564159367
C  C216  1  0.05130000  0.68290000  0.54090000  1.0 0.4564159367
C  C217  1  0.31510000  0.33010000  0.95230000  1.0 -0.0167245124
C  C218  1  0.33010000  0.31510000  0.40250000  1.0 -0.0167245124
C  C219  1  0.95230000  0.40250000  0.31510000  1.0 -0.0167245124
C  C220  1  0.40250000  0.95230000  0.33010000  1.0 -0.0167245124
C  C221  1  0.95230000  0.31510000  0.33010000  1.0 -0.0167245124
C  C222  1  0.40250000  0.33010000  0.31510000  1.0 -0.0167245124
C  C223  1  0.31510000  0.95230000  0.40250000  1.0 -0.0167245124
C  C224  1  0.33010000  0.40250000  0.95230000  1.0 -0.0167245124
C  C225  1  0.33010000  0.95230000  0.31510000  1.0 -0.0167245124
C  C226  1  0.31510000  0.40250000  0.33010000  1.0 -0.0167245124
C  C227  1  0.40250000  0.31510000  0.95230000  1.0 -0.0167245124
C  C228  1  0.95230000  0.33010000  0.40250000  1.0 -0.0167245124
C  C229  1  0.68490000  0.66990000  0.04770000  1.0 -0.0167245124
C  C230  1  0.66990000  0.68490000  0.59750000  1.0 -0.0167245124
C  C231  1  0.04770000  0.59750000  0.68490000  1.0 -0.0167245124
C  C232  1  0.59750000  0.04770000  0.66990000  1.0 -0.0167245124
C  C233  1  0.04770000  0.68490000  0.66990000  1.0 -0.0167245124
C  C234  1  0.59750000  0.66990000  0.68490000  1.0 -0.0167245124
C  C235  1  0.68490000  0.04770000  0.59750000  1.0 -0.0167245124
C  C236  1  0.66990000  0.59750000  0.04770000  1.0 -0.0167245124
C  C237  1  0.66990000  0.04770000  0.68490000  1.0 -0.0167245124
C  C238  1  0.68490000  0.59750000  0.66990000  1.0 -0.0142448073
C  C239  1  0.59750000  0.68490000  0.04770000  1.0 -0.0167245124
C  C240  1  0.04770000  0.66990000  0.59750000  1.0 -0.0167245124
C  C241  1  0.36960000  0.29800000  0.95060000  1.0 -0.1596499403
C  C242  1  0.29800000  0.36960000  0.38180000  1.0 -0.1596499403
C  C243  1  0.95060000  0.38180000  0.36960000  1.0 -0.1596499403
C  C244  1  0.38180000  0.95060000  0.29800000  1.0 -0.1596499403
C  C245  1  0.95060000  0.36960000  0.29800000  1.0 -0.1596499403
C  C246  1  0.38180000  0.29800000  0.36960000  1.0 -0.1596499403
C  C247  1  0.36960000  0.95060000  0.38180000  1.0 -0.1596499403
C  C248  1  0.29800000  0.38180000  0.95060000  1.0 -0.1596499403
C  C249  1  0.29800000  0.95060000  0.36960000  1.0 -0.1596499403
C  C250  1  0.36960000  0.38180000  0.29800000  1.0 -0.1596499403
C  C251  1  0.38180000  0.36960000  0.95060000  1.0 -0.1596499403
C  C252  1  0.95060000  0.29800000  0.38180000  1.0 -0.1596499403
C  C253  1  0.63040000  0.70200000  0.04940000  1.0 -0.1596499403
C  C254  1  0.70200000  0.63040000  0.61820000  1.0 -0.1596499403
C  C255  1  0.04940000  0.61820000  0.63040000  1.0 -0.1596499403
C  C256  1  0.61820000  0.04940000  0.70200000  1.0 -0.1596499403
C  C257  1  0.04940000  0.63040000  0.70200000  1.0 -0.1596499403
C  C258  1  0.61820000  0.70200000  0.63040000  1.0 -0.1596499403
C  C259  1  0.63040000  0.04940000  0.61820000  1.0 -0.1596499403
C  C260  1  0.70200000  0.61820000  0.04940000  1.0 -0.1596499403
C  C261  1  0.70200000  0.04940000  0.63040000  1.0 -0.1596499403
C  C262  1  0.63040000  0.61820000  0.70200000  1.0 -0.1596499403
C  C263  1  0.61820000  0.63040000  0.04940000  1.0 -0.1596499403
C  C264  1  0.04940000  0.70200000  0.61820000  1.0 -0.1596499403
C  C265  1  0.43510000  0.93930000  0.06070000  1.0 0.2093860575
C  C266  1  0.93930000  0.43510000  0.56490000  1.0 0.2093860575
C  C267  1  0.06070000  0.56490000  0.43510000  1.0 0.2093860575
C  C268  1  0.56490000  0.06070000  0.93930000  1.0 0.2093860575
C  C269  1  0.06070000  0.43510000  0.93930000  1.0 0.2093860575
C  C270  1  0.56490000  0.93930000  0.43510000  1.0 0.2093860575
C  C271  1  0.43510000  0.06070000  0.56490000  1.0 0.2093860575
C  C272  1  0.93930000  0.56490000  0.06070000  1.0 0.2093860575
C  C273  1  0.93930000  0.06070000  0.43510000  1.0 0.2093860575
C  C274  1  0.43510000  0.56490000  0.93930000  1.0 0.2093860575
C  C275  1  0.56490000  0.43510000  0.06070000  1.0 0.2093860575
C  C276  1  0.06070000  0.93930000  0.56490000  1.0 0.2093860575
C  C277  1  0.51100000  0.93500000  0.06500000  1.0 0.137188388
C  C278  1  0.93500000  0.51100000  0.48900000  1.0 0.137188388
C  C279  1  0.06500000  0.48900000  0.51100000  1.0 0.137188388
C  C280  1  0.48900000  0.06500000  0.93500000  1.0 0.137188388
C  C281  1  0.06500000  0.51100000  0.93500000  1.0 0.137188388
C  C282  1  0.48900000  0.93500000  0.51100000  1.0 0.137188388
C  C283  1  0.51100000  0.06500000  0.48900000  1.0 0.137188388
C  C284  1  0.93500000  0.48900000  0.06500000  1.0 0.137188388
C  C285  1  0.93500000  0.06500000  0.51100000  1.0 0.137188388
C  C286  1  0.51100000  0.48900000  0.93500000  1.0 0.137188388
C  C287  1  0.48900000  0.51100000  0.06500000  1.0 0.137188388
C  C288  1  0.06500000  0.93500000  0.48900000  1.0 0.137188388
N  N1  1  0.28250000  0.26410000  0.96770000  1.0 -0.3413186813
N  N2  1  0.26410000  0.28250000  0.48570000  1.0 -0.3413186813
N  N3  1  0.96770000  0.48570000  0.28250000  1.0 -0.3413186813
N  N4  1  0.48570000  0.96770000  0.26410000  1.0 -0.3413186813
N  N5  1  0.96770000  0.28250000  0.26410000  1.0 -0.3413186813
N  N6  1  0.48570000  0.26410000  0.28250000  1.0 -0.3413186813
N  N7  1  0.28250000  0.96770000  0.48570000  1.0 -0.3413186813
N  N8  1  0.26410000  0.48570000  0.96770000  1.0 -0.3413186813
N  N9  1  0.26410000  0.96770000  0.28250000  1.0 -0.3413186813
N  N10  1  0.28250000  0.48570000  0.26410000  1.0 -0.3413186813
N  N11  1  0.48570000  0.28250000  0.96770000  1.0 -0.3413186813
N  N12  1  0.96770000  0.26410000  0.48570000  1.0 -0.3413186813
N  N13  1  0.71750000  0.73590000  0.03230000  1.0 -0.3413186813
N  N14  1  0.73590000  0.71750000  0.51430000  1.0 -0.3413186813
N  N15  1  0.03230000  0.51430000  0.71750000  1.0 -0.3413186813
N  N16  1  0.51430000  0.03230000  0.73590000  1.0 -0.3413186813
N  N17  1  0.03230000  0.71750000  0.73590000  1.0 -0.3413186813
N  N18  1  0.51430000  0.73590000  0.71750000  1.0 -0.3413186813
N  N19  1  0.71750000  0.03230000  0.51430000  1.0 -0.3413186813
N  N20  1  0.73590000  0.51430000  0.03230000  1.0 -0.3413186813
N  N21  1  0.73590000  0.03230000  0.71750000  1.0 -0.3413186813
N  N22  1  0.71750000  0.51430000  0.73590000  1.0 -0.3413186813
N  N23  1  0.51430000  0.71750000  0.03230000  1.0 -0.3413186813
N  N24  1  0.03230000  0.73590000  0.51430000  1.0 -0.3413186813
N  N25  1  0.48710000  0.92090000  0.07910000  1.0 -0.1170062618
N  N26  1  0.92090000  0.48710000  0.51290000  1.0 -0.1170062618
N  N27  1  0.07910000  0.51290000  0.48710000  1.0 -0.1026212847
N  N28  1  0.51290000  0.07910000  0.92090000  1.0 -0.1170062618
N  N29  1  0.07910000  0.48710000  0.92090000  1.0 -0.1053006829
N  N30  1  0.51290000  0.92090000  0.48710000  1.0 -0.1026212847
N  N31  1  0.48710000  0.07910000  0.51290000  1.0 -0.1170062618
N  N32  1  0.92090000  0.51290000  0.07910000  1.0 -0.1026212847
N  N33  1  0.92090000  0.07910000  0.48710000  1.0 -0.1170062618
N  N34  1  0.48710000  0.51290000  0.92090000  1.0 -0.1026212847
N  N35  1  0.51290000  0.48710000  0.07910000  1.0 -0.1026212847
N  N36  1  0.07910000  0.92090000  0.51290000  1.0 -0.1026212847
O  O1  1  0.24933000  0.06805000  0.99831000  1.0 -0.5433106529
O  O2  1  0.06805000  0.24933000  0.68431000  1.0 -0.5433106529
O  O3  1  0.99831000  0.68431000  0.24933000  1.0 -0.5433106529
O  O4  1  0.68431000  0.99831000  0.06805000  1.0 -0.5433106529
O  O5  1  0.99831000  0.24933000  0.06805000  1.0 -0.5433106529
O  O6  1  0.68431000  0.06805000  0.24933000  1.0 -0.5433106529
O  O7  1  0.24933000  0.99831000  0.68431000  1.0 -0.5433106529
O  O8  1  0.06805000  0.68431000  0.99831000  1.0 -0.5433106529
O  O9  1  0.06805000  0.99831000  0.24933000  1.0 -0.5433106529
O  O10  1  0.24933000  0.68431000  0.06805000  1.0 -0.5433106529
O  O11  1  0.68431000  0.24933000  0.99831000  1.0 -0.5433106529
O  O12  1  0.99831000  0.06805000  0.68431000  1.0 -0.5433106529
O  O13  1  0.75067000  0.93195000  0.00169000  1.0 -0.5433106529
O  O14  1  0.93195000  0.75067000  0.31569000  1.0 -0.5433106529
O  O15  1  0.00169000  0.31569000  0.75067000  1.0 -0.5433106529
O  O16  1  0.31569000  0.00169000  0.93195000  1.0 -0.5433106529
O  O17  1  0.00169000  0.75067000  0.93195000  1.0 -0.5433106529
O  O18  1  0.31569000  0.93195000  0.75067000  1.0 -0.5433106529
O  O19  1  0.75067000  0.00169000  0.31569000  1.0 -0.5433106529
O  O20  1  0.93195000  0.31569000  0.00169000  1.0 -0.5433106529
O  O21  1  0.93195000  0.00169000  0.75067000  1.0 -0.5433106529
O  O22  1  0.75067000  0.31569000  0.93195000  1.0 -0.5433106529
O  O23  1  0.31569000  0.75067000  0.00169000  1.0 -0.5433106529
O  O24  1  0.00169000  0.93195000  0.31569000  1.0 -0.5433106529
O  O25  1  0.32279000  0.06917000  0.99841000  1.0 -0.5196215641
O  O26  1  0.06917000  0.32279000  0.60963000  1.0 -0.5196215641
O  O27  1  0.99841000  0.60963000  0.32279000  1.0 -0.5196215641
O  O28  1  0.60963000  0.99841000  0.06917000  1.0 -0.5196215641
O  O29  1  0.99841000  0.32279000  0.06917000  1.0 -0.5196215641
O  O30  1  0.60963000  0.06917000  0.32279000  1.0 -0.5196215641
O  O31  1  0.32279000  0.99841000  0.60963000  1.0 -0.5196215641
O  O32  1  0.06917000  0.60963000  0.99841000  1.0 -0.5196215641
O  O33  1  0.06917000  0.99841000  0.32279000  1.0 -0.5196215641
O  O34  1  0.32279000  0.60963000  0.06917000  1.0 -0.5196215641
O  O35  1  0.60963000  0.32279000  0.99841000  1.0 -0.5196215641
O  O36  1  0.99841000  0.06917000  0.60963000  1.0 -0.5196215641
O  O37  1  0.67721000  0.93083000  0.00159000  1.0 -0.5196215641
O  O38  1  0.93083000  0.67721000  0.39037000  1.0 -0.5196215641
O  O39  1  0.00159000  0.39037000  0.67721000  1.0 -0.5196215641
O  O40  1  0.39037000  0.00159000  0.93083000  1.0 -0.5196215641
O  O41  1  0.00159000  0.67721000  0.93083000  1.0 -0.5196215641
O  O42  1  0.39037000  0.93083000  0.67721000  1.0 -0.5196215641
O  O43  1  0.67721000  0.00159000  0.39037000  1.0 -0.5196215641
O  O44  1  0.93083000  0.39037000  0.00159000  1.0 -0.5196215641
O  O45  1  0.93083000  0.00159000  0.67721000  1.0 -0.5196215641
O  O46  1  0.67721000  0.39037000  0.93083000  1.0 -0.5196215641
O  O47  1  0.39037000  0.67721000  0.00159000  1.0 -0.5196215641
O  O48  1  0.00159000  0.93083000  0.39037000  1.0 -0.5196215641
O  O49  1  0.23900000  0.35000000  0.93180000  1.0 -0.4168110468
O  O50  1  0.35000000  0.23900000  0.47920000  1.0 -0.4168110468
O  O51  1  0.93180000  0.47920000  0.23900000  1.0 -0.4126546161
O  O52  1  0.47920000  0.93180000  0.35000000  1.0 -0.4168110468
O  O53  1  0.93180000  0.23900000  0.35000000  1.0 -0.4126546161
O  O54  1  0.47920000  0.35000000  0.23900000  1.0 -0.4168110468
O  O55  1  0.23900000  0.93180000  0.47920000  1.0 -0.4126546161
O  O56  1  0.35000000  0.47920000  0.93180000  1.0 -0.4168110468
O  O57  1  0.35000000  0.93180000  0.23900000  1.0 -0.4126546161
O  O58  1  0.23900000  0.47920000  0.35000000  1.0 -0.4168110468
O  O59  1  0.47920000  0.23900000  0.93180000  1.0 -0.4168110468
O  O60  1  0.93180000  0.35000000  0.47920000  1.0 -0.4168110468
O  O61  1  0.76100000  0.65000000  0.06820000  1.0 -0.4168110468
O  O62  1  0.65000000  0.76100000  0.52080000  1.0 -0.4168110468
O  O63  1  0.06820000  0.52080000  0.76100000  1.0 -0.4126546161
O  O64  1  0.52080000  0.06820000  0.65000000  1.0 -0.4126546161
O  O65  1  0.06820000  0.76100000  0.65000000  1.0 -0.4126546161
O  O66  1  0.52080000  0.65000000  0.76100000  1.0 -0.4168110468
O  O67  1  0.76100000  0.06820000  0.52080000  1.0 -0.4126546161
O  O68  1  0.65000000  0.52080000  0.06820000  1.0 -0.4168110468
O  O69  1  0.65000000  0.06820000  0.76100000  1.0 -0.4168110468
O  O70  1  0.76100000  0.52080000  0.65000000  1.0 -0.4126546161
O  O71  1  0.52080000  0.76100000  0.06820000  1.0 -0.4126546161
O  O72  1  0.06820000  0.65000000  0.52080000  1.0 -0.4168110468
O  O73  1  0.09182000  0.31208000  0.97492000  1.0 -0.5580830904
O  O74  1  0.31208000  0.09182000  0.62118000  1.0 -0.5580830904
O  O75  1  0.97492000  0.62118000  0.09182000  1.0 -0.5580830904
O  O76  1  0.62118000  0.97492000  0.31208000  1.0 -0.5580830904
O  O77  1  0.97492000  0.09182000  0.31208000  1.0 -0.5580830904
O  O78  1  0.62118000  0.31208000  0.09182000  1.0 -0.5580830904
O  O79  1  0.09182000  0.97492000  0.62118000  1.0 -0.5580830904
O  O80  1  0.31208000  0.62118000  0.97492000  1.0 -0.5580830904
O  O81  1  0.31208000  0.97492000  0.09182000  1.0 -0.5580830904
O  O82  1  0.09182000  0.62118000  0.31208000  1.0 -0.5580830904
O  O83  1  0.62118000  0.09182000  0.97492000  1.0 -0.5580830904
O  O84  1  0.97492000  0.31208000  0.62118000  1.0 -0.5580830904
O  O85  1  0.90818000  0.68792000  0.02508000  1.0 -0.5580830904
O  O86  1  0.68792000  0.90818000  0.37882000  1.0 -0.5580830904
O  O87  1  0.02508000  0.37882000  0.90818000  1.0 -0.5580830904
O  O88  1  0.37882000  0.02508000  0.68792000  1.0 -0.5580830904
O  O89  1  0.02508000  0.90818000  0.68792000  1.0 -0.5580830904
O  O90  1  0.37882000  0.68792000  0.90818000  1.0 -0.5580830904
O  O91  1  0.90818000  0.02508000  0.37882000  1.0 -0.5580830904
O  O92  1  0.68792000  0.37882000  0.02508000  1.0 -0.5580830904
O  O93  1  0.68792000  0.02508000  0.90818000  1.0 -0.5580830904
O  O94  1  0.90818000  0.37882000  0.68792000  1.0 -0.5580830904
O  O95  1  0.37882000  0.90818000  0.02508000  1.0 -0.5580830904
O  O96  1  0.02508000  0.68792000  0.37882000  1.0 -0.5580830904
O  O97  1  0.09260000  0.23610000  0.97604000  1.0 -0.5196215641
O  O98  1  0.23610000  0.09260000  0.69526000  1.0 -0.5196215641
O  O99  1  0.97604000  0.69526000  0.09260000  1.0 -0.5196215641
O  O100  1  0.69526000  0.97604000  0.23610000  1.0 -0.5196215641
O  O101  1  0.97604000  0.09260000  0.23610000  1.0 -0.5196215641
O  O102  1  0.69526000  0.23610000  0.09260000  1.0 -0.5196215641
O  O103  1  0.09260000  0.97604000  0.69526000  1.0 -0.5196215641
O  O104  1  0.23610000  0.69526000  0.97604000  1.0 -0.5196215641
O  O105  1  0.23610000  0.97604000  0.09260000  1.0 -0.5196215641
O  O106  1  0.09260000  0.69526000  0.23610000  1.0 -0.5196215641
O  O107  1  0.69526000  0.09260000  0.97604000  1.0 -0.5196215641
O  O108  1  0.97604000  0.23610000  0.69526000  1.0 -0.5196215641
O  O109  1  0.90740000  0.76390000  0.02396000  1.0 -0.5196215641
O  O110  1  0.76390000  0.90740000  0.30474000  1.0 -0.5196215641
O  O111  1  0.02396000  0.30474000  0.90740000  1.0 -0.5196215641
O  O112  1  0.30474000  0.02396000  0.76390000  1.0 -0.5196215641
O  O113  1  0.02396000  0.90740000  0.76390000  1.0 -0.5196215641
O  O114  1  0.30474000  0.76390000  0.90740000  1.0 -0.5196215641
O  O115  1  0.90740000  0.02396000  0.30474000  1.0 -0.5196215641
O  O116  1  0.76390000  0.30474000  0.02396000  1.0 -0.5196215641
O  O117  1  0.76390000  0.02396000  0.90740000  1.0 -0.5196215641
O  O118  1  0.90740000  0.30474000  0.76390000  1.0 -0.5196215641
O  O119  1  0.30474000  0.90740000  0.02396000  1.0 -0.5196215641
O  O120  1  0.02396000  0.76390000  0.30474000  1.0 -0.5196215641
O  O121  1  0.19780000  0.99880000  0.00120000  1.0 -0.2908514844
O  O122  1  0.99880000  0.19780000  0.80220000  1.0 -0.2810045417
O  O123  1  0.00120000  0.80220000  0.19780000  1.0 -0.2810045417
O  O124  1  0.80220000  0.00120000  0.99880000  1.0 -0.2908514844
O  O125  1  0.00120000  0.19780000  0.99880000  1.0 -0.2908514844
O  O126  1  0.80220000  0.99880000  0.19780000  1.0 -0.2908514844
O  O127  1  0.19780000  0.00120000  0.80220000  1.0 -0.2810045417
O  O128  1  0.99880000  0.80220000  0.00120000  1.0 -0.2810045417
O  O129  1  0.99880000  0.00120000  0.19780000  1.0 -0.2810045417
O  O130  1  0.19780000  0.80220000  0.99880000  1.0 -0.2908514844
O  O131  1  0.80220000  0.19780000  0.00120000  1.0 -0.2810045417
O  O132  1  0.00120000  0.99880000  0.80220000  1.0 -0.2810045417
O  O133  1  0.42960000  0.97100000  0.02900000  1.0 -0.2284966236
O  O134  1  0.97100000  0.42960000  0.57040000  1.0 -0.2284966236
O  O135  1  0.02900000  0.57040000  0.42960000  1.0 -0.2284966236
O  O136  1  0.57040000  0.02900000  0.97100000  1.0 -0.2284966236
O  O137  1  0.02900000  0.42960000  0.97100000  1.0 -0.2212619962
O  O138  1  0.57040000  0.97100000  0.42960000  1.0 -0.2284966236
O  O139  1  0.42960000  0.02900000  0.57040000  1.0 -0.2212619962
O  O140  1  0.97100000  0.57040000  0.02900000  1.0 -0.2212619962
O  O141  1  0.97100000  0.02900000  0.42960000  1.0 -0.2212619962
O  O142  1  0.42960000  0.57040000  0.97100000  1.0 -0.2284966236
O  O143  1  0.57040000  0.42960000  0.02900000  1.0 -0.2284966236
O  O144  1  0.02900000  0.97100000  0.57040000  1.0 -0.2284966236
