# DDEC6 charges by PACMAN v1.1 (https://github.com/mtap-research/PACMAN-charge/)
data_UXOHOG_ASR_pacman
_symmetry_space_group_name_H-M   'P 1'
_cell_length_a   18.86840000
_cell_length_b   18.86840000
_cell_length_c   51.01470000
_cell_angle_alpha   90.00000000
_cell_angle_beta   90.00000000
_cell_angle_gamma   120.00000000
_symmetry_Int_Tables_number   1
_chemical_formula_structural   Cu3H26(C7O2)6
_chemical_formula_sum   'Cu18 H156 C252 O72'
_cell_volume   15728.81910567
_cell_formula_units_Z   6
loop_
 _symmetry_equiv_pos_site_id
 _symmetry_equiv_pos_as_xyz
  1  'x, y, z'
loop_
 _atom_site_type_symbol
 _atom_site_label
 _atom_site_symmetry_multiplicity
 _atom_site_fract_x
 _atom_site_fract_y
 _atom_site_fract_z
 _atom_site_occupancy
 _atom_site_charge
Cu  Cu1  1  0.04506000  0.52253000  0.52173000  1.0 0.8496406236
Cu  Cu2  1  0.52253000  0.04506000  0.02173000  1.0 0.8496406236
Cu  Cu3  1  0.47747000  0.52253000  0.52173000  1.0 0.8496406236
Cu  Cu4  1  0.95494000  0.47747000  0.02173000  1.0 0.8496406236
Cu  Cu5  1  0.47747000  0.95494000  0.52173000  1.0 0.8496406236
Cu  Cu6  1  0.52253000  0.47747000  0.02173000  1.0 0.8496406236
Cu  Cu7  1  0.47747000  0.95494000  0.97827000  1.0 0.8496406236
Cu  Cu8  1  0.52253000  0.47747000  0.47827000  1.0 0.8496406236
Cu  Cu9  1  0.04506000  0.52253000  0.97827000  1.0 0.8496406236
Cu  Cu10  1  0.52253000  0.04506000  0.47827000  1.0 0.8496406236
Cu  Cu11  1  0.47747000  0.52253000  0.97827000  1.0 0.8496406236
Cu  Cu12  1  0.95494000  0.47747000  0.47827000  1.0 0.8496406236
Cu  Cu13  1  0.05970000  0.94030000  0.75000000  1.0 0.8623280087
Cu  Cu14  1  0.11940000  0.05970000  0.25000000  1.0 0.8623280087
Cu  Cu15  1  0.05970000  0.11940000  0.75000000  1.0 0.8623280087
Cu  Cu16  1  0.94030000  0.05970000  0.25000000  1.0 0.8623280087
Cu  Cu17  1  0.88060000  0.94030000  0.75000000  1.0 0.8623280087
Cu  Cu18  1  0.94030000  0.88060000  0.25000000  1.0 0.8623280087
H  H1  1  0.76336000  0.52671000  0.50260000  1.0 0.1322016799
H  H2  1  0.23664000  0.76336000  0.00260000  1.0 0.1322016799
H  H3  1  0.47329000  0.23664000  0.50260000  1.0 0.1322016799
H  H4  1  0.23664000  0.47329000  0.00260000  1.0 0.1322016799
H  H5  1  0.76336000  0.23664000  0.50260000  1.0 0.1322016799
H  H6  1  0.52671000  0.76336000  0.00260000  1.0 0.1322016799
H  H7  1  0.47329000  0.23664000  0.99740000  1.0 0.1322016799
H  H8  1  0.23664000  0.47329000  0.49740000  1.0 0.1322016799
H  H9  1  0.76336000  0.23664000  0.99740000  1.0 0.1322016799
H  H10  1  0.52671000  0.76336000  0.49740000  1.0 0.1322016799
H  H11  1  0.76336000  0.52671000  0.99740000  1.0 0.1322016799
H  H12  1  0.23664000  0.76336000  0.49740000  1.0 0.1322016799
H  H13  1  0.91201000  0.61291000  0.56450000  1.0 0.1394760766
H  H14  1  0.29910000  0.91201000  0.06450000  1.0 0.1394760766
H  H15  1  0.38709000  0.29910000  0.56450000  1.0 0.1394760766
H  H16  1  0.08799000  0.38709000  0.06450000  1.0 0.1394760766
H  H17  1  0.70090000  0.08799000  0.56450000  1.0 0.1394760766
H  H18  1  0.61291000  0.70090000  0.06450000  1.0 0.1394760766
H  H19  1  0.38709000  0.08799000  0.93550000  1.0 0.1394760766
H  H20  1  0.29910000  0.38709000  0.43550000  1.0 0.1394760766
H  H21  1  0.91201000  0.29910000  0.93550000  1.0 0.1394760766
H  H22  1  0.61291000  0.91201000  0.43550000  1.0 0.1394760766
H  H23  1  0.70090000  0.61291000  0.93550000  1.0 0.1394760766
H  H24  1  0.08799000  0.70090000  0.43550000  1.0 0.1394760766
H  H25  1  0.08799000  0.38709000  0.43550000  1.0 0.1394760766
H  H26  1  0.70090000  0.08799000  0.93550000  1.0 0.1394760766
H  H27  1  0.61291000  0.70090000  0.43550000  1.0 0.1394760766
H  H28  1  0.91201000  0.61291000  0.93550000  1.0 0.1394760766
H  H29  1  0.29910000  0.91201000  0.43550000  1.0 0.1394760766
H  H30  1  0.38709000  0.29910000  0.93550000  1.0 0.1394760766
H  H31  1  0.61291000  0.91201000  0.06450000  1.0 0.1394760766
H  H32  1  0.70090000  0.61291000  0.56450000  1.0 0.1394760766
H  H33  1  0.08799000  0.70090000  0.06450000  1.0 0.1394760766
H  H34  1  0.38709000  0.08799000  0.56450000  1.0 0.1394760766
H  H35  1  0.29910000  0.38709000  0.06450000  1.0 0.1394760766
H  H36  1  0.91201000  0.29910000  0.56450000  1.0 0.1394760766
H  H37  1  0.79581000  0.79711000  0.68410000  1.0 0.1209388837
H  H38  1  0.99870000  0.79581000  0.18410000  1.0 0.1209388837
H  H39  1  0.20289000  0.99870000  0.68410000  1.0 0.1209388837
H  H40  1  0.20419000  0.20289000  0.18410000  1.0 0.1209388837
H  H41  1  0.00130000  0.20419000  0.68410000  1.0 0.1209388837
H  H42  1  0.79711000  0.00130000  0.18410000  1.0 0.1209388837
H  H43  1  0.20289000  0.20419000  0.81590000  1.0 0.1209388837
H  H44  1  0.99870000  0.20289000  0.31590000  1.0 0.1209388837
H  H45  1  0.79581000  0.99870000  0.81590000  1.0 0.1209388837
H  H46  1  0.79711000  0.79581000  0.31590000  1.0 0.1209388837
H  H47  1  0.00130000  0.79711000  0.81590000  1.0 0.1209388837
H  H48  1  0.20419000  0.00130000  0.31590000  1.0 0.1209388837
H  H49  1  0.20419000  0.20289000  0.31590000  1.0 0.1209388837
H  H50  1  0.00130000  0.20419000  0.81590000  1.0 0.1209388837
H  H51  1  0.79711000  0.00130000  0.31590000  1.0 0.1209388837
H  H52  1  0.79581000  0.79711000  0.81590000  1.0 0.1209388837
H  H53  1  0.99870000  0.79581000  0.31590000  1.0 0.1209388837
H  H54  1  0.20289000  0.99870000  0.81590000  1.0 0.1209388837
H  H55  1  0.79711000  0.79581000  0.18410000  1.0 0.1209388837
H  H56  1  0.00130000  0.79711000  0.68410000  1.0 0.1209388837
H  H57  1  0.20419000  0.00130000  0.18410000  1.0 0.1209388837
H  H58  1  0.20289000  0.20419000  0.68410000  1.0 0.1209388837
H  H59  1  0.99870000  0.20289000  0.18410000  1.0 0.1209388837
H  H60  1  0.79581000  0.99870000  0.68410000  1.0 0.1209388837
H  H61  1  0.70711000  0.71241000  0.64110000  1.0 0.081642519
H  H62  1  0.99470000  0.70711000  0.14110000  1.0 0.081642519
H  H63  1  0.28759000  0.99470000  0.64110000  1.0 0.081642519
H  H64  1  0.29289000  0.28759000  0.14110000  1.0 0.081642519
H  H65  1  0.00530000  0.29289000  0.64110000  1.0 0.081642519
H  H66  1  0.71241000  0.00530000  0.14110000  1.0 0.081642519
H  H67  1  0.28759000  0.29289000  0.85890000  1.0 0.081642519
H  H68  1  0.99470000  0.28759000  0.35890000  1.0 0.081642519
H  H69  1  0.70711000  0.99470000  0.85890000  1.0 0.081642519
H  H70  1  0.71241000  0.70711000  0.35890000  1.0 0.081642519
H  H71  1  0.00530000  0.71241000  0.85890000  1.0 0.081642519
H  H72  1  0.29289000  0.00530000  0.35890000  1.0 0.081642519
H  H73  1  0.29289000  0.28759000  0.35890000  1.0 0.081642519
H  H74  1  0.00530000  0.29289000  0.85890000  1.0 0.081642519
H  H75  1  0.71241000  0.00530000  0.35890000  1.0 0.081642519
H  H76  1  0.70711000  0.71241000  0.85890000  1.0 0.081642519
H  H77  1  0.99470000  0.70711000  0.35890000  1.0 0.081642519
H  H78  1  0.28759000  0.99470000  0.85890000  1.0 0.081642519
H  H79  1  0.71241000  0.70711000  0.14110000  1.0 0.081642519
H  H80  1  0.00530000  0.71241000  0.64110000  1.0 0.081642519
H  H81  1  0.29289000  0.00530000  0.14110000  1.0 0.081642519
H  H82  1  0.28759000  0.29289000  0.64110000  1.0 0.081642519
H  H83  1  0.99470000  0.28759000  0.14110000  1.0 0.081642519
H  H84  1  0.70711000  0.99470000  0.64110000  1.0 0.081642519
H  H85  1  0.76381000  0.75121000  0.61660000  1.0 0.1209388837
H  H86  1  0.01260000  0.76381000  0.11660000  1.0 0.1209388837
H  H87  1  0.24879000  0.01260000  0.61660000  1.0 0.1209388837
H  H88  1  0.23619000  0.24879000  0.11660000  1.0 0.1209388837
H  H89  1  0.98740000  0.23619000  0.61660000  1.0 0.1209388837
H  H90  1  0.75121000  0.98740000  0.11660000  1.0 0.1209388837
H  H91  1  0.24879000  0.23619000  0.88340000  1.0 0.1209388837
H  H92  1  0.01260000  0.24879000  0.38340000  1.0 0.1209388837
H  H93  1  0.76381000  0.01260000  0.88340000  1.0 0.1209388837
H  H94  1  0.75121000  0.76381000  0.38340000  1.0 0.1209388837
H  H95  1  0.98740000  0.75121000  0.88340000  1.0 0.1209388837
H  H96  1  0.23619000  0.98740000  0.38340000  1.0 0.1209388837
H  H97  1  0.23619000  0.24879000  0.38340000  1.0 0.1209388837
H  H98  1  0.98740000  0.23619000  0.88340000  1.0 0.1209388837
H  H99  1  0.75121000  0.98740000  0.38340000  1.0 0.1209388837
H  H100  1  0.76381000  0.75121000  0.88340000  1.0 0.1209388837
H  H101  1  0.01260000  0.76381000  0.38340000  1.0 0.1209388837
H  H102  1  0.24879000  0.01260000  0.88340000  1.0 0.1209388837
H  H103  1  0.75121000  0.76381000  0.11660000  1.0 0.1209388837
H  H104  1  0.98740000  0.75121000  0.61660000  1.0 0.1209388837
H  H105  1  0.23619000  0.98740000  0.11660000  1.0 0.1209388837
H  H106  1  0.24879000  0.23619000  0.61660000  1.0 0.1209388837
H  H107  1  0.01260000  0.24879000  0.11660000  1.0 0.1209388837
H  H108  1  0.76381000  0.01260000  0.61660000  1.0 0.1209388837
H  H109  1  0.75171000  0.80731000  0.63660000  1.0 0.1209388837
H  H110  1  0.94440000  0.75171000  0.13660000  1.0 0.1209388837
H  H111  1  0.19269000  0.94440000  0.63660000  1.0 0.1209388837
H  H112  1  0.24829000  0.19269000  0.13660000  1.0 0.1209388837
H  H113  1  0.05560000  0.24829000  0.63660000  1.0 0.1209388837
H  H114  1  0.80731000  0.05560000  0.13660000  1.0 0.1209388837
H  H115  1  0.19269000  0.24829000  0.86340000  1.0 0.1209388837
H  H116  1  0.94440000  0.19269000  0.36340000  1.0 0.1209388837
H  H117  1  0.75171000  0.94440000  0.86340000  1.0 0.1209388837
H  H118  1  0.80731000  0.75171000  0.36340000  1.0 0.1209388837
H  H119  1  0.05560000  0.80731000  0.86340000  1.0 0.1209388837
H  H120  1  0.24829000  0.05560000  0.36340000  1.0 0.1209388837
H  H121  1  0.24829000  0.19269000  0.36340000  1.0 0.1209388837
H  H122  1  0.05560000  0.24829000  0.86340000  1.0 0.1209388837
H  H123  1  0.80731000  0.05560000  0.36340000  1.0 0.1209388837
H  H124  1  0.75171000  0.80731000  0.86340000  1.0 0.1209388837
H  H125  1  0.94440000  0.75171000  0.36340000  1.0 0.1209388837
H  H126  1  0.19269000  0.94440000  0.86340000  1.0 0.1209388837
H  H127  1  0.80731000  0.75171000  0.13660000  1.0 0.1209388837
H  H128  1  0.05560000  0.80731000  0.63660000  1.0 0.1209388837
H  H129  1  0.24829000  0.05560000  0.13660000  1.0 0.1209388837
H  H130  1  0.19269000  0.24829000  0.63660000  1.0 0.1209388837
H  H131  1  0.94440000  0.19269000  0.13660000  1.0 0.1209388837
H  H132  1  0.75171000  0.94440000  0.63660000  1.0 0.1209388837
H  H133  1  0.76001000  0.73531000  0.64330000  1.0 0.0496878617
H  H134  1  0.02470000  0.76001000  0.14330000  1.0 0.0496878617
H  H135  1  0.26469000  0.02470000  0.64330000  1.0 0.0496878617
H  H136  1  0.23999000  0.26469000  0.14330000  1.0 0.0496878617
H  H137  1  0.97530000  0.23999000  0.64330000  1.0 0.0496878617
H  H138  1  0.73531000  0.97530000  0.14330000  1.0 0.0496878617
H  H139  1  0.26469000  0.23999000  0.85670000  1.0 0.0496878617
H  H140  1  0.02470000  0.26469000  0.35670000  1.0 0.0496878617
H  H141  1  0.76001000  0.02470000  0.85670000  1.0 0.0496878617
H  H142  1  0.73531000  0.76001000  0.35670000  1.0 0.0496878617
H  H143  1  0.97530000  0.73531000  0.85670000  1.0 0.0496878617
H  H144  1  0.23999000  0.97530000  0.35670000  1.0 0.0496878617
H  H145  1  0.23999000  0.26469000  0.35670000  1.0 0.0496878617
H  H146  1  0.97530000  0.23999000  0.85670000  1.0 0.0496878617
H  H147  1  0.73531000  0.97530000  0.35670000  1.0 0.0496878617
H  H148  1  0.76001000  0.73531000  0.85670000  1.0 0.0496878617
H  H149  1  0.02470000  0.76001000  0.35670000  1.0 0.0496878617
H  H150  1  0.26469000  0.02470000  0.85670000  1.0 0.0496878617
H  H151  1  0.73531000  0.76001000  0.14330000  1.0 0.0496878617
H  H152  1  0.97530000  0.73531000  0.64330000  1.0 0.0496878617
H  H153  1  0.23999000  0.97530000  0.14330000  1.0 0.0496878617
H  H154  1  0.26469000  0.23999000  0.64330000  1.0 0.0496878617
H  H155  1  0.02470000  0.26469000  0.14330000  1.0 0.0496878617
H  H156  1  0.76001000  0.02470000  0.64330000  1.0 0.0496878617
C  C1  1  0.90627000  0.54495000  0.51901000  1.0 0.5802982582
C  C2  1  0.36132000  0.90627000  0.01901000  1.0 0.5802982582
C  C3  1  0.45505000  0.36132000  0.51901000  1.0 0.5802982582
C  C4  1  0.09373000  0.45505000  0.01901000  1.0 0.5802982582
C  C5  1  0.63868000  0.09373000  0.51901000  1.0 0.5802982582
C  C6  1  0.54495000  0.63868000  0.01901000  1.0 0.5802982582
C  C7  1  0.45505000  0.09373000  0.98099000  1.0 0.5802982582
C  C8  1  0.36132000  0.45505000  0.48099000  1.0 0.5802982582
C  C9  1  0.90627000  0.36132000  0.98099000  1.0 0.5802982582
C  C10  1  0.54495000  0.90627000  0.48099000  1.0 0.5802982582
C  C11  1  0.63868000  0.54495000  0.98099000  1.0 0.5802982582
C  C12  1  0.09373000  0.63868000  0.48099000  1.0 0.5802982582
C  C13  1  0.09373000  0.45505000  0.48099000  1.0 0.5802982582
C  C14  1  0.63868000  0.09373000  0.98099000  1.0 0.5802982582
C  C15  1  0.54495000  0.63868000  0.48099000  1.0 0.5802982582
C  C16  1  0.90627000  0.54495000  0.98099000  1.0 0.5802982582
C  C17  1  0.36132000  0.90627000  0.48099000  1.0 0.5802982582
C  C18  1  0.45505000  0.36132000  0.98099000  1.0 0.5802982582
C  C19  1  0.54495000  0.90627000  0.01901000  1.0 0.5802982582
C  C20  1  0.63868000  0.54495000  0.51901000  1.0 0.5802982582
C  C21  1  0.09373000  0.63868000  0.01901000  1.0 0.5802982582
C  C22  1  0.45505000  0.09373000  0.51901000  1.0 0.5802982582
C  C23  1  0.36132000  0.45505000  0.01901000  1.0 0.5802982582
C  C24  1  0.90627000  0.36132000  0.51901000  1.0 0.5802982582
C  C25  1  0.84805000  0.56826000  0.53119000  1.0 -0.0320716164
C  C26  1  0.27979000  0.84805000  0.03119000  1.0 -0.0320716164
C  C27  1  0.43174000  0.27979000  0.53119000  1.0 -0.0320716164
C  C28  1  0.15195000  0.43174000  0.03119000  1.0 -0.0320716164
C  C29  1  0.72021000  0.15195000  0.53119000  1.0 -0.0320716164
C  C30  1  0.56826000  0.72021000  0.03119000  1.0 -0.0320716164
C  C31  1  0.43174000  0.15195000  0.96881000  1.0 -0.0320716164
C  C32  1  0.27979000  0.43174000  0.46881000  1.0 -0.0320716164
C  C33  1  0.84805000  0.27979000  0.96881000  1.0 -0.0320716164
C  C34  1  0.56826000  0.84805000  0.46881000  1.0 -0.0320716164
C  C35  1  0.72021000  0.56826000  0.96881000  1.0 -0.0320716164
C  C36  1  0.15195000  0.72021000  0.46881000  1.0 -0.0320716164
C  C37  1  0.15195000  0.43174000  0.46881000  1.0 -0.0320716164
C  C38  1  0.72021000  0.15195000  0.96881000  1.0 -0.0320716164
C  C39  1  0.56826000  0.72021000  0.46881000  1.0 -0.0320716164
C  C40  1  0.84805000  0.56826000  0.96881000  1.0 -0.0320716164
C  C41  1  0.27979000  0.84805000  0.46881000  1.0 -0.0320716164
C  C42  1  0.43174000  0.27979000  0.96881000  1.0 -0.0320716164
C  C43  1  0.56826000  0.84805000  0.03119000  1.0 -0.0320716164
C  C44  1  0.72021000  0.56826000  0.53119000  1.0 -0.0320716164
C  C45  1  0.15195000  0.72021000  0.03119000  1.0 -0.0320716164
C  C46  1  0.43174000  0.15195000  0.53119000  1.0 -0.0320716164
C  C47  1  0.27979000  0.43174000  0.03119000  1.0 -0.0320716164
C  C48  1  0.84805000  0.27979000  0.53119000  1.0 -0.0320716164
C  C49  1  0.77536000  0.55071000  0.51911000  1.0 -0.0985373214
C  C50  1  0.22464000  0.77535000  0.01911000  1.0 -0.0985373214
C  C51  1  0.44929000  0.22465000  0.51911000  1.0 -0.0985373214
C  C52  1  0.22465000  0.44929000  0.01911000  1.0 -0.0985373214
C  C53  1  0.77536000  0.22465000  0.51911000  1.0 -0.0985373214
C  C54  1  0.55071000  0.77535000  0.01911000  1.0 -0.0985373214
C  C55  1  0.44929000  0.22465000  0.98089000  1.0 -0.0985373214
C  C56  1  0.22465000  0.44929000  0.48089000  1.0 -0.0985373214
C  C57  1  0.77536000  0.22465000  0.98089000  1.0 -0.0985373214
C  C58  1  0.55071000  0.77535000  0.48089000  1.0 -0.0985373214
C  C59  1  0.77536000  0.55071000  0.98089000  1.0 -0.0985373214
C  C60  1  0.22464000  0.77535000  0.48089000  1.0 -0.0985373214
C  C61  1  0.86446000  0.60292000  0.55592000  1.0 -0.0923747966
C  C62  1  0.26154000  0.86446000  0.05592000  1.0 -0.0923747966
C  C63  1  0.39708000  0.26154000  0.55592000  1.0 -0.0923747966
C  C64  1  0.13554000  0.39708000  0.05592000  1.0 -0.0923747966
C  C65  1  0.73846000  0.13554000  0.55592000  1.0 -0.0923747966
C  C66  1  0.60292000  0.73846000  0.05592000  1.0 -0.0923747966
C  C67  1  0.39708000  0.13554000  0.94408000  1.0 -0.0923747966
C  C68  1  0.26154000  0.39708000  0.44408000  1.0 -0.0923747966
C  C69  1  0.86446000  0.26154000  0.94408000  1.0 -0.0923747966
C  C70  1  0.60292000  0.86446000  0.44408000  1.0 -0.0923747966
C  C71  1  0.73846000  0.60292000  0.94408000  1.0 -0.0923747966
C  C72  1  0.13554000  0.73846000  0.44408000  1.0 -0.0923747966
C  C73  1  0.13554000  0.39708000  0.44408000  1.0 -0.0923747966
C  C74  1  0.73846000  0.13554000  0.94408000  1.0 -0.0923747966
C  C75  1  0.60292000  0.73846000  0.44408000  1.0 -0.0923747966
C  C76  1  0.86446000  0.60292000  0.94408000  1.0 -0.0923747966
C  C77  1  0.26154000  0.86446000  0.44408000  1.0 -0.0923747966
C  C78  1  0.39708000  0.26154000  0.94408000  1.0 -0.0923747966
C  C79  1  0.60292000  0.86446000  0.05592000  1.0 -0.0923747966
C  C80  1  0.73846000  0.60292000  0.55592000  1.0 -0.0923747966
C  C81  1  0.13554000  0.73846000  0.05592000  1.0 -0.0923747966
C  C82  1  0.39708000  0.13554000  0.55592000  1.0 -0.0923747966
C  C83  1  0.26154000  0.39708000  0.05592000  1.0 -0.0923747966
C  C84  1  0.86446000  0.26154000  0.55592000  1.0 -0.0923747966
C  C85  1  0.81141000  0.62281000  0.56800000  1.0 0.0972956571
C  C86  1  0.18860000  0.81141000  0.06800000  1.0 0.0972956571
C  C87  1  0.37719000  0.18860000  0.56800000  1.0 0.0972956571
C  C88  1  0.18860000  0.37719000  0.06800000  1.0 0.0972956571
C  C89  1  0.81141000  0.18860000  0.56800000  1.0 0.0972956571
C  C90  1  0.62281000  0.81141000  0.06800000  1.0 0.0972956571
C  C91  1  0.37719000  0.18860000  0.93200000  1.0 0.0972956571
C  C92  1  0.18860000  0.37719000  0.43200000  1.0 0.0972956571
C  C93  1  0.81141000  0.18860000  0.93200000  1.0 0.0972956571
C  C94  1  0.62281000  0.81141000  0.43200000  1.0 0.0972956571
C  C95  1  0.81141000  0.62281000  0.93200000  1.0 0.0972956571
C  C96  1  0.18860000  0.81141000  0.43200000  1.0 0.0972956571
C  C97  1  0.82991000  0.65981000  0.59409000  1.0 -0.15873593
C  C98  1  0.17009000  0.82991000  0.09409000  1.0 -0.15873593
C  C99  1  0.34019000  0.17009000  0.59409000  1.0 -0.15873593
C  C100  1  0.17009000  0.34019000  0.09409000  1.0 -0.15873593
C  C101  1  0.82991000  0.17009000  0.59409000  1.0 -0.15873593
C  C102  1  0.65981000  0.82991000  0.09409000  1.0 -0.15873593
C  C103  1  0.34019000  0.17009000  0.90591000  1.0 -0.15873593
C  C104  1  0.17009000  0.34019000  0.40591000  1.0 -0.15873593
C  C105  1  0.82991000  0.17009000  0.90591000  1.0 -0.15873593
C  C106  1  0.65981000  0.82991000  0.40591000  1.0 -0.15873593
C  C107  1  0.82991000  0.65981000  0.90591000  1.0 -0.15873593
C  C108  1  0.17009000  0.82991000  0.40591000  1.0 -0.15873593
C  C109  1  0.84661000  0.69321000  0.61466000  1.0 -0.0985373214
C  C110  1  0.15339000  0.84660000  0.11466000  1.0 -0.0985373214
C  C111  1  0.30679000  0.15340000  0.61466000  1.0 -0.0985373214
C  C112  1  0.15340000  0.30679000  0.11466000  1.0 -0.0985373214
C  C113  1  0.84661000  0.15340000  0.61466000  1.0 -0.0985373214
C  C114  1  0.69321000  0.84660000  0.11466000  1.0 -0.0985373214
C  C115  1  0.30679000  0.15340000  0.88534000  1.0 -0.0985373214
C  C116  1  0.15340000  0.30679000  0.38534000  1.0 -0.0985373214
C  C117  1  0.84661000  0.15340000  0.88534000  1.0 -0.0985373214
C  C118  1  0.69321000  0.84660000  0.38534000  1.0 -0.0985373214
C  C119  1  0.84661000  0.69321000  0.88534000  1.0 -0.0985373214
C  C120  1  0.15339000  0.84660000  0.38534000  1.0 -0.0985373214
C  C121  1  0.86641000  0.73281000  0.63995000  1.0 -0.00073601
C  C122  1  0.13359000  0.86640000  0.13995000  1.0 0.0013643557
C  C123  1  0.26719000  0.13359000  0.63995000  1.0 0.0013643557
C  C124  1  0.13359000  0.26719000  0.13995000  1.0 0.0013643557
C  C125  1  0.86641000  0.13359000  0.63995000  1.0 -0.00073601
C  C126  1  0.73281000  0.86640000  0.13995000  1.0 0.0013643557
C  C127  1  0.26719000  0.13359000  0.86005000  1.0 0.0013643557
C  C128  1  0.13359000  0.26719000  0.36005000  1.0 0.0013643557
C  C129  1  0.86641000  0.13359000  0.86005000  1.0 -0.00073601
C  C130  1  0.73281000  0.86640000  0.36005000  1.0 0.0013643557
C  C131  1  0.86641000  0.73281000  0.86005000  1.0 -0.00073601
C  C132  1  0.13359000  0.86640000  0.36005000  1.0 0.0013643557
C  C133  1  0.83741000  0.79311000  0.67575000  1.0 -0.135513352
C  C134  1  0.04430000  0.83741000  0.17575000  1.0 -0.1342783591
C  C135  1  0.20689000  0.04430000  0.67575000  1.0 -0.135513352
C  C136  1  0.16259000  0.20689000  0.17575000  1.0 -0.1342783591
C  C137  1  0.95570000  0.16259000  0.67575000  1.0 -0.1342783591
C  C138  1  0.79311000  0.95570000  0.17575000  1.0 -0.1342783591
C  C139  1  0.20689000  0.16259000  0.82425000  1.0 -0.1342783591
C  C140  1  0.04430000  0.20689000  0.32425000  1.0 -0.1342783591
C  C141  1  0.83741000  0.04430000  0.82425000  1.0 -0.135513352
C  C142  1  0.79311000  0.83741000  0.32425000  1.0 -0.1342783591
C  C143  1  0.95570000  0.79311000  0.82425000  1.0 -0.1342783591
C  C144  1  0.16259000  0.95570000  0.32425000  1.0 -0.1342783591
C  C145  1  0.16259000  0.20689000  0.32425000  1.0 -0.1342783591
C  C146  1  0.95570000  0.16259000  0.82425000  1.0 -0.1342783591
C  C147  1  0.79311000  0.95570000  0.32425000  1.0 -0.1342783591
C  C148  1  0.83741000  0.79311000  0.82425000  1.0 -0.135513352
C  C149  1  0.04430000  0.83741000  0.32425000  1.0 -0.1342783591
C  C150  1  0.20689000  0.04430000  0.82425000  1.0 -0.135513352
C  C151  1  0.79311000  0.83741000  0.17575000  1.0 -0.1342783591
C  C152  1  0.95570000  0.79311000  0.67575000  1.0 -0.135513352
C  C153  1  0.16259000  0.95570000  0.17575000  1.0 -0.1342783591
C  C154  1  0.20689000  0.16259000  0.67575000  1.0 -0.1342783591
C  C155  1  0.04430000  0.20689000  0.17575000  1.0 -0.1342783591
C  C156  1  0.83741000  0.04430000  0.67575000  1.0 -0.135513352
C  C157  1  0.90521000  0.81041000  0.68755000  1.0 -0.0985373214
C  C158  1  0.09479000  0.90521000  0.18755000  1.0 -0.0985373214
C  C159  1  0.18959000  0.09480000  0.68755000  1.0 -0.0923747966
C  C160  1  0.09480000  0.18959000  0.18755000  1.0 -0.0985373214
C  C161  1  0.90521000  0.09480000  0.68755000  1.0 -0.0923747966
C  C162  1  0.81041000  0.90521000  0.18755000  1.0 -0.0985373214
C  C163  1  0.18959000  0.09480000  0.81245000  1.0 -0.0923747966
C  C164  1  0.09480000  0.18959000  0.31245000  1.0 -0.0985373214
C  C165  1  0.90521000  0.09480000  0.81245000  1.0 -0.0923747966
C  C166  1  0.81041000  0.90521000  0.31245000  1.0 -0.0985373214
C  C167  1  0.90521000  0.81041000  0.81245000  1.0 -0.0985373214
C  C168  1  0.09479000  0.90521000  0.31245000  1.0 -0.0985373214
C  C169  1  0.83131000  0.76941000  0.65099000  1.0 -0.0320716164
C  C170  1  0.06190000  0.83131000  0.15099000  1.0 -0.036725613
C  C171  1  0.23059000  0.06190000  0.65099000  1.0 -0.036725613
C  C172  1  0.16869000  0.23059000  0.15099000  1.0 -0.036725613
C  C173  1  0.93810000  0.16869000  0.65099000  1.0 -0.0320716164
C  C174  1  0.76941000  0.93810000  0.15099000  1.0 -0.0320716164
C  C175  1  0.23059000  0.16869000  0.84901000  1.0 -0.036725613
C  C176  1  0.06190000  0.23059000  0.34901000  1.0 -0.036725613
C  C177  1  0.83131000  0.06190000  0.84901000  1.0 -0.036725613
C  C178  1  0.76941000  0.83131000  0.34901000  1.0 -0.0320716164
C  C179  1  0.93810000  0.76941000  0.84901000  1.0 -0.036725613
C  C180  1  0.16869000  0.93810000  0.34901000  1.0 -0.036725613
C  C181  1  0.16869000  0.23059000  0.34901000  1.0 -0.036725613
C  C182  1  0.93810000  0.16869000  0.84901000  1.0 -0.036725613
C  C183  1  0.76941000  0.93810000  0.34901000  1.0 -0.0320716164
C  C184  1  0.83131000  0.76941000  0.84901000  1.0 -0.036725613
C  C185  1  0.06190000  0.83131000  0.34901000  1.0 -0.036725613
C  C186  1  0.23059000  0.06190000  0.84901000  1.0 -0.036725613
C  C187  1  0.76941000  0.83131000  0.15099000  1.0 -0.0320716164
C  C188  1  0.93810000  0.76941000  0.65099000  1.0 -0.036725613
C  C189  1  0.16869000  0.93810000  0.15099000  1.0 -0.036725613
C  C190  1  0.23059000  0.16869000  0.65099000  1.0 -0.036725613
C  C191  1  0.06190000  0.23059000  0.15099000  1.0 -0.036725613
C  C192  1  0.83131000  0.06190000  0.65099000  1.0 -0.036725613
C  C193  1  0.75621000  0.75911000  0.63474000  1.0 -0.3087434487
C  C194  1  0.99710000  0.75621000  0.13474000  1.0 -0.3087434487
C  C195  1  0.24089000  0.99710000  0.63474000  1.0 -0.3087434487
C  C196  1  0.24379000  0.24089000  0.13474000  1.0 -0.3087434487
C  C197  1  0.00290000  0.24379000  0.63474000  1.0 -0.3087434487
C  C198  1  0.75911000  0.00290000  0.13474000  1.0 -0.3087434487
C  C199  1  0.24089000  0.24379000  0.86526000  1.0 -0.3087434487
C  C200  1  0.99710000  0.24089000  0.36526000  1.0 -0.3087434487
C  C201  1  0.75621000  0.99710000  0.86526000  1.0 -0.3087434487
C  C202  1  0.75911000  0.75621000  0.36526000  1.0 -0.3087434487
C  C203  1  0.00290000  0.75911000  0.86526000  1.0 -0.3087434487
C  C204  1  0.24379000  0.00290000  0.36526000  1.0 -0.3087434487
C  C205  1  0.24379000  0.24089000  0.36526000  1.0 -0.3087434487
C  C206  1  0.00290000  0.24379000  0.86526000  1.0 -0.3087434487
C  C207  1  0.75911000  0.00290000  0.36526000  1.0 -0.3087434487
C  C208  1  0.75621000  0.75911000  0.86526000  1.0 -0.3087434487
C  C209  1  0.99710000  0.75621000  0.36526000  1.0 -0.3087434487
C  C210  1  0.24089000  0.99710000  0.86526000  1.0 -0.3087434487
C  C211  1  0.75911000  0.75621000  0.13474000  1.0 -0.3087434487
C  C212  1  0.00290000  0.75911000  0.63474000  1.0 -0.3087434487
C  C213  1  0.24379000  0.00290000  0.13474000  1.0 -0.3087434487
C  C214  1  0.24089000  0.24379000  0.63474000  1.0 -0.3087434487
C  C215  1  0.99710000  0.24089000  0.13474000  1.0 -0.3087434487
C  C216  1  0.75621000  0.99710000  0.63474000  1.0 -0.3087434487
C  C217  1  0.92836000  0.85671000  0.71415000  1.0 0.5802982582
C  C218  1  0.07164000  0.92835000  0.21415000  1.0 0.5802982582
C  C219  1  0.14329000  0.07165000  0.71415000  1.0 0.5853045939
C  C220  1  0.07165000  0.14329000  0.21415000  1.0 0.5802982582
C  C221  1  0.92836000  0.07165000  0.71415000  1.0 0.5853045939
C  C222  1  0.85671000  0.92835000  0.21415000  1.0 0.5802982582
C  C223  1  0.14329000  0.07165000  0.78585000  1.0 0.5853045939
C  C224  1  0.07165000  0.14329000  0.28585000  1.0 0.5802982582
C  C225  1  0.92836000  0.07165000  0.78585000  1.0 0.5853045939
C  C226  1  0.85671000  0.92835000  0.28585000  1.0 0.5802982582
C  C227  1  0.92836000  0.85671000  0.78585000  1.0 0.5802982582
C  C228  1  0.07164000  0.92835000  0.28585000  1.0 0.5802982582
C  C229  1  0.81021000  0.74991000  0.65090000  1.0 0.0272553425
C  C230  1  0.06030000  0.81021000  0.15090000  1.0 0.0272553425
C  C231  1  0.25009000  0.06030000  0.65090000  1.0 0.0272553425
C  C232  1  0.18979000  0.25009000  0.15090000  1.0 0.0272553425
C  C233  1  0.93970000  0.18979000  0.65090000  1.0 0.0272553425
C  C234  1  0.74991000  0.93970000  0.15090000  1.0 0.0272553425
C  C235  1  0.25009000  0.18979000  0.84910000  1.0 0.0272553425
C  C236  1  0.06030000  0.25009000  0.34910000  1.0 0.0272553425
C  C237  1  0.81021000  0.06030000  0.84910000  1.0 0.0272553425
C  C238  1  0.74991000  0.81021000  0.34910000  1.0 0.0272553425
C  C239  1  0.93970000  0.74991000  0.84910000  1.0 0.0272553425
C  C240  1  0.18979000  0.93970000  0.34910000  1.0 0.0272553425
C  C241  1  0.18979000  0.25009000  0.34910000  1.0 0.0272553425
C  C242  1  0.93970000  0.18979000  0.84910000  1.0 0.0272553425
C  C243  1  0.74991000  0.93970000  0.34910000  1.0 0.0272553425
C  C244  1  0.81021000  0.74991000  0.84910000  1.0 0.0272553425
C  C245  1  0.06030000  0.81021000  0.34910000  1.0 0.0272553425
C  C246  1  0.25009000  0.06030000  0.84910000  1.0 0.0272553425
C  C247  1  0.74991000  0.81021000  0.15090000  1.0 0.0272553425
C  C248  1  0.93970000  0.74991000  0.65090000  1.0 0.0272553425
C  C249  1  0.18979000  0.93970000  0.15090000  1.0 0.0272553425
C  C250  1  0.25009000  0.18979000  0.65090000  1.0 0.0272553425
C  C251  1  0.06030000  0.25009000  0.15090000  1.0 0.0272553425
C  C252  1  0.81021000  0.06030000  0.65090000  1.0 0.0272553425
O  O1  1  0.88943000  0.51766000  0.49593000  1.0 -0.5261570827
O  O2  1  0.37177000  0.88943000  0.99593000  1.0 -0.5261570827
O  O3  1  0.48234000  0.37177000  0.49593000  1.0 -0.5261570827
O  O4  1  0.11057000  0.48234000  0.99593000  1.0 -0.5261570827
O  O5  1  0.62823000  0.11057000  0.49593000  1.0 -0.5261570827
O  O6  1  0.51766000  0.62823000  0.99593000  1.0 -0.5261570827
O  O7  1  0.48234000  0.11057000  0.00407000  1.0 -0.5261570827
O  O8  1  0.37177000  0.48234000  0.50407000  1.0 -0.5261570827
O  O9  1  0.88943000  0.37177000  0.00407000  1.0 -0.5261570827
O  O10  1  0.51766000  0.88943000  0.50407000  1.0 -0.5261570827
O  O11  1  0.62823000  0.51766000  0.00407000  1.0 -0.5261570827
O  O12  1  0.11057000  0.62823000  0.50407000  1.0 -0.5261570827
O  O13  1  0.11057000  0.48234000  0.50407000  1.0 -0.5261570827
O  O14  1  0.62823000  0.11057000  0.00407000  1.0 -0.5261570827
O  O15  1  0.51766000  0.62823000  0.50407000  1.0 -0.5261570827
O  O16  1  0.88943000  0.51766000  0.00407000  1.0 -0.5261570827
O  O17  1  0.37177000  0.88943000  0.50407000  1.0 -0.5261570827
O  O18  1  0.48234000  0.37177000  0.00407000  1.0 -0.5261570827
O  O19  1  0.51766000  0.88943000  0.99593000  1.0 -0.5261570827
O  O20  1  0.62823000  0.51766000  0.49593000  1.0 -0.5261570827
O  O21  1  0.11057000  0.62823000  0.99593000  1.0 -0.5261570827
O  O22  1  0.48234000  0.11057000  0.49593000  1.0 -0.5261570827
O  O23  1  0.37177000  0.48234000  0.99593000  1.0 -0.5261570827
O  O24  1  0.88943000  0.37177000  0.49593000  1.0 -0.5261570827
O  O25  1  0.96600000  0.55612000  0.53226000  1.0 -0.5195752175
O  O26  1  0.40988000  0.96600000  0.03226000  1.0 -0.5195752175
O  O27  1  0.44388000  0.40988000  0.53226000  1.0 -0.5195752175
O  O28  1  0.03400000  0.44388000  0.03226000  1.0 -0.5195752175
O  O29  1  0.59012000  0.03400000  0.53226000  1.0 -0.5195752175
O  O30  1  0.55612000  0.59012000  0.03226000  1.0 -0.5195752175
O  O31  1  0.44388000  0.03400000  0.96774000  1.0 -0.5195752175
O  O32  1  0.40988000  0.44388000  0.46774000  1.0 -0.5195752175
O  O33  1  0.96600000  0.40988000  0.96774000  1.0 -0.5195752175
O  O34  1  0.55612000  0.96600000  0.46774000  1.0 -0.5195752175
O  O35  1  0.59012000  0.55612000  0.96774000  1.0 -0.5195752175
O  O36  1  0.03400000  0.59012000  0.46774000  1.0 -0.5195752175
O  O37  1  0.03400000  0.44388000  0.46774000  1.0 -0.5195752175
O  O38  1  0.59012000  0.03400000  0.96774000  1.0 -0.5195752175
O  O39  1  0.55612000  0.59012000  0.46774000  1.0 -0.5195752175
O  O40  1  0.96600000  0.55612000  0.96774000  1.0 -0.5195752175
O  O41  1  0.40988000  0.96600000  0.46774000  1.0 -0.5195752175
O  O42  1  0.44388000  0.40988000  0.96774000  1.0 -0.5195752175
O  O43  1  0.55612000  0.96600000  0.03226000  1.0 -0.5195752175
O  O44  1  0.59012000  0.55612000  0.53226000  1.0 -0.5195752175
O  O45  1  0.03400000  0.59012000  0.03226000  1.0 -0.5195752175
O  O46  1  0.44388000  0.03400000  0.53226000  1.0 -0.5195752175
O  O47  1  0.40988000  0.44388000  0.03226000  1.0 -0.5195752175
O  O48  1  0.96600000  0.40988000  0.53226000  1.0 -0.5195752175
O  O49  1  0.99273000  0.87171000  0.72281000  1.0 -0.4123736263
O  O50  1  0.12102000  0.99273000  0.22281000  1.0 -0.4123736263
O  O51  1  0.12829000  0.12102000  0.72281000  1.0 -0.4123736263
O  O52  1  0.00727000  0.12829000  0.22281000  1.0 -0.4123736263
O  O53  1  0.87898000  0.00727000  0.72281000  1.0 -0.4123736263
O  O54  1  0.87171000  0.87898000  0.22281000  1.0 -0.4123736263
O  O55  1  0.12829000  0.00727000  0.77719000  1.0 -0.4123736263
O  O56  1  0.12102000  0.12829000  0.27719000  1.0 -0.4123736263
O  O57  1  0.99273000  0.12102000  0.77719000  1.0 -0.4123736263
O  O58  1  0.87171000  0.99273000  0.27719000  1.0 -0.4123736263
O  O59  1  0.87898000  0.87171000  0.77719000  1.0 -0.4123736263
O  O60  1  0.00727000  0.87898000  0.27719000  1.0 -0.4123736263
O  O61  1  0.00727000  0.12829000  0.27719000  1.0 -0.4123736263
O  O62  1  0.87898000  0.00727000  0.77719000  1.0 -0.4123736263
O  O63  1  0.87171000  0.87898000  0.27719000  1.0 -0.4123736263
O  O64  1  0.99273000  0.87171000  0.77719000  1.0 -0.4123736263
O  O65  1  0.12102000  0.99273000  0.27719000  1.0 -0.4123736263
O  O66  1  0.12829000  0.12102000  0.77719000  1.0 -0.4123736263
O  O67  1  0.87171000  0.99273000  0.22281000  1.0 -0.4123736263
O  O68  1  0.87898000  0.87171000  0.72281000  1.0 -0.4123736263
O  O69  1  0.00727000  0.87898000  0.22281000  1.0 -0.4123736263
O  O70  1  0.12829000  0.00727000  0.72281000  1.0 -0.4123736263
O  O71  1  0.12102000  0.12829000  0.22281000  1.0 -0.4123736263
O  O72  1  0.99273000  0.12102000  0.72281000  1.0 -0.4123736263
