# DDEC6 charges by PACMAN v1.1 (https://github.com/mtap-research/PACMAN-charge/)
data_UXUYUI_ASR_pacman
_symmetry_space_group_name_H-M   'P 1'
_cell_length_a   10.99090000
_cell_length_b   10.99090000
_cell_length_c   10.99100000
_cell_angle_alpha   90.00000000
_cell_angle_beta   90.00000000
_cell_angle_gamma   90.00000000
_symmetry_Int_Tables_number   1
_chemical_formula_structural   LiH4C5NO
_chemical_formula_sum   'Li8 H32 C40 N8 O8'
_cell_volume   1327.71151196
_cell_formula_units_Z   8
loop_
 _symmetry_equiv_pos_site_id
 _symmetry_equiv_pos_as_xyz
  1  'x, y, z'
loop_
 _atom_site_type_symbol
 _atom_site_label
 _atom_site_symmetry_multiplicity
 _atom_site_fract_x
 _atom_site_fract_y
 _atom_site_fract_z
 _atom_site_occupancy
 _atom_site_charge
Li  Li1  1  0.08160000  0.41080000  0.16360000  1.0 0.7323020318
Li  Li2  1  0.91840000  0.58920000  0.16360000  1.0 0.7323020318
Li  Li3  1  0.41080000  0.91840000  0.83640000  1.0 0.7323020318
Li  Li4  1  0.58920000  0.08160000  0.83640000  1.0 0.7323020318
Li  Li5  1  0.91840000  0.41080000  0.33640000  1.0 0.7323020318
Li  Li6  1  0.08160000  0.58920000  0.33640000  1.0 0.7323020318
Li  Li7  1  0.58920000  0.91840000  0.66360000  1.0 0.7323020318
Li  Li8  1  0.41080000  0.08160000  0.66360000  1.0 0.7323020318
H  H1  1  0.79340000  0.45680000  0.95970000  1.0 0.1395393939
H  H2  1  0.20660000  0.54320000  0.95970000  1.0 0.1395393939
H  H3  1  0.45680000  0.20660000  0.04030000  1.0 0.1395393939
H  H4  1  0.54320000  0.79340000  0.04030000  1.0 0.1395393939
H  H5  1  0.20660000  0.45680000  0.54030000  1.0 0.1395393939
H  H6  1  0.79340000  0.54320000  0.54030000  1.0 0.1395393939
H  H7  1  0.54320000  0.20660000  0.45970000  1.0 0.1395393939
H  H8  1  0.45680000  0.79340000  0.45970000  1.0 0.1395393939
H  H9  1  0.86770000  0.18130000  0.17340000  1.0 0.1395393939
H  H10  1  0.13230000  0.81870000  0.17340000  1.0 0.1395393939
H  H11  1  0.18130000  0.13230000  0.82660000  1.0 0.1395393939
H  H12  1  0.81870000  0.86770000  0.82660000  1.0 0.1395393939
H  H13  1  0.13230000  0.18130000  0.32660000  1.0 0.1395393939
H  H14  1  0.86770000  0.81870000  0.32660000  1.0 0.1395393939
H  H15  1  0.81870000  0.13230000  0.67340000  1.0 0.1395393939
H  H16  1  0.18130000  0.86770000  0.67340000  1.0 0.1395393939
H  H17  1  0.67910000  0.32960000  0.85030000  1.0 0.1027866987
H  H18  1  0.32090000  0.67040000  0.85030000  1.0 0.1027866987
H  H19  1  0.32960000  0.32090000  0.14970000  1.0 0.1027866987
H  H20  1  0.67040000  0.67910000  0.14970000  1.0 0.1027866987
H  H21  1  0.32090000  0.32960000  0.64970000  1.0 0.1027866987
H  H22  1  0.67910000  0.67040000  0.64970000  1.0 0.1027866987
H  H23  1  0.67040000  0.32090000  0.35030000  1.0 0.1027866987
H  H24  1  0.32960000  0.67910000  0.35030000  1.0 0.1027866987
H  H25  1  0.75050000  0.06450000  0.05500000  1.0 0.1027866987
H  H26  1  0.24950000  0.93550000  0.05500000  1.0 0.1027866987
H  H27  1  0.06450000  0.24950000  0.94500000  1.0 0.1027866987
H  H28  1  0.93550000  0.75050000  0.94500000  1.0 0.1027866987
H  H29  1  0.24950000  0.06450000  0.44500000  1.0 0.1027866987
H  H30  1  0.75050000  0.93550000  0.44500000  1.0 0.1027866987
H  H31  1  0.93550000  0.24950000  0.55500000  1.0 0.1027866987
H  H32  1  0.06450000  0.75050000  0.55500000  1.0 0.1027866987
C  C1  1  0.78450000  0.37660000  0.98500000  1.0 -0.2869902371
C  C2  1  0.21550000  0.62340000  0.98500000  1.0 -0.2869902371
C  C3  1  0.37660000  0.21550000  0.01500000  1.0 -0.2869902371
C  C4  1  0.62340000  0.78450000  0.01500000  1.0 -0.2869902371
C  C5  1  0.21550000  0.37660000  0.51500000  1.0 -0.2869902371
C  C6  1  0.78450000  0.62340000  0.51500000  1.0 -0.2869902371
C  C7  1  0.62340000  0.21550000  0.48500000  1.0 -0.2869902371
C  C8  1  0.37660000  0.78450000  0.48500000  1.0 -0.2869902371
C  C9  1  0.82710000  0.21670000  0.10820000  1.0 -0.307347913
C  C10  1  0.17290000  0.78330000  0.10820000  1.0 -0.307347913
C  C11  1  0.21670000  0.17290000  0.89180000  1.0 -0.307347913
C  C12  1  0.78330000  0.82710000  0.89180000  1.0 -0.307347913
C  C13  1  0.17290000  0.21670000  0.39180000  1.0 -0.307347913
C  C14  1  0.82710000  0.78330000  0.39180000  1.0 -0.307347913
C  C15  1  0.78330000  0.17290000  0.60820000  1.0 -0.307347913
C  C16  1  0.21670000  0.82710000  0.60820000  1.0 -0.307347913
C  C17  1  0.71780000  0.29750000  0.91830000  1.0 0.0586390526
C  C18  1  0.28220000  0.70250000  0.91830000  1.0 0.0586390526
C  C19  1  0.29750000  0.28220000  0.08170000  1.0 0.0586390526
C  C20  1  0.70250000  0.71780000  0.08170000  1.0 0.0586390526
C  C21  1  0.28220000  0.29750000  0.58170000  1.0 0.0586390526
C  C22  1  0.71780000  0.70250000  0.58170000  1.0 0.0586390526
C  C23  1  0.70250000  0.28220000  0.41830000  1.0 0.0586390526
C  C24  1  0.29750000  0.71780000  0.41830000  1.0 0.0586390526
C  C25  1  0.75770000  0.14620000  0.03410000  1.0 0.0842843869
C  C26  1  0.24230000  0.85380000  0.03410000  1.0 0.0842843869
C  C27  1  0.14620000  0.24230000  0.96590000  1.0 0.0842843869
C  C28  1  0.85380000  0.75770000  0.96590000  1.0 0.0842843869
C  C29  1  0.24230000  0.14620000  0.46590000  1.0 0.0842843869
C  C30  1  0.75770000  0.85380000  0.46590000  1.0 0.0842843869
C  C31  1  0.85380000  0.24230000  0.53410000  1.0 0.0842843869
C  C32  1  0.14620000  0.75770000  0.53410000  1.0 0.0842843869
C  C33  1  0.83790000  0.33800000  0.08840000  1.0 0.3626502448
C  C34  1  0.16210000  0.66200000  0.08840000  1.0 0.3626502448
C  C35  1  0.33800000  0.16210000  0.91160000  1.0 0.3626502448
C  C36  1  0.66200000  0.83790000  0.91160000  1.0 0.3626502448
C  C37  1  0.16210000  0.33800000  0.41160000  1.0 0.3626502448
C  C38  1  0.83790000  0.66200000  0.41160000  1.0 0.3626502448
C  C39  1  0.66200000  0.16210000  0.58840000  1.0 0.3626502448
C  C40  1  0.33800000  0.83790000  0.58840000  1.0 0.3626502448
N  N1  1  0.70120000  0.18080000  0.93840000  1.0 -0.3600423491
N  N2  1  0.29880000  0.81920000  0.93840000  1.0 -0.3600423491
N  N3  1  0.18080000  0.29880000  0.06160000  1.0 -0.3600423491
N  N4  1  0.81920000  0.70120000  0.06160000  1.0 -0.3600423491
N  N5  1  0.29880000  0.18080000  0.56160000  1.0 -0.3600423491
N  N6  1  0.70120000  0.81920000  0.56160000  1.0 -0.3600423491
N  N7  1  0.81920000  0.29880000  0.43840000  1.0 -0.3600423491
N  N8  1  0.18080000  0.70120000  0.43840000  1.0 -0.3600423491
O  O1  1  0.90370000  0.41060000  0.15860000  1.0 -0.7681474021
O  O2  1  0.09630000  0.58940000  0.15860000  1.0 -0.7681474021
O  O3  1  0.41060000  0.09630000  0.84140000  1.0 -0.7681474021
O  O4  1  0.58940000  0.90370000  0.84140000  1.0 -0.7681474021
O  O5  1  0.09630000  0.41060000  0.34140000  1.0 -0.7681474021
O  O6  1  0.90370000  0.58940000  0.34140000  1.0 -0.7681474021
O  O7  1  0.58940000  0.09630000  0.65860000  1.0 -0.7681474021
O  O8  1  0.41060000  0.90370000  0.65860000  1.0 -0.7681474021
