# DDEC6 charges by PACMAN v1.1 (https://github.com/mtap-research/PACMAN-charge/)
data_UYAMIS_FSR_pacman
_symmetry_space_group_name_H-M   'P 1'
_cell_length_a   16.21940000
_cell_length_b   16.21940000
_cell_length_c   26.17880000
_cell_angle_alpha   79.28300000
_cell_angle_beta   100.71700000
_cell_angle_gamma   127.64400000
_symmetry_Int_Tables_number   1
_chemical_formula_structural   Cd7H108C86(NO2)16
_chemical_formula_sum   'Cd14 H216 C172 N32 O64'
_cell_volume   5334.77993109
_cell_formula_units_Z   2
loop_
 _symmetry_equiv_pos_site_id
 _symmetry_equiv_pos_as_xyz
  1  'x, y, z'
loop_
 _atom_site_type_symbol
 _atom_site_label
 _atom_site_symmetry_multiplicity
 _atom_site_fract_x
 _atom_site_fract_y
 _atom_site_fract_z
 _atom_site_occupancy
 _atom_site_charge
Cd  Cd1  1  0.71208000  0.96528000  0.55866000  1.0 0.9168680468
Cd  Cd2  1  0.96528000  0.71208000  0.94134000  1.0 0.9168680468
Cd  Cd3  1  0.28792000  0.03472000  0.44134000  1.0 0.9168680468
Cd  Cd4  1  0.03472000  0.28792000  0.05866000  1.0 0.9168680468
Cd  Cd5  1  0.50000000  0.00000000  0.50000000  1.0 0.9629635015
Cd  Cd6  1  0.00000000  0.50000000  0.00000000  1.0 0.9629635015
Cd  Cd7  1  0.93307000  0.19161000  0.63017000  1.0 0.9168680468
Cd  Cd8  1  0.19161000  0.93307000  0.86983000  1.0 0.9147847095
Cd  Cd9  1  0.06693000  0.80839000  0.36983000  1.0 0.9147847095
Cd  Cd10  1  0.80839000  0.06693000  0.13017000  1.0 0.9147847095
Cd  Cd11  1  0.87010000  0.37788000  0.65167000  1.0 0.8736462393
Cd  Cd12  1  0.37788000  0.87010000  0.84833000  1.0 0.8736462393
Cd  Cd13  1  0.12990000  0.62212000  0.34833000  1.0 0.8736462393
Cd  Cd14  1  0.62212000  0.12990000  0.15167000  1.0 0.8736462393
H  H1  1  0.65450000  0.32890000  0.55250000  1.0 0.1491825138
H  H2  1  0.32890000  0.65450000  0.94750000  1.0 0.1491825138
H  H3  1  0.34550000  0.67110000  0.44750000  1.0 0.1491825138
H  H4  1  0.67110000  0.34550000  0.05250000  1.0 0.1491825138
H  H5  1  0.55420000  0.22200000  0.53410000  1.0 0.1491825138
H  H6  1  0.22200000  0.55420000  0.96590000  1.0 0.1491825138
H  H7  1  0.44580000  0.77800000  0.46590000  1.0 0.1491825138
H  H8  1  0.77800000  0.44580000  0.03410000  1.0 0.1491825138
H  H9  1  0.58140000  0.23940000  0.59360000  1.0 0.143617014
H  H10  1  0.23940000  0.58140000  0.90640000  1.0 0.143617014
H  H11  1  0.41860000  0.76060000  0.40640000  1.0 0.143617014
H  H12  1  0.76060000  0.41860000  0.09360000  1.0 0.143617014
H  H13  1  0.33160000  0.78860000  0.57020000  1.0 0.1206844452
H  H14  1  0.78860000  0.33160000  0.92980000  1.0 0.1206844452
H  H15  1  0.66840000  0.21140000  0.42980000  1.0 0.1206844452
H  H16  1  0.21140000  0.66840000  0.07020000  1.0 0.1206844452
H  H17  1  0.16360000  0.64620000  0.58580000  1.0 0.1279901032
H  H18  1  0.64620000  0.16360000  0.91420000  1.0 0.1279901032
H  H19  1  0.83640000  0.35380000  0.41420000  1.0 0.1279901032
H  H20  1  0.35380000  0.83640000  0.08580000  1.0 0.1279901032
H  H21  1  0.24770000  0.45750000  0.60140000  1.0 0.1206844452
H  H22  1  0.45750000  0.24770000  0.89860000  1.0 0.1206844452
H  H23  1  0.75230000  0.54250000  0.39860000  1.0 0.1206844452
H  H24  1  0.54250000  0.75230000  0.10140000  1.0 0.1206844452
H  H25  1  0.41940000  0.60020000  0.59070000  1.0 0.1206844452
H  H26  1  0.60020000  0.41940000  0.90930000  1.0 0.1206844452
H  H27  1  0.58060000  0.39980000  0.40930000  1.0 0.1206844452
H  H28  1  0.39980000  0.58060000  0.09070000  1.0 0.1206844452
H  H29  1  0.68340000  0.13080000  0.36220000  1.0 0.1206844452
H  H30  1  0.13080000  0.68340000  0.13780000  1.0 0.1279901032
H  H31  1  0.31660000  0.86920000  0.63780000  1.0 0.1206844452
H  H32  1  0.86920000  0.31660000  0.86220000  1.0 0.1206844452
H  H33  1  0.72150000  0.15510000  0.27730000  1.0 0.1279901032
H  H34  1  0.15510000  0.72150000  0.22270000  1.0 0.1279901032
H  H35  1  0.27850000  0.84490000  0.72270000  1.0 0.1279901032
H  H36  1  0.84490000  0.27850000  0.77730000  1.0 0.1279901032
H  H37  1  0.74920000  0.92160000  0.30890000  1.0 0.110498065
H  H38  1  0.92160000  0.74920000  0.19110000  1.0 0.110498065
H  H39  1  0.25080000  0.07840000  0.69110000  1.0 0.110498065
H  H40  1  0.07840000  0.25080000  0.80890000  1.0 0.110498065
H  H41  1  0.71110000  0.89750000  0.39350000  1.0 0.1206844452
H  H42  1  0.89750000  0.71110000  0.10650000  1.0 0.1206844452
H  H43  1  0.28890000  0.10250000  0.60650000  1.0 0.1206844452
H  H44  1  0.10250000  0.28890000  0.89350000  1.0 0.1206844452
H  H45  1  0.81610000  0.97570000  0.74640000  1.0 0.1206844452
H  H46  1  0.97570000  0.81610000  0.75360000  1.0 0.1206844452
H  H47  1  0.18390000  0.02430000  0.25360000  1.0 0.1206844452
H  H48  1  0.02430000  0.18390000  0.24640000  1.0 0.1206844452
H  H49  1  0.91710000  0.86090000  0.67360000  1.0 0.1279901032
H  H50  1  0.86090000  0.91710000  0.82640000  1.0 0.1279901032
H  H51  1  0.08290000  0.13910000  0.32640000  1.0 0.1279901032
H  H52  1  0.13910000  0.08290000  0.17360000  1.0 0.1279901032
H  H53  1  0.87690000  0.02970000  0.47070000  1.0 0.110498065
H  H54  1  0.02970000  0.87690000  0.02930000  1.0 0.110498065
H  H55  1  0.12310000  0.97030000  0.52930000  1.0 0.110498065
H  H56  1  0.97030000  0.12310000  0.97070000  1.0 0.110498065
H  H57  1  0.90590000  0.94830000  0.42030000  1.0 0.1206844452
H  H58  1  0.94830000  0.90590000  0.07970000  1.0 0.1206844452
H  H59  1  0.09410000  0.05170000  0.57970000  1.0 0.1206844452
H  H60  1  0.05170000  0.09410000  0.92030000  1.0 0.1206844452
H  H61  1  0.88000000  0.58800000  0.64360000  1.0 0.0503796587
H  H62  1  0.58800000  0.88000000  0.85640000  1.0 0.0503796587
H  H63  1  0.12000000  0.41200000  0.35640000  1.0 0.0503796587
H  H64  1  0.41200000  0.12000000  0.14360000  1.0 0.0503796587
H  H65  1  0.87490000  0.61930000  0.50010000  1.0 0.0789113604
H  H66  1  0.61930000  0.87490000  0.99990000  1.0 0.0789113604
H  H67  1  0.12510000  0.38070000  0.49990000  1.0 0.0789113604
H  H68  1  0.38070000  0.12510000  0.00010000  1.0 0.0789113604
H  H69  1  0.99260000  0.71660000  0.50550000  1.0 0.0888591928
H  H70  1  0.71660000  0.99260000  0.99450000  1.0 0.0888591928
H  H71  1  0.00740000  0.28340000  0.49450000  1.0 0.0888591928
H  H72  1  0.28340000  0.00740000  0.00550000  1.0 0.0888591928
H  H73  1  0.96180000  0.60360000  0.52130000  1.0 0.0789113604
H  H74  1  0.60360000  0.96180000  0.97870000  1.0 0.0789113604
H  H75  1  0.03820000  0.39640000  0.47870000  1.0 0.0789113604
H  H76  1  0.39640000  0.03820000  0.02130000  1.0 0.0789113604
H  H77  1  0.01180000  0.76880000  0.62240000  1.0 0.0888591928
H  H78  1  0.76880000  0.01180000  0.87760000  1.0 0.0888591928
H  H79  1  0.98820000  0.23120000  0.37760000  1.0 0.0888591928
H  H80  1  0.23120000  0.98820000  0.12240000  1.0 0.0888591928
H  H81  1  0.03520000  0.81080000  0.56400000  1.0 0.0789113604
H  H82  1  0.81080000  0.03520000  0.93600000  1.0 0.0789113604
H  H83  1  0.96480000  0.18920000  0.43600000  1.0 0.0789113604
H  H84  1  0.18920000  0.96480000  0.06400000  1.0 0.0789113604
H  H85  1  0.93020000  0.77480000  0.58250000  1.0 0.0989838633
H  H86  1  0.77480000  0.93020000  0.91750000  1.0 0.0989838633
H  H87  1  0.06980000  0.22520000  0.41750000  1.0 0.0989838633
H  H88  1  0.22520000  0.06980000  0.08250000  1.0 0.0989838633
H  H89  1  0.67600000  0.38960000  0.66320000  1.0 0.110498065
H  H90  1  0.38960000  0.67600000  0.83680000  1.0 0.110498065
H  H91  1  0.32400000  0.61040000  0.33680000  1.0 0.110498065
H  H92  1  0.61040000  0.32400000  0.16320000  1.0 0.110498065
H  H93  1  0.50920000  0.33340000  0.67700000  1.0 0.0989838633
H  H94  1  0.33340000  0.50920000  0.82300000  1.0 0.0989838633
H  H95  1  0.49080000  0.66666667  0.32300000  1.0 0.0989838633
H  H96  1  0.66666667  0.49080000  0.17700000  1.0 0.0989838633
H  H97  1  0.45770000  0.26170000  0.72760000  1.0 0.0888591928
H  H98  1  0.26170000  0.45770000  0.77240000  1.0 0.0888591928
H  H99  1  0.54230000  0.73830000  0.27240000  1.0 0.0888591928
H  H100  1  0.73830000  0.54230000  0.22760000  1.0 0.0888591928
H  H101  1  0.54630000  0.38170000  0.73050000  1.0 0.1206844452
H  H102  1  0.38170000  0.54630000  0.76950000  1.0 0.1206844452
H  H103  1  0.45370000  0.61830000  0.26950000  1.0 0.1206844452
H  H104  1  0.61830000  0.45370000  0.23050000  1.0 0.1206844452
H  H105  1  0.66620000  0.25260000  0.78210000  1.0 0.0888591928
H  H106  1  0.25260000  0.66620000  0.71790000  1.0 0.0888591928
H  H107  1  0.33380000  0.74740000  0.21790000  1.0 0.0888591928
H  H108  1  0.74740000  0.33380000  0.28210000  1.0 0.0888591928
H  H109  1  0.60560000  0.28520000  0.80230000  1.0 0.0789113604
H  H110  1  0.28520000  0.60560000  0.69770000  1.0 0.0789113604
H  H111  1  0.39440000  0.71480000  0.19770000  1.0 0.0789113604
H  H112  1  0.71480000  0.39440000  0.30230000  1.0 0.0789113604
H  H113  1  0.54370000  0.17830000  0.77810000  1.0 0.0888591928
H  H114  1  0.17830000  0.54370000  0.72190000  1.0 0.0888591928
H  H115  1  0.45630000  0.82170000  0.22190000  1.0 0.0888591928
H  H116  1  0.82170000  0.45630000  0.27810000  1.0 0.0888591928
H  H117  1  0.91080000  0.52840000  0.84720000  1.0 0.0789113604
H  H118  1  0.52840000  0.91080000  0.65280000  1.0 0.0789113604
H  H119  1  0.08920000  0.47160000  0.15280000  1.0 0.0789113604
H  H120  1  0.47160000  0.08920000  0.34720000  1.0 0.0789113604
H  H121  1  0.98110000  0.64830000  0.82910000  1.0 0.0789113604
H  H122  1  0.64830000  0.98110000  0.67090000  1.0 0.0789113604
H  H123  1  0.01890000  0.35170000  0.17090000  1.0 0.0789113604
H  H124  1  0.35170000  0.01890000  0.32910000  1.0 0.0789113604
H  H125  1  0.87010000  0.57370000  0.79990000  1.0 0.0888591928
H  H126  1  0.57370000  0.87010000  0.70010000  1.0 0.0888591928
H  H127  1  0.12990000  0.42630000  0.20010000  1.0 0.0888591928
H  H128  1  0.42630000  0.12990000  0.29990000  1.0 0.0888591928
H  H129  1  0.12340000  0.62620000  0.76720000  1.0 0.0789113604
H  H130  1  0.62620000  0.12340000  0.73280000  1.0 0.0789113604
H  H131  1  0.87660000  0.37380000  0.23280000  1.0 0.0789113604
H  H132  1  0.37380000  0.87660000  0.26720000  1.0 0.0789113604
H  H133  1  0.11990000  0.66550000  0.81660000  1.0 0.0789113604
H  H134  1  0.66550000  0.11990000  0.68340000  1.0 0.0789113604
H  H135  1  0.88010000  0.33450000  0.18340000  1.0 0.0789113604
H  H136  1  0.33450000  0.88010000  0.31660000  1.0 0.0789113604
H  H137  1  0.09180000  0.55360000  0.81970000  1.0 0.0888591928
H  H138  1  0.55360000  0.09180000  0.68030000  1.0 0.0888591928
H  H139  1  0.90820000  0.44640000  0.18030000  1.0 0.0888591928
H  H140  1  0.44640000  0.90820000  0.31970000  1.0 0.0888591928
H  H141  1  0.87650000  0.50450000  0.54340000  1.0 0.1206844452
H  H142  1  0.50450000  0.87650000  0.95660000  1.0 0.1206844452
H  H143  1  0.12350000  0.49550000  0.45660000  1.0 0.1206844452
H  H144  1  0.49550000  0.12350000  0.04340000  1.0 0.1206844452
H  H145  1  0.98100000  0.65920000  0.49230000  1.0 0.0888591928
H  H146  1  0.65920000  0.98100000  0.00770000  1.0 0.0888591928
H  H147  1  0.01900000  0.34080000  0.50770000  1.0 0.0888591928
H  H148  1  0.34080000  0.01900000  0.99230000  1.0 0.0888591928
H  H149  1  0.06180000  0.76180000  0.52020000  1.0 0.0989838633
H  H150  1  0.76180000  0.06180000  0.97980000  1.0 0.0989838633
H  H151  1  0.93820000  0.23820000  0.47980000  1.0 0.0989838633
H  H152  1  0.23820000  0.93820000  0.02020000  1.0 0.0989838633
H  H153  1  0.07930000  0.67530000  0.52650000  1.0 0.0888591928
H  H154  1  0.67530000  0.07930000  0.97350000  1.0 0.0989838633
H  H155  1  0.92070000  0.32470000  0.47350000  1.0 0.0888591928
H  H156  1  0.32470000  0.92070000  0.02650000  1.0 0.0888591928
H  H157  1  0.04000000  0.68640000  0.63980000  1.0 0.0337847532
H  H158  1  0.68640000  0.04000000  0.86020000  1.0 0.0337847532
H  H159  1  0.96000000  0.31360000  0.36020000  1.0 0.0337847532
H  H160  1  0.31360000  0.96000000  0.13980000  1.0 0.0337847532
H  H161  1  0.04750000  0.77510000  0.59970000  1.0 0.0888591928
H  H162  1  0.77510000  0.04750000  0.90030000  1.0 0.0888591928
H  H163  1  0.95250000  0.22490000  0.40030000  1.0 0.0888591928
H  H164  1  0.22490000  0.95250000  0.09970000  1.0 0.0888591928
H  H165  1  0.94250000  0.68770000  0.62460000  1.0 0.0689949848
H  H166  1  0.68770000  0.94250000  0.87540000  1.0 0.0689949848
H  H167  1  0.05750000  0.31230000  0.37540000  1.0 0.0689949848
H  H168  1  0.31230000  0.05750000  0.12460000  1.0 0.0689949848
H  H169  1  0.66930000  0.43510000  0.75740000  1.0 0.0789113604
H  H170  1  0.43510000  0.66930000  0.74260000  1.0 0.0789113604
H  H171  1  0.33070000  0.56490000  0.24260000  1.0 0.0789113604
H  H172  1  0.56490000  0.33070000  0.25740000  1.0 0.0789113604
H  H173  1  0.55120000  0.38200000  0.73800000  1.0 0.1206844452
H  H174  1  0.38200000  0.55120000  0.76200000  1.0 0.1206844452
H  H175  1  0.44880000  0.61800000  0.26200000  1.0 0.1206844452
H  H176  1  0.61800000  0.44880000  0.23800000  1.0 0.1206844452
H  H177  1  0.58190000  0.33610000  0.78950000  1.0 0.0689949848
H  H178  1  0.33610000  0.58190000  0.71050000  1.0 0.0689949848
H  H179  1  0.41810000  0.66390000  0.21050000  1.0 0.0689949848
H  H180  1  0.66390000  0.41810000  0.28950000  1.0 0.0689949848
H  H181  1  0.58550000  0.18310000  0.77440000  1.0 0.0789113604
H  H182  1  0.18310000  0.58550000  0.72560000  1.0 0.0789113604
H  H183  1  0.41450000  0.81690000  0.22560000  1.0 0.0789113604
H  H184  1  0.81690000  0.41450000  0.27440000  1.0 0.0789113604
H  H185  1  0.48250000  0.17470000  0.76260000  1.0 0.0888591928
H  H186  1  0.17470000  0.48250000  0.73740000  1.0 0.0888591928
H  H187  1  0.51750000  0.82530000  0.23740000  1.0 0.0888591928
H  H188  1  0.82530000  0.51750000  0.26260000  1.0 0.0888591928
H  H189  1  0.51760000  0.14640000  0.72100000  1.0 0.0689949848
H  H190  1  0.14640000  0.51760000  0.77900000  1.0 0.0689949848
H  H191  1  0.48240000  0.85360000  0.27900000  1.0 0.0689949848
H  H192  1  0.85360000  0.48240000  0.22100000  1.0 0.0689949848
H  H193  1  0.09680000  0.59420000  0.83510000  1.0 0.0789113604
H  H194  1  0.59420000  0.09680000  0.66490000  1.0 0.0789113604
H  H195  1  0.90320000  0.40580000  0.16490000  1.0 0.0789113604
H  H196  1  0.40580000  0.90320000  0.33510000  1.0 0.0789113604
H  H197  1  0.09890000  0.69230000  0.81400000  1.0 0.0789113604
H  H198  1  0.69230000  0.09890000  0.68600000  1.0 0.0789113604
H  H199  1  0.90110000  0.30770000  0.18600000  1.0 0.0789113604
H  H200  1  0.30770000  0.90110000  0.31400000  1.0 0.0789113604
H  H201  1  0.01990000  0.60750000  0.85430000  1.0 0.0689949848
H  H202  1  0.60750000  0.01990000  0.64570000  1.0 0.0689949848
H  H203  1  0.98010000  0.39250000  0.14570000  1.0 0.0689949848
H  H204  1  0.39250000  0.98010000  0.35430000  1.0 0.0689949848
H  H205  1  0.88100000  0.56920000  0.81700000  1.0 0.0888591928
H  H206  1  0.56920000  0.88100000  0.68300000  1.0 0.0888591928
H  H207  1  0.11900000  0.43080000  0.18300000  1.0 0.0888591928
H  H208  1  0.43080000  0.11900000  0.31700000  1.0 0.0888591928
H  H209  1  0.86520000  0.58300000  0.75590000  1.0 0.0689949848
H  H210  1  0.58300000  0.86520000  0.74410000  1.0 0.0689949848
H  H211  1  0.13480000  0.41700000  0.24410000  1.0 0.0689949848
H  H212  1  0.41700000  0.13480000  0.25590000  1.0 0.0689949848
H  H213  1  0.82080000  0.47180000  0.78490000  1.0 0.0888591928
H  H214  1  0.47180000  0.82080000  0.71510000  1.0 0.0888591928
H  H215  1  0.17920000  0.52820000  0.21510000  1.0 0.0888591928
H  H216  1  0.52820000  0.17920000  0.28490000  1.0 0.0888591928
C  C1  1  0.67230000  0.21350000  0.56680000  1.0 0.3030338683
C  C2  1  0.21350000  0.67230000  0.93320000  1.0 0.3030338683
C  C3  1  0.32770000  0.78650000  0.43320000  1.0 0.3030338683
C  C4  1  0.78650000  0.32770000  0.06680000  1.0 0.3030338683
C  C5  1  0.61010000  0.25450000  0.56130000  1.0 -0.5314105502
C  C6  1  0.25450000  0.61010000  0.93870000  1.0 -0.5314105502
C  C7  1  0.38990000  0.74550000  0.43870000  1.0 -0.5314105502
C  C8  1  0.74550000  0.38990000  0.06130000  1.0 -0.5314105502
C  C9  1  0.50390000  0.80130000  0.57160000  1.0 0.5517167398
C  C10  1  0.80130000  0.50390000  0.92840000  1.0 0.5517167398
C  C11  1  0.49610000  0.19870000  0.42840000  1.0 0.5517167398
C  C12  1  0.19870000  0.49610000  0.07160000  1.0 0.5517167398
C  C13  1  0.07890000  0.44230000  0.60630000  1.0 0.4825776913
C  C14  1  0.44230000  0.07890000  0.89370000  1.0 0.4825776913
C  C15  1  0.92110000  0.55770000  0.39370000  1.0 0.4825776913
C  C16  1  0.55770000  0.92110000  0.10630000  1.0 0.4825776913
C  C17  1  0.39320000  0.70940000  0.57990000  1.0 -0.0276926771
C  C18  1  0.70940000  0.39320000  0.92010000  1.0 -0.0276926771
C  C19  1  0.60680000  0.29060000  0.42010000  1.0 -0.0276926771
C  C20  1  0.29060000  0.60680000  0.07990000  1.0 -0.0276926771
C  C21  1  0.31560000  0.72220000  0.57760000  1.0 -0.1744326925
C  C22  1  0.72220000  0.31560000  0.92240000  1.0 -0.1744326925
C  C23  1  0.68440000  0.27780000  0.42240000  1.0 -0.1744326925
C  C24  1  0.27780000  0.68440000  0.07760000  1.0 -0.1744326925
C  C25  1  0.21460000  0.63660000  0.58610000  1.0 -0.2022893899
C  C26  1  0.63660000  0.21460000  0.91390000  1.0 -0.2022893899
C  C27  1  0.78540000  0.36340000  0.41390000  1.0 -0.2022893899
C  C28  1  0.36340000  0.78540000  0.08610000  1.0 -0.2022893899
C  C29  1  0.18830000  0.53730000  0.59510000  1.0 -0.0193195368
C  C30  1  0.53730000  0.18830000  0.90490000  1.0 -0.0193195368
C  C31  1  0.81170000  0.46270000  0.40490000  1.0 -0.0193195368
C  C32  1  0.46270000  0.81170000  0.09510000  1.0 -0.0193195368
C  C33  1  0.26510000  0.52450000  0.59600000  1.0 -0.1318923975
C  C34  1  0.52450000  0.26510000  0.90400000  1.0 -0.1318923975
C  C35  1  0.73490000  0.47550000  0.40400000  1.0 -0.1318923975
C  C36  1  0.47550000  0.73490000  0.09600000  1.0 -0.1318923975
C  C37  1  0.36800000  0.60980000  0.58910000  1.0 -0.1007006781
C  C38  1  0.60980000  0.36800000  0.91090000  1.0 -0.1007006781
C  C39  1  0.63200000  0.39020000  0.41090000  1.0 -0.1007006781
C  C40  1  0.39020000  0.63200000  0.08910000  1.0 -0.1007006781
C  C41  1  0.65970000  0.99130000  0.44020000  1.0 0.5517167398
C  C42  1  0.99130000  0.65970000  0.05980000  1.0 0.5517167398
C  C43  1  0.34030000  0.00870000  0.55980000  1.0 0.5517167398
C  C44  1  0.00870000  0.34030000  0.94020000  1.0 0.5517167398
C  C45  1  0.75960000  0.05440000  0.22820000  1.0 0.5256680646
C  C46  1  0.05440000  0.75960000  0.27180000  1.0 0.5256680646
C  C47  1  0.24040000  0.94560000  0.77180000  1.0 0.5256680646
C  C48  1  0.94560000  0.24040000  0.72820000  1.0 0.5256680646
C  C49  1  0.68740000  0.00780000  0.38550000  1.0 -0.0193195368
C  C50  1  0.00780000  0.68740000  0.11450000  1.0 -0.0193195368
C  C51  1  0.31260000  0.99220000  0.61450000  1.0 -0.0193195368
C  C52  1  0.99220000  0.31260000  0.88550000  1.0 -0.0193195368
C  C53  1  0.69470000  0.08730000  0.35130000  1.0 -0.2203562888
C  C54  1  0.08730000  0.69470000  0.14870000  1.0 -0.2203562888
C  C55  1  0.30530000  0.91270000  0.64870000  1.0 -0.2203562888
C  C56  1  0.91270000  0.30530000  0.85130000  1.0 -0.2203562888
C  C57  1  0.71870000  0.10270000  0.30050000  1.0 -0.2346923477
C  C58  1  0.10270000  0.71870000  0.19950000  1.0 -0.2346923477
C  C59  1  0.28130000  0.89730000  0.69950000  1.0 -0.2346923477
C  C60  1  0.89730000  0.28130000  0.80050000  1.0 -0.2346923477
C  C61  1  0.73860000  0.04040000  0.28440000  1.0 -0.0276926771
C  C62  1  0.04040000  0.73860000  0.21560000  1.0 -0.0276926771
C  C63  1  0.26140000  0.95960000  0.71560000  1.0 -0.0276926771
C  C64  1  0.95960000  0.26140000  0.78440000  1.0 -0.0276926771
C  C65  1  0.73520000  0.96340000  0.31940000  1.0 -0.1007006781
C  C66  1  0.96340000  0.73520000  0.18060000  1.0 -0.1007006781
C  C67  1  0.26480000  0.03660000  0.68060000  1.0 -0.1007006781
C  C68  1  0.03660000  0.26480000  0.81940000  1.0 -0.1007006781
C  C69  1  0.71120000  0.94820000  0.36990000  1.0 -0.1081279642
C  C70  1  0.94820000  0.71120000  0.13010000  1.0 -0.1081279642
C  C71  1  0.28880000  0.05180000  0.63010000  1.0 -0.1081279642
C  C72  1  0.05180000  0.28880000  0.86990000  1.0 -0.1081279642
C  C73  1  0.81500000  0.94440000  0.65050000  1.0 0.5575150648
C  C74  1  0.94440000  0.81500000  0.84950000  1.0 0.5575150648
C  C75  1  0.18500000  0.05560000  0.34950000  1.0 0.5575150648
C  C76  1  0.05560000  0.18500000  0.15050000  1.0 0.5575150648
C  C77  1  0.85780000  0.91960000  0.70210000  1.0 -0.0276926771
C  C78  1  0.91960000  0.85780000  0.79790000  1.0 -0.0276926771
C  C79  1  0.14220000  0.08040000  0.29790000  1.0 -0.0276926771
C  C80  1  0.08040000  0.14220000  0.20210000  1.0 -0.0276926771
C  C81  1  0.84450000  0.93970000  0.74790000  1.0 -0.1208120524
C  C82  1  0.93970000  0.84450000  0.75210000  1.0 -0.1208120524
C  C83  1  0.15550000  0.06030000  0.25210000  1.0 -0.1208120524
C  C84  1  0.06030000  0.15550000  0.24790000  1.0 -0.1208120524
C  C85  1  0.90650000  0.87310000  0.70430000  1.0 -0.1081279642
C  C86  1  0.87310000  0.90650000  0.79570000  1.0 -0.1081279642
C  C87  1  0.09350000  0.12690000  0.29570000  1.0 -0.1081279642
C  C88  1  0.12690000  0.09350000  0.20430000  1.0 -0.1081279642
C  C89  1  0.96380000  0.10140000  0.56350000  1.0 0.5517167398
C  C90  1  0.10140000  0.96380000  0.93650000  1.0 0.5517167398
C  C91  1  0.03620000  0.89860000  0.43650000  1.0 0.5517167398
C  C92  1  0.89860000  0.03620000  0.06350000  1.0 0.5517167398
C  C93  1  0.98300000  0.04880000  0.53040000  1.0 -0.0193195368
C  C94  1  0.04880000  0.98300000  0.96960000  1.0 -0.0276926771
C  C95  1  0.01700000  0.95120000  0.46960000  1.0 -0.0276926771
C  C96  1  0.95120000  0.01700000  0.03040000  1.0 -0.0193195368
C  C97  1  0.92680000  0.01780000  0.48270000  1.0 -0.1208120524
C  C98  1  0.01780000  0.92680000  0.01730000  1.0 -0.1208120524
C  C99  1  0.07320000  0.98220000  0.51730000  1.0 -0.1208120524
C  C100  1  0.98220000  0.07320000  0.98270000  1.0 -0.1208120524
C  C101  1  0.94430000  0.96910000  0.45250000  1.0 -0.1007006781
C  C102  1  0.96910000  0.94430000  0.04750000  1.0 -0.1007006781
C  C103  1  0.05570000  0.03090000  0.54750000  1.0 -0.1007006781
C  C104  1  0.03090000  0.05570000  0.95250000  1.0 -0.1007006781
C  C105  1  0.88240000  0.57640000  0.61060000  1.0 0.0689949848
C  C106  1  0.57640000  0.88240000  0.88940000  1.0 0.0689949848
C  C107  1  0.11760000  0.42360000  0.38940000  1.0 0.0689949848
C  C108  1  0.42360000  0.11760000  0.11060000  1.0 0.0689949848
C  C109  1  0.94050000  0.64750000  0.52060000  1.0 -0.1007006781
C  C110  1  0.64750000  0.94050000  0.97940000  1.0 -0.1007006781
C  C111  1  0.05950000  0.35250000  0.47940000  1.0 -0.1007006781
C  C112  1  0.35250000  0.05950000  0.02060000  1.0 -0.1007006781
C  C113  1  0.98190000  0.76210000  0.58690000  1.0 -0.2526694438
C  C114  1  0.76210000  0.98190000  0.91310000  1.0 -0.2526694438
C  C115  1  0.01810000  0.23790000  0.41310000  1.0 -0.2526694438
C  C116  1  0.23790000  0.01810000  0.08690000  1.0 -0.2526694438
C  C117  1  0.66930000  0.34030000  0.69030000  1.0 0.0689949848
C  C118  1  0.34030000  0.66930000  0.80970000  1.0 0.0689949848
C  C119  1  0.33070000  0.65970000  0.30970000  1.0 0.0689949848
C  C120  1  0.65970000  0.33070000  0.19030000  1.0 0.0689949848
C  C121  1  0.52150000  0.32130000  0.71400000  1.0 -0.2447643964
C  C122  1  0.32130000  0.52150000  0.78600000  1.0 -0.2447643964
C  C123  1  0.47850000  0.67870000  0.28600000  1.0 -0.2447643964
C  C124  1  0.67870000  0.47850000  0.21400000  1.0 -0.2447643964
C  C125  1  0.60430000  0.24970000  0.77620000  1.0 -0.155370926
C  C126  1  0.24970000  0.60430000  0.72380000  1.0 -0.155370926
C  C127  1  0.39570000  0.75030000  0.22380000  1.0 -0.155370926
C  C128  1  0.75030000  0.39570000  0.27620000  1.0 -0.155370926
C  C129  1  0.92510000  0.50690000  0.74200000  1.0 0.1692439993
C  C130  1  0.50690000  0.92510000  0.75800000  1.0 0.1692439993
C  C131  1  0.07490000  0.49310000  0.25800000  1.0 0.1692439993
C  C132  1  0.49310000  0.07490000  0.24200000  1.0 0.1692439993
C  C133  1  0.93060000  0.57940000  0.81760000  1.0 -0.1318923975
C  C134  1  0.57940000  0.93060000  0.68240000  1.0 -0.1318923975
C  C135  1  0.06940000  0.42060000  0.18240000  1.0 -0.1318923975
C  C136  1  0.42060000  0.06940000  0.31760000  1.0 -0.1318923975
C  C137  1  0.08800000  0.60600000  0.79770000  1.0 -0.2022893899
C  C138  1  0.60600000  0.08800000  0.70230000  1.0 -0.2022893899
C  C139  1  0.91200000  0.39400000  0.20230000  1.0 -0.2022893899
C  C140  1  0.39400000  0.91200000  0.29770000  1.0 -0.2022893899
C  C141  1  0.88920000  0.53680000  0.57280000  1.0 0.0442318866
C  C142  1  0.53680000  0.88920000  0.92720000  1.0 0.0442318866
C  C143  1  0.11080000  0.46320000  0.42720000  1.0 0.0442318866
C  C144  1  0.46320000  0.11080000  0.07280000  1.0 0.0442318866
C  C145  1  0.02790000  0.68810000  0.52300000  1.0 -0.2203562888
C  C146  1  0.68810000  0.02790000  0.97700000  1.0 -0.2203562888
C  C147  1  0.97210000  0.31190000  0.47700000  1.0 -0.2203562888
C  C148  1  0.31190000  0.97210000  0.02300000  1.0 -0.2203562888
C  C149  1  0.00310000  0.70290000  0.61200000  1.0 -0.1007006781
C  C150  1  0.70290000  0.00310000  0.88800000  1.0 -0.1007006781
C  C151  1  0.99690000  0.29710000  0.38800000  1.0 -0.1007006781
C  C152  1  0.29710000  0.99690000  0.11200000  1.0 -0.1007006781
C  C153  1  0.60100000  0.36900000  0.75500000  1.0 -0.2022893899
C  C154  1  0.36900000  0.60100000  0.74500000  1.0 -0.2022893899
C  C155  1  0.39900000  0.63100000  0.24500000  1.0 -0.2022893899
C  C156  1  0.63100000  0.39900000  0.25500000  1.0 -0.2022893899
C  C157  1  0.54200000  0.19200000  0.74800000  1.0 -0.183452127
C  C158  1  0.19200000  0.54200000  0.75200000  1.0 -0.183452127
C  C159  1  0.45800000  0.80800000  0.25200000  1.0 -0.183452127
C  C160  1  0.80800000  0.45800000  0.24800000  1.0 -0.183452127
C  C161  1  0.99000000  0.52600000  0.74500000  1.0 0.2078029388
C  C162  1  0.52600000  0.99000000  0.75500000  1.0 0.2078029388
C  C163  1  0.01000000  0.47400000  0.25500000  1.0 0.2078029388
C  C164  1  0.47400000  0.01000000  0.24500000  1.0 0.2078029388
C  C165  1  0.05500000  0.61900000  0.82500000  1.0 -0.1208120524
C  C166  1  0.61900000  0.05500000  0.67500000  1.0 -0.1208120524
C  C167  1  0.94500000  0.38100000  0.17500000  1.0 -0.1208120524
C  C168  1  0.38100000  0.94500000  0.32500000  1.0 -0.1208120524
C  C169  1  0.87700000  0.54500000  0.78500000  1.0 -0.2022893899
C  C170  1  0.54500000  0.87700000  0.71500000  1.0 -0.2022893899
C  C171  1  0.12300000  0.45500000  0.21500000  1.0 -0.2022893899
C  C172  1  0.45500000  0.12300000  0.28500000  1.0 -0.2022893899
N  N1  1  0.64114000  0.12766000  0.54650000  1.0 -0.305816879
N  N2  1  0.12766000  0.64114000  0.95350000  1.0 -0.305816879
N  N3  1  0.35886000  0.87234000  0.45350000  1.0 -0.305816879
N  N4  1  0.87234000  0.35886000  0.04650000  1.0 -0.305816879
N  N5  1  0.71695000  0.11545000  0.56100000  1.0 -0.0934633887
N  N6  1  0.11545000  0.71695000  0.93900000  1.0 -0.0934633887
N  N7  1  0.28305000  0.88455000  0.43900000  1.0 -0.0934633887
N  N8  1  0.88455000  0.28305000  0.06100000  1.0 -0.0934633887
N  N9  1  0.79229000  0.19151000  0.58870000  1.0 -0.0934633887
N  N10  1  0.19151000  0.79229000  0.91130000  1.0 -0.0934633887
N  N11  1  0.20771000  0.80849000  0.41130000  1.0 -0.0934633887
N  N12  1  0.80849000  0.20771000  0.08870000  1.0 -0.0934633887
N  N13  1  0.76607000  0.25413000  0.59330000  1.0 -0.3518758095
N  N14  1  0.25413000  0.76607000  0.90670000  1.0 -0.3518758095
N  N15  1  0.23393000  0.74587000  0.40670000  1.0 -0.3518758095
N  N16  1  0.74587000  0.23393000  0.09330000  1.0 -0.3518758095
N  N17  1  0.93040000  0.65360000  0.57400000  1.0 0.1823669174
N  N18  1  0.65360000  0.93040000  0.92600000  1.0 0.1823669174
N  N19  1  0.06960000  0.34640000  0.42600000  1.0 0.1823669174
N  N20  1  0.34640000  0.06960000  0.07400000  1.0 0.1823669174
N  N21  1  0.60130000  0.30130000  0.72460000  1.0 0.0637654686
N  N22  1  0.30130000  0.60130000  0.77540000  1.0 0.0637654686
N  N23  1  0.39870000  0.69870000  0.27540000  1.0 0.0637654686
N  N24  1  0.69870000  0.39870000  0.22460000  1.0 0.0637654686
N  N25  1  0.97680000  0.56200000  0.78190000  1.0 0.0095871883
N  N26  1  0.56200000  0.97680000  0.71810000  1.0 0.0095871883
N  N27  1  0.02320000  0.43800000  0.21810000  1.0 0.0095871883
N  N28  1  0.43800000  0.02320000  0.28190000  1.0 0.0095871883
N  N29  1  0.96820000  0.63780000  0.56890000  1.0 0.1692439993
N  N30  1  0.63780000  0.96820000  0.93110000  1.0 0.1692439993
N  N31  1  0.03180000  0.36220000  0.43110000  1.0 0.1692439993
N  N32  1  0.36220000  0.03180000  0.06890000  1.0 0.1692439993
O  O1  1  0.52676000  0.89184000  0.55943000  1.0 -0.5973243317
O  O2  1  0.89184000  0.52676000  0.94057000  1.0 -0.5973243317
O  O3  1  0.47324000  0.10816000  0.44057000  1.0 -0.5973243317
O  O4  1  0.10816000  0.47324000  0.05943000  1.0 -0.5973243317
O  O5  1  0.57349000  0.78791000  0.57890000  1.0 -0.5122266909
O  O6  1  0.78791000  0.57349000  0.92110000  1.0 -0.5122266909
O  O7  1  0.42651000  0.21209000  0.42110000  1.0 -0.5122266909
O  O8  1  0.21209000  0.42651000  0.07890000  1.0 -0.5122266909
O  O9  1  0.05640000  0.35520000  0.60450000  1.0 -0.5314105502
O  O10  1  0.35520000  0.05640000  0.89550000  1.0 -0.5314105502
O  O11  1  0.94360000  0.64480000  0.39550000  1.0 -0.5314105502
O  O12  1  0.64480000  0.94360000  0.10450000  1.0 -0.5314105502
O  O13  1  0.02030000  0.46150000  0.61790000  1.0 -0.5908347494
O  O14  1  0.46150000  0.02030000  0.88210000  1.0 -0.5908347494
O  O15  1  0.97970000  0.53850000  0.38210000  1.0 -0.5908347494
O  O16  1  0.53850000  0.97970000  0.11790000  1.0 -0.5908347494
O  O17  1  0.68701000  0.94439000  0.47459000  1.0 -0.5384522877
O  O18  1  0.94439000  0.68701000  0.02541000  1.0 -0.5384522877
O  O19  1  0.31299000  0.05561000  0.52541000  1.0 -0.5384522877
O  O20  1  0.05561000  0.31299000  0.97459000  1.0 -0.5384522877
O  O21  1  0.61302000  0.02658000  0.44729000  1.0 -0.556058993
O  O22  1  0.02658000  0.61302000  0.05271000  1.0 -0.556058993
O  O23  1  0.38698000  0.97342000  0.55271000  1.0 -0.556058993
O  O24  1  0.97342000  0.38698000  0.94729000  1.0 -0.556058993
O  O25  1  0.75130000  0.11710000  0.19650000  1.0 -0.566704621
O  O26  1  0.11710000  0.75130000  0.30350000  1.0 -0.566704621
O  O27  1  0.24870000  0.88290000  0.80350000  1.0 -0.566704621
O  O28  1  0.88290000  0.24870000  0.69650000  1.0 -0.566704621
O  O29  1  0.78980000  0.00600000  0.21620000  1.0 -0.5214841342
O  O30  1  0.00600000  0.78980000  0.28380000  1.0 -0.5214841342
O  O31  1  0.21020000  0.99400000  0.78380000  1.0 -0.5214841342
O  O32  1  0.99400000  0.21020000  0.71620000  1.0 -0.5214841342
O  O33  1  0.79375000  0.00925000  0.64764000  1.0 -0.5973243317
O  O34  1  0.00925000  0.79375000  0.85236000  1.0 -0.5973243317
O  O35  1  0.20625000  0.99075000  0.35236000  1.0 -0.5973243317
O  O36  1  0.99075000  0.20625000  0.14764000  1.0 -0.5973243317
O  O37  1  0.79798000  0.89842000  0.61200000  1.0 -0.5122266909
O  O38  1  0.89842000  0.79798000  0.88800000  1.0 -0.5122266909
O  O39  1  0.20202000  0.10158000  0.38800000  1.0 -0.5122266909
O  O40  1  0.10158000  0.20202000  0.11200000  1.0 -0.5122266909
O  O41  1  0.88981000  0.10999000  0.54791000  1.0 -0.5908347494
O  O42  1  0.10999000  0.88981000  0.95209000  1.0 -0.5908347494
O  O43  1  0.11019000  0.89001000  0.45209000  1.0 -0.5908347494
O  O44  1  0.89001000  0.11019000  0.04791000  1.0 -0.5908347494
O  O45  1  0.02086000  0.13634000  0.60500000  1.0 -0.5214841342
O  O46  1  0.13634000  0.02086000  0.89500000  1.0 -0.5214841342
O  O47  1  0.97914000  0.86366000  0.39500000  1.0 -0.5214841342
O  O48  1  0.86366000  0.97914000  0.10500000  1.0 -0.5214841342
O  O49  1  0.84100000  0.48820000  0.59890000  1.0 -0.2564697763
O  O50  1  0.48820000  0.84100000  0.90110000  1.0 -0.2564697763
O  O51  1  0.15900000  0.51180000  0.40110000  1.0 -0.2564697763
O  O52  1  0.51180000  0.15900000  0.09890000  1.0 -0.2564697763
O  O53  1  0.72340000  0.31040000  0.69470000  1.0 -0.4695202461
O  O54  1  0.31040000  0.72340000  0.80530000  1.0 -0.4695202461
O  O55  1  0.27660000  0.68960000  0.30530000  1.0 -0.4695202461
O  O56  1  0.68960000  0.27660000  0.19470000  1.0 -0.4695202461
O  O57  1  0.96840000  0.49160000  0.71520000  1.0 -0.0667816581
O  O58  1  0.49160000  0.96840000  0.78480000  1.0 -0.0667816581
O  O59  1  0.03160000  0.50840000  0.28480000  1.0 -0.0667816581
O  O60  1  0.50840000  0.03160000  0.21520000  1.0 -0.0667816581
O  O61  1  0.92200000  0.49800000  0.70800000  1.0 -0.1007006781
O  O62  1  0.49800000  0.92200000  0.79200000  1.0 -0.1007006781
O  O63  1  0.07800000  0.50200000  0.29200000  1.0 -0.1007006781
O  O64  1  0.50200000  0.07800000  0.20800000  1.0 -0.1007006781
