# DDEC6 charges by PACMAN v1.1 (https://github.com/mtap-research/PACMAN-charge/)
data_UZAFAD_FSR_pacman
_symmetry_space_group_name_H-M   'P 1'
_cell_length_a   10.40000000
_cell_length_b   11.80300000
_cell_length_c   13.93700000
_cell_angle_alpha   108.15500000
_cell_angle_beta   108.02500000
_cell_angle_gamma   85.85500000
_symmetry_Int_Tables_number   1
_chemical_formula_structural   Ni3H54C46(N8O9)2
_chemical_formula_sum   'Ni3 H54 C46 N16 O18'
_cell_volume   1545.28150793
_cell_formula_units_Z   1
loop_
 _symmetry_equiv_pos_site_id
 _symmetry_equiv_pos_as_xyz
  1  'x, y, z'
loop_
 _atom_site_type_symbol
 _atom_site_label
 _atom_site_symmetry_multiplicity
 _atom_site_fract_x
 _atom_site_fract_y
 _atom_site_fract_z
 _atom_site_occupancy
 _atom_site_charge
Ni  Ni1  1  0.00000000  0.00000000  0.50000000  1.0 0.6466425595
Ni  Ni2  1  0.42498000  0.69808000  0.74494000  1.0 0.7574955759
Ni  Ni3  1  0.57502000  0.30192000  0.25506000  1.0 0.7574955759
H  H1  1  0.51020000  0.72830000  0.97850000  1.0 0.1000019212
H  H2  1  0.48980000  0.27170000  0.02150000  1.0 0.1000019212
H  H3  1  0.27270000  0.95200000  0.85670000  1.0 0.1195974975
H  H4  1  0.72730000  0.04800000  0.14330000  1.0 0.1195974975
H  H5  1  0.32240000  0.03060000  0.05010000  1.0 0.1195974975
H  H6  1  0.67760000  0.96940000  0.94990000  1.0 0.1195974975
H  H7  1  0.51320000  0.96760000  0.20910000  1.0 0.1285713327
H  H8  1  0.48680000  0.03240000  0.79090000  1.0 0.1285713327
H  H9  1  0.57940000  0.84410000  0.17460000  1.0 0.1093088386
H  H10  1  0.42060000  0.15590000  0.82540000  1.0 0.1093088386
H  H11  1  0.30000000  0.98650000  0.22550000  1.0 0.1195974975
H  H12  1  0.70000000  0.01350000  0.77450000  1.0 0.1195974975
H  H13  1  0.22430000  0.88720000  0.12240000  1.0 0.1093088386
H  H14  1  0.77570000  0.11280000  0.87760000  1.0 0.1093088386
H  H15  1  0.23390000  0.00790000  0.39240000  1.0 0.1195974975
H  H16  1  0.76610000  0.99210000  0.60760000  1.0 0.1195974975
H  H17  1  0.04650000  0.74810000  0.13970000  1.0 0.1285713327
H  H18  1  0.95350000  0.25190000  0.86030000  1.0 0.1285713327
H  H19  1  0.92550000  0.78580000  0.27030000  1.0 0.1195974975
H  H20  1  0.07450000  0.21420000  0.72970000  1.0 0.1195974975
H  H21  1  0.27910000  0.67860000  0.15470000  1.0 0.1093088386
H  H22  1  0.72090000  0.32140000  0.84530000  1.0 0.1093088386
H  H23  1  0.33230000  0.69440000  0.06620000  1.0 0.1093088386
H  H24  1  0.66770000  0.30560000  0.93380000  1.0 0.1093088386
H  H25  1  0.61580000  0.63310000  0.10260000  1.0 0.1195974975
H  H26  1  0.38420000  0.36690000  0.89740000  1.0 0.1195974975
H  H27  1  0.71120000  0.45580000  0.14890000  1.0 0.1195974975
H  H28  1  0.28880000  0.54420000  0.85110000  1.0 0.1195974975
H  H29  1  0.37160000  0.51180000  0.21910000  1.0 0.1195974975
H  H30  1  0.62840000  0.48820000  0.78090000  1.0 0.1195974975
H  H31  1  0.44720000  0.91910000  0.36700000  1.0 0.1285713327
H  H32  1  0.55280000  0.08090000  0.63300000  1.0 0.1285713327
H  H33  1  0.42510000  0.78230000  0.34290000  1.0 0.1195974975
H  H34  1  0.57490000  0.21770000  0.65710000  1.0 0.1195974975
H  H35  1  0.68140000  0.99330000  0.38810000  1.0 0.1093088386
H  H36  1  0.31860000  0.00670000  0.61190000  1.0 0.1093088386
H  H37  1  0.65020000  0.65560000  0.37110000  1.0 0.1285713327
H  H38  1  0.34980000  0.34440000  0.62890000  1.0 0.1285713327
H  H39  1  0.88840000  0.72040000  0.45080000  1.0 0.1195974975
H  H40  1  0.11160000  0.27960000  0.54920000  1.0 0.1195974975
H  H41  1  0.98100000  0.56490000  0.59460000  1.0 0.1285713327
H  H42  1  0.01900000  0.43510000  0.40540000  1.0 0.1285713327
H  H43  1  0.53960000  0.65200000  0.51100000  1.0 0.1000019212
H  H44  1  0.46040000  0.34800000  0.48900000  1.0 0.1000019212
H  H45  1  0.73550000  0.75560000  0.62800000  1.0 0.1195974975
H  H46  1  0.26450000  0.24440000  0.37200000  1.0 0.1195974975
H  H47  1  0.73780000  0.62590000  0.63530000  1.0 0.1419376073
H  H48  1  0.26220000  0.37410000  0.36470000  1.0 0.1419376073
H  H49  1  0.81200000  0.14200000  0.40800000  1.0 0.3752736238
H  H50  1  0.18800000  0.85800000  0.59200000  1.0 0.3752736238
H  H51  1  0.93100000  0.13900000  0.37700000  1.0 0.3481822995
H  H52  1  0.06900000  0.86100000  0.62300000  1.0 0.3481822995
H  H53  1  0.40700000  0.56900000  0.57300000  1.0 0.3481822995
H  H54  1  0.59300000  0.43100000  0.42700000  1.0 0.3481822995
C  C1  1  0.45630000  0.79350000  0.97180000  1.0 0.0757625935
C  C2  1  0.54370000  0.20650000  0.02820000  1.0 0.0757625935
C  C3  1  0.32670000  0.91620000  0.90550000  1.0 -0.0381652477
C  C4  1  0.67330000  0.08380000  0.09450000  1.0 -0.0381652477
C  C5  1  0.35370000  0.96030000  0.01260000  1.0 -0.1280748832
C  C6  1  0.64630000  0.03970000  0.98740000  1.0 -0.1280748832
C  C7  1  0.49420000  0.88500000  0.16600000  1.0 -0.2153926281
C  C8  1  0.50580000  0.11500000  0.83400000  1.0 -0.2153926281
C  C9  1  0.40150000  0.82830000  0.20700000  1.0 0.1285713327
C  C10  1  0.59850000  0.17170000  0.79300000  1.0 0.1285713327
C  C11  1  0.27270000  0.90280000  0.19710000  1.0 -0.2153926281
C  C12  1  0.72730000  0.09720000  0.80290000  1.0 -0.2153926281
C  C13  1  0.17200000  0.94720000  0.34600000  1.0 0.0860457954
C  C14  1  0.82800000  0.05280000  0.65400000  1.0 0.0860457954
C  C15  1  0.07030000  0.80470000  0.20630000  1.0 -0.1280748832
C  C16  1  0.92970000  0.19530000  0.79370000  1.0 -0.1280748832
C  C17  1  0.00390000  0.82620000  0.27900000  1.0 -0.0381652477
C  C18  1  0.99610000  0.17380000  0.72100000  1.0 -0.0381652477
C  C19  1  0.35860000  0.69880000  0.14040000  1.0 -0.2153926281
C  C20  1  0.64140000  0.30120000  0.85960000  1.0 -0.2153926281
C  C21  1  0.57840000  0.58790000  0.13180000  1.0 -0.1393824878
C  C22  1  0.42160000  0.41210000  0.86820000  1.0 -0.1393824878
C  C23  1  0.63030000  0.48960000  0.15740000  1.0 -0.0499152491
C  C24  1  0.36970000  0.51040000  0.84260000  1.0 -0.0499152491
C  C25  1  0.44470000  0.51980000  0.19640000  1.0 0.064600074
C  C26  1  0.55530000  0.48020000  0.80360000  1.0 0.064600074
C  C27  1  0.46760000  0.84100000  0.32600000  1.0 -0.1942162129
C  C28  1  0.53240000  0.15900000  0.67400000  1.0 -0.1942162129
C  C29  1  0.70450000  0.91740000  0.39340000  1.0 0.070227926
C  C30  1  0.29550000  0.08260000  0.60660000  1.0 0.070227926
C  C31  1  0.68540000  0.73090000  0.38360000  1.0 -0.1045893157
C  C32  1  0.31460000  0.26910000  0.61640000  1.0 -0.1045893157
C  C33  1  0.81730000  0.76760000  0.42790000  1.0 -0.0561426605
C  C34  1  0.18270000  0.23240000  0.57210000  1.0 -0.0561426605
C  C35  1  0.17450000  0.57820000  0.58020000  1.0 0.6008665499
C  C36  1  0.82550000  0.42180000  0.41980000  1.0 0.6008665499
C  C37  1  0.03020000  0.53690000  0.54670000  1.0 -0.1959982279
C  C38  1  0.96980000  0.46310000  0.45330000  1.0 -0.1959982279
C  C39  1  0.47390000  0.80300000  0.60510000  1.0 0.52863031
C  C40  1  0.52610000  0.19700000  0.39490000  1.0 0.52863031
C  C41  1  0.54620000  0.68380000  0.58630000  1.0 0.070227926
C  C42  1  0.45380000  0.31620000  0.41370000  1.0 0.070227926
C  C43  1  0.69390000  0.70190000  0.65080000  1.0 -0.4160194161
C  C44  1  0.30610000  0.29810000  0.34920000  1.0 -0.4160194161
C  C45  1  0.72100000  0.75170000  0.76990000  1.0 0.4746359524
C  C46  1  0.27900000  0.24830000  0.23010000  1.0 0.4746359524
N  N1  1  0.39180000  0.81070000  0.88090000  1.0 -0.2727271678
N  N2  1  0.60820000  0.18930000  0.11910000  1.0 -0.2727271678
N  N3  1  0.43620000  0.88040000  0.05410000  1.0 0.0275632826
N  N4  1  0.56380000  0.11960000  0.94590000  1.0 0.0275632826
N  N5  1  0.17930000  0.88240000  0.24940000  1.0 0.0397892656
N  N6  1  0.82070000  0.11760000  0.75060000  1.0 0.0397892656
N  N7  1  0.06870000  0.91600000  0.36760000  1.0 -0.2797051581
N  N8  1  0.93130000  0.08400000  0.63240000  1.0 -0.2797051581
N  N9  1  0.54600000  0.44670000  0.19800000  1.0 -0.3025763097
N  N10  1  0.45400000  0.55330000  0.80200000  1.0 -0.3025763097
N  N11  1  0.45960000  0.60860000  0.15740000  1.0 0.0397892656
N  N12  1  0.54040000  0.39140000  0.84260000  1.0 0.0397892656
N  N13  1  0.83030000  0.88600000  0.43390000  1.0 -0.3157368513
N  N14  1  0.16970000  0.11400000  0.56610000  1.0 -0.3157368513
N  N15  1  0.61460000  0.82680000  0.36110000  1.0 0.0397892656
N  N16  1  0.38540000  0.17320000  0.63890000  1.0 0.0397892656
O  O1  1  0.23830000  0.54450000  0.51390000  1.0 -0.5575175199
O  O2  1  0.76170000  0.45550000  0.48610000  1.0 -0.5575175199
O  O3  1  0.22220000  0.64280000  0.67470000  1.0 -0.5689372631
O  O4  1  0.77780000  0.35720000  0.32530000  1.0 -0.5689372631
O  O5  1  0.39360000  0.82000000  0.66150000  1.0 -0.5689372631
O  O6  1  0.60640000  0.18000000  0.33850000  1.0 -0.5689372631
O  O7  1  0.50090000  0.87620000  0.56660000  1.0 -0.5511545601
O  O8  1  0.49910000  0.12380000  0.43340000  1.0 -0.5511545601
O  O9  1  0.84790000  0.76540000  0.82390000  1.0 0.0076239095
O  O10  1  0.15210000  0.23460000  0.17610000  1.0 0.0076239095
O  O11  1  0.63180000  0.75060000  0.81250000  1.0 -0.5575175199
O  O12  1  0.36820000  0.24940000  0.18750000  1.0 -0.5575175199
O  O13  1  0.89700000  0.12640000  0.42110000  1.0 -0.6697375539
O  O14  1  0.10300000  0.87360000  0.57890000  1.0 -0.6697375539
O  O15  1  0.48680000  0.59810000  0.61540000  1.0 -0.4816483322
O  O16  1  0.51320000  0.40190000  0.38460000  1.0 -0.4816483322
O  O17  1  0.82910000  0.81350000  0.81950000  1.0 0.0076239095
O  O18  1  0.17090000  0.18650000  0.18050000  1.0 0.0076239095
