# DDEC6 charges by PACMAN v1.1 (https://github.com/mtap-research/PACMAN-charge/)
data_UZEKEQ_FSR_pacman
_symmetry_space_group_name_H-M   'P 1'
_cell_length_a   13.30180000
_cell_length_b   13.30180000
_cell_length_c   7.92300000
_cell_angle_alpha   78.96340000
_cell_angle_beta   101.03700000
_cell_angle_gamma   84.32340000
_symmetry_Int_Tables_number   1
_chemical_formula_structural   Cu5H28C40S2(N7O8)2
_chemical_formula_sum   'Cu5 H28 C40 S2 N14 O16'
_cell_volume   1337.06312360
_cell_formula_units_Z   1
loop_
 _symmetry_equiv_pos_site_id
 _symmetry_equiv_pos_as_xyz
  1  'x, y, z'
loop_
 _atom_site_type_symbol
 _atom_site_label
 _atom_site_symmetry_multiplicity
 _atom_site_fract_x
 _atom_site_fract_y
 _atom_site_fract_z
 _atom_site_occupancy
 _atom_site_charge
Cu  Cu1  1  0.50000000  0.50000000  0.50000000  1.0 0.9176490453
Cu  Cu2  1  0.46418000  0.72028000  0.57546000  1.0 0.8261565116
Cu  Cu3  1  0.72028000  0.46418000  0.42454000  1.0 0.8261565116
Cu  Cu4  1  0.53582000  0.27972000  0.42454000  1.0 0.8261565116
Cu  Cu5  1  0.27972000  0.53582000  0.57546000  1.0 0.8261565116
H  H1  1  0.68120000  0.81360000  0.58550000  1.0 0.128171684
H  H2  1  0.81360000  0.68120000  0.41450000  1.0 0.128171684
H  H3  1  0.31880000  0.18640000  0.41450000  1.0 0.128171684
H  H4  1  0.18640000  0.31880000  0.58550000  1.0 0.128171684
H  H5  1  0.69460000  0.97400000  0.38730000  1.0 0.1441604399
H  H6  1  0.97400000  0.69460000  0.61270000  1.0 0.1441604399
H  H7  1  0.30540000  0.02600000  0.61270000  1.0 0.1441604399
H  H8  1  0.02600000  0.30540000  0.38730000  1.0 0.1441604399
H  H9  1  0.40140000  0.92720000  0.30360000  1.0 0.128171684
H  H10  1  0.92720000  0.40140000  0.69640000  1.0 0.128171684
H  H11  1  0.59860000  0.07280000  0.69640000  1.0 0.128171684
H  H12  1  0.07280000  0.59860000  0.30360000  1.0 0.128171684
H  H13  1  0.65620000  0.10640000  0.15830000  1.0 0.1441604399
H  H14  1  0.10640000  0.65620000  0.84170000  1.0 0.1441604399
H  H15  1  0.34380000  0.89360000  0.84170000  1.0 0.1441604399
H  H16  1  0.89360000  0.34380000  0.15830000  1.0 0.1441604399
H  H17  1  0.60780000  0.25280000  0.93040000  1.0 0.128171684
H  H18  1  0.25280000  0.60780000  0.06960000  1.0 0.128171684
H  H19  1  0.39220000  0.74720000  0.06960000  1.0 0.128171684
H  H20  1  0.74720000  0.39220000  0.93040000  1.0 0.128171684
H  H21  1  0.31100000  0.22340000  0.89600000  1.0 0.117753118
H  H22  1  0.22340000  0.31100000  0.10400000  1.0 0.117753118
H  H23  1  0.68900000  0.77660000  0.10400000  1.0 0.117753118
H  H24  1  0.77660000  0.68900000  0.89600000  1.0 0.117753118
H  H25  1  0.35420000  0.07580000  0.11410000  1.0 0.128171684
H  H26  1  0.07580000  0.35420000  0.88590000  1.0 0.128171684
H  H27  1  0.64580000  0.92420000  0.88590000  1.0 0.128171684
H  H28  1  0.92420000  0.64580000  0.11410000  1.0 0.128171684
C  C1  1  0.62680000  0.85640000  0.50360000  1.0 -0.0302473351
C  C2  1  0.85640000  0.62680000  0.49640000  1.0 -0.0302473351
C  C3  1  0.37320000  0.14360000  0.49640000  1.0 -0.0302473351
C  C4  1  0.14360000  0.37320000  0.50360000  1.0 -0.0302473351
C  C5  1  0.63440000  0.94480000  0.39370000  1.0 -0.0900187211
C  C6  1  0.94480000  0.63440000  0.60630000  1.0 -0.0900187211
C  C7  1  0.36560000  0.05520000  0.60630000  1.0 -0.0900187211
C  C8  1  0.05520000  0.36560000  0.39370000  1.0 -0.0900187211
C  C9  1  0.47250000  0.91870000  0.34760000  1.0 0.1118711417
C  C10  1  0.91870000  0.47250000  0.65240000  1.0 0.1118711417
C  C11  1  0.52750000  0.08130000  0.65240000  1.0 0.1118711417
C  C12  1  0.08130000  0.52750000  0.34760000  1.0 0.1118711417
C  C13  1  0.50880000  0.07580000  0.15630000  1.0 0.1718629633
C  C14  1  0.07580000  0.50880000  0.84370000  1.0 0.1718629633
C  C15  1  0.49120000  0.92420000  0.84370000  1.0 0.1718629633
C  C16  1  0.92420000  0.49120000  0.15630000  1.0 0.1718629633
C  C17  1  0.58690000  0.12870000  0.10450000  1.0 -0.1820189657
C  C18  1  0.12870000  0.58690000  0.89550000  1.0 -0.1820189657
C  C19  1  0.41310000  0.87130000  0.89550000  1.0 -0.1820189657
C  C20  1  0.87130000  0.41310000  0.10450000  1.0 -0.1820189657
C  C21  1  0.55690000  0.21690000  0.96840000  1.0 -0.0849609452
C  C22  1  0.21690000  0.55690000  0.03160000  1.0 -0.0849609452
C  C23  1  0.44310000  0.78310000  0.03160000  1.0 -0.0849609452
C  C24  1  0.78310000  0.44310000  0.96840000  1.0 -0.0849609452
C  C25  1  0.45640000  0.25220000  0.88960000  1.0 -0.0448415058
C  C26  1  0.25220000  0.45640000  0.11040000  1.0 -0.0448415058
C  C27  1  0.54360000  0.74780000  0.11040000  1.0 -0.0448415058
C  C28  1  0.74780000  0.54360000  0.88960000  1.0 -0.0448415058
C  C29  1  0.38030000  0.19910000  0.94700000  1.0 -0.0849609452
C  C30  1  0.19910000  0.38030000  0.05300000  1.0 -0.0849609452
C  C31  1  0.61970000  0.80090000  0.05300000  1.0 -0.0900187211
C  C32  1  0.80090000  0.61970000  0.94700000  1.0 -0.0849609452
C  C33  1  0.40590000  0.11130000  0.07790000  1.0 -0.1916799995
C  C34  1  0.11130000  0.40590000  0.92210000  1.0 -0.1916799995
C  C35  1  0.59410000  0.88870000  0.92210000  1.0 -0.1916799995
C  C36  1  0.88870000  0.59410000  0.07790000  1.0 -0.1916799995
C  C37  1  0.42710000  0.34730000  0.74750000  1.0 0.5609129814
C  C38  1  0.34730000  0.42710000  0.25250000  1.0 0.5609129814
C  C39  1  0.57290000  0.65270000  0.25250000  1.0 0.5609129814
C  C40  1  0.65270000  0.57290000  0.74750000  1.0 0.5609129814
S  S1  1  0.22765000  0.77235000  0.49880000  1.0 1.3801846055
S  S2  1  0.77235000  0.22765000  0.50120000  1.0 1.3801846055
N  N1  1  0.52468000  0.84048000  0.47360000  1.0 -0.2953969094
N  N2  1  0.84048000  0.52468000  0.52640000  1.0 -0.2953969094
N  N3  1  0.47532000  0.15952000  0.52640000  1.0 -0.2953969094
N  N4  1  0.15952000  0.47532000  0.47360000  1.0 -0.2953969094
N  N5  1  0.53650000  0.98430000  0.29180000  1.0 0.0057415845
N  N6  1  0.98430000  0.53650000  0.70820000  1.0 0.0057415845
N  N7  1  0.46350000  0.01570000  0.70820000  1.0 0.0057415845
N  N8  1  0.01570000  0.46350000  0.29180000  1.0 0.0057415845
N  N9  1  0.58770000  0.41230000  0.31390000  1.0 -0.6428788158
N  N10  1  0.41230000  0.58770000  0.68610000  1.0 -0.6428788158
N  N11  1  0.55400000  0.44600000  0.14560000  1.0 0.2031600994
N  N12  1  0.44600000  0.55400000  0.85440000  1.0 0.2031600994
N  N13  1  0.48000000  0.52000000  0.01320000  1.0 0.2031600994
N  N14  1  0.52000000  0.48000000  0.98680000  1.0 0.2031600994
O  O1  1  0.33969000  0.39977000  0.72350000  1.0 -0.525282726
O  O2  1  0.39977000  0.33969000  0.27650000  1.0 -0.525282726
O  O3  1  0.66031000  0.60023000  0.27650000  1.0 -0.525282726
O  O4  1  0.60023000  0.66031000  0.72350000  1.0 -0.525282726
O  O5  1  0.49532000  0.36982000  0.65840000  1.0 -0.5830626341
O  O6  1  0.36982000  0.49532000  0.34160000  1.0 -0.5830626341
O  O7  1  0.50468000  0.63018000  0.34160000  1.0 -0.5830626341
O  O8  1  0.63018000  0.50468000  0.65840000  1.0 -0.5830626341
O  O9  1  0.32867000  0.79303000  0.46400000  1.0 -0.6466717723
O  O10  1  0.79303000  0.32867000  0.53600000  1.0 -0.6466717723
O  O11  1  0.67133000  0.20697000  0.53600000  1.0 -0.6466717723
O  O12  1  0.20697000  0.67133000  0.46400000  1.0 -0.6466717723
O  O13  1  0.22850000  0.77150000  0.68690000  1.0 -0.6654051396
O  O14  1  0.77150000  0.22850000  0.31310000  1.0 -0.6646895262
O  O15  1  0.14940000  0.85060000  0.38180000  1.0 -0.607201204
O  O16  1  0.85060000  0.14940000  0.61820000  1.0 -0.607201204
