# DDEC6 charges by PACMAN v1.1 (https://github.com/mtap-research/PACMAN-charge/)
data_UZUTUG_ASR_pacman
_symmetry_space_group_name_H-M   'P 1'
_cell_length_a   19.12820000
_cell_length_b   19.12820000
_cell_length_c   31.06970000
_cell_angle_alpha   79.30980000
_cell_angle_beta   100.69000000
_cell_angle_gamma   134.34000000
_symmetry_Int_Tables_number   1
_chemical_formula_structural   Zn3H28C30(IN)8
_chemical_formula_sum   'Zn18 H168 C180 I48 N48'
_cell_volume   7964.09939375
_cell_formula_units_Z   6
loop_
 _symmetry_equiv_pos_site_id
 _symmetry_equiv_pos_as_xyz
  1  'x, y, z'
loop_
 _atom_site_type_symbol
 _atom_site_label
 _atom_site_symmetry_multiplicity
 _atom_site_fract_x
 _atom_site_fract_y
 _atom_site_fract_z
 _atom_site_occupancy
 _atom_site_charge
Zn  Zn1  1  0.46995000  0.80885000  0.48219000  1.0 0.3310691983
Zn  Zn2  1  0.80885000  0.46995000  0.51781000  1.0 0.3310691983
Zn  Zn3  1  0.52531000  0.27609000  0.31278000  1.0 0.4264616937
Zn  Zn4  1  0.27609000  0.52531000  0.68722000  1.0 0.4264616937
Zn  Zn5  1  0.78909000  0.95797000  0.65774000  1.0 0.3310691983
Zn  Zn6  1  0.95797000  0.78909000  0.34226000  1.0 0.3310691983
Zn  Zn7  1  0.73000000  0.48000000  0.81470000  1.0 0.3910531372
Zn  Zn8  1  0.48000000  0.73000000  0.18530000  1.0 0.3784567983
Zn  Zn9  1  0.19037000  0.53117000  0.97925000  1.0 0.3910531372
Zn  Zn10  1  0.53117000  0.19037000  0.02075000  1.0 0.3910531372
Zn  Zn11  1  0.04117000  0.20537000  0.15824000  1.0 0.3910531372
Zn  Zn12  1  0.20537000  0.04117000  0.84176000  1.0 0.39678922
Zn  Zn13  1  0.46370000  0.81770000  0.47410000  1.0 0.3398100481
Zn  Zn14  1  0.81770000  0.46370000  0.52590000  1.0 0.3398100481
Zn  Zn15  1  0.53200000  0.27740000  0.30530000  1.0 0.3784567983
Zn  Zn16  1  0.27740000  0.53200000  0.69470000  1.0 0.3784567983
Zn  Zn17  1  0.71660000  0.46560000  0.81100000  1.0 0.4108655274
Zn  Zn18  1  0.46560000  0.71660000  0.18900000  1.0 0.4108655274
H  H1  1  0.48000000  0.67480000  0.46030000  1.0 0.0793510421
H  H2  1  0.67480000  0.48000000  0.53970000  1.0 0.0793510421
H  H3  1  0.53360000  0.65120000  0.41050000  1.0 0.1390041158
H  H4  1  0.65120000  0.53360000  0.58950000  1.0 0.1390041158
H  H5  1  0.62830000  0.90330000  0.34410000  1.0 0.1314863376
H  H6  1  0.90330000  0.62830000  0.65590000  1.0 0.1314863376
H  H7  1  0.56650000  0.91390000  0.39480000  1.0 0.0793510421
H  H8  1  0.91390000  0.56650000  0.60520000  1.0 0.0793510421
H  H9  1  0.90150000  0.14350000  0.22050000  1.0 0.0978730549
H  H10  1  0.14350000  0.90150000  0.77950000  1.0 0.0978730549
H  H11  1  0.78360000  0.00980000  0.26520000  1.0 0.1314863376
H  H12  1  0.00980000  0.78360000  0.73480000  1.0 0.1314863376
H  H13  1  0.84830000  0.86470000  0.23440000  1.0 0.1314863376
H  H14  1  0.86470000  0.84830000  0.76560000  1.0 0.1314863376
H  H15  1  0.96670000  0.00350000  0.19110000  1.0 0.0978730549
H  H16  1  0.00350000  0.96670000  0.80890000  1.0 0.0978730549
H  H17  1  0.55040000  0.39640000  0.37080000  1.0 0.0793510421
H  H18  1  0.39640000  0.55040000  0.62920000  1.0 0.0793510421
H  H19  1  0.57620000  0.53380000  0.37050000  1.0 0.1314863376
H  H20  1  0.53380000  0.57620000  0.62950000  1.0 0.1314863376
H  H21  1  0.64550000  0.60190000  0.24490000  1.0 0.1390041158
H  H22  1  0.60190000  0.64550000  0.75510000  1.0 0.1390041158
H  H23  1  0.60840000  0.45880000  0.24800000  1.0 0.0793510421
H  H24  1  0.45880000  0.60840000  0.75200000  1.0 0.0793510421
H  H25  1  0.54290000  0.17370000  0.39390000  1.0 0.0706985077
H  H26  1  0.17370000  0.54290000  0.60610000  1.0 0.0706985077
H  H27  1  0.66460000  0.19320000  0.44120000  1.0 0.1096719176
H  H28  1  0.19320000  0.66460000  0.55880000  1.0 0.1096719176
H  H29  1  0.86820000  0.45040000  0.37410000  1.0 0.1222693623
H  H30  1  0.45040000  0.86820000  0.62590000  1.0 0.1222693623
H  H31  1  0.74410000  0.42310000  0.32710000  1.0 0.0706985077
H  H32  1  0.42310000  0.74410000  0.67290000  1.0 0.0706985077
H  H33  1  0.27940000  0.74700000  0.43360000  1.0 0.0793510421
H  H34  1  0.74700000  0.27940000  0.56640000  1.0 0.0793510421
H  H35  1  0.11230000  0.59890000  0.42240000  1.0 0.1390041158
H  H36  1  0.59890000  0.11230000  0.57760000  1.0 0.1390041158
H  H37  1  0.16570000  0.45930000  0.51160000  1.0 0.1390041158
H  H38  1  0.45930000  0.16570000  0.48840000  1.0 0.1390041158
H  H39  1  0.33120000  0.60440000  0.51600000  1.0 0.0706985077
H  H40  1  0.60440000  0.33120000  0.48400000  1.0 0.0706985077
H  H41  1  0.95960000  0.15420000  0.62330000  1.0 0.0793510421
H  H42  1  0.15420000  0.95960000  0.37670000  1.0 0.0793510421
H  H43  1  0.00580000  0.27220000  0.56410000  1.0 0.1096719176
H  H44  1  0.27220000  0.00580000  0.43590000  1.0 0.1096719176
H  H45  1  0.71860000  0.10620000  0.52690000  1.0 0.1096719176
H  H46  1  0.10620000  0.71860000  0.47310000  1.0 0.1096719176
H  H47  1  0.68120000  0.99540000  0.58660000  1.0 0.0706985077
H  H48  1  0.99540000  0.68120000  0.41340000  1.0 0.0706985077
H  H49  1  0.84830000  0.07990000  0.72810000  1.0 0.0793510421
H  H50  1  0.07990000  0.84830000  0.27190000  1.0 0.0793510421
H  H51  1  0.98490000  0.19970000  0.77280000  1.0 0.1314863376
H  H52  1  0.19970000  0.98490000  0.22720000  1.0 0.1314863376
H  H53  1  0.13450000  0.15410000  0.72900000  1.0 0.1390041158
H  H54  1  0.15410000  0.13450000  0.27100000  1.0 0.1390041158
H  H55  1  0.99620000  0.03880000  0.68410000  1.0 0.0903158494
H  H56  1  0.03880000  0.99620000  0.31590000  1.0 0.0903158494
H  H57  1  0.55500000  0.41200000  0.74510000  1.0 0.0793510421
H  H58  1  0.41200000  0.55500000  0.25490000  1.0 0.0793510421
H  H59  1  0.40260000  0.36340000  0.74270000  1.0 0.1390041158
H  H60  1  0.36340000  0.40260000  0.25730000  1.0 0.1390041158
H  H61  1  0.45240000  0.39560000  0.87310000  1.0 0.1696478844
H  H62  1  0.39560000  0.45240000  0.12690000  1.0 0.1696478844
H  H63  1  0.59880000  0.43900000  0.87150000  1.0 0.0903158494
H  H64  1  0.43900000  0.59880000  0.12850000  1.0 0.0903158494
H  H65  1  0.08030000  0.42610000  0.89570000  1.0 0.0793510421
H  H66  1  0.42610000  0.08030000  0.10430000  1.0 0.0793510421
H  H67  1  0.09130000  0.35770000  0.84470000  1.0 0.1222693623
H  H68  1  0.35770000  0.09130000  0.15530000  1.0 0.1222693623
H  H69  1  0.35100000  0.47020000  0.90440000  1.0 0.1939831645
H  H70  1  0.47020000  0.35100000  0.09560000  1.0 0.1939831645
H  H71  1  0.33790000  0.53910000  0.95160000  1.0 0.1314863376
H  H72  1  0.53910000  0.33790000  0.04840000  1.0 0.1314863376
H  H73  1  0.39800000  0.66780000  0.01300000  1.0 0.0903158494
H  H74  1  0.66780000  0.39800000  0.98700000  1.0 0.0903158494
H  H75  1  0.54010000  0.83150000  0.01280000  1.0 0.1314863376
H  H76  1  0.83150000  0.54010000  0.98720000  1.0 0.1314863376
H  H77  1  0.39410000  0.89050000  0.92820000  1.0 0.1314863376
H  H78  1  0.89050000  0.39410000  0.07180000  1.0 0.1314863376
H  H79  1  0.25720000  0.72420000  0.93150000  1.0 0.0978730549
H  H80  1  0.72420000  0.25720000  0.06850000  1.0 0.0978730549
H  H81  1  0.82070000  0.45670000  0.89840000  1.0 0.0903158494
H  H82  1  0.45670000  0.82070000  0.10160000  1.0 0.0903158494
H  H83  1  0.80070000  0.33950000  0.94760000  1.0 0.1222693623
H  H84  1  0.33950000  0.80070000  0.05240000  1.0 0.1222693623
H  H85  1  0.54820000  0.13200000  0.87600000  1.0 0.1314863376
H  H86  1  0.13200000  0.54820000  0.12400000  1.0 0.1314863376
H  H87  1  0.57980000  0.25720000  0.82810000  1.0 0.0793510421
H  H88  1  0.25720000  0.57980000  0.17190000  1.0 0.0793510421
H  H89  1  0.84320000  0.03680000  0.12210000  1.0 0.0978730549
H  H90  1  0.03680000  0.84320000  0.87790000  1.0 0.0978730549
H  H91  1  0.72890000  0.99590000  0.06690000  1.0 0.1222693623
H  H92  1  0.99590000  0.72890000  0.93310000  1.0 0.1222693623
H  H93  1  0.89370000  0.28190000  0.02830000  1.0 0.1222693623
H  H94  1  0.28190000  0.89370000  0.97170000  1.0 0.1222693623
H  H95  1  0.00680000  0.31640000  0.08690000  1.0 0.0793510421
H  H96  1  0.31640000  0.00680000  0.91310000  1.0 0.0793510421
H  H97  1  0.99090000  0.20010000  0.01710000  1.0 0.0978730549
H  H98  1  0.20010000  0.99090000  0.98290000  1.0 0.0978730549
H  H99  1  0.08080000  0.25860000  0.98610000  1.0 0.0601210503
H  H100  1  0.25860000  0.08080000  0.01390000  1.0 0.0601210503
H  H101  1  0.97480000  0.24920000  0.92890000  1.0 0.0978730549
H  H102  1  0.24920000  0.97480000  0.07110000  1.0 0.0978730549
H  H103  1  0.88100000  0.16600000  0.95630000  1.0 0.0978730549
H  H104  1  0.16600000  0.88100000  0.04370000  1.0 0.0978730549
H  H105  1  0.88100000  0.11860000  0.88770000  1.0 0.0793510421
H  H106  1  0.11860000  0.88100000  0.11230000  1.0 0.0793510421
H  H107  1  0.96170000  0.11830000  0.91320000  1.0 0.0706985077
H  H108  1  0.11830000  0.96170000  0.08680000  1.0 0.0706985077
H  H109  1  0.81760000  0.95280000  0.92550000  1.0 0.1096719176
H  H110  1  0.95280000  0.81760000  0.07450000  1.0 0.1096719176
H  H111  1  0.75630000  0.97950000  0.93190000  1.0 0.0793510421
H  H112  1  0.97950000  0.75630000  0.06810000  1.0 0.0793510421
H  H113  1  0.99610000  0.10670000  0.95470000  1.0 0.0601210503
H  H114  1  0.10670000  0.99610000  0.04530000  1.0 0.0601210503
H  H115  1  0.01050000  0.08950000  0.00690000  1.0 0.0978730549
H  H116  1  0.08950000  0.01050000  0.99310000  1.0 0.0978730549
H  H117  1  0.83750000  0.03830000  0.99990000  1.0 0.0793510421
H  H118  1  0.03830000  0.83750000  0.00010000  1.0 0.0793510421
H  H119  1  0.84330000  0.95770000  0.00160000  1.0 0.0903158494
H  H120  1  0.95770000  0.84330000  0.99840000  1.0 0.0903158494
H  H121  1  0.20260000  0.17160000  0.97250000  1.0 0.0601210503
H  H122  1  0.17160000  0.20260000  0.02750000  1.0 0.0601210503
H  H123  1  0.20700000  0.18080000  0.02350000  1.0 0.0291345546
H  H124  1  0.18080000  0.20700000  0.97650000  1.0 0.0291345546
H  H125  1  0.33570000  0.33030000  0.05790000  1.0 0.0793510421
H  H126  1  0.33030000  0.33570000  0.94210000  1.0 0.0793510421
H  H127  1  0.29040000  0.42980000  0.99740000  1.0 0.051349515
H  H128  1  0.42980000  0.29040000  0.00260000  1.0 0.051349515
H  H129  1  0.28580000  0.41540000  0.04950000  1.0 0.0978730549
H  H130  1  0.41540000  0.28580000  0.95050000  1.0 0.0978730549
H  H131  1  0.14810000  0.24770000  0.04680000  1.0 0.1096719176
H  H132  1  0.24770000  0.14810000  0.95320000  1.0 0.1096719176
H  H133  1  0.12600000  0.30400000  0.01160000  1.0 0.0706985077
H  H134  1  0.30400000  0.12600000  0.98840000  1.0 0.0706985077
H  H135  1  0.16080000  0.26900000  0.95320000  1.0 0.1096719176
H  H136  1  0.26900000  0.16080000  0.04680000  1.0 0.1096719176
H  H137  1  0.07840000  0.16760000  0.98060000  1.0 -0.0022807225
H  H138  1  0.16760000  0.07840000  0.01940000  1.0 -0.0022807225
H  H139  1  0.36870000  0.30430000  0.99440000  1.0 0.0291345546
H  H140  1  0.30430000  0.36870000  0.00560000  1.0 0.0291345546
H  H141  1  0.33100000  0.35100000  0.96300000  1.0 0.051349515
H  H142  1  0.35100000  0.33100000  0.03700000  1.0 0.051349515
H  H143  1  0.41350000  0.43290000  0.03020000  1.0 -0.0022807225
H  H144  1  0.43290000  0.41350000  0.96980000  1.0 -0.0022807225
H  H145  1  0.58090000  0.61990000  0.94420000  1.0 0.0601210503
H  H146  1  0.61990000  0.58090000  0.05580000  1.0 0.0601210503
H  H147  1  0.64670000  0.67970000  0.98650000  1.0 0.0362452766
H  H148  1  0.67970000  0.64670000  0.01350000  1.0 0.0362452766
H  H149  1  0.46450000  0.56670000  0.98530000  1.0 0.0706985077
H  H150  1  0.56670000  0.46450000  0.01470000  1.0 0.0706985077
H  H151  1  0.52340000  0.57280000  0.03060000  1.0 0.0706985077
H  H152  1  0.57280000  0.52340000  0.96940000  1.0 0.0706985077
H  H153  1  0.36850000  0.40630000  0.99970000  1.0 0.0103565619
H  H154  1  0.40630000  0.36850000  0.00030000  1.0 0.0103565619
H  H155  1  0.45120000  0.41800000  0.03220000  1.0 0.0291345546
H  H156  1  0.41800000  0.45120000  0.96780000  1.0 0.0291345546
H  H157  1  0.42320000  0.34480000  0.97200000  1.0 -0.0104074262
H  H158  1  0.34480000  0.42320000  0.02800000  1.0 -0.0104074262
H  H159  1  0.43290000  0.42510000  0.93900000  1.0 0.0601210503
H  H160  1  0.42510000  0.43290000  0.06100000  1.0 0.0601210503
H  H161  1  0.57610000  0.48210000  0.93020000  1.0 0.0903158494
H  H162  1  0.48210000  0.57610000  0.06980000  1.0 0.0903158494
H  H163  1  0.57980000  0.42980000  0.97580000  1.0 0.0601210503
H  H164  1  0.42980000  0.57980000  0.02420000  1.0 0.0601210503
H  H165  1  0.66200000  0.56220000  0.01280000  1.0 0.0291345546
H  H166  1  0.56220000  0.66200000  0.98720000  1.0 0.0291345546
H  H167  1  0.70500000  0.61420000  0.96550000  1.0 0.0978730549
H  H168  1  0.61420000  0.70500000  0.03450000  1.0 0.0978730549
C  C1  1  0.51040000  0.72180000  0.43590000  1.0 0.0601210503
C  C2  1  0.72180000  0.51040000  0.56410000  1.0 0.0601210503
C  C3  1  0.54310000  0.70770000  0.40670000  1.0 -0.1611127932
C  C4  1  0.70770000  0.54310000  0.59330000  1.0 -0.1611127932
C  C5  1  0.59090000  0.77610000  0.37120000  1.0 0.0793510421
C  C6  1  0.77610000  0.59090000  0.62880000  1.0 0.0793510421
C  C7  1  0.59770000  0.85430000  0.36790000  1.0 -0.1487733595
C  C8  1  0.85430000  0.59770000  0.63210000  1.0 -0.1487733595
C  C9  1  0.56130000  0.86010000  0.39800000  1.0 0.0291345546
C  C10  1  0.86010000  0.56130000  0.60200000  1.0 0.0291345546
C  C11  1  0.89110000  0.08650000  0.22370000  1.0 0.0706985077
C  C12  1  0.08650000  0.89110000  0.77630000  1.0 0.0706985077
C  C13  1  0.82110000  0.00750000  0.25040000  1.0 -0.1487733595
C  C14  1  0.00750000  0.82110000  0.74960000  1.0 -0.1487733595
C  C15  1  0.80570000  0.92350000  0.25550000  1.0 0.051349515
C  C16  1  0.92350000  0.80570000  0.74450000  1.0 0.051349515
C  C17  1  0.85910000  0.92170000  0.23250000  1.0 -0.1487733595
C  C18  1  0.92170000  0.85910000  0.76750000  1.0 -0.1487733595
C  C19  1  0.92870000  0.00430000  0.20650000  1.0 0.0706985077
C  C20  1  0.00430000  0.92870000  0.79350000  1.0 0.0706985077
C  C21  1  0.56550000  0.43650000  0.34420000  1.0 0.0601210503
C  C22  1  0.43650000  0.56550000  0.65580000  1.0 0.0601210503
C  C23  1  0.58440000  0.52000000  0.34500000  1.0 -0.1487733595
C  C24  1  0.52000000  0.58440000  0.65500000  1.0 -0.1487733595
C  C25  1  0.61620000  0.58380000  0.30700000  1.0 0.0706985077
C  C26  1  0.58380000  0.61620000  0.69300000  1.0 0.0706985077
C  C27  1  0.62410000  0.55950000  0.27110000  1.0 -0.1396198762
C  C28  1  0.55950000  0.62410000  0.72890000  1.0 -0.1396198762
C  C29  1  0.60090000  0.47430000  0.27310000  1.0 -0.0022807225
C  C30  1  0.47430000  0.60090000  0.72690000  1.0 -0.0022807225
C  C31  1  0.63220000  0.76760000  0.33910000  1.0 0.3525168121
C  C32  1  0.76760000  0.63220000  0.66090000  1.0 0.3525168121
C  C33  1  0.72980000  0.83580000  0.28400000  1.0 0.3656403393
C  C34  1  0.83580000  0.72980000  0.71600000  1.0 0.3656403393
C  C35  1  0.63990000  0.67670000  0.30810000  1.0 0.3603427361
C  C36  1  0.67670000  0.63990000  0.69190000  1.0 0.3603427361
C  C37  1  0.60990000  0.23030000  0.38960000  1.0 0.0362452766
C  C38  1  0.23030000  0.60990000  0.61040000  1.0 0.0362452766
C  C39  1  0.68260000  0.24240000  0.41830000  1.0 -0.1487733595
C  C40  1  0.24240000  0.68260000  0.58170000  1.0 -0.1487733595
C  C41  1  0.77870000  0.32430000  0.41370000  1.0 0.0706985077
C  C42  1  0.32430000  0.77870000  0.58630000  1.0 0.0706985077
C  C43  1  0.80170000  0.39270000  0.37870000  1.0 -0.1611127932
C  C44  1  0.39270000  0.80170000  0.62130000  1.0 -0.1611127932
C  C45  1  0.72760000  0.37620000  0.35100000  1.0 0.0362452766
C  C46  1  0.37620000  0.72760000  0.64900000  1.0 0.0362452766
C  C47  1  0.25660000  0.68720000  0.44900000  1.0 0.0706985077
C  C48  1  0.68720000  0.25660000  0.55100000  1.0 0.0793510421
C  C49  1  0.15530000  0.59930000  0.44360000  1.0 -0.1686530619
C  C50  1  0.59930000  0.15530000  0.55640000  1.0 -0.1686530619
C  C51  1  0.12070000  0.51570000  0.46920000  1.0 0.0706985077
C  C52  1  0.51570000  0.12070000  0.53080000  1.0 0.0706985077
C  C53  1  0.18650000  0.51730000  0.49500000  1.0 -0.1487733595
C  C54  1  0.51730000  0.18650000  0.50500000  1.0 -0.1487733595
C  C55  1  0.28590000  0.60450000  0.49730000  1.0 0.051349515
C  C56  1  0.60450000  0.28590000  0.50270000  1.0 0.051349515
C  C57  1  0.90980000  0.14480000  0.60340000  1.0 0.0793510421
C  C58  1  0.14480000  0.90980000  0.39660000  1.0 0.0706985077
C  C59  1  0.93850000  0.21650000  0.56840000  1.0 -0.1611127932
C  C60  1  0.21650000  0.93850000  0.43160000  1.0 -0.1611127932
C  C61  1  0.86500000  0.20260000  0.54040000  1.0 0.0706985077
C  C62  1  0.20260000  0.86500000  0.45960000  1.0 0.0706985077
C  C63  1  0.76990000  0.11890000  0.54680000  1.0 -0.1686530619
C  C64  1  0.11890000  0.76990000  0.45320000  1.0 -0.1686530619
C  C65  1  0.74810000  0.05230000  0.58220000  1.0 0.0601210503
C  C66  1  0.05230000  0.74810000  0.41780000  1.0 0.0601210503
C  C67  1  0.85650000  0.33670000  0.44500000  1.0 0.3603427361
C  C68  1  0.33670000  0.85650000  0.55500000  1.0 0.3603427361
C  C69  1  0.01400000  0.42380000  0.46830000  1.0 0.3398100481
C  C70  1  0.42380000  0.01400000  0.53170000  1.0 0.3398100481
C  C71  1  0.89420000  0.27840000  0.50360000  1.0 0.3656403393
C  C72  1  0.27840000  0.89420000  0.49640000  1.0 0.3603427361
C  C73  1  0.90800000  0.09620000  0.72770000  1.0 0.0706985077
C  C74  1  0.09620000  0.90800000  0.27230000  1.0 0.0706985077
C  C75  1  0.98920000  0.16780000  0.75480000  1.0 -0.1487733595
C  C76  1  0.16780000  0.98920000  0.24520000  1.0 -0.1611127932
C  C77  1  0.07490000  0.19070000  0.75470000  1.0 0.0601210503
C  C78  1  0.19070000  0.07490000  0.24530000  1.0 0.0601210503
C  C79  1  0.07650000  0.14110000  0.72880000  1.0 -0.1487733595
C  C80  1  0.14110000  0.07650000  0.27120000  1.0 -0.1487733595
C  C81  1  0.99360000  0.07160000  0.70220000  1.0 0.051349515
C  C82  1  0.07160000  0.99360000  0.29780000  1.0 0.051349515
C  C83  1  0.53310000  0.40790000  0.77130000  1.0 0.0793510421
C  C84  1  0.40790000  0.53310000  0.22870000  1.0 0.0793510421
C  C85  1  0.44280000  0.38100000  0.76950000  1.0 -0.1487733595
C  C86  1  0.38100000  0.44280000  0.23050000  1.0 -0.1487733595
C  C87  1  0.41330000  0.38050000  0.80720000  1.0 0.0793510421
C  C88  1  0.38050000  0.41330000  0.19280000  1.0 0.0793510421
C  C89  1  0.47190000  0.39950000  0.84610000  1.0 -0.1611127932
C  C90  1  0.39950000  0.47190000  0.15390000  1.0 -0.1611127932
C  C91  1  0.55810000  0.42390000  0.84500000  1.0 0.0103565619
C  C92  1  0.42390000  0.55810000  0.15500000  1.0 0.0103565619
C  C93  1  0.13560000  0.43380000  0.89840000  1.0 0.0903158494
C  C94  1  0.43380000  0.13560000  0.10160000  1.0 0.0903158494
C  C95  1  0.14200000  0.39300000  0.86740000  1.0 -0.1396198762
C  C96  1  0.39300000  0.14200000  0.13260000  1.0 -0.1396198762
C  C97  1  0.22050000  0.40470000  0.87060000  1.0 0.0362452766
C  C98  1  0.40470000  0.22050000  0.12940000  1.0 0.0362452766
C  C99  1  0.29380000  0.45920000  0.90220000  1.0 -0.2337504655
C  C100  1  0.45920000  0.29380000  0.09780000  1.0 -0.2337504655
C  C101  1  0.28430000  0.49830000  0.93070000  1.0 -0.0570040263
C  C102  1  0.49830000  0.28430000  0.06930000  1.0 -0.0570040263
C  C103  1  0.16320000  0.26640000  0.78280000  1.0 0.3603427361
C  C104  1  0.26640000  0.16320000  0.21720000  1.0 0.3603427361
C  C105  1  0.31970000  0.35330000  0.80700000  1.0 0.3603427361
C  C106  1  0.35330000  0.31970000  0.19300000  1.0 0.3603427361
C  C107  1  0.22910000  0.36210000  0.83790000  1.0 0.3310691983
C  C108  1  0.36210000  0.22910000  0.16210000  1.0 0.3310691983
C  C109  1  0.39760000  0.71400000  0.99580000  1.0 0.051349515
C  C110  1  0.71400000  0.39760000  0.00420000  1.0 0.051349515
C  C111  1  0.48320000  0.81120000  0.99530000  1.0 -0.1611127932
C  C112  1  0.81120000  0.48320000  0.00470000  1.0 -0.1611127932
C  C113  1  0.48500000  0.87960000  0.96870000  1.0 0.0601210503
C  C114  1  0.87960000  0.48500000  0.03130000  1.0 0.0601210503
C  C115  1  0.39710000  0.84610000  0.94540000  1.0 -0.1611127932
C  C116  1  0.84610000  0.39710000  0.05460000  1.0 -0.1611127932
C  C117  1  0.31570000  0.74710000  0.94840000  1.0 0.0793510421
C  C118  1  0.74710000  0.31570000  0.05160000  1.0 0.0793510421
C  C119  1  0.76530000  0.38950000  0.89380000  1.0 0.0601210503
C  C120  1  0.38950000  0.76530000  0.10620000  1.0 0.0601210503
C  C121  1  0.75450000  0.32070000  0.92300000  1.0 -0.1396198762
C  C122  1  0.32070000  0.75450000  0.07700000  1.0 -0.1396198762
C  C123  1  0.67310000  0.22070000  0.91610000  1.0 0.0706985077
C  C124  1  0.22070000  0.67310000  0.08390000  1.0 0.0706985077
C  C125  1  0.60610000  0.19830000  0.88080000  1.0 -0.1396198762
C  C126  1  0.19830000  0.60610000  0.11920000  1.0 -0.1396198762
C  C127  1  0.62470000  0.27350000  0.85300000  1.0 0.0601210503
C  C128  1  0.27350000  0.62470000  0.14700000  1.0 0.0601210503
C  C129  1  0.85370000  0.08770000  0.10270000  1.0 0.0601210503
C  C130  1  0.08770000  0.85370000  0.89730000  1.0 0.0601210503
C  C131  1  0.78600000  0.06320000  0.07020000  1.0 -0.1487733595
C  C132  1  0.06320000  0.78600000  0.92980000  1.0 -0.1487733595
C  C133  1  0.79670000  0.13230000  0.04170000  1.0 0.0601210503
C  C134  1  0.13230000  0.79670000  0.95830000  1.0 0.0601210503
C  C135  1  0.88190000  0.23030000  0.04760000  1.0 -0.1611127932
C  C136  1  0.23030000  0.88190000  0.95240000  1.0 -0.1611127932
C  C137  1  0.94900000  0.24980000  0.08250000  1.0 0.0706985077
C  C138  1  0.24980000  0.94900000  0.91750000  1.0 0.0706985077
C  C139  1  0.57490000  0.98610000  0.97040000  1.0 0.3603427361
C  C140  1  0.98610000  0.57490000  0.02960000  1.0 0.3603427361
C  C141  1  0.66100000  0.14440000  0.94690000  1.0 0.3603427361
C  C142  1  0.14440000  0.66100000  0.05310000  1.0 0.3603427361
C  C143  1  0.72110000  0.10470000  0.00450000  1.0 0.3603427361
C  C144  1  0.10470000  0.72110000  0.99550000  1.0 0.3603427361
C  C145  1  0.01020000  0.20060000  0.98950000  1.0 -0.1611127932
C  C146  1  0.20060000  0.01020000  0.01050000  1.0 -0.1611127932
C  C147  1  0.93990000  0.18610000  0.94660000  1.0 -0.1810494303
C  C148  1  0.18610000  0.93990000  0.05340000  1.0 -0.1810494303
C  C149  1  0.90520000  0.10880000  0.91710000  1.0 -0.1195219785
C  C150  1  0.10880000  0.90520000  0.08290000  1.0 -0.1195219785
C  C151  1  0.82100000  0.00100000  0.93690000  1.0 -0.1810494303
C  C152  1  0.00100000  0.82100000  0.06310000  1.0 -0.1810494303
C  C153  1  0.86210000  0.01790000  0.98540000  1.0 -0.1686530619
C  C154  1  0.01790000  0.86210000  0.01460000  1.0 -0.1686530619
C  C155  1  0.97740000  0.10260000  0.98340000  1.0 -0.1396198762
C  C156  1  0.10260000  0.97740000  0.01660000  1.0 -0.1396198762
C  C157  1  0.21600000  0.21400000  0.99360000  1.0 -0.0570040263
C  C158  1  0.21400000  0.21600000  0.00640000  1.0 -0.0570040263
C  C159  1  0.34500000  0.36900000  0.03000000  1.0 -0.0930320072
C  C160  1  0.36900000  0.34500000  0.97000000  1.0 -0.0930320072
C  C161  1  0.27500000  0.38500000  0.02400000  1.0 -0.1905303284
C  C162  1  0.38500000  0.27500000  0.97600000  1.0 -0.1905303284
C  C163  1  0.16700000  0.28900000  0.01900000  1.0 -0.2495326094
C  C164  1  0.28900000  0.16700000  0.98100000  1.0 -0.2495326094
C  C165  1  0.14700000  0.23100000  0.98200000  1.0 -0.09912513
C  C166  1  0.23100000  0.14700000  0.01800000  1.0 -0.09912513
C  C167  1  0.32300000  0.31300000  0.99140000  1.0 -0.0104074262
C  C168  1  0.31300000  0.32300000  0.00860000  1.0 -0.0104074262
C  C169  1  0.59700000  0.61300000  0.97600000  1.0 -0.0930320072
C  C170  1  0.61300000  0.59700000  0.02400000  1.0 -0.0930320072
C  C171  1  0.50400000  0.55200000  0.00000000  1.0 0.0103565619
C  C172  1  0.55200000  0.50400000  0.00000000  1.0 0.0103565619
C  C173  1  0.43800000  0.44000000  0.00300000  1.0 -0.0287929542
C  C174  1  0.44000000  0.43800000  0.99700000  1.0 -0.0287929542
C  C175  1  0.46000000  0.41600000  0.96700000  1.0 -0.0710250653
C  C176  1  0.41600000  0.46000000  0.03300000  1.0 -0.0710250653
C  C177  1  0.56790000  0.47210000  0.96200000  1.0 -0.1905303284
C  C178  1  0.47210000  0.56790000  0.03800000  1.0 -0.1905303284
C  C179  1  0.64500000  0.57100000  0.98100000  1.0 -0.1396198762
C  C180  1  0.57100000  0.64500000  0.01900000  1.0 -0.1487733595
I  I1  1  0.50550000  0.96452000  0.45978000  1.0 -0.0104074262
I  I2  1  0.96452000  0.50550000  0.54022000  1.0 -0.0104074262
I  I3  1  0.53215000  0.77805000  0.55589000  1.0 -0.0287929542
I  I4  1  0.77805000  0.53215000  0.44411000  1.0 -0.0287929542
I  I5  1  0.36798000  0.15866000  0.35179000  1.0 0.0103565619
I  I6  1  0.15866000  0.36798000  0.64821000  1.0 0.0103565619
I  I7  1  0.54315000  0.25685000  0.23842000  1.0 -0.0391100395
I  I8  1  0.25685000  0.54315000  0.76158000  1.0 -0.0391100395
I  I9  1  0.82524000  0.87596000  0.62165000  1.0 -0.2495326094
I  I10  1  0.87596000  0.82524000  0.37835000  1.0 -0.2495326094
I  I11  1  0.64111000  0.87749000  0.69522000  1.0 -0.0759899385
I  I12  1  0.87749000  0.64111000  0.30478000  1.0 -0.0759899385
I  I13  1  0.84401000  0.63719000  0.85393000  1.0 -0.3429941266
I  I14  1  0.63719000  0.84401000  0.14607000  1.0 -0.3429941266
I  I15  1  0.73989000  0.44471000  0.74040000  1.0 -0.09912513
I  I16  1  0.44471000  0.73989000  0.25960000  1.0 -0.09912513
I  I17  1  0.03360000  0.49482000  0.95693000  1.0 -0.3635089129
I  I18  1  0.49482000  0.03360000  0.04307000  1.0 -0.3635089129
I  I19  1  0.22096000  0.46824000  0.05361000  1.0 -0.2205524697
I  I20  1  0.46824000  0.22096000  0.94639000  1.0 -0.2205524697
I  I21  1  0.12760000  0.35828000  0.19624000  1.0 -0.1611127932
I  I22  1  0.35828000  0.12760000  0.80376000  1.0 -0.1611127932
I  I23  1  0.12074000  0.16786000  0.12311000  1.0 -0.5292133718
I  I24  1  0.16786000  0.12074000  0.87689000  1.0 -0.5292133718
I  I25  1  0.48310000  0.96350000  0.44800000  1.0 0.0291345546
I  I26  1  0.96350000  0.48310000  0.55200000  1.0 0.0248448931
I  I27  1  0.53280000  0.79840000  0.55090000  1.0 -0.0570040263
I  I28  1  0.79840000  0.53280000  0.44910000  1.0 -0.0570040263
I  I29  1  0.36850000  0.13650000  0.33920000  1.0 -0.0287929542
I  I30  1  0.13650000  0.36850000  0.66080000  1.0 -0.0287929542
I  I31  1  0.57120000  0.26980000  0.23530000  1.0 0.0291345546
I  I32  1  0.26980000  0.57120000  0.76470000  1.0 0.0291345546
I  I33  1  0.80610000  0.86390000  0.62390000  1.0 -0.2337504655
I  I34  1  0.86390000  0.80610000  0.37610000  1.0 -0.2337504655
I  I35  1  0.64030000  0.89370000  0.69471000  1.0 -0.09912513
I  I36  1  0.89370000  0.64030000  0.30529000  1.0 -0.09912513
I  I37  1  0.83690000  0.62610000  0.84730000  1.0 -0.2357001036
I  I38  1  0.62610000  0.83690000  0.15270000  1.0 -0.2337504655
I  I39  1  0.76276000  0.46324000  0.74358000  1.0 -0.1195219785
I  I40  1  0.46324000  0.76276000  0.25642000  1.0 -0.1195219785
I  I41  1  0.03960000  0.50640000  0.95030000  1.0 -0.3811015317
I  I42  1  0.50640000  0.03960000  0.04970000  1.0 -0.3811015317
I  I43  1  0.20540000  0.45420000  0.04820000  1.0 -0.1686530619
I  I44  1  0.45420000  0.20540000  0.95180000  1.0 -0.1686530619
I  I45  1  0.10890000  0.35050000  0.19680000  1.0 -0.2009515618
I  I46  1  0.35050000  0.10890000  0.80320000  1.0 -0.2009515618
I  I47  1  0.12520000  0.17520000  0.12140000  1.0 -0.5230774313
I  I48  1  0.17520000  0.12520000  0.87860000  1.0 -0.5230774313
N  N1  1  0.51760000  0.79460000  0.43260000  1.0 -0.1810494303
N  N2  1  0.79460000  0.51760000  0.56740000  1.0 -0.1810494303
N  N3  1  0.94490000  0.08610000  0.20210000  1.0 -0.1810494303
N  N4  1  0.08610000  0.94490000  0.79790000  1.0 -0.1810494303
N  N5  1  0.56691000  0.40889000  0.30960000  1.0 -0.2205524697
N  N6  1  0.40889000  0.56691000  0.69040000  1.0 -0.2205524697
N  N7  1  0.69671000  0.84809000  0.31280000  1.0 -0.4101139448
N  N8  1  0.84809000  0.69671000  0.68720000  1.0 -0.4101139448
N  N9  1  0.70218000  0.75102000  0.27890000  1.0 -0.4210339814
N  N10  1  0.75102000  0.70218000  0.72110000  1.0 -0.4210339814
N  N11  1  0.60333000  0.68207000  0.33860000  1.0 -0.4101139448
N  N12  1  0.68207000  0.60333000  0.66140000  1.0 -0.4101139448
N  N13  1  0.63282000  0.29638000  0.35630000  1.0 -0.2087016731
N  N14  1  0.29638000  0.63282000  0.64370000  1.0 -0.2087016731
N  N15  1  0.31860000  0.68640000  0.47470000  1.0 -0.1905303284
N  N16  1  0.68640000  0.31860000  0.52530000  1.0 -0.1905303284
N  N17  1  0.81700000  0.06500000  0.61030000  1.0 -0.1686530619
N  N18  1  0.06500000  0.81700000  0.38970000  1.0 -0.1686530619
N  N19  1  0.95060000  0.41860000  0.43870000  1.0 -0.4403411626
N  N20  1  0.41860000  0.95060000  0.56130000  1.0 -0.4403411626
N  N21  1  0.99010000  0.35330000  0.49980000  1.0 -0.4403411626
N  N22  1  0.35330000  0.99010000  0.50020000  1.0 -0.4403411626
N  N23  1  0.82398000  0.26582000  0.47700000  1.0 -0.428462553
N  N24  1  0.26582000  0.82398000  0.52300000  1.0 -0.428462553
N  N25  1  0.90970000  0.05010000  0.70160000  1.0 -0.1905303284
N  N26  1  0.05010000  0.90970000  0.29840000  1.0 -0.1905303284
N  N27  1  0.58729000  0.42731000  0.80840000  1.0 -0.2009515618
N  N28  1  0.42731000  0.58729000  0.19160000  1.0 -0.2009515618
N  N29  1  0.20450000  0.48270000  0.93100000  1.0 -0.1905303284
N  N30  1  0.48270000  0.20450000  0.06900000  1.0 -0.1905303284
N  N31  1  0.24831000  0.29529000  0.77753000  1.0 -0.3992630571
N  N32  1  0.29529000  0.24831000  0.22247000  1.0 -0.3992630571
N  N33  1  0.31629000  0.39051000  0.83790000  1.0 -0.4101139448
N  N34  1  0.39051000  0.31629000  0.16210000  1.0 -0.4101139448
N  N35  1  0.14875000  0.29765000  0.81220000  1.0 -0.4101139448
N  N36  1  0.29765000  0.14875000  0.18780000  1.0 -0.4101139448
N  N37  1  0.31360000  0.68080000  0.97340000  1.0 -0.1810494303
N  N38  1  0.68080000  0.31360000  0.02660000  1.0 -0.1810494303
N  N39  1  0.70178000  0.36742000  0.85880000  1.0 -0.2009515618
N  N40  1  0.36742000  0.70178000  0.14120000  1.0 -0.2009515618
N  N41  1  0.93660000  0.18100000  0.10960000  1.0 -0.1611127932
N  N42  1  0.18100000  0.93660000  0.89040000  1.0 -0.1611127932
N  N43  1  0.57950000  0.05030000  0.94110000  1.0 -0.3896403819
N  N44  1  0.05030000  0.57950000  0.05890000  1.0 -0.3896403819
N  N45  1  0.73140000  0.17540000  0.97890000  1.0 -0.3896403819
N  N46  1  0.17540000  0.73140000  0.02110000  1.0 -0.3811015317
N  N47  1  0.64288000  0.00792000  0.00160000  1.0 -0.3896403819
N  N48  1  0.00792000  0.64288000  0.99840000  1.0 -0.3896403819
