# DDEC6 charges by PACMAN v1.1 (https://github.com/mtap-research/PACMAN-charge/)
data_UZUXOE_ASR_pacman
_symmetry_space_group_name_H-M   'P 1'
_cell_length_a   19.09620000
_cell_length_b   19.09620000
_cell_length_c   31.08550000
_cell_angle_alpha   79.19710000
_cell_angle_beta   100.80300000
_cell_angle_gamma   134.21800000
_symmetry_Int_Tables_number   1
_chemical_formula_structural   Zn6H74C61I12N12Cl
_chemical_formula_sum   'Zn24 H296 C244 I48 N48 Cl4'
_cell_volume   7954.34033836
_cell_formula_units_Z   4
loop_
 _symmetry_equiv_pos_site_id
 _symmetry_equiv_pos_as_xyz
  1  'x, y, z'
loop_
 _atom_site_type_symbol
 _atom_site_label
 _atom_site_symmetry_multiplicity
 _atom_site_fract_x
 _atom_site_fract_y
 _atom_site_fract_z
 _atom_site_occupancy
 _atom_site_charge
Zn  Zn1  1  0.22310000  0.97110000  0.31140000  1.0 0.3130685795
Zn  Zn2  1  0.68630000  0.03370000  0.47620000  1.0 0.2227188681
Zn  Zn3  1  0.54810000  0.70750000  0.65610000  1.0 0.4216853935
Zn  Zn4  1  0.97000000  0.31540000  0.97490000  1.0 0.3393448759
Zn  Zn5  1  0.30200000  0.46980000  0.15770000  1.0 0.3789184798
Zn  Zn6  1  0.03960000  0.78800000  0.80790000  1.0 0.2477968294
Zn  Zn7  1  0.22920000  0.97520000  0.31490000  1.0 0.2998344907
Zn  Zn8  1  0.69830000  0.03150000  0.48030000  1.0 0.2477968294
Zn  Zn9  1  0.54070000  0.70690000  0.65820000  1.0 0.4404579658
Zn  Zn10  1  0.97590000  0.31550000  0.98110000  1.0 0.2998344907
Zn  Zn11  1  0.28880000  0.44720000  0.15610000  1.0 0.2998344907
Zn  Zn12  1  0.02430000  0.77490000  0.81720000  1.0 0.2358154539
Zn  Zn13  1  0.97110000  0.22310000  0.68860000  1.0 0.3130685795
Zn  Zn14  1  0.03370000  0.68630000  0.52380000  1.0 0.2227188681
Zn  Zn15  1  0.70750000  0.54810000  0.34390000  1.0 0.4216853935
Zn  Zn16  1  0.31540000  0.97000000  0.02510000  1.0 0.3393448759
Zn  Zn17  1  0.46980000  0.30200000  0.84230000  1.0 0.3789184798
Zn  Zn18  1  0.78800000  0.03960000  0.19210000  1.0 0.2477968294
Zn  Zn19  1  0.97520000  0.22920000  0.68510000  1.0 0.2998344907
Zn  Zn20  1  0.03150000  0.69830000  0.51970000  1.0 0.2477968294
Zn  Zn21  1  0.70690000  0.54070000  0.34180000  1.0 0.4404579658
Zn  Zn22  1  0.31550000  0.97590000  0.01890000  1.0 0.2998344907
Zn  Zn23  1  0.44720000  0.28880000  0.84390000  1.0 0.2998344907
Zn  Zn24  1  0.77490000  0.02430000  0.18280000  1.0 0.2358154539
H  H1  1  0.32510000  0.23210000  0.64360000  1.0 0.0197349383
H  H2  1  0.23210000  0.32510000  0.35640000  1.0 0.0197349383
H  H3  1  0.31790000  0.18010000  0.69040000  1.0 0.0799740318
H  H4  1  0.18010000  0.31790000  0.30960000  1.0 0.0799740318
H  H5  1  0.47980000  0.31480000  0.71160000  1.0 0.060559948
H  H6  1  0.31480000  0.47980000  0.28840000  1.0 0.060559948
H  H7  1  0.43100000  0.35520000  0.69150000  1.0 0.060559948
H  H8  1  0.35520000  0.43100000  0.30850000  1.0 0.060559948
H  H9  1  0.50890000  0.41930000  0.62920000  1.0 0.0503479196
H  H10  1  0.41930000  0.50890000  0.37080000  1.0 0.0503479196
H  H11  1  0.59020000  0.44680000  0.66666667  1.0 0.060559948
H  H12  1  0.44680000  0.59020000  0.33333333  1.0 0.060559948
H  H13  1  0.59190000  0.38610000  0.60740000  1.0 -0.010699767
H  H14  1  0.38610000  0.59190000  0.39260000  1.0 -0.010699767
H  H15  1  0.57690000  0.32350000  0.65170000  1.0 0.0689799557
H  H16  1  0.32350000  0.57690000  0.34830000  1.0 0.0689799557
H  H17  1  0.41610000  0.26250000  0.58900000  1.0 -0.0026384599
H  H18  1  0.26250000  0.41610000  0.41100000  1.0 -0.0026384599
H  H19  1  0.46370000  0.21910000  0.59330000  1.0 0.0689799557
H  H20  1  0.21910000  0.46370000  0.40670000  1.0 0.0689799557
H  H21  1  0.42820000  0.17100000  0.67160000  1.0 0.0894851038
H  H22  1  0.17100000  0.42820000  0.32840000  1.0 0.0894851038
H  H23  1  0.33120000  0.11220000  0.64000000  1.0 0.0990058994
H  H24  1  0.11220000  0.33120000  0.36000000  1.0 0.0990058994
H  H25  1  0.06260000  0.54480000  0.84540000  1.0 0.0799740318
H  H26  1  0.54480000  0.06260000  0.15460000  1.0 0.0799740318
H  H27  1  0.08190000  0.55610000  0.79620000  1.0 0.0799740318
H  H28  1  0.55610000  0.08190000  0.20380000  1.0 0.0799740318
H  H29  1  0.94150000  0.53610000  0.77120000  1.0 0.0399274243
H  H30  1  0.53610000  0.94150000  0.22880000  1.0 0.0399274243
H  H31  1  0.01770000  0.62770000  0.79920000  1.0 0.0689799557
H  H32  1  0.62770000  0.01770000  0.20080000  1.0 0.0689799557
H  H33  1  0.86340000  0.52980000  0.82520000  1.0 0.0689799557
H  H34  1  0.52980000  0.86340000  0.17480000  1.0 0.0689799557
H  H35  1  0.93150000  0.52970000  0.86210000  1.0 0.060559948
H  H36  1  0.52970000  0.93150000  0.13790000  1.0 0.060559948
H  H37  1  0.77690000  0.36930000  0.85810000  1.0 0.060559948
H  H38  1  0.36930000  0.77690000  0.14190000  1.0 0.060559948
H  H39  1  0.78520000  0.37220000  0.80820000  1.0 0.060559948
H  H40  1  0.37220000  0.78520000  0.19180000  1.0 0.060559948
H  H41  1  0.83790000  0.29530000  0.85190000  1.0 0.0503479196
H  H42  1  0.29530000  0.83790000  0.14810000  1.0 0.0503479196
H  H43  1  0.91740000  0.38880000  0.87850000  1.0 0.060559948
H  H44  1  0.38880000  0.91740000  0.12150000  1.0 0.060559948
H  H45  1  0.98500000  0.38880000  0.82010000  1.0 0.0503479196
H  H46  1  0.38880000  0.98500000  0.17990000  1.0 0.0503479196
H  H47  1  0.91770000  0.39590000  0.78610000  1.0 0.060559948
H  H48  1  0.39590000  0.91770000  0.21390000  1.0 0.060559948
H  H49  1  0.18800000  0.19740000  0.39790000  1.0 0.0894851038
H  H50  1  0.19740000  0.18800000  0.60210000  1.0 0.0894851038
H  H51  1  0.13460000  0.09580000  0.38280000  1.0 0.0990058994
H  H52  1  0.09580000  0.13460000  0.61720000  1.0 0.0990058994
H  H53  1  0.13820000  0.13320000  0.46000000  1.0 0.0894851038
H  H54  1  0.13320000  0.13820000  0.54000000  1.0 0.0894851038
H  H55  1  0.03120000  0.07520000  0.44040000  1.0 0.1085509282
H  H56  1  0.07520000  0.03120000  0.55960000  1.0 0.1085509282
H  H57  1  0.65180000  0.56440000  0.52110000  1.0 0.0197349383
H  H58  1  0.56440000  0.65180000  0.47890000  1.0 0.0197349383
H  H59  1  0.65550000  0.47150000  0.49020000  1.0 0.0990058994
H  H60  1  0.47150000  0.65550000  0.50980000  1.0 0.0990058994
H  H61  1  0.76950000  0.54630000  0.50290000  1.0 0.0689799557
H  H62  1  0.54630000  0.76950000  0.49710000  1.0 0.0689799557
H  H63  1  0.72440000  0.45340000  0.57810000  1.0 0.0025173963
H  H64  1  0.45340000  0.72440000  0.42190000  1.0 0.0025173963
H  H65  1  0.71650000  0.40070000  0.54140000  1.0 0.0894851038
H  H66  1  0.40070000  0.71650000  0.45860000  1.0 0.0894851038
H  H67  1  0.56030000  0.28690000  0.57200000  1.0 0.0799740318
H  H68  1  0.28690000  0.56030000  0.42800000  1.0 0.0799740318
H  H69  1  0.54420000  0.32220000  0.52410000  1.0 0.0894851038
H  H70  1  0.32220000  0.54420000  0.47590000  1.0 0.0894851038
H  H71  1  0.51890000  0.40170000  0.55210000  1.0 0.1310777027
H  H72  1  0.40170000  0.51890000  0.44790000  1.0 0.1310777027
H  H73  1  0.52810000  0.36110000  0.59950000  1.0 0.0107985941
H  H74  1  0.36110000  0.52810000  0.40050000  1.0 0.0107985941
H  H75  1  0.65330000  0.53130000  0.60010000  1.0 0.1085509282
H  H76  1  0.53130000  0.65330000  0.39990000  1.0 0.1085509282
H  H77  1  0.70700000  0.49660000  0.59800000  1.0 0.0689799557
H  H78  1  0.49660000  0.70700000  0.40200000  1.0 0.0689799557
H  H79  1  0.37970000  0.28250000  0.60830000  1.0 0.0311091495
H  H80  1  0.28250000  0.37970000  0.39170000  1.0 0.0311091495
H  H81  1  0.48760000  0.38640000  0.60920000  1.0 0.0311091495
H  H82  1  0.38640000  0.48760000  0.39080000  1.0 0.0311091495
H  H83  1  0.43590000  0.46610000  0.60580000  1.0 0.0894851038
H  H84  1  0.46610000  0.43590000  0.39420000  1.0 0.0894851038
H  H85  1  0.34820000  0.37780000  0.57730000  1.0 0.0689799557
H  H86  1  0.37780000  0.34820000  0.42270000  1.0 0.0689799557
H  H87  1  0.35110000  0.38830000  0.66820000  1.0 0.060559948
H  H88  1  0.38830000  0.35110000  0.33180000  1.0 0.060559948
H  H89  1  0.26800000  0.36080000  0.63170000  1.0 0.0799740318
H  H90  1  0.36080000  0.26800000  0.36830000  1.0 0.0799740318
H  H91  1  0.23890000  0.21110000  0.62720000  1.0 0.0503479196
H  H92  1  0.21110000  0.23890000  0.37280000  1.0 0.0503479196
H  H93  1  0.19640000  0.20900000  0.66680000  1.0 0.0894851038
H  H94  1  0.20900000  0.19640000  0.33320000  1.0 0.0894851038
H  H95  1  0.32120000  0.24320000  0.71600000  1.0 0.0311091495
H  H96  1  0.24320000  0.32120000  0.28400000  1.0 0.0311091495
H  H97  1  0.31210000  0.18090000  0.68460000  1.0 0.0689799557
H  H98  1  0.18090000  0.31210000  0.31540000  1.0 0.0689799557
H  H99  1  0.47720000  0.32460000  0.68190000  1.0 0.0503479196
H  H100  1  0.32460000  0.47720000  0.31810000  1.0 0.0503479196
H  H101  1  0.45700000  0.39100000  0.68360000  1.0 0.060559948
H  H102  1  0.39100000  0.45700000  0.31640000  1.0 0.060559948
H  H103  1  0.70620000  0.23740000  0.68380000  1.0 0.0990058994
H  H104  1  0.23740000  0.70620000  0.31620000  1.0 0.0990058994
H  H105  1  0.81660000  0.30640000  0.70280000  1.0 0.0894851038
H  H106  1  0.30640000  0.81660000  0.29720000  1.0 0.0894851038
H  H107  1  0.81940000  0.34780000  0.62700000  1.0 0.0799740318
H  H108  1  0.34780000  0.81940000  0.37300000  1.0 0.0799740318
H  H109  1  0.85340000  0.43580000  0.64910000  1.0 0.0990058994
H  H110  1  0.43580000  0.85340000  0.35090000  1.0 0.0990058994
H  H111  1  0.73890000  0.40330000  0.59200000  1.0 0.0399274243
H  H112  1  0.40330000  0.73890000  0.40800000  1.0 0.0399274243
H  H113  1  0.66400000  0.29020000  0.60650000  1.0 0.1085509282
H  H114  1  0.29020000  0.66400000  0.39350000  1.0 0.1085509282
H  H115  1  0.61310000  0.35310000  0.63380000  1.0 0.0311091495
H  H116  1  0.35310000  0.61310000  0.36620000  1.0 0.0311091495
H  H117  1  0.71940000  0.43980000  0.65290000  1.0 0.1085509282
H  H118  1  0.43980000  0.71940000  0.34710000  1.0 0.1085509282
H  H119  1  0.62000000  0.32340000  0.71060000  1.0 0.0894851038
H  H120  1  0.32340000  0.62000000  0.28940000  1.0 0.0894851038
H  H121  1  0.60360000  0.24260000  0.69050000  1.0 0.1085509282
H  H122  1  0.24260000  0.60360000  0.30950000  1.0 0.1085509282
H  H123  1  0.80000000  0.42240000  0.71400000  1.0 0.0799740318
H  H124  1  0.42240000  0.80000000  0.28600000  1.0 0.0799740318
H  H125  1  0.74450000  0.32730000  0.74730000  1.0 0.0689799557
H  H126  1  0.32730000  0.74450000  0.25270000  1.0 0.0689799557
H  H127  1  0.94660000  0.48700000  0.82760000  1.0 0.060559948
H  H128  1  0.48700000  0.94660000  0.17240000  1.0 0.060559948
H  H129  1  0.95530000  0.45730000  0.78650000  1.0 0.0689799557
H  H130  1  0.45730000  0.95530000  0.21350000  1.0 0.0689799557
H  H131  1  0.88590000  0.31110000  0.81810000  1.0 0.0399274243
H  H132  1  0.31110000  0.88590000  0.18190000  1.0 0.0399274243
H  H133  1  0.89850000  0.34970000  0.86200000  1.0 0.060559948
H  H134  1  0.34970000  0.89850000  0.13800000  1.0 0.060559948
H  H135  1  0.73430000  0.20990000  0.85350000  1.0 0.0689799557
H  H136  1  0.20990000  0.73430000  0.14650000  1.0 0.0689799557
H  H137  1  0.72620000  0.23980000  0.80370000  1.0 0.0894851038
H  H138  1  0.23980000  0.72620000  0.19630000  1.0 0.0894851038
H  H139  1  0.72870000  0.31270000  0.87540000  1.0 0.0689799557
H  H140  1  0.31270000  0.72870000  0.12460000  1.0 0.0689799557
H  H141  1  0.64940000  0.26600000  0.83530000  1.0 0.0799740318
H  H142  1  0.26600000  0.64940000  0.16470000  1.0 0.0799740318
H  H143  1  0.72840000  0.41720000  0.80960000  1.0 0.060559948
H  H144  1  0.41720000  0.72840000  0.19040000  1.0 0.060559948
H  H145  1  0.82270000  0.45870000  0.84100000  1.0 0.0399274243
H  H146  1  0.45870000  0.82270000  0.15900000  1.0 0.0399274243
H  H147  1  0.78200000  0.37080000  0.76380000  1.0 0.0399274243
H  H148  1  0.37080000  0.78200000  0.23620000  1.0 0.0399274243
H  H149  1  0.84950000  0.48530000  0.76320000  1.0 0.0503479196
H  H150  1  0.48530000  0.84950000  0.23680000  1.0 0.0503479196
H  H151  1  0.11330000  0.98910000  0.48700000  1.0 0.1805544753
H  H152  1  0.98910000  0.11330000  0.51300000  1.0 0.1805544753
H  H153  1  0.20500000  0.00380000  0.48750000  1.0 0.0689799557
H  H154  1  0.00380000  0.20500000  0.51250000  1.0 0.0689799557
H  H155  1  0.22300000  0.08600000  0.42480000  1.0 0.0894851038
H  H156  1  0.08600000  0.22300000  0.57520000  1.0 0.0894851038
H  H157  1  0.16530000  0.10930000  0.43690000  1.0 0.0399274243
H  H158  1  0.10930000  0.16530000  0.56310000  1.0 0.0399274243
H  H159  1  0.29980000  0.24920000  0.46500000  1.0 0.0990058994
H  H160  1  0.24920000  0.29980000  0.53500000  1.0 0.0990058994
H  H161  1  0.34580000  0.24700000  0.42900000  1.0 0.0689799557
H  H162  1  0.24700000  0.34580000  0.57100000  1.0 0.0689799557
H  H163  1  0.39010000  0.17470000  0.48320000  1.0 0.0799740318
H  H164  1  0.17470000  0.39010000  0.51680000  1.0 0.0799740318
H  H165  1  0.44280000  0.27960000  0.49440000  1.0 0.0894851038
H  H166  1  0.27960000  0.44280000  0.50560000  1.0 0.0990058994
H  H167  1  0.36530000  0.14830000  0.55460000  1.0 0.0894851038
H  H168  1  0.14830000  0.36530000  0.44540000  1.0 0.0894851038
H  H169  1  0.35120000  0.22100000  0.55050000  1.0 0.0894851038
H  H170  1  0.22100000  0.35120000  0.44950000  1.0 0.0894851038
H  H171  1  0.19310000  0.10590000  0.53600000  1.0 0.0799740318
H  H172  1  0.10590000  0.19310000  0.46400000  1.0 0.0799740318
H  H173  1  0.20630000  0.03370000  0.55590000  1.0 0.0990058994
H  H174  1  0.03370000  0.20630000  0.44410000  1.0 0.0990058994
H  H175  1  0.75720000  0.84720000  0.50180000  1.0 0.060559948
H  H176  1  0.84720000  0.75720000  0.49820000  1.0 0.060559948
H  H177  1  0.75700000  0.77680000  0.53730000  1.0 0.0399274243
H  H178  1  0.77680000  0.75700000  0.46270000  1.0 0.0399274243
H  H179  1  0.85370000  0.86370000  0.45840000  1.0 0.060559948
H  H180  1  0.86370000  0.85370000  0.54160000  1.0 0.060559948
H  H181  1  0.90130000  0.86750000  0.50620000  1.0 0.0399274243
H  H182  1  0.86750000  0.90130000  0.49380000  1.0 0.0399274243
H  H183  1  0.87530000  0.74310000  0.48600000  1.0 0.060559948
H  H184  1  0.74310000  0.87530000  0.51400000  1.0 0.060559948
H  H185  1  0.78810000  0.71230000  0.45150000  1.0 0.060559948
H  H186  1  0.71230000  0.78810000  0.54850000  1.0 0.060559948
H  H187  1  0.76310000  0.67310000  0.54320000  1.0 0.0503479196
H  H188  1  0.67310000  0.76310000  0.45680000  1.0 0.0503479196
H  H189  1  0.73940000  0.59540000  0.51660000  1.0 0.0503479196
H  H190  1  0.59540000  0.73940000  0.48340000  1.0 0.0503479196
H  H191  1  0.61210000  0.57210000  0.47400000  1.0 0.0689799557
H  H192  1  0.57210000  0.61210000  0.52600000  1.0 0.0689799557
H  H193  1  0.59750000  0.57310000  0.52210000  1.0 0.0399274243
H  H194  1  0.57310000  0.59750000  0.47790000  1.0 0.0399274243
H  H195  1  0.60340000  0.69360000  0.49230000  1.0 0.0025173963
H  H196  1  0.69360000  0.60340000  0.50770000  1.0 0.0025173963
H  H197  1  0.65830000  0.71730000  0.45230000  1.0 0.0689799557
H  H198  1  0.71730000  0.65830000  0.54770000  1.0 0.0689799557
H  H199  1  0.76120000  0.62680000  0.54130000  1.0 0.0503479196
H  H200  1  0.62680000  0.76120000  0.45870000  1.0 0.0503479196
H  H201  1  0.11390000  0.96930000  0.36670000  1.0 0.0799740318
H  H202  1  0.95680000  0.90000000  0.37350000  1.0 0.118747294
H  H203  1  0.90600000  0.86120000  0.24380000  1.0 0.1404573132
H  H204  1  0.05290000  0.90690000  0.24870000  1.0 0.0799740318
H  H205  1  0.50390000  0.54850000  0.18430000  1.0 0.0799740318
H  H206  1  0.63540000  0.65260000  0.23310000  1.0 0.1404573132
H  H207  1  0.48320000  0.69700000  0.26890000  1.0 0.1497033645
H  H208  1  0.35440000  0.58280000  0.22550000  1.0 0.0894851038
H  H209  1  0.84080000  0.04540000  0.44540000  1.0 0.0990058994
H  H210  1  0.84520000  0.96200000  0.40890000  1.0 0.1497033645
H  H211  1  0.59130000  0.85770000  0.34370000  1.0 0.1310777027
H  H212  1  0.57900000  0.91320000  0.40180000  1.0 0.0799740318
H  H213  1  0.89610000  0.16810000  0.51180000  1.0 0.060559948
H  H214  1  0.03680000  0.32900000  0.51340000  1.0 0.118747294
H  H215  1  0.89960000  0.39000000  0.42720000  1.0 0.1310777027
H  H216  1  0.76260000  0.22320000  0.42950000  1.0 0.0894851038
H  H217  1  0.07790000  0.76290000  0.33150000  1.0 0.0799740318
H  H218  1  0.05020000  0.63280000  0.37910000  1.0 0.1310777027
H  H219  1  0.30480000  0.83640000  0.44550000  1.0 0.0990058994
H  H220  1  0.32130000  0.95830000  0.39910000  1.0 0.0689799557
H  H221  1  0.50790000  0.81250000  0.58740000  1.0 0.0689799557
H  H222  1  0.39320000  0.78000000  0.53020000  1.0 0.118747294
H  H223  1  0.23840000  0.49580000  0.56230000  1.0 0.118747294
H  H224  1  0.34640000  0.54060000  0.62210000  1.0 0.0990058994
H  H225  1  0.40970000  0.64650000  0.72220000  1.0 0.0894851038
H  H226  1  0.29450000  0.51290000  0.77010000  1.0 0.1310777027
H  H227  1  0.34520000  0.36240000  0.72790000  1.0 0.118747294
H  H228  1  0.46880000  0.50280000  0.68860000  1.0 0.0799740318
H  H229  1  0.10920000  0.95900000  0.74640000  1.0 0.0799740318
H  H230  1  0.14670000  0.10570000  0.74640000  1.0 0.1310777027
H  H231  1  0.07690000  0.03750000  0.86850000  1.0 0.1310777027
H  H232  1  0.06940000  0.91200000  0.87260000  1.0 0.0799740318
H  H233  1  0.06890000  0.42090000  0.89010000  1.0 0.0894851038
H  H234  1  0.13560000  0.40820000  0.84460000  1.0 0.1310777027
H  H235  1  0.01550000  0.14710000  0.89880000  1.0 0.1310777027
H  H236  1  0.96730000  0.17410000  0.95440000  1.0 0.0799740318
H  H237  1  0.83550000  0.11070000  0.01670000  1.0 0.0689799557
H  H238  1  0.66890000  0.96830000  0.01440000  1.0 0.1310777027
H  H239  1  0.61530000  0.10690000  0.92430000  1.0 0.1310777027
H  H240  1  0.78140000  0.25040000  0.93320000  1.0 0.0894851038
H  H241  1  0.46740000  0.65280000  0.11960000  1.0 0.0799740318
H  H242  1  0.50940000  0.78220000  0.06980000  1.0 0.118747294
H  H243  1  0.22770000  0.61570000  0.02880000  1.0 0.118747294
H  H244  1  0.18920000  0.50400000  0.08750000  1.0 0.060559948
H  H245  1  0.25340000  0.92620000  0.82760000  1.0 0.0689799557
H  H246  1  0.37130000  0.95750000  0.87540000  1.0 0.118747294
H  H247  1  0.16710000  0.70190000  0.94280000  1.0 0.1085509282
H  H248  1  0.05570000  0.67670000  0.89080000  1.0 0.0894851038
H  H249  1  0.96930000  0.11390000  0.63330000  1.0 0.0799740318
H  H250  1  0.90000000  0.95680000  0.62650000  1.0 0.118747294
H  H251  1  0.86120000  0.90600000  0.75620000  1.0 0.1404573132
H  H252  1  0.90690000  0.05290000  0.75130000  1.0 0.0799740318
H  H253  1  0.54850000  0.50390000  0.81570000  1.0 0.0799740318
H  H254  1  0.65260000  0.63540000  0.76690000  1.0 0.1404573132
H  H255  1  0.69700000  0.48320000  0.73110000  1.0 0.1497033645
H  H256  1  0.58280000  0.35440000  0.77450000  1.0 0.0894851038
H  H257  1  0.04540000  0.84080000  0.55460000  1.0 0.0990058994
H  H258  1  0.96200000  0.84520000  0.59110000  1.0 0.1497033645
H  H259  1  0.85770000  0.59130000  0.65630000  1.0 0.1310777027
H  H260  1  0.91320000  0.57900000  0.59820000  1.0 0.0799740318
H  H261  1  0.16810000  0.89610000  0.48820000  1.0 0.060559948
H  H262  1  0.32900000  0.03680000  0.48660000  1.0 0.118747294
H  H263  1  0.39000000  0.89960000  0.57280000  1.0 0.1310777027
H  H264  1  0.22320000  0.76260000  0.57050000  1.0 0.0894851038
H  H265  1  0.76290000  0.07790000  0.66850000  1.0 0.0799740318
H  H266  1  0.63280000  0.05020000  0.62090000  1.0 0.1310777027
H  H267  1  0.83640000  0.30480000  0.55450000  1.0 0.0990058994
H  H268  1  0.95830000  0.32130000  0.60090000  1.0 0.0689799557
H  H269  1  0.81250000  0.50790000  0.41260000  1.0 0.0689799557
H  H270  1  0.78000000  0.39320000  0.46980000  1.0 0.118747294
H  H271  1  0.49580000  0.23840000  0.43770000  1.0 0.118747294
H  H272  1  0.54060000  0.34640000  0.37790000  1.0 0.0990058994
H  H273  1  0.64650000  0.40970000  0.27780000  1.0 0.0894851038
H  H274  1  0.51290000  0.29450000  0.22990000  1.0 0.1310777027
H  H275  1  0.36240000  0.34520000  0.27210000  1.0 0.118747294
H  H276  1  0.50280000  0.46880000  0.31140000  1.0 0.0799740318
H  H277  1  0.95900000  0.10920000  0.25360000  1.0 0.0799740318
H  H278  1  0.10570000  0.14670000  0.25360000  1.0 0.1310777027
H  H279  1  0.03750000  0.07690000  0.13150000  1.0 0.1310777027
H  H280  1  0.91200000  0.06940000  0.12740000  1.0 0.0799740318
H  H281  1  0.42090000  0.06890000  0.10990000  1.0 0.0894851038
H  H282  1  0.40820000  0.13560000  0.15540000  1.0 0.1310777027
H  H283  1  0.14710000  0.01550000  0.10120000  1.0 0.1310777027
H  H284  1  0.17410000  0.96730000  0.04560000  1.0 0.0799740318
H  H285  1  0.11070000  0.83550000  0.98330000  1.0 0.0689799557
H  H286  1  0.96830000  0.66890000  0.98560000  1.0 0.1310777027
H  H287  1  0.10690000  0.61530000  0.07570000  1.0 0.1310777027
H  H288  1  0.25040000  0.78140000  0.06680000  1.0 0.0894851038
H  H289  1  0.65280000  0.46740000  0.88040000  1.0 0.0799740318
H  H290  1  0.78220000  0.50940000  0.93020000  1.0 0.118747294
H  H291  1  0.61570000  0.22770000  0.97120000  1.0 0.118747294
H  H292  1  0.50400000  0.18920000  0.91250000  1.0 0.060559948
H  H293  1  0.92620000  0.25340000  0.17240000  1.0 0.0689799557
H  H294  1  0.95750000  0.37130000  0.12460000  1.0 0.118747294
H  H295  1  0.70190000  0.16710000  0.05720000  1.0 0.1085509282
H  H296  1  0.67670000  0.05570000  0.10920000  1.0 0.0894851038
C  C1  1  0.36100000  0.22300000  0.66700000  1.0 -0.0897739775
C  C2  1  0.22300000  0.36100000  0.33300000  1.0 -0.0897739775
C  C3  1  0.45150000  0.32450000  0.68470000  1.0 -0.0897739775
C  C4  1  0.32450000  0.45150000  0.31530000  1.0 -0.0897739775
C  C5  1  0.52900000  0.39300000  0.65200000  1.0 -0.1099418987
C  C6  1  0.39300000  0.52900000  0.34800000  1.0 -0.1099418987
C  C7  1  0.54700000  0.34100000  0.63000000  1.0 -0.1501086382
C  C8  1  0.34100000  0.54700000  0.37000000  1.0 -0.1501086382
C  C9  1  0.45000000  0.24800000  0.60900000  1.0 -0.2412996879
C  C10  1  0.24800000  0.45000000  0.39100000  1.0 -0.2412996879
C  C11  1  0.38900000  0.17700000  0.64900000  1.0 -0.21958617
C  C12  1  0.17700000  0.38900000  0.35100000  1.0 -0.21958617
C  C13  1  0.03200000  0.52600000  0.81600000  1.0 -0.1501086382
C  C14  1  0.52600000  0.03200000  0.18400000  1.0 -0.1501086382
C  C15  1  0.97330000  0.55670000  0.80000000  1.0 -0.1988810081
C  C16  1  0.55670000  0.97330000  0.20000000  1.0 -0.1988810081
C  C17  1  0.89780000  0.50820000  0.83300000  1.0 -0.1830183122
C  C18  1  0.50820000  0.89780000  0.16700000  1.0 -0.1830183122
C  C19  1  0.82200000  0.39600000  0.83600000  1.0 0.0025173963
C  C20  1  0.39600000  0.82200000  0.16400000  1.0 0.0025173963
C  C21  1  0.88180000  0.36620000  0.85000000  1.0 -0.0813310411
C  C22  1  0.36620000  0.88180000  0.15000000  1.0 -0.0813310411
C  C23  1  0.95300000  0.41300000  0.81500000  1.0 -0.1231766272
C  C24  1  0.41300000  0.95300000  0.18500000  1.0 -0.1231766272
C  C25  1  0.12400000  0.13200000  0.39400000  1.0 -0.1988810081
C  C26  1  0.13200000  0.12400000  0.60600000  1.0 -0.1988810081
C  C27  1  0.08800000  0.08400000  0.44000000  1.0 -0.21958617
C  C28  1  0.08400000  0.08800000  0.56000000  1.0 -0.21958617
C  C29  1  0.70630000  0.50370000  0.51440000  1.0 -0.2306715291
C  C30  1  0.50370000  0.70630000  0.48560000  1.0 -0.2306715291
C  C31  1  0.69090000  0.42510000  0.55000000  1.0 -0.131033986
C  C32  1  0.42510000  0.69090000  0.45000000  1.0 -0.131033986
C  C33  1  0.57900000  0.34300000  0.55300000  1.0 -0.2306715291
C  C34  1  0.34300000  0.57900000  0.44700000  1.0 -0.2306715291
C  C35  1  0.56100000  0.39700000  0.57300000  1.0 -0.1231766272
C  C36  1  0.39700000  0.56100000  0.42700000  1.0 -0.1231766272
C  C37  1  0.66100000  0.50100000  0.58200000  1.0 -0.2306715291
C  C38  1  0.50100000  0.66100000  0.41800000  1.0 -0.2306715291
C  C39  1  0.42400000  0.34600000  0.62020000  1.0 -0.1099418987
C  C40  1  0.34600000  0.42400000  0.37980000  1.0 -0.1099418987
C  C41  1  0.38310000  0.39490000  0.60600000  1.0 -0.2306715291
C  C42  1  0.39490000  0.38310000  0.39400000  1.0 -0.2306715291
C  C43  1  0.31330000  0.35270000  0.64200000  1.0 -0.2649394911
C  C44  1  0.35270000  0.31330000  0.35800000  1.0 -0.2649394911
C  C45  1  0.25600000  0.24200000  0.65300000  1.0 -0.2412996879
C  C46  1  0.24200000  0.25600000  0.34700000  1.0 -0.2412996879
C  C47  1  0.32600000  0.24000000  0.68600000  1.0 -0.131033986
C  C48  1  0.24000000  0.32600000  0.31400000  1.0 -0.131033986
C  C49  1  0.43250000  0.33350000  0.67150000  1.0 -0.010699767
C  C50  1  0.33350000  0.43250000  0.32850000  1.0 -0.010699767
C  C51  1  0.76660000  0.30540000  0.68800000  1.0 -0.1501086382
C  C52  1  0.30540000  0.76660000  0.31200000  1.0 -0.1501086382
C  C53  1  0.79800000  0.36800000  0.64400000  1.0 -0.1599889271
C  C54  1  0.36800000  0.79800000  0.35600000  1.0 -0.1599889271
C  C55  1  0.71500000  0.35500000  0.61710000  1.0 -0.1599889271
C  C56  1  0.35500000  0.71500000  0.38290000  1.0 -0.1599889271
C  C57  1  0.67300000  0.37100000  0.64800000  1.0 -0.1414256286
C  C58  1  0.37100000  0.67300000  0.35200000  1.0 -0.1414256286
C  C59  1  0.64900000  0.31300000  0.69400000  1.0 -0.1830183122
C  C60  1  0.31300000  0.64900000  0.30600000  1.0 -0.1830183122
C  C61  1  0.74900000  0.35100000  0.71700000  1.0 -0.1414256286
C  C62  1  0.35100000  0.74900000  0.28300000  1.0 -0.1414256286
C  C63  1  0.91100000  0.43700000  0.80700000  1.0 0.0107985941
C  C64  1  0.43700000  0.91100000  0.19300000  1.0 0.0107985941
C  C65  1  0.86920000  0.33880000  0.83200000  1.0 -0.0897739775
C  C66  1  0.33880000  0.86920000  0.16800000  1.0 -0.0897739775
C  C67  1  0.75550000  0.26450000  0.83200000  1.0 -0.1599889271
C  C68  1  0.26450000  0.75550000  0.16800000  1.0 -0.1599889271
C  C69  1  0.71940000  0.30860000  0.84390000  1.0 -0.1926087554
C  C70  1  0.30860000  0.71940000  0.15610000  1.0 -0.1926087554
C  C71  1  0.77420000  0.40980000  0.82000000  1.0 -0.1099418987
C  C72  1  0.40980000  0.77420000  0.18000000  1.0 -0.1099418987
C  C73  1  0.82500000  0.42700000  0.78200000  1.0 -0.1988810081
C  C74  1  0.42700000  0.82500000  0.21800000  1.0 -0.1988810081
C  C75  1  0.18400000  0.03800000  0.48800000  1.0 -0.1231766272
C  C76  1  0.03800000  0.18400000  0.51200000  1.0 -0.1231766272
C  C77  1  0.21600000  0.10800000  0.44800000  1.0 -0.1926087554
C  C78  1  0.10800000  0.21600000  0.55200000  1.0 -0.1926087554
C  C79  1  0.31300000  0.21300000  0.45600000  1.0 -0.1830183122
C  C80  1  0.21300000  0.31300000  0.54400000  1.0 -0.1830183122
C  C81  1  0.37900000  0.21300000  0.49200000  1.0 -0.1501086382
C  C82  1  0.21300000  0.37900000  0.50800000  1.0 -0.1501086382
C  C83  1  0.33600000  0.17000000  0.53600000  1.0 -0.1414256286
C  C84  1  0.17000000  0.33600000  0.46400000  1.0 -0.1414256286
C  C85  1  0.22400000  0.08400000  0.53200000  1.0 -0.2306715291
C  C86  1  0.08400000  0.22400000  0.46800000  1.0 -0.2306715291
C  C87  1  0.75400000  0.79400000  0.50600000  1.0 -0.010699767
C  C88  1  0.79400000  0.75400000  0.49400000  1.0 -0.010699767
C  C89  1  0.84300000  0.82700000  0.48700000  1.0 -0.1099418987
C  C90  1  0.82700000  0.84300000  0.51300000  1.0 -0.1099418987
C  C91  1  0.81600000  0.73200000  0.48100000  1.0 -0.1414256286
C  C92  1  0.73200000  0.81600000  0.51900000  1.0 -0.1414256286
C  C93  1  0.74300000  0.64900000  0.51400000  1.0 -0.1026236996
C  C94  1  0.64900000  0.74300000  0.48600000  1.0 -0.1026236996
C  C95  1  0.64100000  0.61300000  0.49900000  1.0 -0.1026236996
C  C96  1  0.61300000  0.64100000  0.50100000  1.0 -0.1026236996
C  C97  1  0.65700000  0.70500000  0.48400000  1.0 -0.0507979844
C  C98  1  0.70500000  0.65700000  0.51600000  1.0 -0.0507979844
C  C99  1  0.69750000  0.56050000  0.53700000  1.0 -0.029687986
C  C100  1  0.56050000  0.69750000  0.46300000  1.0 -0.029687986
C  C101  1  0.06730000  0.93990000  0.34290000  1.0 -0.010699767
C  C102  1  0.97700000  0.90720000  0.34670000  1.0 -0.1926087554
C  C103  1  0.91730000  0.88550000  0.30660000  1.0 0.0799740318
C  C104  1  0.94560000  0.88120000  0.27000000  1.0 -0.1501086382
C  C105  1  0.03370000  0.90750000  0.27390000  1.0 0.0689799557
C  C106  1  0.49990000  0.57850000  0.20280000  1.0 0.060559948
C  C107  1  0.58080000  0.64440000  0.23060000  1.0 -0.1501086382
C  C108  1  0.58050000  0.69610000  0.25360000  1.0 0.060559948
C  C109  1  0.49020000  0.66760000  0.25160000  1.0 -0.2306715291
C  C110  1  0.41350000  0.59970000  0.22580000  1.0 -0.0413870775
C  C111  1  0.78600000  0.00000000  0.42740000  1.0 -0.0604026768
C  C112  1  0.79340000  0.95860000  0.40360000  1.0 -0.1926087554
C  C113  1  0.72300000  0.90780000  0.36980000  1.0 0.0399274243
C  C114  1  0.64080000  0.89100000  0.36610000  1.0 -0.21958617
C  C115  1  0.63750000  0.92990000  0.40060000  1.0 0.0311091495
C  C116  1  0.82330000  0.86010000  0.30710000  1.0 0.3676978905
C  C117  1  0.66530000  0.76990000  0.28280000  1.0 0.3305893053
C  C118  1  0.72980000  0.86660000  0.33740000  1.0 0.3130685795
C  C119  1  0.89620000  0.21440000  0.49570000  1.0 0.0107985941
C  C120  1  0.98120000  0.30980000  0.49620000  1.0 -0.1599889271
C  C121  1  0.98230000  0.37930000  0.46940000  1.0 0.060559948
C  C122  1  0.90150000  0.34670000  0.44550000  1.0 -0.1501086382
C  C123  1  0.81800000  0.24540000  0.44800000  1.0 0.0799740318
C  C124  1  0.12510000  0.77810000  0.35410000  1.0 0.0689799557
C  C125  1  0.10690000  0.69790000  0.38320000  1.0 -0.1599889271
C  C126  1  0.17530000  0.72230000  0.41590000  1.0 0.0689799557
C  C127  1  0.25770000  0.81970000  0.42260000  1.0 -0.1696587954
C  C128  1  0.26860000  0.89280000  0.39380000  1.0 -0.0026384599
C  C129  1  0.45130000  0.74770000  0.58280000  1.0 0.0399274243
C  C130  1  0.38250000  0.72890000  0.54820000  1.0 -0.1696587954
C  C131  1  0.29840000  0.63240000  0.54170000  1.0 0.0689799557
C  C132  1  0.28980000  0.56160000  0.56760000  1.0 -0.1501086382
C  C133  1  0.35850000  0.58970000  0.60170000  1.0 0.0503479196
C  C134  1  0.07610000  0.48590000  0.47140000  1.0 0.3393448759
C  C135  1  0.16380000  0.64420000  0.44770000  1.0 0.3393448759
C  C136  1  0.22130000  0.60490000  0.50580000  1.0 0.3393448759
C  C137  1  0.39900000  0.59040000  0.72510000  1.0 0.0399274243
C  C138  1  0.32800000  0.51000000  0.75350000  1.0 -0.1501086382
C  C139  1  0.31170000  0.42690000  0.75480000  1.0 0.0689799557
C  C140  1  0.36110000  0.42070000  0.72850000  1.0 -0.2306715291
C  C141  1  0.43270000  0.50450000  0.70410000  1.0 -0.010699767
C  C142  1  0.10320000  0.97480000  0.77120000  1.0 -0.010699767
C  C143  1  0.12590000  0.06310000  0.77170000  1.0 -0.1501086382
C  C144  1  0.11850000  0.08750000  0.80710000  1.0 0.0503479196
C  C145  1  0.08850000  0.02530000  0.84440000  1.0 -0.1414256286
C  C146  1  0.07580000  0.94600000  0.84560000  1.0 0.0503479196
C  C147  1  0.06500000  0.36880000  0.89450000  1.0 -0.0604026768
C  C148  1  0.10180000  0.35840000  0.86680000  1.0 -0.1501086382
C  C149  1  0.09500000  0.28140000  0.86760000  1.0 0.0689799557
C  C150  1  0.03530000  0.20750000  0.89870000  1.0 -0.1599889271
C  C151  1  0.00230000  0.22290000  0.93200000  1.0 0.118747294
C  C152  1  0.23350000  0.33710000  0.78240000  1.0 0.3393448759
C  C153  1  0.14440000  0.17860000  0.80690000  1.0 0.3305893053
C  C154  1  0.13500000  0.26920000  0.83670000  1.0 0.3305893053
C  C155  1  0.79130000  0.11030000  0.99780000  1.0 0.060559948
C  C156  1  0.69010000  0.02370000  0.99630000  1.0 -0.131033986
C  C157  1  0.62510000  0.02030000  0.96960000  1.0 0.0503479196
C  C158  1  0.65860000  0.10640000  0.94370000  1.0 -0.1599889271
C  C159  1  0.75930000  0.19170000  0.94800000  1.0 -0.029687986
C  C160  1  0.41870000  0.64790000  0.10270000  1.0 0.060559948
C  C161  1  0.44460000  0.72260000  0.07050000  1.0 -0.1696587954
C  C162  1  0.37300000  0.70740000  0.03940000  1.0 0.0799740318
C  C163  1  0.27790000  0.62590000  0.04740000  1.0 -0.1599889271
C  C164  1  0.25470000  0.55830000  0.08250000  1.0 0.0197349383
C  C165  1  0.23660000  0.88240000  0.85220000  1.0 0.0311091495
C  C166  1  0.30670000  0.89950000  0.87950000  1.0 -0.1696587954
C  C167  1  0.28610000  0.83110000  0.91570000  1.0 0.0503479196
C  C168  1  0.18690000  0.74870000  0.91920000  1.0 -0.1696587954
C  C169  1  0.12050000  0.73630000  0.88940000  1.0 -0.0026384599
C  C170  1  0.51850000  0.93050000  0.96800000  1.0 0.3305893053
C  C171  1  0.40210000  0.78410000  0.00280000  1.0 0.3594125468
C  C172  1  0.36100000  0.84500000  0.94570000  1.0 0.3214141089
C  C173  1  0.93990000  0.06730000  0.65710000  1.0 -0.0026384599
C  C174  1  0.90720000  0.97700000  0.65330000  1.0 -0.1926087554
C  C175  1  0.88550000  0.91730000  0.69340000  1.0 0.0799740318
C  C176  1  0.88120000  0.94560000  0.73000000  1.0 -0.1501086382
C  C177  1  0.90750000  0.03370000  0.72610000  1.0 0.0689799557
C  C178  1  0.57850000  0.49990000  0.79720000  1.0 0.060559948
C  C179  1  0.64440000  0.58080000  0.76940000  1.0 -0.1501086382
C  C180  1  0.69610000  0.58050000  0.74640000  1.0 0.060559948
C  C181  1  0.66760000  0.49020000  0.74840000  1.0 -0.2306715291
C  C182  1  0.59970000  0.41350000  0.77420000  1.0 -0.0413870775
C  C183  1  0.00000000  0.78600000  0.57260000  1.0 -0.0604026768
C  C184  1  0.95860000  0.79340000  0.59640000  1.0 -0.1926087554
C  C185  1  0.90780000  0.72300000  0.63020000  1.0 0.0399274243
C  C186  1  0.89100000  0.64080000  0.63390000  1.0 -0.2103828658
C  C187  1  0.92990000  0.63750000  0.59940000  1.0 0.0311091495
C  C188  1  0.86010000  0.82330000  0.69290000  1.0 0.3676978905
C  C189  1  0.76990000  0.66530000  0.71720000  1.0 0.3305893053
C  C190  1  0.86660000  0.72980000  0.66260000  1.0 0.3130685795
C  C191  1  0.21440000  0.89620000  0.50430000  1.0 0.0107985941
C  C192  1  0.30980000  0.98120000  0.50380000  1.0 -0.1599889271
C  C193  1  0.37930000  0.98230000  0.53060000  1.0 0.060559948
C  C194  1  0.34670000  0.90150000  0.55450000  1.0 -0.1501086382
C  C195  1  0.24540000  0.81800000  0.55200000  1.0 0.0799740318
C  C196  1  0.77810000  0.12510000  0.64590000  1.0 0.0689799557
C  C197  1  0.69790000  0.10690000  0.61680000  1.0 -0.1599889271
C  C198  1  0.72230000  0.17530000  0.58410000  1.0 0.0689799557
C  C199  1  0.81970000  0.25770000  0.57740000  1.0 -0.1696587954
C  C200  1  0.89280000  0.26860000  0.60620000  1.0 -0.0026384599
C  C201  1  0.74770000  0.45130000  0.41720000  1.0 0.0399274243
C  C202  1  0.72890000  0.38250000  0.45180000  1.0 -0.1696587954
C  C203  1  0.63240000  0.29840000  0.45830000  1.0 0.0689799557
C  C204  1  0.56160000  0.28980000  0.43240000  1.0 -0.1501086382
C  C205  1  0.58970000  0.35850000  0.39830000  1.0 0.0399274243
C  C206  1  0.48590000  0.07610000  0.52860000  1.0 0.3393448759
C  C207  1  0.64420000  0.16380000  0.55230000  1.0 0.3393448759
C  C208  1  0.60490000  0.22130000  0.49420000  1.0 0.3393448759
C  C209  1  0.59040000  0.39900000  0.27490000  1.0 0.0399274243
C  C210  1  0.51000000  0.32800000  0.24650000  1.0 -0.1501086382
C  C211  1  0.42690000  0.31170000  0.24520000  1.0 0.0689799557
C  C212  1  0.42070000  0.36110000  0.27150000  1.0 -0.21958617
C  C213  1  0.50450000  0.43270000  0.29590000  1.0 -0.010699767
C  C214  1  0.97480000  0.10320000  0.22880000  1.0 -0.010699767
C  C215  1  0.06310000  0.12590000  0.22830000  1.0 -0.1501086382
C  C216  1  0.08750000  0.11850000  0.19290000  1.0 0.0503479196
C  C217  1  0.02530000  0.08850000  0.15560000  1.0 -0.1414256286
C  C218  1  0.94600000  0.07580000  0.15440000  1.0 0.0503479196
C  C219  1  0.36880000  0.06500000  0.10550000  1.0 -0.0604026768
C  C220  1  0.35840000  0.10180000  0.13320000  1.0 -0.1501086382
C  C221  1  0.28140000  0.09500000  0.13240000  1.0 0.0689799557
C  C222  1  0.20750000  0.03530000  0.10130000  1.0 -0.1599889271
C  C223  1  0.22290000  0.00230000  0.06800000  1.0 0.118747294
C  C224  1  0.33710000  0.23350000  0.21760000  1.0 0.3393448759
C  C225  1  0.17860000  0.14440000  0.19310000  1.0 0.3305893053
C  C226  1  0.26920000  0.13500000  0.16330000  1.0 0.3305893053
C  C227  1  0.11030000  0.79130000  0.00220000  1.0 0.060559948
C  C228  1  0.02370000  0.69010000  0.00370000  1.0 -0.131033986
C  C229  1  0.02030000  0.62510000  0.03040000  1.0 0.0503479196
C  C230  1  0.10640000  0.65860000  0.05630000  1.0 -0.1599889271
C  C231  1  0.19170000  0.75930000  0.05200000  1.0 -0.029687986
C  C232  1  0.64790000  0.41870000  0.89730000  1.0 0.060559948
C  C233  1  0.72260000  0.44460000  0.92950000  1.0 -0.1696587954
C  C234  1  0.70740000  0.37300000  0.96060000  1.0 0.0799740318
C  C235  1  0.62590000  0.27790000  0.95260000  1.0 -0.1599889271
C  C236  1  0.55830000  0.25470000  0.91750000  1.0 0.0197349383
C  C237  1  0.88240000  0.23660000  0.14780000  1.0 0.0311091495
C  C238  1  0.89950000  0.30670000  0.12050000  1.0 -0.1696587954
C  C239  1  0.83110000  0.28610000  0.08430000  1.0 0.0503479196
C  C240  1  0.74870000  0.18690000  0.08080000  1.0 -0.1696587954
C  C241  1  0.73630000  0.12050000  0.11060000  1.0 0.0025173963
C  C242  1  0.93050000  0.51850000  0.03200000  1.0 0.3305893053
C  C243  1  0.78410000  0.40210000  0.99720000  1.0 0.3594125468
C  C244  1  0.84500000  0.36100000  0.05430000  1.0 0.3214141089
I  I1  1  0.23210000  0.93630000  0.23900000  1.0 -0.0413870775
I  I2  1  0.34080000  0.13300000  0.35230000  1.0 0.0799740318
I  I3  1  0.54190000  0.01310000  0.44810000  1.0 0.0399274243
I  I4  1  0.71924000  0.96636000  0.55327000  1.0 0.0107985941
I  I5  1  0.62380000  0.66620000  0.62060000  1.0 -0.3495579403
I  I6  1  0.61880000  0.85700000  0.69330000  1.0 -0.3015111726
I  I7  1  0.00962000  0.46878000  0.95749000  1.0 -0.010699767
I  I8  1  0.03920000  0.29680000  0.05060000  1.0 -0.0897739775
I  I9  1  0.32682000  0.37518000  0.12021000  1.0 -0.1830183122
I  I10  1  0.14502000  0.37658000  0.19310000  1.0 -0.0413870775
I  I11  1  0.04350000  0.75570000  0.74280000  1.0 0.0197349383
I  I12  1  0.86680000  0.65680000  0.85640000  1.0 0.0197349383
I  I13  1  0.26230000  0.96570000  0.24340000  1.0 -0.0706838783
I  I14  1  0.36410000  0.13150000  0.34000000  1.0 0.0197349383
I  I15  1  0.53320000  0.99120000  0.46040000  1.0 0.0025173963
I  I16  1  0.69180000  0.96000000  0.54220000  1.0 0.0107985941
I  I17  1  0.63250000  0.68390000  0.62460000  1.0 -0.3201888245
I  I18  1  0.63490000  0.86070000  0.69460000  1.0 -0.3015111726
I  I19  1  0.98660000  0.46840000  0.94390000  1.0 0.0107985941
I  I20  1  0.04270000  0.28090000  0.05320000  1.0 -0.0813310411
I  I21  1  0.33220000  0.37960000  0.12860000  1.0 -0.1696587954
I  I22  1  0.15170000  0.40370000  0.19420000  1.0 -0.0206274214
I  I23  1  0.07250000  0.77130000  0.73720000  1.0 0.060559948
I  I24  1  0.87930000  0.65790000  0.84170000  1.0 -0.0026384599
I  I25  1  0.93630000  0.23210000  0.76100000  1.0 -0.0413870775
I  I26  1  0.13300000  0.34080000  0.64770000  1.0 0.0799740318
I  I27  1  0.01310000  0.54190000  0.55190000  1.0 0.0399274243
I  I28  1  0.96636000  0.71924000  0.44673000  1.0 0.0107985941
I  I29  1  0.66620000  0.62380000  0.37940000  1.0 -0.3495579403
I  I30  1  0.85700000  0.61880000  0.30670000  1.0 -0.3015111726
I  I31  1  0.46878000  0.00962000  0.04251000  1.0 -0.0206274214
I  I32  1  0.29680000  0.03920000  0.94940000  1.0 -0.0897739775
I  I33  1  0.37518000  0.32682000  0.87979000  1.0 -0.1830183122
I  I34  1  0.37658000  0.14502000  0.80690000  1.0 -0.0413870775
I  I35  1  0.75570000  0.04350000  0.25720000  1.0 0.0197349383
I  I36  1  0.65680000  0.86680000  0.14360000  1.0 0.0197349383
I  I37  1  0.96570000  0.26230000  0.75660000  1.0 -0.0706838783
I  I38  1  0.13150000  0.36410000  0.66000000  1.0 0.0197349383
I  I39  1  0.99120000  0.53320000  0.53960000  1.0 0.0025173963
I  I40  1  0.96000000  0.69180000  0.45780000  1.0 0.0107985941
I  I41  1  0.68390000  0.63250000  0.37540000  1.0 -0.3201888245
I  I42  1  0.86070000  0.63490000  0.30540000  1.0 -0.3015111726
I  I43  1  0.46840000  0.98660000  0.05610000  1.0 0.0107985941
I  I44  1  0.28090000  0.04270000  0.94680000  1.0 -0.0813310411
I  I45  1  0.37960000  0.33220000  0.87140000  1.0 -0.1696587954
I  I46  1  0.40370000  0.15170000  0.80580000  1.0 -0.0206274214
I  I47  1  0.77130000  0.07250000  0.26280000  1.0 0.060559948
I  I48  1  0.65790000  0.87930000  0.15830000  1.0 -0.0026384599
N  N1  1  0.09310000  0.93310000  0.30880000  1.0 -0.1988810081
N  N2  1  0.41940000  0.55740000  0.20150000  1.0 -0.2103828658
N  N3  1  0.70530000  0.98370000  0.42890000  1.0 -0.2103828658
N  N4  1  0.75060000  0.79780000  0.27810000  1.0 -0.4212193679
N  N5  1  0.65230000  0.80290000  0.31110000  1.0 -0.4102952521
N  N6  1  0.81850000  0.89550000  0.33740000  1.0 -0.4320836158
N  N7  1  0.81280000  0.18260000  0.47370000  1.0 -0.1926087554
N  N8  1  0.20400000  0.86940000  0.35850000  1.0 -0.21958617
N  N9  1  0.43980000  0.67960000  0.60820000  1.0 -0.1926087554
N  N10  1  0.08030000  0.54990000  0.44130000  1.0 -0.453433935
N  N11  1  0.23300000  0.67580000  0.47880000  1.0 -0.4102952521
N  N12  1  0.14550000  0.50970000  0.50140000  1.0 -0.3930671554
N  N13  1  0.45400000  0.58940000  0.70130000  1.0 -0.2412996879
N  N14  1  0.07190000  0.91390000  0.80930000  1.0 -0.21958617
N  N15  1  0.02000000  0.29940000  0.93070000  1.0 -0.21958617
N  N16  1  0.20510000  0.25270000  0.77750000  1.0 -0.4435067218
N  N17  1  0.10590000  0.18410000  0.83640000  1.0 -0.4102952521
N  N18  1  0.20180000  0.35160000  0.81110000  1.0 -0.4320836158
N  N19  1  0.82370000  0.19090000  0.97270000  1.0 -0.2103828658
N  N20  1  0.32510000  0.56990000  0.10950000  1.0 -0.21958617
N  N21  1  0.14080000  0.80400000  0.85770000  1.0 -0.2306715291
N  N22  1  0.49830000  0.86150000  0.00120000  1.0 -0.4578152936
N  N23  1  0.33000000  0.77100000  0.97830000  1.0 -0.4320836158
N  N24  1  0.45450000  0.92490000  0.94040000  1.0 -0.4212193679
N  N25  1  0.93310000  0.09310000  0.69120000  1.0 -0.1988810081
N  N26  1  0.55740000  0.41940000  0.79850000  1.0 -0.2103828658
N  N27  1  0.98370000  0.70530000  0.57110000  1.0 -0.2103828658
N  N28  1  0.79780000  0.75060000  0.72190000  1.0 -0.4212193679
N  N29  1  0.80290000  0.65230000  0.68890000  1.0 -0.4102952521
N  N30  1  0.89550000  0.81850000  0.66260000  1.0 -0.4320836158
N  N31  1  0.18260000  0.81280000  0.52630000  1.0 -0.1926087554
N  N32  1  0.86940000  0.20400000  0.64150000  1.0 -0.21958617
N  N33  1  0.67960000  0.43980000  0.39180000  1.0 -0.1926087554
N  N34  1  0.54990000  0.08030000  0.55870000  1.0 -0.453433935
N  N35  1  0.67580000  0.23300000  0.52120000  1.0 -0.4102952521
N  N36  1  0.50970000  0.14550000  0.49860000  1.0 -0.3930671554
N  N37  1  0.58940000  0.45400000  0.29870000  1.0 -0.2412996879
N  N38  1  0.91390000  0.07190000  0.19070000  1.0 -0.21958617
N  N39  1  0.29940000  0.02000000  0.06930000  1.0 -0.21958617
N  N40  1  0.25270000  0.20510000  0.22250000  1.0 -0.4435067218
N  N41  1  0.18410000  0.10590000  0.16360000  1.0 -0.4102952521
N  N42  1  0.35160000  0.20180000  0.18890000  1.0 -0.4320836158
N  N43  1  0.19090000  0.82370000  0.02730000  1.0 -0.2103828658
N  N44  1  0.56990000  0.32510000  0.89050000  1.0 -0.21958617
N  N45  1  0.80400000  0.14080000  0.14230000  1.0 -0.2306715291
N  N46  1  0.86150000  0.49830000  0.99880000  1.0 -0.4578152936
N  N47  1  0.77100000  0.33000000  0.02170000  1.0 -0.4320836158
N  N48  1  0.92490000  0.45450000  0.05960000  1.0 -0.4212193679
Cl  Cl1  1  0.05630000  0.14370000  0.35160000  1.0 -0.1099418987
Cl  Cl2  1  0.14370000  0.05630000  0.64840000  1.0 -0.1099418987
Cl  Cl3  1  0.05300000  0.97500000  0.46440000  1.0 -0.029687986
Cl  Cl4  1  0.97500000  0.05300000  0.53560000  1.0 -0.029687986
