# DDEC6 charges by PACMAN v1.1 (https://github.com/mtap-research/PACMAN-charge/)
data_VABJIS_ASR_pacman
_symmetry_space_group_name_H-M   'P 1'
_cell_length_a   15.07800000
_cell_length_b   5.70000000
_cell_length_c   15.07800000
_cell_angle_alpha   90.00000000
_cell_angle_beta   90.00000000
_cell_angle_gamma   90.00000000
_symmetry_Int_Tables_number   1
_chemical_formula_structural   AgH4(C2N)4
_chemical_formula_sum   'Ag4 H16 C32 N16'
_cell_volume   1295.87267880
_cell_formula_units_Z   4
loop_
 _symmetry_equiv_pos_site_id
 _symmetry_equiv_pos_as_xyz
  1  'x, y, z'
loop_
 _atom_site_type_symbol
 _atom_site_label
 _atom_site_symmetry_multiplicity
 _atom_site_fract_x
 _atom_site_fract_y
 _atom_site_fract_z
 _atom_site_occupancy
 _atom_site_charge
Ag  Ag1  1  0.00000000  0.87500000  0.75000000  1.0 0.5172352986
Ag  Ag2  1  0.00000000  0.12500000  0.25000000  1.0 0.5172352986
Ag  Ag3  1  0.50000000  0.37500000  0.25000000  1.0 0.5172352986
Ag  Ag4  1  0.50000000  0.62500000  0.75000000  1.0 0.5172352986
H  H1  1  0.70220000  0.41650000  0.69760000  0.5 0.1222452446
H  H2  1  0.29780000  0.41650000  0.80240000  0.5 0.1222452446
H  H3  1  0.70220000  0.58350000  0.30240000  0.5 0.1222452446
H  H4  1  0.29780000  0.58350000  0.19760000  0.5 0.1222452446
H  H5  1  0.94760000  0.33350000  0.45220000  0.5 0.1222452446
H  H6  1  0.55240000  0.83350000  0.54780000  0.5 0.1222452446
H  H7  1  0.55240000  0.16650000  0.45220000  0.5 0.1222452446
H  H8  1  0.94760000  0.66650000  0.54780000  0.5 0.1222452446
H  H9  1  0.20220000  0.91650000  0.19760000  0.5 0.1222452446
H  H10  1  0.79780000  0.91650000  0.30240000  0.5 0.1222452446
H  H11  1  0.20220000  0.08350000  0.80240000  0.5 0.1222452446
H  H12  1  0.79780000  0.08350000  0.69760000  0.5 0.1222452446
H  H13  1  0.44760000  0.83350000  0.95220000  0.5 0.1222452446
H  H14  1  0.05240000  0.33350000  0.04780000  0.5 0.1222452446
H  H15  1  0.05240000  0.66650000  0.95220000  0.5 0.1222452446
H  H16  1  0.44760000  0.16650000  0.04780000  0.5 0.1222452446
H  H17  1  0.29780000  0.58350000  0.30240000  0.5 0.1222452446
H  H18  1  0.70220000  0.58350000  0.19760000  0.5 0.1222452446
H  H19  1  0.29780000  0.41650000  0.69760000  0.5 0.1222452446
H  H20  1  0.70220000  0.41650000  0.80240000  0.5 0.1222452446
H  H21  1  0.05240000  0.66650000  0.54780000  0.5 0.1222452446
H  H22  1  0.44760000  0.16650000  0.45220000  0.5 0.1222452446
H  H23  1  0.44760000  0.83350000  0.54780000  0.5 0.1222452446
H  H24  1  0.05240000  0.33350000  0.45220000  0.5 0.1222452446
H  H25  1  0.79780000  0.08350000  0.80240000  0.5 0.1222452446
H  H26  1  0.20220000  0.08350000  0.69760000  0.5 0.1222452446
H  H27  1  0.79780000  0.91650000  0.19760000  0.5 0.1222452446
H  H28  1  0.20220000  0.91650000  0.30240000  0.5 0.1222452446
H  H29  1  0.55240000  0.16650000  0.04780000  0.5 0.1222452446
H  H30  1  0.94760000  0.66650000  0.95220000  0.5 0.1222452446
H  H31  1  0.94760000  0.33350000  0.04780000  0.5 0.1222452446
H  H32  1  0.55240000  0.83350000  0.95220000  0.5 0.1222452446
C  C1  1  0.82300000  0.50000000  0.75000000  1.0 0.3197548473
C  C2  1  0.17700000  0.50000000  0.75000000  1.0 0.3197548473
C  C3  1  0.82300000  0.50000000  0.25000000  1.0 0.3197548473
C  C4  1  0.17700000  0.50000000  0.25000000  1.0 0.3197548473
C  C5  1  0.00000000  0.25000000  0.57300000  1.0 0.3197548473
C  C6  1  0.50000000  0.75000000  0.42700000  1.0 0.3197548473
C  C7  1  0.50000000  0.25000000  0.57300000  1.0 0.3197548473
C  C8  1  0.00000000  0.75000000  0.42700000  1.0 0.3197548473
C  C9  1  0.32300000  0.00000000  0.25000000  1.0 0.3197548473
C  C10  1  0.67700000  0.00000000  0.25000000  1.0 0.3197548473
C  C11  1  0.32300000  0.00000000  0.75000000  1.0 0.3197548473
C  C12  1  0.67700000  0.00000000  0.75000000  1.0 0.3197548473
C  C13  1  0.50000000  0.75000000  0.07300000  1.0 0.3197548473
C  C14  1  0.00000000  0.25000000  0.92700000  1.0 0.3197548473
C  C15  1  0.00000000  0.75000000  0.07300000  1.0 0.3197548473
C  C16  1  0.50000000  0.25000000  0.92700000  1.0 0.3197548473
C  C17  1  0.73700000  0.37800000  0.75000000  1.0 -0.2428085087
C  C18  1  0.26300000  0.37800000  0.75000000  1.0 -0.2428085087
C  C19  1  0.73700000  0.62200000  0.25000000  1.0 -0.2428085087
C  C20  1  0.26300000  0.62200000  0.25000000  1.0 -0.2428085087
C  C21  1  0.00000000  0.37200000  0.48700000  1.0 -0.2428085087
C  C22  1  0.50000000  0.87200000  0.51300000  1.0 -0.2428085087
C  C23  1  0.50000000  0.12800000  0.48700000  1.0 -0.2428085087
C  C24  1  0.00000000  0.62800000  0.51300000  1.0 -0.2428085087
C  C25  1  0.23700000  0.87800000  0.25000000  1.0 -0.2428085087
C  C26  1  0.76300000  0.87800000  0.25000000  1.0 -0.2428085087
C  C27  1  0.23700000  0.12200000  0.75000000  1.0 -0.2428085087
C  C28  1  0.76300000  0.12200000  0.75000000  1.0 -0.2428085087
C  C29  1  0.50000000  0.87200000  0.98700000  1.0 -0.2428085087
C  C30  1  0.00000000  0.37200000  0.01300000  1.0 -0.2428085087
C  C31  1  0.00000000  0.62800000  0.98700000  1.0 -0.2428085087
C  C32  1  0.50000000  0.12800000  0.01300000  1.0 -0.2428085087
N  N1  1  0.88300000  0.62800000  0.75000000  1.0 -0.4507456525
N  N2  1  0.11700000  0.62800000  0.75000000  1.0 -0.4507456525
N  N3  1  0.88300000  0.37200000  0.25000000  1.0 -0.4507456525
N  N4  1  0.11700000  0.37200000  0.25000000  1.0 -0.4507456525
N  N5  1  0.00000000  0.12200000  0.63300000  1.0 -0.4507456525
N  N6  1  0.50000000  0.62200000  0.36700000  1.0 -0.4507456525
N  N7  1  0.50000000  0.37800000  0.63300000  1.0 -0.4507456525
N  N8  1  0.00000000  0.87800000  0.36700000  1.0 -0.4507456525
N  N9  1  0.38300000  0.12800000  0.25000000  1.0 -0.4507456525
N  N10  1  0.61700000  0.12800000  0.25000000  1.0 -0.4507456525
N  N11  1  0.38300000  0.87200000  0.75000000  1.0 -0.4507456525
N  N12  1  0.61700000  0.87200000  0.75000000  1.0 -0.4507456525
N  N13  1  0.50000000  0.62200000  0.13300000  1.0 -0.4507456525
N  N14  1  0.00000000  0.12200000  0.86700000  1.0 -0.4507456525
N  N15  1  0.00000000  0.87800000  0.13300000  1.0 -0.4507456525
N  N16  1  0.50000000  0.37800000  0.86700000  1.0 -0.4507456525
