# DDEC6 charges by PACMAN v1.1 (https://github.com/mtap-research/PACMAN-charge/)
data_VABKAN_ASR_pacman
_symmetry_space_group_name_H-M   'P 1'
_cell_length_a   28.72040000
_cell_length_b   28.72040000
_cell_length_c   28.72040000
_cell_angle_alpha   109.86300000
_cell_angle_beta   109.86300000
_cell_angle_gamma   108.69000000
_symmetry_Int_Tables_number   1
_chemical_formula_structural   Cu2H40C65NO8
_chemical_formula_sum   'Cu8 H160 C260 N4 O32'
_cell_volume   18234.40795932
_cell_formula_units_Z   4
loop_
 _symmetry_equiv_pos_site_id
 _symmetry_equiv_pos_as_xyz
  1  'x, y, z'
loop_
 _atom_site_type_symbol
 _atom_site_label
 _atom_site_symmetry_multiplicity
 _atom_site_fract_x
 _atom_site_fract_y
 _atom_site_fract_z
 _atom_site_occupancy
 _atom_site_charge
Cu  Cu1  1  0.50000000  0.82976000  0.32976000  1.0 0.5592229537
Cu  Cu2  1  0.82976000  0.50000000  0.32976000  1.0 0.5592229537
Cu  Cu3  1  0.50000000  0.17024000  0.67024000  1.0 0.5592229537
Cu  Cu4  1  0.17024000  0.50000000  0.67024000  1.0 0.5592229537
Cu  Cu5  1  0.50000000  0.75185000  0.25185000  1.0 0.8519797079
Cu  Cu6  1  0.75185000  0.50000000  0.25185000  1.0 0.8519797079
Cu  Cu7  1  0.50000000  0.24815000  0.74815000  1.0 0.8519797079
Cu  Cu8  1  0.24815000  0.50000000  0.74815000  1.0 0.8519797079
H  H1  1  0.49250000  0.75600000  0.43650000  1.0 0.1310490012
H  H2  1  0.75600000  0.31950000  0.26350000  1.0 0.1310490012
H  H3  1  0.31950000  0.05600000  0.56350000  1.0 0.1310490012
H  H4  1  0.05600000  0.49250000  0.73650000  1.0 0.1310490012
H  H5  1  0.50750000  0.94400000  0.26350000  1.0 0.1310490012
H  H6  1  0.94400000  0.68050000  0.43650000  1.0 0.1310490012
H  H7  1  0.68050000  0.24400000  0.73650000  1.0 0.1310490012
H  H8  1  0.24400000  0.50750000  0.56350000  1.0 0.1310490012
H  H9  1  0.50750000  0.24400000  0.56350000  1.0 0.1310490012
H  H10  1  0.24400000  0.68050000  0.73650000  1.0 0.1310490012
H  H11  1  0.68050000  0.94400000  0.43650000  1.0 0.1310490012
H  H12  1  0.94400000  0.50750000  0.26350000  1.0 0.1310490012
H  H13  1  0.49250000  0.05600000  0.73650000  1.0 0.1310490012
H  H14  1  0.05600000  0.31950000  0.56350000  1.0 0.1310490012
H  H15  1  0.31950000  0.75600000  0.26350000  1.0 0.1310490012
H  H16  1  0.75600000  0.49250000  0.43650000  1.0 0.1310490012
H  H17  1  0.48270000  0.70110000  0.47980000  1.0 0.1108947155
H  H18  1  0.70110000  0.22130000  0.21840000  1.0 0.1108947155
H  H19  1  0.22130000  0.00290000  0.52020000  1.0 0.1108947155
H  H20  1  0.00290000  0.48270000  0.78160000  1.0 0.1108947155
H  H21  1  0.51730000  0.99710000  0.21840000  1.0 0.1108947155
H  H22  1  0.99710000  0.77870000  0.47980000  1.0 0.1108947155
H  H23  1  0.77870000  0.29890000  0.78160000  1.0 0.1108947155
H  H24  1  0.29890000  0.51730000  0.52020000  1.0 0.1108947155
H  H25  1  0.51730000  0.29890000  0.52020000  1.0 0.1108947155
H  H26  1  0.29890000  0.77870000  0.78160000  1.0 0.1108947155
H  H27  1  0.77870000  0.99710000  0.47980000  1.0 0.1108947155
H  H28  1  0.99710000  0.51730000  0.21840000  1.0 0.1108947155
H  H29  1  0.48270000  0.00290000  0.78160000  1.0 0.1108947155
H  H30  1  0.00290000  0.22130000  0.52020000  1.0 0.1108947155
H  H31  1  0.22130000  0.70110000  0.21840000  1.0 0.1108947155
H  H32  1  0.70110000  0.48270000  0.47980000  1.0 0.1108947155
H  H33  1  0.48410000  0.58090000  0.35700000  1.0 0.1108947155
H  H34  1  0.58090000  0.22390000  0.09680000  1.0 0.1108947155
H  H35  1  0.22390000  0.12710000  0.64300000  1.0 0.1108947155
H  H36  1  0.12710000  0.48410000  0.90320000  1.0 0.1108947155
H  H37  1  0.51590000  0.87290000  0.09680000  1.0 0.1108947155
H  H38  1  0.87290000  0.77610000  0.35700000  1.0 0.1108947155
H  H39  1  0.77610000  0.41910000  0.90320000  1.0 0.1108947155
H  H40  1  0.41910000  0.51590000  0.64300000  1.0 0.1108947155
H  H41  1  0.51590000  0.41910000  0.64300000  1.0 0.1108947155
H  H42  1  0.41910000  0.77610000  0.90320000  1.0 0.1108947155
H  H43  1  0.77610000  0.87290000  0.35700000  1.0 0.1108947155
H  H44  1  0.87290000  0.51590000  0.09680000  1.0 0.1108947155
H  H45  1  0.48410000  0.12710000  0.90320000  1.0 0.1108947155
H  H46  1  0.12710000  0.22390000  0.64300000  1.0 0.1108947155
H  H47  1  0.22390000  0.58090000  0.09680000  1.0 0.1108947155
H  H48  1  0.58090000  0.48410000  0.35700000  1.0 0.1108947155
H  H49  1  0.49200000  0.63460000  0.31260000  1.0 0.1310490012
H  H50  1  0.63460000  0.32200000  0.14260000  1.0 0.1310490012
H  H51  1  0.32200000  0.17940000  0.68740000  1.0 0.1247691266
H  H52  1  0.17940000  0.49200000  0.85740000  1.0 0.1310490012
H  H53  1  0.50800000  0.82060000  0.14260000  1.0 0.1310490012
H  H54  1  0.82060000  0.67800000  0.31260000  1.0 0.1310490012
H  H55  1  0.67800000  0.36540000  0.85740000  1.0 0.1247691266
H  H56  1  0.36540000  0.50800000  0.68740000  1.0 0.1247691266
H  H57  1  0.50800000  0.36540000  0.68740000  1.0 0.1247691266
H  H58  1  0.36540000  0.67800000  0.85740000  1.0 0.1247691266
H  H59  1  0.67800000  0.82060000  0.31260000  1.0 0.1247691266
H  H60  1  0.82060000  0.50800000  0.14260000  1.0 0.1310490012
H  H61  1  0.49200000  0.17940000  0.85740000  1.0 0.1247691266
H  H62  1  0.17940000  0.32200000  0.68740000  1.0 0.1247691266
H  H63  1  0.32200000  0.63460000  0.14260000  1.0 0.1310490012
H  H64  1  0.63460000  0.49200000  0.31260000  1.0 0.1310490012
H  H65  1  0.42440000  0.61670000  0.47590000  1.0 0.1108947155
H  H66  1  0.61670000  0.14080000  0.19230000  1.0 0.1108947155
H  H67  1  0.14080000  0.94850000  0.52410000  1.0 0.1108947155
H  H68  1  0.94850000  0.42440000  0.80770000  1.0 0.1108947155
H  H69  1  0.57560000  0.05150000  0.19230000  1.0 0.1108947155
H  H70  1  0.05150000  0.85920000  0.47590000  1.0 0.1108947155
H  H71  1  0.85920000  0.38330000  0.80770000  1.0 0.1108947155
H  H72  1  0.38330000  0.57560000  0.52410000  1.0 0.1108947155
H  H73  1  0.57560000  0.38330000  0.52410000  1.0 0.1108947155
H  H74  1  0.38330000  0.85920000  0.80770000  1.0 0.1108947155
H  H75  1  0.85920000  0.05150000  0.47590000  1.0 0.1108947155
H  H76  1  0.05150000  0.57560000  0.19230000  1.0 0.1108947155
H  H77  1  0.42440000  0.94850000  0.80770000  1.0 0.1108947155
H  H78  1  0.94850000  0.14080000  0.52410000  1.0 0.1108947155
H  H79  1  0.14080000  0.61670000  0.19230000  1.0 0.1108947155
H  H80  1  0.61670000  0.42440000  0.47590000  1.0 0.1108947155
H  H81  1  0.53090000  0.57400000  0.43450000  1.0 0.1108947155
H  H82  1  0.57400000  0.13950000  0.04310000  1.0 0.1108947155
H  H83  1  0.13950000  0.09640000  0.56550000  1.0 0.1108947155
H  H84  1  0.09640000  0.53090000  0.95690000  1.0 0.1108947155
H  H85  1  0.46910000  0.90360000  0.04310000  1.0 0.1108947155
H  H86  1  0.90360000  0.86050000  0.43450000  1.0 0.1108947155
H  H87  1  0.86050000  0.42600000  0.95690000  1.0 0.1108947155
H  H88  1  0.42600000  0.46910000  0.56550000  1.0 0.1108947155
H  H89  1  0.46910000  0.42600000  0.56550000  1.0 0.1108947155
H  H90  1  0.42600000  0.86050000  0.95690000  1.0 0.1108947155
H  H91  1  0.86050000  0.90360000  0.43450000  1.0 0.1108947155
H  H92  1  0.90360000  0.46910000  0.04310000  1.0 0.1108947155
H  H93  1  0.53090000  0.09640000  0.95690000  1.0 0.1108947155
H  H94  1  0.09640000  0.13950000  0.56550000  1.0 0.1108947155
H  H95  1  0.13950000  0.57400000  0.04310000  1.0 0.1108947155
H  H96  1  0.57400000  0.53090000  0.43450000  1.0 0.1108947155
H  H97  1  0.42780000  0.84370000  0.38250000  1.0 0.0501629026
H  H98  1  0.84370000  0.46120000  0.41590000  1.0 0.0501629026
H  H99  1  0.46120000  0.04530000  0.61750000  1.0 0.0552232429
H  H100  1  0.04530000  0.42780000  0.58410000  1.0 0.0552232429
H  H101  1  0.57220000  0.95470000  0.41590000  1.0 0.0501629026
H  H102  1  0.95470000  0.53880000  0.38250000  1.0 0.0501629026
H  H103  1  0.53880000  0.15630000  0.58410000  1.0 0.0501629026
H  H104  1  0.15630000  0.57220000  0.61750000  1.0 0.0501629026
H  H105  1  0.57220000  0.15630000  0.61750000  1.0 0.0501629026
H  H106  1  0.15630000  0.53880000  0.58410000  1.0 0.0501629026
H  H107  1  0.53880000  0.95470000  0.38250000  1.0 0.0501629026
H  H108  1  0.95470000  0.57220000  0.41590000  1.0 0.0552232429
H  H109  1  0.42780000  0.04530000  0.58410000  1.0 0.0552232429
H  H110  1  0.04530000  0.46120000  0.61750000  1.0 0.0501629026
H  H111  1  0.46120000  0.84370000  0.41590000  1.0 0.0501629026
H  H112  1  0.84370000  0.42780000  0.38250000  1.0 0.0552232429
H  H113  1  0.42550000  0.91240000  0.45050000  1.0 0.0501629026
H  H114  1  0.91240000  0.46190000  0.48690000  1.0 0.0501629026
H  H115  1  0.46190000  0.97500000  0.54950000  1.0 0.0501629026
H  H116  1  0.97500000  0.42550000  0.51310000  1.0 0.0501629026
H  H117  1  0.57450000  0.02500000  0.48690000  1.0 0.0501629026
H  H118  1  0.02500000  0.53810000  0.45050000  1.0 0.0501629026
H  H119  1  0.53810000  0.08760000  0.51310000  1.0 0.0501629026
H  H120  1  0.08760000  0.57450000  0.54950000  1.0 0.0501629026
H  H121  1  0.57450000  0.08760000  0.54950000  1.0 0.0501629026
H  H122  1  0.08760000  0.53810000  0.51310000  1.0 0.0501629026
H  H123  1  0.53810000  0.02500000  0.45050000  1.0 0.0501629026
H  H124  1  0.02500000  0.57450000  0.48690000  1.0 0.0501629026
H  H125  1  0.42550000  0.97500000  0.51310000  1.0 0.0501629026
H  H126  1  0.97500000  0.46190000  0.54950000  1.0 0.0501629026
H  H127  1  0.46190000  0.91240000  0.48690000  1.0 0.0501629026
H  H128  1  0.91240000  0.42550000  0.45050000  1.0 0.0501629026
H  H129  1  0.51870000  0.87090000  0.44940000  1.0 0.0714010114
H  H130  1  0.87090000  0.42150000  0.35220000  1.0 0.0714010114
H  H131  1  0.42150000  0.06930000  0.55060000  1.0 0.0714010114
H  H132  1  0.06930000  0.51870000  0.64780000  1.0 0.0714010114
H  H133  1  0.48130000  0.93070000  0.35220000  1.0 0.0714010114
H  H134  1  0.93070000  0.57850000  0.44940000  1.0 0.0714010114
H  H135  1  0.57850000  0.12910000  0.64780000  1.0 0.0714010114
H  H136  1  0.12910000  0.48130000  0.55060000  1.0 0.0714010114
H  H137  1  0.48130000  0.12910000  0.55060000  1.0 0.0714010114
H  H138  1  0.12910000  0.57850000  0.64780000  1.0 0.0714010114
H  H139  1  0.57850000  0.93070000  0.44940000  1.0 0.0714010114
H  H140  1  0.93070000  0.48130000  0.35220000  1.0 0.0714010114
H  H141  1  0.51870000  0.06930000  0.64780000  1.0 0.0714010114
H  H142  1  0.06930000  0.42150000  0.55060000  1.0 0.0714010114
H  H143  1  0.42150000  0.87090000  0.35220000  1.0 0.0714010114
H  H144  1  0.87090000  0.51870000  0.44940000  1.0 0.0714010114
H  H145  1  0.52670000  0.94330000  0.52260000  1.0 0.0714010114
H  H146  1  0.94330000  0.42070000  0.41660000  1.0 0.0714010114
H  H147  1  0.42070000  0.00410000  0.47740000  1.0 0.0714010114
H  H148  1  0.00410000  0.52670000  0.58340000  1.0 0.0714010114
H  H149  1  0.47330000  0.99590000  0.41660000  1.0 0.0714010114
H  H150  1  0.99590000  0.57930000  0.52260000  1.0 0.0714010114
H  H151  1  0.57930000  0.05670000  0.58340000  1.0 0.0714010114
H  H152  1  0.05670000  0.47330000  0.47740000  1.0 0.0714010114
H  H153  1  0.47330000  0.05670000  0.47740000  1.0 0.0714010114
H  H154  1  0.05670000  0.57930000  0.58340000  1.0 0.0714010114
H  H155  1  0.57930000  0.99590000  0.52260000  1.0 0.0714010114
H  H156  1  0.99590000  0.47330000  0.41660000  1.0 0.0714010114
H  H157  1  0.52670000  0.00410000  0.58340000  1.0 0.0714010114
H  H158  1  0.00410000  0.42070000  0.47740000  1.0 0.0714010114
H  H159  1  0.42070000  0.94330000  0.41660000  1.0 0.0714010114
H  H160  1  0.94330000  0.52670000  0.52260000  1.0 0.0714010114
C  C1  1  0.49855000  0.73536000  0.34205000  1.0 0.5592229537
C  C2  1  0.73536000  0.39331000  0.23681000  1.0 0.5592229537
C  C3  1  0.39331000  0.15650000  0.65795000  1.0 0.5592229537
C  C4  1  0.15650000  0.49855000  0.76319000  1.0 0.5592229537
C  C5  1  0.50145000  0.84350000  0.23681000  1.0 0.5592229537
C  C6  1  0.84350000  0.60669000  0.34205000  1.0 0.5592229537
C  C7  1  0.60669000  0.26464000  0.76319000  1.0 0.5592229537
C  C8  1  0.26464000  0.50145000  0.65795000  1.0 0.5592229537
C  C9  1  0.50145000  0.26464000  0.65795000  1.0 0.5592229537
C  C10  1  0.26464000  0.60669000  0.76319000  1.0 0.5592229537
C  C11  1  0.60669000  0.84350000  0.34205000  1.0 0.5592229537
C  C12  1  0.84350000  0.50145000  0.23681000  1.0 0.5592229537
C  C13  1  0.49855000  0.15650000  0.76319000  1.0 0.5592229537
C  C14  1  0.15650000  0.39331000  0.65795000  1.0 0.5592229537
C  C15  1  0.39331000  0.73536000  0.23681000  1.0 0.5592229537
C  C16  1  0.73536000  0.49855000  0.34205000  1.0 0.5592229537
C  C17  1  0.49302000  0.70098000  0.37040000  1.0 -0.021869263
C  C18  1  0.70098000  0.33058000  0.20796000  1.0 -0.021869263
C  C19  1  0.33058000  0.12262000  0.62960000  1.0 -0.021869263
C  C20  1  0.12262000  0.49302000  0.79204000  1.0 -0.021869263
C  C21  1  0.50698000  0.87738000  0.20796000  1.0 -0.021869263
C  C22  1  0.87738000  0.66942000  0.37040000  1.0 -0.021869263
C  C23  1  0.66942000  0.29902000  0.79204000  1.0 -0.021869263
C  C24  1  0.29902000  0.50698000  0.62960000  1.0 -0.021869263
C  C25  1  0.50698000  0.29902000  0.62960000  1.0 -0.021869263
C  C26  1  0.29902000  0.66942000  0.79204000  1.0 -0.021869263
C  C27  1  0.66942000  0.87738000  0.37040000  1.0 -0.021869263
C  C28  1  0.87738000  0.50698000  0.20796000  1.0 -0.021869263
C  C29  1  0.49302000  0.12262000  0.79204000  1.0 -0.021869263
C  C30  1  0.12262000  0.33058000  0.62960000  1.0 -0.021869263
C  C31  1  0.33058000  0.70098000  0.20796000  1.0 -0.021869263
C  C32  1  0.70098000  0.49302000  0.37040000  1.0 -0.021869263
C  C33  1  0.49045000  0.72008000  0.42005000  1.0 -0.1075474433
C  C34  1  0.72008000  0.30003000  0.22963000  1.0 -0.1075474433
C  C35  1  0.30003000  0.07040000  0.57995000  1.0 -0.1075474433
C  C36  1  0.07040000  0.49045000  0.77037000  1.0 -0.1075474433
C  C37  1  0.50955000  0.92960000  0.22963000  1.0 -0.1075474433
C  C38  1  0.92960000  0.69997000  0.42005000  1.0 -0.1075474433
C  C39  1  0.69997000  0.27992000  0.77037000  1.0 -0.1075474433
C  C40  1  0.27992000  0.50955000  0.57995000  1.0 -0.1075474433
C  C41  1  0.50955000  0.27992000  0.57995000  1.0 -0.1075474433
C  C42  1  0.27992000  0.69997000  0.77037000  1.0 -0.1075474433
C  C43  1  0.69997000  0.92960000  0.42005000  1.0 -0.1075474433
C  C44  1  0.92960000  0.50955000  0.22963000  1.0 -0.1075474433
C  C45  1  0.49045000  0.07040000  0.77037000  1.0 -0.1075474433
C  C46  1  0.07040000  0.30003000  0.57995000  1.0 -0.1075474433
C  C47  1  0.30003000  0.72008000  0.22963000  1.0 -0.1075474433
C  C48  1  0.72008000  0.49045000  0.42005000  1.0 -0.1075474433
C  C49  1  0.48491000  0.68758000  0.44591000  1.0 -0.1520106131
C  C50  1  0.68758000  0.24167000  0.20267000  1.0 -0.1520106131
C  C51  1  0.24167000  0.03900000  0.55409000  1.0 -0.1520106131
C  C52  1  0.03900000  0.48491000  0.79733000  1.0 -0.1520106131
C  C53  1  0.51509000  0.96100000  0.20267000  1.0 -0.1520106131
C  C54  1  0.96100000  0.75833000  0.44591000  1.0 -0.1520106131
C  C55  1  0.75833000  0.31242000  0.79733000  1.0 -0.1520106131
C  C56  1  0.31242000  0.51509000  0.55409000  1.0 -0.1520106131
C  C57  1  0.51509000  0.31242000  0.55409000  1.0 -0.1520106131
C  C58  1  0.31242000  0.75833000  0.79733000  1.0 -0.1520106131
C  C59  1  0.75833000  0.96100000  0.44591000  1.0 -0.1520106131
C  C60  1  0.96100000  0.51509000  0.20267000  1.0 -0.1520106131
C  C61  1  0.48491000  0.03900000  0.79733000  1.0 -0.1520106131
C  C62  1  0.03900000  0.24167000  0.55409000  1.0 -0.1520106131
C  C63  1  0.24167000  0.68758000  0.20267000  1.0 -0.1520106131
C  C64  1  0.68758000  0.48491000  0.44591000  1.0 -0.1520106131
C  C65  1  0.48254000  0.63526000  0.42292000  1.0 0.0803037529
C  C66  1  0.63526000  0.21234000  0.15272000  1.0 0.0803037529
C  C67  1  0.21234000  0.05962000  0.57708000  1.0 0.0803037529
C  C68  1  0.05962000  0.48254000  0.84728000  1.0 0.0803037529
C  C69  1  0.51746000  0.94038000  0.15272000  1.0 0.0803037529
C  C70  1  0.94038000  0.78766000  0.42292000  1.0 0.0803037529
C  C71  1  0.78766000  0.36474000  0.84728000  1.0 0.0803037529
C  C72  1  0.36474000  0.51746000  0.57708000  1.0 0.0803037529
C  C73  1  0.51746000  0.36474000  0.57708000  1.0 0.0803037529
C  C74  1  0.36474000  0.78766000  0.84728000  1.0 0.0803037529
C  C75  1  0.78766000  0.94038000  0.42292000  1.0 0.0803037529
C  C76  1  0.94038000  0.51746000  0.15272000  1.0 0.0803037529
C  C77  1  0.48254000  0.05962000  0.84728000  1.0 0.0803037529
C  C78  1  0.05962000  0.21234000  0.57708000  1.0 0.0803037529
C  C79  1  0.21234000  0.63526000  0.15272000  1.0 0.0803037529
C  C80  1  0.63526000  0.48254000  0.42292000  1.0 0.0803037529
C  C81  1  0.48549000  0.61659000  0.37320000  1.0 -0.1520106131
C  C82  1  0.61659000  0.24339000  0.13110000  1.0 -0.1520106131
C  C83  1  0.24339000  0.11229000  0.62680000  1.0 -0.1576016419
C  C84  1  0.11229000  0.48549000  0.86890000  1.0 -0.1576016419
C  C85  1  0.51451000  0.88771000  0.13110000  1.0 -0.1576016419
C  C86  1  0.88771000  0.75661000  0.37320000  1.0 -0.1520106131
C  C87  1  0.75661000  0.38341000  0.86890000  1.0 -0.1576016419
C  C88  1  0.38341000  0.51451000  0.62680000  1.0 -0.1576016419
C  C89  1  0.51451000  0.38341000  0.62680000  1.0 -0.1576016419
C  C90  1  0.38341000  0.75661000  0.86890000  1.0 -0.1576016419
C  C91  1  0.75661000  0.88771000  0.37320000  1.0 -0.1520106131
C  C92  1  0.88771000  0.51451000  0.13110000  1.0 -0.1576016419
C  C93  1  0.48549000  0.11229000  0.86890000  1.0 -0.1520106131
C  C94  1  0.11229000  0.24339000  0.62680000  1.0 -0.1576016419
C  C95  1  0.24339000  0.61659000  0.13110000  1.0 -0.1576016419
C  C96  1  0.61659000  0.48549000  0.37320000  1.0 -0.1520106131
C  C97  1  0.49040000  0.64843000  0.34683000  1.0 -0.1016014199
C  C98  1  0.64843000  0.30160000  0.15803000  1.0 -0.1016014199
C  C99  1  0.30160000  0.14357000  0.65317000  1.0 -0.1016014199
C  C100  1  0.14357000  0.49040000  0.84197000  1.0 -0.1016014199
C  C101  1  0.50960000  0.85643000  0.15803000  1.0 -0.1016014199
C  C102  1  0.85643000  0.69840000  0.34683000  1.0 -0.1016014199
C  C103  1  0.69840000  0.35157000  0.84197000  1.0 -0.1016014199
C  C104  1  0.35157000  0.50960000  0.65317000  1.0 -0.1016014199
C  C105  1  0.50960000  0.35157000  0.65317000  1.0 -0.1016014199
C  C106  1  0.35157000  0.69840000  0.84197000  1.0 -0.1016014199
C  C107  1  0.69840000  0.85643000  0.34683000  1.0 -0.1016014199
C  C108  1  0.85643000  0.50960000  0.15803000  1.0 -0.1016014199
C  C109  1  0.49040000  0.14357000  0.84197000  1.0 -0.1016014199
C  C110  1  0.14357000  0.30160000  0.65317000  1.0 -0.1016014199
C  C111  1  0.30160000  0.64843000  0.15803000  1.0 -0.1016014199
C  C112  1  0.64843000  0.49040000  0.34683000  1.0 -0.1016014199
C  C113  1  0.47754000  0.60022000  0.45044000  1.0 0.0714010114
C  C114  1  0.60022000  0.14978000  0.12268000  1.0 0.0714010114
C  C115  1  0.14978000  0.02710000  0.54956000  1.0 0.0714010114
C  C116  1  0.02710000  0.47754000  0.87732000  1.0 0.0714010114
C  C117  1  0.52246000  0.97290000  0.12268000  1.0 0.0714010114
C  C118  1  0.97290000  0.85022000  0.45044000  1.0 0.0714010114
C  C119  1  0.85022000  0.39978000  0.87732000  1.0 0.0714010114
C  C120  1  0.39978000  0.52246000  0.54956000  1.0 0.0714010114
C  C121  1  0.52246000  0.39978000  0.54956000  1.0 0.0714010114
C  C122  1  0.39978000  0.85022000  0.87732000  1.0 0.0714010114
C  C123  1  0.85022000  0.97290000  0.45044000  1.0 0.0714010114
C  C124  1  0.97290000  0.52246000  0.12268000  1.0 0.0714010114
C  C125  1  0.47754000  0.02710000  0.87732000  1.0 0.0714010114
C  C126  1  0.02710000  0.14978000  0.54956000  1.0 0.0714010114
C  C127  1  0.14978000  0.60022000  0.12268000  1.0 0.0714010114
C  C128  1  0.60022000  0.47754000  0.45044000  1.0 0.0714010114
C  C129  1  0.44424000  0.59585000  0.47531000  1.0 -0.2081128251
C  C130  1  0.59585000  0.12054000  0.15161000  1.0 -0.2081128251
C  C131  1  0.12054000  0.96893000  0.52469000  1.0 -0.2081128251
C  C132  1  0.96893000  0.44424000  0.84839000  1.0 -0.2081128251
C  C133  1  0.55576000  0.03107000  0.15161000  1.0 -0.2081128251
C  C134  1  0.03107000  0.87946000  0.47531000  1.0 -0.2081128251
C  C135  1  0.87946000  0.40415000  0.84839000  1.0 -0.2081128251
C  C136  1  0.40415000  0.55576000  0.52469000  1.0 -0.2081128251
C  C137  1  0.55576000  0.40415000  0.52469000  1.0 -0.2081128251
C  C138  1  0.40415000  0.87946000  0.84839000  1.0 -0.2081128251
C  C139  1  0.87946000  0.03107000  0.47531000  1.0 -0.2081128251
C  C140  1  0.03107000  0.55576000  0.15161000  1.0 -0.2081128251
C  C141  1  0.44424000  0.96893000  0.84839000  1.0 -0.2081128251
C  C142  1  0.96893000  0.12054000  0.52469000  1.0 -0.2081128251
C  C143  1  0.12054000  0.59585000  0.15161000  1.0 -0.2081128251
C  C144  1  0.59585000  0.44424000  0.47531000  1.0 -0.2081128251
C  C145  1  0.43905000  0.56095000  0.50000000  1.0 0.0803037529
C  C146  1  0.56095000  0.06095000  0.12190000  1.0 0.0803037529
C  C147  1  0.06095000  0.93905000  0.50000000  1.0 0.0803037529
C  C148  1  0.93905000  0.43905000  0.87810000  1.0 0.0803037529
C  C149  1  0.56095000  0.43905000  0.50000000  1.0 0.0803037529
C  C150  1  0.43905000  0.93905000  0.87810000  1.0 0.0803037529
C  C151  1  0.93905000  0.06095000  0.50000000  1.0 0.0803037529
C  C152  1  0.06095000  0.56095000  0.12190000  1.0 0.0803037529
C  C153  1  0.46939000  0.53061000  0.50000000  1.0 -0.0086293387
C  C154  1  0.53061000  0.03061000  0.06122000  1.0 -0.0086293387
C  C155  1  0.03061000  0.96939000  0.50000000  1.0 -0.0086293387
C  C156  1  0.96939000  0.46939000  0.93878000  1.0 -0.0086293387
C  C157  1  0.53061000  0.46939000  0.50000000  1.0 -0.0086293387
C  C158  1  0.46939000  0.96939000  0.93878000  1.0 -0.0086293387
C  C159  1  0.96939000  0.03061000  0.50000000  1.0 -0.0086293387
C  C160  1  0.03061000  0.53061000  0.06122000  1.0 -0.0086293387
C  C161  1  0.50415000  0.53557000  0.47482000  1.0 0.0359192604
C  C162  1  0.53557000  0.06075000  0.03142000  1.0 0.0359192604
C  C163  1  0.06075000  0.02933000  0.52518000  1.0 0.034449236
C  C164  1  0.02933000  0.50415000  0.96858000  1.0 0.0359192604
C  C165  1  0.49585000  0.97067000  0.03142000  1.0 0.0359192604
C  C166  1  0.97067000  0.93925000  0.47482000  1.0 0.0359192604
C  C167  1  0.93925000  0.46443000  0.96858000  1.0 0.0359192604
C  C168  1  0.46443000  0.49585000  0.52518000  1.0 0.0359192604
C  C169  1  0.49585000  0.46443000  0.52518000  1.0 0.034449236
C  C170  1  0.46443000  0.93925000  0.96858000  1.0 0.0359192604
C  C171  1  0.93925000  0.97067000  0.47482000  1.0 0.0359192604
C  C172  1  0.97067000  0.49585000  0.03142000  1.0 0.0359192604
C  C173  1  0.50415000  0.02933000  0.96858000  1.0 0.034449236
C  C174  1  0.02933000  0.06075000  0.52518000  1.0 0.0359192604
C  C175  1  0.06075000  0.53557000  0.03142000  1.0 0.0359192604
C  C176  1  0.53557000  0.50415000  0.47482000  1.0 0.034449236
C  C177  1  0.50733000  0.57037000  0.45110000  1.0 -0.2005995963
C  C178  1  0.57037000  0.11927000  0.06304000  1.0 -0.2005995963
C  C179  1  0.11927000  0.05623000  0.54890000  1.0 -0.2005995963
C  C180  1  0.05623000  0.50733000  0.93696000  1.0 -0.2005995963
C  C181  1  0.49267000  0.94377000  0.06304000  1.0 -0.2005995963
C  C182  1  0.94377000  0.88073000  0.45110000  1.0 -0.2005995963
C  C183  1  0.88073000  0.42963000  0.93696000  1.0 -0.2005995963
C  C184  1  0.42963000  0.49267000  0.54890000  1.0 -0.2005995963
C  C185  1  0.49267000  0.42963000  0.54890000  1.0 -0.2005995963
C  C186  1  0.42963000  0.88073000  0.93696000  1.0 -0.2005995963
C  C187  1  0.88073000  0.94377000  0.45110000  1.0 -0.2005995963
C  C188  1  0.94377000  0.49267000  0.06304000  1.0 -0.2005995963
C  C189  1  0.50733000  0.05623000  0.93696000  1.0 -0.2005995963
C  C190  1  0.05623000  0.11927000  0.54890000  1.0 -0.2005995963
C  C191  1  0.11927000  0.57037000  0.06304000  1.0 -0.2005995963
C  C192  1  0.57037000  0.50733000  0.45110000  1.0 -0.2005995963
C  C193  1  0.45750000  0.88090000  0.40320000  1.0 -0.0086293387
C  C194  1  0.88090000  0.47770000  0.42340000  1.0 -0.0086293387
C  C195  1  0.47770000  0.05430000  0.59680000  1.0 -0.0086293387
C  C196  1  0.05430000  0.45750000  0.57660000  1.0 -0.0086293387
C  C197  1  0.54250000  0.94570000  0.42340000  1.0 -0.0086293387
C  C198  1  0.94570000  0.52230000  0.40320000  1.0 -0.0086293387
C  C199  1  0.52230000  0.11910000  0.57660000  1.0 -0.0086293387
C  C200  1  0.11910000  0.54250000  0.59680000  1.0 -0.0086293387
C  C201  1  0.54250000  0.11910000  0.59680000  1.0 -0.0086293387
C  C202  1  0.11910000  0.52230000  0.57660000  1.0 -0.0086293387
C  C203  1  0.52230000  0.94570000  0.40320000  1.0 -0.0086293387
C  C204  1  0.94570000  0.54250000  0.42340000  1.0 -0.0086293387
C  C205  1  0.45750000  0.05430000  0.57660000  1.0 -0.0086293387
C  C206  1  0.05430000  0.47770000  0.59680000  1.0 -0.0086293387
C  C207  1  0.47770000  0.88090000  0.42340000  1.0 -0.0086293387
C  C208  1  0.88090000  0.45750000  0.40320000  1.0 -0.0086293387
C  C209  1  0.45620000  0.92202000  0.44462000  1.0 -0.021869263
C  C210  1  0.92202000  0.47740000  0.46582000  1.0 -0.021869263
C  C211  1  0.47740000  0.01158000  0.55538000  1.0 -0.021869263
C  C212  1  0.01158000  0.45620000  0.53418000  1.0 -0.021869263
C  C213  1  0.54380000  0.98842000  0.46582000  1.0 -0.021869263
C  C214  1  0.98842000  0.52260000  0.44462000  1.0 -0.021869263
C  C215  1  0.52260000  0.07798000  0.53418000  1.0 -0.021869263
C  C216  1  0.07798000  0.54380000  0.55538000  1.0 -0.021869263
C  C217  1  0.54380000  0.07798000  0.55538000  1.0 -0.021869263
C  C218  1  0.07798000  0.52260000  0.53418000  1.0 -0.021869263
C  C219  1  0.52260000  0.98842000  0.44462000  1.0 -0.021869263
C  C220  1  0.98842000  0.54380000  0.46582000  1.0 -0.021869263
C  C221  1  0.45620000  0.01158000  0.53418000  1.0 -0.021869263
C  C222  1  0.01158000  0.47740000  0.55538000  1.0 -0.021869263
C  C223  1  0.47740000  0.92202000  0.46582000  1.0 -0.021869263
C  C224  1  0.92202000  0.45620000  0.44462000  1.0 -0.021869263
C  C225  1  0.50000000  0.97755000  0.47755000  1.0 -0.021869263
C  C226  1  0.97755000  0.50000000  0.47755000  1.0 -0.021869263
C  C227  1  0.50000000  0.02245000  0.52245000  1.0 -0.021869263
C  C228  1  0.02245000  0.50000000  0.52245000  1.0 -0.021869263
C  C229  1  0.51460000  0.89960000  0.44440000  1.0 0.0104981554
C  C230  1  0.89960000  0.45520000  0.38500000  1.0 0.0104981554
C  C231  1  0.45520000  0.07020000  0.55560000  1.0 0.0104981554
C  C232  1  0.07020000  0.51460000  0.61500000  1.0 0.0104981554
C  C233  1  0.48540000  0.92980000  0.38500000  1.0 0.0104981554
C  C234  1  0.92980000  0.54480000  0.44440000  1.0 0.0104981554
C  C235  1  0.54480000  0.10040000  0.61500000  1.0 0.0104981554
C  C236  1  0.10040000  0.48540000  0.55560000  1.0 0.0104981554
C  C237  1  0.48540000  0.10040000  0.55560000  1.0 0.0104981554
C  C238  1  0.10040000  0.54480000  0.61500000  1.0 0.0104981554
C  C239  1  0.54480000  0.92980000  0.44440000  1.0 0.0104981554
C  C240  1  0.92980000  0.48540000  0.38500000  1.0 0.0104981554
C  C241  1  0.51460000  0.07020000  0.61500000  1.0 0.0104981554
C  C242  1  0.07020000  0.45520000  0.55560000  1.0 0.0104981554
C  C243  1  0.45520000  0.89960000  0.38500000  1.0 0.0104981554
C  C244  1  0.89960000  0.51460000  0.44440000  1.0 0.0104981554
C  C245  1  0.51760000  0.94180000  0.48800000  1.0 -0.0532598129
C  C246  1  0.94180000  0.45380000  0.42420000  1.0 -0.0532598129
C  C247  1  0.45380000  0.02960000  0.51200000  1.0 -0.0532598129
C  C248  1  0.02960000  0.51760000  0.57580000  1.0 -0.0532598129
C  C249  1  0.48240000  0.97040000  0.42420000  1.0 -0.0532598129
C  C250  1  0.97040000  0.54620000  0.48800000  1.0 -0.0532598129
C  C251  1  0.54620000  0.05820000  0.57580000  1.0 -0.0532598129
C  C252  1  0.05820000  0.48240000  0.51200000  1.0 -0.0532598129
C  C253  1  0.48240000  0.05820000  0.51200000  1.0 -0.0532598129
C  C254  1  0.05820000  0.54620000  0.57580000  1.0 -0.0532598129
C  C255  1  0.54620000  0.97040000  0.48800000  1.0 -0.0532598129
C  C256  1  0.97040000  0.48240000  0.42420000  1.0 -0.0532598129
C  C257  1  0.51760000  0.02960000  0.57580000  1.0 -0.0532598129
C  C258  1  0.02960000  0.45380000  0.51200000  1.0 -0.0532598129
C  C259  1  0.45380000  0.94180000  0.42420000  1.0 -0.0532598129
C  C260  1  0.94180000  0.51760000  0.48800000  1.0 -0.0532598129
N  N1  1  0.50000000  0.89394000  0.39394000  1.0 -0.1576016419
N  N2  1  0.89394000  0.50000000  0.39394000  1.0 -0.1667608418
N  N3  1  0.50000000  0.10606000  0.60606000  1.0 -0.1667608418
N  N4  1  0.10606000  0.50000000  0.60606000  1.0 -0.1576016419
O  O1  1  0.49995000  0.78206000  0.36487000  1.0 -0.5337672853
O  O2  1  0.78206000  0.41719000  0.28211000  1.0 -0.5337672853
O  O3  1  0.41719000  0.13508000  0.63513000  1.0 -0.5337672853
O  O4  1  0.13508000  0.49995000  0.71789000  1.0 -0.5337672853
O  O5  1  0.50005000  0.86492000  0.28211000  1.0 -0.5337672853
O  O6  1  0.86492000  0.58281000  0.36487000  1.0 -0.5337672853
O  O7  1  0.58281000  0.21794000  0.71789000  1.0 -0.5337672853
O  O8  1  0.21794000  0.50005000  0.63513000  1.0 -0.5337672853
O  O9  1  0.50005000  0.21794000  0.63513000  1.0 -0.5337672853
O  O10  1  0.21794000  0.58281000  0.71789000  1.0 -0.5337672853
O  O11  1  0.58281000  0.86492000  0.36487000  1.0 -0.5337672853
O  O12  1  0.86492000  0.50005000  0.28211000  1.0 -0.5337672853
O  O13  1  0.49995000  0.13508000  0.71789000  1.0 -0.5337672853
O  O14  1  0.13508000  0.41719000  0.63513000  1.0 -0.5337672853
O  O15  1  0.41719000  0.78206000  0.28211000  1.0 -0.5337672853
O  O16  1  0.78206000  0.49995000  0.36487000  1.0 -0.5337672853
O  O17  1  0.50008000  0.71453000  0.29669000  1.0 -0.4820771185
O  O18  1  0.71453000  0.41784000  0.21445000  1.0 -0.4820771185
O  O19  1  0.41784000  0.20339000  0.70331000  1.0 -0.4820771185
O  O20  1  0.20339000  0.50008000  0.78555000  1.0 -0.4820771185
O  O21  1  0.49992000  0.79661000  0.21445000  1.0 -0.4820771185
O  O22  1  0.79661000  0.58216000  0.29669000  1.0 -0.4820771185
O  O23  1  0.58216000  0.28547000  0.78555000  1.0 -0.4820771185
O  O24  1  0.28547000  0.49992000  0.70331000  1.0 -0.4820771185
O  O25  1  0.49992000  0.28547000  0.70331000  1.0 -0.4820771185
O  O26  1  0.28547000  0.58216000  0.78555000  1.0 -0.4820771185
O  O27  1  0.58216000  0.79661000  0.29669000  1.0 -0.4820771185
O  O28  1  0.79661000  0.49992000  0.21445000  1.0 -0.4820771185
O  O29  1  0.50008000  0.20339000  0.78555000  1.0 -0.4820771185
O  O30  1  0.20339000  0.41784000  0.70331000  1.0 -0.4820771185
O  O31  1  0.41784000  0.71453000  0.21445000  1.0 -0.4820771185
O  O32  1  0.71453000  0.50008000  0.29669000  1.0 -0.4820771185
