# DDEC6 charges by PACMAN v1.1 (https://github.com/mtap-research/PACMAN-charge/)
data_VABKER_ASR_pacman
_symmetry_space_group_name_H-M   'P 1'
_cell_length_a   29.00370000
_cell_length_b   29.00370000
_cell_length_c   29.00370000
_cell_angle_alpha   109.42900000
_cell_angle_beta   109.42900000
_cell_angle_gamma   109.55500000
_symmetry_Int_Tables_number   1
_chemical_formula_structural   Zn2H40C65NO8
_chemical_formula_sum   'Zn8 H160 C260 N4 O32'
_cell_volume   18781.97874122
_cell_formula_units_Z   4
loop_
 _symmetry_equiv_pos_site_id
 _symmetry_equiv_pos_as_xyz
  1  'x, y, z'
loop_
 _atom_site_type_symbol
 _atom_site_label
 _atom_site_symmetry_multiplicity
 _atom_site_fract_x
 _atom_site_fract_y
 _atom_site_fract_z
 _atom_site_occupancy
 _atom_site_charge
Zn  Zn1  1  0.83389000  0.50000000  0.33389000  1.0 0.7433972948
Zn  Zn2  1  0.50000000  0.83389000  0.33389000  1.0 0.7457646522
Zn  Zn3  1  0.16611000  0.50000000  0.66611000  1.0 0.7433972948
Zn  Zn4  1  0.50000000  0.16611000  0.66611000  1.0 0.7433972948
Zn  Zn5  1  0.74570000  0.50000000  0.24570000  1.0 0.9408522042
Zn  Zn6  1  0.50000000  0.74570000  0.24570000  1.0 0.9408522042
Zn  Zn7  1  0.25430000  0.50000000  0.75430000  1.0 0.9408522042
Zn  Zn8  1  0.50000000  0.25430000  0.75430000  1.0 0.9408522042
H  H1  1  0.75400000  0.49450000  0.43770000  1.0 0.1357130491
H  H2  1  0.31630000  0.75400000  0.25950000  1.0 0.1357130491
H  H3  1  0.05680000  0.31630000  0.56230000  1.0 0.1357130491
H  H4  1  0.49450000  0.05680000  0.74050000  1.0 0.1357130491
H  H5  1  0.94320000  0.50550000  0.25950000  1.0 0.1357130491
H  H6  1  0.68370000  0.94320000  0.43770000  1.0 0.1357130491
H  H7  1  0.24600000  0.68370000  0.74050000  1.0 0.1357130491
H  H8  1  0.50550000  0.24600000  0.56230000  1.0 0.1357130491
H  H9  1  0.24600000  0.50550000  0.56230000  1.0 0.1357130491
H  H10  1  0.68370000  0.24600000  0.74050000  1.0 0.1357130491
H  H11  1  0.94320000  0.68370000  0.43770000  1.0 0.1357130491
H  H12  1  0.50550000  0.94320000  0.25950000  1.0 0.1357130491
H  H13  1  0.05680000  0.49450000  0.74050000  1.0 0.1357130491
H  H14  1  0.31630000  0.05680000  0.56230000  1.0 0.1357130491
H  H15  1  0.75400000  0.31630000  0.25950000  1.0 0.1357130491
H  H16  1  0.49450000  0.75400000  0.43770000  1.0 0.1357130491
H  H17  1  0.69980000  0.48510000  0.47950000  1.0 0.1102041399
H  H18  1  0.22030000  0.69980000  0.21470000  1.0 0.1102041399
H  H19  1  0.00560000  0.22030000  0.52050000  1.0 0.1102041399
H  H20  1  0.48510000  0.00560000  0.78530000  1.0 0.1102041399
H  H21  1  0.99440000  0.51490000  0.21470000  1.0 0.1102041399
H  H22  1  0.77970000  0.99440000  0.47950000  1.0 0.1102041399
H  H23  1  0.30020000  0.77970000  0.78530000  1.0 0.1102041399
H  H24  1  0.51490000  0.30020000  0.52050000  1.0 0.1102041399
H  H25  1  0.30020000  0.51490000  0.52050000  1.0 0.1102041399
H  H26  1  0.77970000  0.30020000  0.78530000  1.0 0.1102041399
H  H27  1  0.99440000  0.77970000  0.47950000  1.0 0.1102041399
H  H28  1  0.51490000  0.99440000  0.21470000  1.0 0.1102041399
H  H29  1  0.00560000  0.48510000  0.78530000  1.0 0.1102041399
H  H30  1  0.22030000  0.00560000  0.52050000  1.0 0.1102041399
H  H31  1  0.69980000  0.22030000  0.21470000  1.0 0.1102041399
H  H32  1  0.48510000  0.69980000  0.47950000  1.0 0.1102041399
H  H33  1  0.58290000  0.48510000  0.35840000  1.0 0.1192202609
H  H34  1  0.22450000  0.58290000  0.09780000  1.0 0.1192202609
H  H35  1  0.12670000  0.22450000  0.64160000  1.0 0.1192202609
H  H36  1  0.48510000  0.12670000  0.90220000  1.0 0.1192202609
H  H37  1  0.87330000  0.51490000  0.09780000  1.0 0.1192202609
H  H38  1  0.77550000  0.87330000  0.35840000  1.0 0.1192202609
H  H39  1  0.41710000  0.77550000  0.90220000  1.0 0.1192202609
H  H40  1  0.51490000  0.41710000  0.64160000  1.0 0.1192202609
H  H41  1  0.41710000  0.51490000  0.64160000  1.0 0.1192202609
H  H42  1  0.77550000  0.41710000  0.90220000  1.0 0.1192202609
H  H43  1  0.87330000  0.77550000  0.35840000  1.0 0.1192202609
H  H44  1  0.51490000  0.87330000  0.09780000  1.0 0.1192202609
H  H45  1  0.12670000  0.48510000  0.90220000  1.0 0.1192202609
H  H46  1  0.22450000  0.12670000  0.64160000  1.0 0.1192202609
H  H47  1  0.58290000  0.22450000  0.09780000  1.0 0.1192202609
H  H48  1  0.48510000  0.58290000  0.35840000  1.0 0.1192202609
H  H49  1  0.63670000  0.49300000  0.31630000  1.0 0.1192202609
H  H50  1  0.32040000  0.63670000  0.14370000  1.0 0.1192202609
H  H51  1  0.17670000  0.32040000  0.68370000  1.0 0.1192202609
H  H52  1  0.49300000  0.17670000  0.85630000  1.0 0.1192202609
H  H53  1  0.82330000  0.50700000  0.14370000  1.0 0.1192202609
H  H54  1  0.67960000  0.82330000  0.31630000  1.0 0.1192202609
H  H55  1  0.36330000  0.67960000  0.85630000  1.0 0.1192202609
H  H56  1  0.50700000  0.36330000  0.68370000  1.0 0.1192202609
H  H57  1  0.36330000  0.50700000  0.68370000  1.0 0.1192202609
H  H58  1  0.67960000  0.36330000  0.85630000  1.0 0.1192202609
H  H59  1  0.82330000  0.67960000  0.31630000  1.0 0.1192202609
H  H60  1  0.50700000  0.82330000  0.14370000  1.0 0.1192202609
H  H61  1  0.17670000  0.49300000  0.85630000  1.0 0.1192202609
H  H62  1  0.32040000  0.17670000  0.68370000  1.0 0.1192202609
H  H63  1  0.63670000  0.32040000  0.14370000  1.0 0.1192202609
H  H64  1  0.49300000  0.63670000  0.31630000  1.0 0.1192202609
H  H65  1  0.61250000  0.42370000  0.47300000  1.0 0.1102041399
H  H66  1  0.13950000  0.61250000  0.18880000  1.0 0.1102041399
H  H67  1  0.95070000  0.13950000  0.52700000  1.0 0.1102041399
H  H68  1  0.42370000  0.95070000  0.81120000  1.0 0.1102041399
H  H69  1  0.04930000  0.57630000  0.18880000  1.0 0.1102041399
H  H70  1  0.86050000  0.04930000  0.47300000  1.0 0.1102041399
H  H71  1  0.38750000  0.86050000  0.81120000  1.0 0.1102041399
H  H72  1  0.57630000  0.38750000  0.52700000  1.0 0.1102041399
H  H73  1  0.38750000  0.57630000  0.52700000  1.0 0.1102041399
H  H74  1  0.86050000  0.38750000  0.81120000  1.0 0.1102041399
H  H75  1  0.04930000  0.86050000  0.47300000  1.0 0.1102041399
H  H76  1  0.57630000  0.04930000  0.18880000  1.0 0.1102041399
H  H77  1  0.95070000  0.42370000  0.81120000  1.0 0.1102041399
H  H78  1  0.13950000  0.95070000  0.52700000  1.0 0.1102041399
H  H79  1  0.61250000  0.13950000  0.18880000  1.0 0.1102041399
H  H80  1  0.42370000  0.61250000  0.47300000  1.0 0.1102041399
H  H81  1  0.57420000  0.53150000  0.43590000  1.0 0.1102041399
H  H82  1  0.13830000  0.57420000  0.04270000  1.0 0.1102041399
H  H83  1  0.09560000  0.13830000  0.56410000  1.0 0.1102041399
H  H84  1  0.53150000  0.09560000  0.95730000  1.0 0.1102041399
H  H85  1  0.90440000  0.46850000  0.04270000  1.0 0.1102041399
H  H86  1  0.86170000  0.90440000  0.43590000  1.0 0.1102041399
H  H87  1  0.42580000  0.86170000  0.95730000  1.0 0.1102041399
H  H88  1  0.46850000  0.42580000  0.56410000  1.0 0.1102041399
H  H89  1  0.42580000  0.46850000  0.56410000  1.0 0.1102041399
H  H90  1  0.86170000  0.42580000  0.95730000  1.0 0.1102041399
H  H91  1  0.90440000  0.86170000  0.43590000  1.0 0.1102041399
H  H92  1  0.46850000  0.90440000  0.04270000  1.0 0.1102041399
H  H93  1  0.09560000  0.53150000  0.95730000  1.0 0.1102041399
H  H94  1  0.13830000  0.09560000  0.56410000  1.0 0.1102041399
H  H95  1  0.57420000  0.13830000  0.04270000  1.0 0.1102041399
H  H96  1  0.53150000  0.57420000  0.43590000  1.0 0.1102041399
H  H97  1  0.84570000  0.42800000  0.38450000  1.0 0.0469759048
H  H98  1  0.46120000  0.84570000  0.41770000  1.0 0.0469759048
H  H99  1  0.04350000  0.46120000  0.61550000  1.0 0.0469759048
H  H100  1  0.42800000  0.04350000  0.58230000  1.0 0.0469759048
H  H101  1  0.95650000  0.57200000  0.41770000  1.0 0.0469759048
H  H102  1  0.53880000  0.95650000  0.38450000  1.0 0.0469759048
H  H103  1  0.15430000  0.53880000  0.58230000  1.0 0.0469759048
H  H104  1  0.57200000  0.15430000  0.61550000  1.0 0.0469759048
H  H105  1  0.15430000  0.57200000  0.61550000  1.0 0.0469759048
H  H106  1  0.53880000  0.15430000  0.58230000  1.0 0.0469759048
H  H107  1  0.95650000  0.53880000  0.38450000  1.0 0.0469759048
H  H108  1  0.57200000  0.95650000  0.41770000  1.0 0.0469759048
H  H109  1  0.04350000  0.42800000  0.58230000  1.0 0.0469759048
H  H110  1  0.46120000  0.04350000  0.61550000  1.0 0.0469759048
H  H111  1  0.84570000  0.46120000  0.41770000  1.0 0.0469759048
H  H112  1  0.42800000  0.84570000  0.38450000  1.0 0.0469759048
H  H113  1  0.91200000  0.42540000  0.45100000  1.0 0.0402397138
H  H114  1  0.46100000  0.91200000  0.48660000  1.0 0.0402397138
H  H115  1  0.97440000  0.46100000  0.54900000  1.0 0.0402397138
H  H116  1  0.42540000  0.97440000  0.51340000  1.0 0.0402397138
H  H117  1  0.02560000  0.57460000  0.48660000  1.0 0.0402397138
H  H118  1  0.53900000  0.02560000  0.45100000  1.0 0.0402397138
H  H119  1  0.08800000  0.53900000  0.51340000  1.0 0.0402397138
H  H120  1  0.57460000  0.08800000  0.54900000  1.0 0.0402397138
H  H121  1  0.08800000  0.57460000  0.54900000  1.0 0.0402397138
H  H122  1  0.53900000  0.08800000  0.51340000  1.0 0.0402397138
H  H123  1  0.02560000  0.53900000  0.45100000  1.0 0.0402397138
H  H124  1  0.57460000  0.02560000  0.48660000  1.0 0.0402397138
H  H125  1  0.97440000  0.42540000  0.51340000  1.0 0.0402397138
H  H126  1  0.46100000  0.97440000  0.54900000  1.0 0.0402397138
H  H127  1  0.91200000  0.46100000  0.48660000  1.0 0.0402397138
H  H128  1  0.42540000  0.91200000  0.45100000  1.0 0.0402397138
H  H129  1  0.86780000  0.51310000  0.44870000  1.0 0.0641968719
H  H130  1  0.41910000  0.86780000  0.35470000  1.0 0.0641968719
H  H131  1  0.06440000  0.41910000  0.55130000  1.0 0.0641968719
H  H132  1  0.51310000  0.06440000  0.64530000  1.0 0.0641968719
H  H133  1  0.93560000  0.48690000  0.35470000  1.0 0.0641968719
H  H134  1  0.58090000  0.93560000  0.44870000  1.0 0.0641968719
H  H135  1  0.13220000  0.58090000  0.64530000  1.0 0.0641968719
H  H136  1  0.48690000  0.13220000  0.55130000  1.0 0.0641968719
H  H137  1  0.13220000  0.48690000  0.55130000  1.0 0.0641968719
H  H138  1  0.58090000  0.13220000  0.64530000  1.0 0.0641968719
H  H139  1  0.93560000  0.58090000  0.44870000  1.0 0.0641968719
H  H140  1  0.48690000  0.93560000  0.35470000  1.0 0.0641968719
H  H141  1  0.06440000  0.51310000  0.64530000  1.0 0.0641968719
H  H142  1  0.41910000  0.06440000  0.55130000  1.0 0.0641968719
H  H143  1  0.86780000  0.41910000  0.35470000  1.0 0.0641968719
H  H144  1  0.51310000  0.86780000  0.44870000  1.0 0.0641968719
H  H145  1  0.93810000  0.51930000  0.51920000  1.0 0.070710431
H  H146  1  0.41890000  0.93810000  0.41880000  1.0 0.070710431
H  H147  1  0.00010000  0.41890000  0.48080000  1.0 0.070710431
H  H148  1  0.51930000  0.00010000  0.58120000  1.0 0.070710431
H  H149  1  0.99990000  0.48070000  0.41880000  1.0 0.070710431
H  H150  1  0.58110000  0.99990000  0.51920000  1.0 0.070710431
H  H151  1  0.06190000  0.58110000  0.58120000  1.0 0.070710431
H  H152  1  0.48070000  0.06190000  0.48080000  1.0 0.070710431
H  H153  1  0.06190000  0.48070000  0.48080000  1.0 0.070710431
H  H154  1  0.58110000  0.06190000  0.58120000  1.0 0.070710431
H  H155  1  0.99990000  0.58110000  0.51920000  1.0 0.070710431
H  H156  1  0.48070000  0.99990000  0.41880000  1.0 0.070710431
H  H157  1  0.00010000  0.51930000  0.58120000  1.0 0.070710431
H  H158  1  0.41890000  0.00010000  0.48080000  1.0 0.070710431
H  H159  1  0.93810000  0.41890000  0.41880000  1.0 0.070710431
H  H160  1  0.51930000  0.93810000  0.51920000  1.0 0.070710431
C  C1  1  0.73516000  0.49799000  0.34331000  1.0 0.5818767677
C  C2  1  0.39185000  0.73516000  0.23717000  1.0 0.5818767677
C  C3  1  0.15468000  0.39185000  0.65669000  1.0 0.5818767677
C  C4  1  0.49799000  0.15468000  0.76283000  1.0 0.5818767677
C  C5  1  0.84532000  0.50201000  0.23717000  1.0 0.5818767677
C  C6  1  0.60815000  0.84532000  0.34331000  1.0 0.5818767677
C  C7  1  0.26484000  0.60815000  0.76283000  1.0 0.5818767677
C  C8  1  0.50201000  0.26484000  0.65669000  1.0 0.5818767677
C  C9  1  0.26484000  0.50201000  0.65669000  1.0 0.5818767677
C  C10  1  0.60815000  0.26484000  0.76283000  1.0 0.5818767677
C  C11  1  0.84532000  0.60815000  0.34331000  1.0 0.5818767677
C  C12  1  0.50201000  0.84532000  0.23717000  1.0 0.5818767677
C  C13  1  0.15468000  0.49799000  0.76283000  1.0 0.5818767677
C  C14  1  0.39185000  0.15468000  0.65669000  1.0 0.5818767677
C  C15  1  0.73516000  0.39185000  0.23717000  1.0 0.5818767677
C  C16  1  0.49799000  0.73516000  0.34331000  1.0 0.5818767677
C  C17  1  0.70146000  0.49438000  0.37250000  1.0 -0.0303783222
C  C18  1  0.32896000  0.70146000  0.20708000  1.0 -0.0303783222
C  C19  1  0.12188000  0.32896000  0.62750000  1.0 -0.0303783222
C  C20  1  0.49438000  0.12188000  0.79292000  1.0 -0.0303783222
C  C21  1  0.87812000  0.50562000  0.20708000  1.0 -0.0303783222
C  C22  1  0.67104000  0.87812000  0.37250000  1.0 -0.0303783222
C  C23  1  0.29854000  0.67104000  0.79292000  1.0 -0.0303783222
C  C24  1  0.50562000  0.29854000  0.62750000  1.0 -0.0303783222
C  C25  1  0.29854000  0.50562000  0.62750000  1.0 -0.0303783222
C  C26  1  0.67104000  0.29854000  0.79292000  1.0 -0.0303783222
C  C27  1  0.87812000  0.67104000  0.37250000  1.0 -0.0303783222
C  C28  1  0.50562000  0.87812000  0.20708000  1.0 -0.0303783222
C  C29  1  0.12188000  0.49438000  0.79292000  1.0 -0.0303783222
C  C30  1  0.32896000  0.12188000  0.62750000  1.0 -0.0303783222
C  C31  1  0.70146000  0.32896000  0.20708000  1.0 -0.0303783222
C  C32  1  0.49438000  0.70146000  0.37250000  1.0 -0.0303783222
C  C33  1  0.71925000  0.49227000  0.42134000  1.0 -0.1121058044
C  C34  1  0.29791000  0.71925000  0.22698000  1.0 -0.1121058044
C  C35  1  0.07093000  0.29791000  0.57866000  1.0 -0.1121058044
C  C36  1  0.49227000  0.07093000  0.77302000  1.0 -0.1121058044
C  C37  1  0.92907000  0.50773000  0.22698000  1.0 -0.1121058044
C  C38  1  0.70209000  0.92907000  0.42134000  1.0 -0.1121058044
C  C39  1  0.28075000  0.70209000  0.77302000  1.0 -0.1121058044
C  C40  1  0.50773000  0.28075000  0.57866000  1.0 -0.1121058044
C  C41  1  0.28075000  0.50773000  0.57866000  1.0 -0.1121058044
C  C42  1  0.70209000  0.28075000  0.77302000  1.0 -0.1121058044
C  C43  1  0.92907000  0.70209000  0.42134000  1.0 -0.1121058044
C  C44  1  0.50773000  0.92907000  0.22698000  1.0 -0.1121058044
C  C45  1  0.07093000  0.49227000  0.77302000  1.0 -0.1121058044
C  C46  1  0.29791000  0.07093000  0.57866000  1.0 -0.1121058044
C  C47  1  0.71925000  0.29791000  0.22698000  1.0 -0.1152010319
C  C48  1  0.49227000  0.71925000  0.42134000  1.0 -0.1121058044
C  C49  1  0.68689000  0.48698000  0.44661000  1.0 -0.1494549055
C  C50  1  0.24028000  0.68689000  0.19991000  1.0 -0.1494549055
C  C51  1  0.04037000  0.24028000  0.55339000  1.0 -0.1494549055
C  C52  1  0.48698000  0.04037000  0.80009000  1.0 -0.1494549055
C  C53  1  0.95963000  0.51302000  0.19991000  1.0 -0.1494549055
C  C54  1  0.75972000  0.95963000  0.44661000  1.0 -0.1494549055
C  C55  1  0.31311000  0.75972000  0.80009000  1.0 -0.1494549055
C  C56  1  0.51302000  0.31311000  0.55339000  1.0 -0.1494549055
C  C57  1  0.31311000  0.51302000  0.55339000  1.0 -0.1494549055
C  C58  1  0.75972000  0.31311000  0.80009000  1.0 -0.1494549055
C  C59  1  0.95963000  0.75972000  0.44661000  1.0 -0.1494549055
C  C60  1  0.51302000  0.95963000  0.19991000  1.0 -0.1494549055
C  C61  1  0.04037000  0.48698000  0.80009000  1.0 -0.1494549055
C  C62  1  0.24028000  0.04037000  0.55339000  1.0 -0.1494549055
C  C63  1  0.68689000  0.24028000  0.19991000  1.0 -0.1494549055
C  C64  1  0.48698000  0.68689000  0.44661000  1.0 -0.1494549055
C  C65  1  0.63542000  0.48441000  0.42415000  1.0 0.0799802491
C  C66  1  0.21127000  0.63542000  0.15101000  1.0 0.0799802491
C  C67  1  0.06026000  0.21127000  0.57585000  1.0 0.0799802491
C  C68  1  0.48441000  0.06026000  0.84899000  1.0 0.0799802491
C  C69  1  0.93974000  0.51559000  0.15101000  1.0 0.0799802491
C  C70  1  0.78873000  0.93974000  0.42415000  1.0 0.0799802491
C  C71  1  0.36458000  0.78873000  0.84899000  1.0 0.0799802491
C  C72  1  0.51559000  0.36458000  0.57585000  1.0 0.0799802491
C  C73  1  0.36458000  0.51559000  0.57585000  1.0 0.0799802491
C  C74  1  0.78873000  0.36458000  0.84899000  1.0 0.0799802491
C  C75  1  0.93974000  0.78873000  0.42415000  1.0 0.0799802491
C  C76  1  0.51559000  0.93974000  0.15101000  1.0 0.0799802491
C  C77  1  0.06026000  0.48441000  0.84899000  1.0 0.0799802491
C  C78  1  0.21127000  0.06026000  0.57585000  1.0 0.0799802491
C  C79  1  0.63542000  0.21127000  0.15101000  1.0 0.0799802491
C  C80  1  0.48441000  0.63542000  0.42415000  1.0 0.0799802491
C  C81  1  0.61736000  0.48678000  0.37458000  1.0 -0.1572468135
C  C82  1  0.24278000  0.61736000  0.13058000  1.0 -0.1572468135
C  C83  1  0.11220000  0.24278000  0.62542000  1.0 -0.1494549055
C  C84  1  0.48678000  0.11220000  0.86942000  1.0 -0.1494549055
C  C85  1  0.88780000  0.51322000  0.13058000  1.0 -0.1494549055
C  C86  1  0.75722000  0.88780000  0.37458000  1.0 -0.1572468135
C  C87  1  0.38264000  0.75722000  0.86942000  1.0 -0.1494549055
C  C88  1  0.51322000  0.38264000  0.62542000  1.0 -0.1572468135
C  C89  1  0.38264000  0.51322000  0.62542000  1.0 -0.1572468135
C  C90  1  0.75722000  0.38264000  0.86942000  1.0 -0.1572468135
C  C91  1  0.88780000  0.75722000  0.37458000  1.0 -0.1572468135
C  C92  1  0.51322000  0.88780000  0.13058000  1.0 -0.1572468135
C  C93  1  0.11220000  0.48678000  0.86942000  1.0 -0.1572468135
C  C94  1  0.24278000  0.11220000  0.62542000  1.0 -0.1572468135
C  C95  1  0.61736000  0.24278000  0.13058000  1.0 -0.1494549055
C  C96  1  0.48678000  0.61736000  0.37458000  1.0 -0.1494549055
C  C97  1  0.64965000  0.49161000  0.34944000  1.0 -0.0954640887
C  C98  1  0.30021000  0.64965000  0.15804000  1.0 -0.0954640887
C  C99  1  0.14217000  0.30021000  0.65056000  1.0 -0.0954640887
C  C100  1  0.49161000  0.14217000  0.84196000  1.0 -0.0954640887
C  C101  1  0.85783000  0.50839000  0.15804000  1.0 -0.0954640887
C  C102  1  0.69979000  0.85783000  0.34944000  1.0 -0.0941257161
C  C103  1  0.35035000  0.69979000  0.84196000  1.0 -0.0954640887
C  C104  1  0.50839000  0.35035000  0.65056000  1.0 -0.0954640887
C  C105  1  0.35035000  0.50839000  0.65056000  1.0 -0.0954640887
C  C106  1  0.69979000  0.35035000  0.84196000  1.0 -0.0941257161
C  C107  1  0.85783000  0.69979000  0.34944000  1.0 -0.0954640887
C  C108  1  0.50839000  0.85783000  0.15804000  1.0 -0.0941257161
C  C109  1  0.14217000  0.49161000  0.84196000  1.0 -0.0941257161
C  C110  1  0.30021000  0.14217000  0.65056000  1.0 -0.0954640887
C  C111  1  0.64965000  0.30021000  0.15804000  1.0 -0.0954640887
C  C112  1  0.49161000  0.64965000  0.34944000  1.0 -0.0954640887
C  C113  1  0.59973000  0.47904000  0.45101000  1.0 0.070710431
C  C114  1  0.14872000  0.59973000  0.12069000  1.0 0.070710431
C  C115  1  0.02803000  0.14872000  0.54899000  1.0 0.070710431
C  C116  1  0.47904000  0.02803000  0.87931000  1.0 0.070710431
C  C117  1  0.97197000  0.52096000  0.12069000  1.0 0.070710431
C  C118  1  0.85128000  0.97197000  0.45101000  1.0 0.070710431
C  C119  1  0.40027000  0.85128000  0.87931000  1.0 0.070710431
C  C120  1  0.52096000  0.40027000  0.54899000  1.0 0.070710431
C  C121  1  0.40027000  0.52096000  0.54899000  1.0 0.070710431
C  C122  1  0.85128000  0.40027000  0.87931000  1.0 0.070710431
C  C123  1  0.97197000  0.85128000  0.45101000  1.0 0.070710431
C  C124  1  0.52096000  0.97197000  0.12069000  1.0 0.070710431
C  C125  1  0.02803000  0.47904000  0.87931000  1.0 0.070710431
C  C126  1  0.14872000  0.02803000  0.54899000  1.0 0.070710431
C  C127  1  0.59973000  0.14872000  0.12069000  1.0 0.070710431
C  C128  1  0.47904000  0.59973000  0.45101000  1.0 0.070710431
C  C129  1  0.59393000  0.44436000  0.47429000  1.0 -0.2093136004
C  C130  1  0.11964000  0.59393000  0.14957000  1.0 -0.2093136004
C  C131  1  0.97007000  0.11964000  0.52571000  1.0 -0.2093136004
C  C132  1  0.44436000  0.97007000  0.85043000  1.0 -0.2093136004
C  C133  1  0.02993000  0.55564000  0.14957000  1.0 -0.2093136004
C  C134  1  0.88036000  0.02993000  0.47429000  1.0 -0.2093136004
C  C135  1  0.40607000  0.88036000  0.85043000  1.0 -0.2093136004
C  C136  1  0.55564000  0.40607000  0.52571000  1.0 -0.2093136004
C  C137  1  0.40607000  0.55564000  0.52571000  1.0 -0.2093136004
C  C138  1  0.88036000  0.40607000  0.85043000  1.0 -0.2093136004
C  C139  1  0.02993000  0.88036000  0.47429000  1.0 -0.2093136004
C  C140  1  0.55564000  0.02993000  0.14957000  1.0 -0.2093136004
C  C141  1  0.97007000  0.44436000  0.85043000  1.0 -0.2093136004
C  C142  1  0.11964000  0.97007000  0.52571000  1.0 -0.2093136004
C  C143  1  0.59393000  0.11964000  0.14957000  1.0 -0.2093136004
C  C144  1  0.44436000  0.59393000  0.47429000  1.0 -0.2093136004
C  C145  1  0.56030000  0.43970000  0.50000000  1.0 0.0799802491
C  C146  1  0.06030000  0.56030000  0.12060000  1.0 0.0799802491
C  C147  1  0.93970000  0.06030000  0.50000000  1.0 0.0799802491
C  C148  1  0.43970000  0.93970000  0.87940000  1.0 0.0799802491
C  C149  1  0.43970000  0.56030000  0.50000000  1.0 0.085868189
C  C150  1  0.93970000  0.43970000  0.87940000  1.0 0.085868189
C  C151  1  0.06030000  0.93970000  0.50000000  1.0 0.0799802491
C  C152  1  0.56030000  0.06030000  0.12060000  1.0 0.0799802491
C  C153  1  0.53013000  0.46987000  0.50000000  1.0 -0.0118164402
C  C154  1  0.03013000  0.53013000  0.06026000  1.0 -0.0118164402
C  C155  1  0.96987000  0.03013000  0.50000000  1.0 -0.0118164402
C  C156  1  0.46987000  0.96987000  0.93974000  1.0 -0.0118164402
C  C157  1  0.46987000  0.53013000  0.50000000  1.0 -0.0118164402
C  C158  1  0.96987000  0.46987000  0.93974000  1.0 -0.0118164402
C  C159  1  0.03013000  0.96987000  0.50000000  1.0 -0.0118164402
C  C160  1  0.53013000  0.03013000  0.06026000  1.0 -0.0118164402
C  C161  1  0.53529000  0.50407000  0.47442000  1.0 0.0402397138
C  C162  1  0.06087000  0.53529000  0.03122000  1.0 0.0402397138
C  C163  1  0.02965000  0.06087000  0.52558000  1.0 0.0402397138
C  C164  1  0.50407000  0.02965000  0.96878000  1.0 0.0402397138
C  C165  1  0.97035000  0.49593000  0.03122000  1.0 0.0402397138
C  C166  1  0.93913000  0.97035000  0.47442000  1.0 0.0402397138
C  C167  1  0.46471000  0.93913000  0.96878000  1.0 0.0402397138
C  C168  1  0.49593000  0.46471000  0.52558000  1.0 0.0402397138
C  C169  1  0.46471000  0.49593000  0.52558000  1.0 0.0402397138
C  C170  1  0.93913000  0.46471000  0.96878000  1.0 0.0402397138
C  C171  1  0.97035000  0.93913000  0.47442000  1.0 0.0402397138
C  C172  1  0.49593000  0.97035000  0.03122000  1.0 0.0402397138
C  C173  1  0.02965000  0.50407000  0.96878000  1.0 0.0402397138
C  C174  1  0.06087000  0.02965000  0.52558000  1.0 0.0402397138
C  C175  1  0.53529000  0.06087000  0.03122000  1.0 0.0402397138
C  C176  1  0.50407000  0.53529000  0.47442000  1.0 0.0402397138
C  C177  1  0.57018000  0.50822000  0.45158000  1.0 -0.2010181734
C  C178  1  0.11860000  0.57018000  0.06196000  1.0 -0.2010181734
C  C179  1  0.05664000  0.11860000  0.54842000  1.0 -0.2010181734
C  C180  1  0.50822000  0.05664000  0.93804000  1.0 -0.2010181734
C  C181  1  0.94336000  0.49178000  0.06196000  1.0 -0.2010181734
C  C182  1  0.88140000  0.94336000  0.45158000  1.0 -0.2010181734
C  C183  1  0.42982000  0.88140000  0.93804000  1.0 -0.2010181734
C  C184  1  0.49178000  0.42982000  0.54842000  1.0 -0.2010181734
C  C185  1  0.42982000  0.49178000  0.54842000  1.0 -0.2010181734
C  C186  1  0.88140000  0.42982000  0.93804000  1.0 -0.2010181734
C  C187  1  0.94336000  0.88140000  0.45158000  1.0 -0.2010181734
C  C188  1  0.49178000  0.94336000  0.06196000  1.0 -0.2010181734
C  C189  1  0.05664000  0.50822000  0.93804000  1.0 -0.2010181734
C  C190  1  0.11860000  0.05664000  0.54842000  1.0 -0.2010181734
C  C191  1  0.57018000  0.11860000  0.06196000  1.0 -0.2010181734
C  C192  1  0.50822000  0.57018000  0.45158000  1.0 -0.2010181734
C  C193  1  0.88276000  0.45763000  0.40513000  1.0 -0.0032228318
C  C194  1  0.47763000  0.88276000  0.42513000  1.0 -0.0032228318
C  C195  1  0.05250000  0.47763000  0.59487000  1.0 -0.0032228318
C  C196  1  0.45763000  0.05250000  0.57487000  1.0 -0.0032228318
C  C197  1  0.94750000  0.54237000  0.42513000  1.0 -0.0032228318
C  C198  1  0.52237000  0.94750000  0.40513000  1.0 -0.0032228318
C  C199  1  0.11724000  0.52237000  0.57487000  1.0 -0.0032228318
C  C200  1  0.54237000  0.11724000  0.59487000  1.0 -0.0032228318
C  C201  1  0.11724000  0.54237000  0.59487000  1.0 -0.0032228318
C  C202  1  0.52237000  0.11724000  0.57487000  1.0 -0.0032228318
C  C203  1  0.94750000  0.52237000  0.40513000  1.0 -0.0032228318
C  C204  1  0.54237000  0.94750000  0.42513000  1.0 -0.0032228318
C  C205  1  0.05250000  0.45763000  0.57487000  1.0 -0.0032228318
C  C206  1  0.47763000  0.05250000  0.59487000  1.0 -0.0032228318
C  C207  1  0.88276000  0.47763000  0.42513000  1.0 -0.0032228318
C  C208  1  0.45763000  0.88276000  0.40513000  1.0 -0.0032228318
C  C209  1  0.92172000  0.45612000  0.44520000  1.0 -0.0174731891
C  C210  1  0.47652000  0.92172000  0.46560000  1.0 -0.0174731891
C  C211  1  0.01092000  0.47652000  0.55480000  1.0 -0.0174731891
C  C212  1  0.45612000  0.01092000  0.53440000  1.0 -0.0174731891
C  C213  1  0.98908000  0.54388000  0.46560000  1.0 -0.0174731891
C  C214  1  0.52348000  0.98908000  0.44520000  1.0 -0.0174731891
C  C215  1  0.07828000  0.52348000  0.53440000  1.0 -0.0174731891
C  C216  1  0.54388000  0.07828000  0.55480000  1.0 -0.0174731891
C  C217  1  0.07828000  0.54388000  0.55480000  1.0 -0.0174731891
C  C218  1  0.52348000  0.07828000  0.53440000  1.0 -0.0174731891
C  C219  1  0.98908000  0.52348000  0.44520000  1.0 -0.0174731891
C  C220  1  0.54388000  0.98908000  0.46560000  1.0 -0.0174731891
C  C221  1  0.01092000  0.45612000  0.53440000  1.0 -0.0174731891
C  C222  1  0.47652000  0.01092000  0.55480000  1.0 -0.0174731891
C  C223  1  0.92172000  0.47652000  0.46560000  1.0 -0.0174731891
C  C224  1  0.45612000  0.92172000  0.44520000  1.0 -0.0174731891
C  C225  1  0.97766000  0.50000000  0.47766000  1.0 0.0190851329
C  C226  1  0.50000000  0.97766000  0.47766000  1.0 0.0190851329
C  C227  1  0.02234000  0.50000000  0.52234000  1.0 0.0190851329
C  C228  1  0.50000000  0.02234000  0.52234000  1.0 0.0190851329
C  C229  1  0.89650000  0.50890000  0.44360000  1.0 -0.0303783222
C  C230  1  0.45290000  0.89650000  0.38760000  1.0 -0.0303783222
C  C231  1  0.06530000  0.45290000  0.55640000  1.0 -0.0303783222
C  C232  1  0.50890000  0.06530000  0.61240000  1.0 -0.0303783222
C  C233  1  0.93470000  0.49110000  0.38760000  1.0 -0.0303783222
C  C234  1  0.54710000  0.93470000  0.44360000  1.0 -0.0303783222
C  C235  1  0.10350000  0.54710000  0.61240000  1.0 -0.0303783222
C  C236  1  0.49110000  0.10350000  0.55640000  1.0 -0.0303783222
C  C237  1  0.10350000  0.49110000  0.55640000  1.0 -0.0303783222
C  C238  1  0.54710000  0.10350000  0.61240000  1.0 -0.0303783222
C  C239  1  0.93470000  0.54710000  0.44360000  1.0 -0.0303783222
C  C240  1  0.49110000  0.93470000  0.38760000  1.0 -0.0303783222
C  C241  1  0.06530000  0.50890000  0.61240000  1.0 -0.0303783222
C  C242  1  0.45290000  0.06530000  0.55640000  1.0 -0.0303783222
C  C243  1  0.89650000  0.45290000  0.38760000  1.0 -0.0303783222
C  C244  1  0.50890000  0.89650000  0.44360000  1.0 -0.0303783222
C  C245  1  0.93652000  0.51010000  0.48462000  1.0 -0.0596741329
C  C246  1  0.45190000  0.93652000  0.42642000  1.0 -0.0596741329
C  C247  1  0.02548000  0.45190000  0.51538000  1.0 -0.0596741329
C  C248  1  0.51010000  0.02548000  0.57358000  1.0 -0.0596741329
C  C249  1  0.97452000  0.48990000  0.42642000  1.0 -0.0596741329
C  C250  1  0.54810000  0.97452000  0.48462000  1.0 -0.0596741329
C  C251  1  0.06348000  0.54810000  0.57358000  1.0 -0.0596741329
C  C252  1  0.48990000  0.06348000  0.51538000  1.0 -0.0596741329
C  C253  1  0.06348000  0.48990000  0.51538000  1.0 -0.0596741329
C  C254  1  0.54810000  0.06348000  0.57358000  1.0 -0.0596741329
C  C255  1  0.97452000  0.54810000  0.48462000  1.0 -0.0596741329
C  C256  1  0.48990000  0.97452000  0.42642000  1.0 -0.0596741329
C  C257  1  0.02548000  0.51010000  0.57358000  1.0 -0.0596741329
C  C258  1  0.45190000  0.02548000  0.51538000  1.0 -0.0596741329
C  C259  1  0.93652000  0.45190000  0.42642000  1.0 -0.0596741329
C  C260  1  0.51010000  0.93652000  0.48462000  1.0 -0.0596741329
N  N1  1  0.89415000  0.50000000  0.39415000  1.0 -0.1572468135
N  N2  1  0.50000000  0.89415000  0.39415000  1.0 -0.1572468135
N  N3  1  0.10585000  0.50000000  0.60585000  1.0 -0.1572468135
N  N4  1  0.50000000  0.10585000  0.60585000  1.0 -0.1572468135
O  O1  1  0.78115000  0.49923000  0.36542000  1.0 -0.5452094801
O  O2  1  0.41573000  0.78115000  0.28192000  1.0 -0.5452094801
O  O3  1  0.13381000  0.41573000  0.63458000  1.0 -0.5452094801
O  O4  1  0.49923000  0.13381000  0.71808000  1.0 -0.5452094801
O  O5  1  0.86619000  0.50077000  0.28192000  1.0 -0.5440881458
O  O6  1  0.58427000  0.86619000  0.36542000  1.0 -0.5452094801
O  O7  1  0.21885000  0.58427000  0.71808000  1.0 -0.5452094801
O  O8  1  0.50077000  0.21885000  0.63458000  1.0 -0.5452094801
O  O9  1  0.21885000  0.50077000  0.63458000  1.0 -0.5452094801
O  O10  1  0.58427000  0.21885000  0.71808000  1.0 -0.5452094801
O  O11  1  0.86619000  0.58427000  0.36542000  1.0 -0.5452094801
O  O12  1  0.50077000  0.86619000  0.28192000  1.0 -0.5452094801
O  O13  1  0.13381000  0.49923000  0.71808000  1.0 -0.5452094801
O  O14  1  0.41573000  0.13381000  0.63458000  1.0 -0.5452094801
O  O15  1  0.78115000  0.41573000  0.28192000  1.0 -0.5452094801
O  O16  1  0.49923000  0.78115000  0.36542000  1.0 -0.5452094801
O  O17  1  0.71509000  0.49931000  0.29840000  1.0 -0.5133774114
O  O18  1  0.41669000  0.71509000  0.21578000  1.0 -0.5133774114
O  O19  1  0.20091000  0.41669000  0.70160000  1.0 -0.5133774114
O  O20  1  0.49931000  0.20091000  0.78422000  1.0 -0.5133774114
O  O21  1  0.79909000  0.50069000  0.21578000  1.0 -0.5133774114
O  O22  1  0.58331000  0.79909000  0.29840000  1.0 -0.5133774114
O  O23  1  0.28491000  0.58331000  0.78422000  1.0 -0.5133774114
O  O24  1  0.50069000  0.28491000  0.70160000  1.0 -0.5133774114
O  O25  1  0.28491000  0.50069000  0.70160000  1.0 -0.5133774114
O  O26  1  0.58331000  0.28491000  0.78422000  1.0 -0.5133774114
O  O27  1  0.79909000  0.58331000  0.29840000  1.0 -0.5133774114
O  O28  1  0.50069000  0.79909000  0.21578000  1.0 -0.5133774114
O  O29  1  0.20091000  0.49931000  0.78422000  1.0 -0.5133774114
O  O30  1  0.41669000  0.20091000  0.70160000  1.0 -0.5133774114
O  O31  1  0.71509000  0.41669000  0.21578000  1.0 -0.5133774114
O  O32  1  0.49931000  0.71509000  0.29840000  1.0 -0.5133774114
