# DDEC6 charges by PACMAN v1.1 (https://github.com/mtap-research/PACMAN-charge/)
data_VABKEP_FSR_pacman
_symmetry_space_group_name_H-M   'P 1'
_cell_length_a   11.26100000
_cell_length_b   11.26100000
_cell_length_c   6.31900000
_cell_angle_alpha   90.00000000
_cell_angle_beta   90.00000000
_cell_angle_gamma   90.00000000
_symmetry_Int_Tables_number   1
_chemical_formula_structural   AgH16(C2N)8
_chemical_formula_sum   'Ag2 H32 C32 N16'
_cell_volume   801.31315460
_cell_formula_units_Z   2
loop_
 _symmetry_equiv_pos_site_id
 _symmetry_equiv_pos_as_xyz
  1  'x, y, z'
loop_
 _atom_site_type_symbol
 _atom_site_label
 _atom_site_symmetry_multiplicity
 _atom_site_fract_x
 _atom_site_fract_y
 _atom_site_fract_z
 _atom_site_occupancy
 _atom_site_charge
Ag  Ag1  1  0.50000000  0.50000000  0.00000000  1.0 0.2226706392
Ag  Ag2  1  0.00000000  0.00000000  0.00000000  1.0 0.2226706392
H  H1  1  0.82650000  0.76750000  0.32810000  1.0 0.085352231
H  H2  1  0.26750000  0.67350000  0.32810000  1.0 0.085352231
H  H3  1  0.73250000  0.32650000  0.32810000  1.0 0.085352231
H  H4  1  0.32650000  0.26750000  0.67190000  1.0 0.085352231
H  H5  1  0.67350000  0.73250000  0.67190000  1.0 0.085352231
H  H6  1  0.23250000  0.82650000  0.67190000  1.0 0.085352231
H  H7  1  0.76750000  0.17350000  0.67190000  1.0 0.085352231
H  H8  1  0.17350000  0.23250000  0.32810000  1.0 0.085352231
H  H9  1  0.72090000  0.85250000  0.38590000  1.0 0.0816790483
H  H10  1  0.35250000  0.77910000  0.38590000  1.0 0.0816790483
H  H11  1  0.64750000  0.22090000  0.38590000  1.0 0.0816790483
H  H12  1  0.22090000  0.35250000  0.61410000  1.0 0.0816790483
H  H13  1  0.77910000  0.64750000  0.61410000  1.0 0.0816790483
H  H14  1  0.14750000  0.72090000  0.61410000  1.0 0.0816790483
H  H15  1  0.85250000  0.27910000  0.61410000  1.0 0.0816790483
H  H16  1  0.27910000  0.14750000  0.38590000  1.0 0.0816790483
H  H17  1  0.76740000  0.64060000  0.59870000  1.0 0.0816790483
H  H18  1  0.14060000  0.73260000  0.59870000  1.0 0.0816790483
H  H19  1  0.85940000  0.26740000  0.59870000  1.0 0.0816790483
H  H20  1  0.26740000  0.14060000  0.40130000  1.0 0.0816790483
H  H21  1  0.73260000  0.85940000  0.40130000  1.0 0.0816790483
H  H22  1  0.35940000  0.76740000  0.40130000  1.0 0.0816790483
H  H23  1  0.64060000  0.23260000  0.40130000  1.0 0.0816790483
H  H24  1  0.23260000  0.35940000  0.59870000  1.0 0.0816790483
H  H25  1  0.66860000  0.73160000  0.66290000  1.0 0.085352231
H  H26  1  0.23160000  0.83140000  0.66290000  1.0 0.085352231
H  H27  1  0.76840000  0.16860000  0.66290000  1.0 0.085352231
H  H28  1  0.16860000  0.23160000  0.33710000  1.0 0.085352231
H  H29  1  0.83140000  0.76840000  0.33710000  1.0 0.085352231
H  H30  1  0.26840000  0.66860000  0.33710000  1.0 0.085352231
H  H31  1  0.73160000  0.33140000  0.33710000  1.0 0.085352231
H  H32  1  0.33140000  0.26840000  0.66290000  1.0 0.085352231
C  C1  1  0.66620000  0.69600000  0.26400000  1.0 0.058390828
C  C2  1  0.19600000  0.83380000  0.26400000  1.0 0.058390828
C  C3  1  0.80400000  0.16620000  0.26400000  1.0 0.058390828
C  C4  1  0.16620000  0.19600000  0.73600000  1.0 0.058390828
C  C5  1  0.83380000  0.80400000  0.73600000  1.0 0.058390828
C  C6  1  0.30400000  0.66620000  0.73600000  1.0 0.058390828
C  C7  1  0.69600000  0.33380000  0.73600000  1.0 0.058390828
C  C8  1  0.33380000  0.30400000  0.26400000  1.0 0.058390828
C  C9  1  0.74760000  0.77070000  0.39000000  1.0 -0.1204811295
C  C10  1  0.27070000  0.75240000  0.39000000  1.0 -0.1204811295
C  C11  1  0.72930000  0.24760000  0.39000000  1.0 -0.1204811295
C  C12  1  0.24760000  0.27070000  0.61000000  1.0 -0.1204811295
C  C13  1  0.75240000  0.72930000  0.61000000  1.0 -0.1204811295
C  C14  1  0.22930000  0.74760000  0.61000000  1.0 -0.1204811295
C  C15  1  0.77070000  0.25240000  0.61000000  1.0 -0.1204811295
C  C16  1  0.25240000  0.22930000  0.39000000  1.0 -0.1204811295
C  C17  1  0.63200000  0.64600000  0.39200000  1.0 0.0390168254
C  C18  1  0.14600000  0.86800000  0.39200000  1.0 0.0390168254
C  C19  1  0.85400000  0.13200000  0.39200000  1.0 0.0390168254
C  C20  1  0.13200000  0.14600000  0.60800000  1.0 0.0390168254
C  C21  1  0.86800000  0.85400000  0.60800000  1.0 0.0390168254
C  C22  1  0.35400000  0.63200000  0.60800000  1.0 0.0390168254
C  C23  1  0.64600000  0.36800000  0.60800000  1.0 0.0390168254
C  C24  1  0.36800000  0.35400000  0.39200000  1.0 0.0390168254
C  C25  1  0.71400000  0.70100000  0.54500000  1.0 -0.1122081333
C  C26  1  0.20100000  0.78600000  0.54500000  1.0 -0.1122081333
C  C27  1  0.79900000  0.21400000  0.54500000  1.0 -0.1122081333
C  C28  1  0.21400000  0.20100000  0.45500000  1.0 -0.1122081333
C  C29  1  0.78600000  0.79900000  0.45500000  1.0 -0.1122081333
C  C30  1  0.29900000  0.71400000  0.45500000  1.0 -0.1122081333
C  C31  1  0.70100000  0.28600000  0.45500000  1.0 -0.1122081333
C  C32  1  0.28600000  0.29900000  0.54500000  1.0 -0.1122081333
N  N1  1  0.60800000  0.64000000  0.16800000  1.0 -0.1204811295
N  N2  1  0.14000000  0.89200000  0.16800000  1.0 -0.1204811295
N  N3  1  0.86000000  0.10800000  0.16800000  1.0 -0.1204811295
N  N4  1  0.10800000  0.14000000  0.83200000  1.0 -0.1204811295
N  N5  1  0.89200000  0.86000000  0.83200000  1.0 -0.1204811295
N  N6  1  0.36000000  0.60800000  0.83200000  1.0 -0.1204811295
N  N7  1  0.64000000  0.39200000  0.83200000  1.0 -0.1204811295
N  N8  1  0.39200000  0.36000000  0.16800000  1.0 -0.1204811295
N  N9  1  0.58500000  0.60700000  0.25800000  1.0 -0.1339674795
N  N10  1  0.10700000  0.91500000  0.25800000  1.0 -0.1339674795
N  N11  1  0.89300000  0.08500000  0.25800000  1.0 -0.1339674795
N  N12  1  0.08500000  0.10700000  0.74200000  1.0 -0.1339674795
N  N13  1  0.91500000  0.89300000  0.74200000  1.0 -0.1339674795
N  N14  1  0.39300000  0.58500000  0.74200000  1.0 -0.1339674795
N  N15  1  0.60700000  0.41500000  0.74200000  1.0 -0.1339674795
N  N16  1  0.41500000  0.39300000  0.25800000  1.0 -0.1339674795
