# DDEC6 charges by PACMAN v1.1 (https://github.com/mtap-research/PACMAN-charge/)
data_VAGKOF_ASR_pacman
_symmetry_space_group_name_H-M   'P 1'
_cell_length_a   24.64400000
_cell_length_b   7.38200000
_cell_length_c   31.57800000
_cell_angle_alpha   90.00000000
_cell_angle_beta   90.17000000
_cell_angle_gamma   90.00000000
_symmetry_Int_Tables_number   1
_chemical_formula_structural   Ca2H26C51(O2F3)6
_chemical_formula_sum   'Ca8 H104 C204 O48 F72'
_cell_volume   5744.70788193
_cell_formula_units_Z   4
loop_
 _symmetry_equiv_pos_site_id
 _symmetry_equiv_pos_as_xyz
  1  'x, y, z'
loop_
 _atom_site_type_symbol
 _atom_site_label
 _atom_site_symmetry_multiplicity
 _atom_site_fract_x
 _atom_site_fract_y
 _atom_site_fract_z
 _atom_site_occupancy
 _atom_site_charge
Ca  Ca1  1  0.23527000  0.45308000  0.77065000  1.0 1.3608862948
Ca  Ca2  1  0.76473000  0.45308000  0.72935000  1.0 1.3608862948
Ca  Ca3  1  0.76473000  0.54692000  0.22935000  1.0 1.3608862948
Ca  Ca4  1  0.23527000  0.54692000  0.27065000  1.0 1.3608862948
Ca  Ca5  1  0.75330000  0.91734000  0.76864000  1.0 1.3977763843
Ca  Ca6  1  0.24670000  0.91734000  0.73136000  1.0 1.3977763843
Ca  Ca7  1  0.24670000  0.08266000  0.23136000  1.0 1.3977763843
Ca  Ca8  1  0.75330000  0.08266000  0.26864000  1.0 1.3977763843
H  H1  1  0.02828000  0.51986000  0.69051000  1.0 0.118458569
H  H2  1  0.97172000  0.51986000  0.80949000  1.0 0.118458569
H  H3  1  0.97172000  0.48014000  0.30949000  1.0 0.118458569
H  H4  1  0.02828000  0.48014000  0.19051000  1.0 0.118458569
H  H5  1  0.17758000  0.31825000  0.63922000  1.0 0.1100499441
H  H6  1  0.82242000  0.31825000  0.86078000  1.0 0.1100499441
H  H7  1  0.82242000  0.68175000  0.36078000  1.0 0.1100499441
H  H8  1  0.17758000  0.68175000  0.13922000  1.0 0.1100499441
H  H9  1  0.12747000  0.10544000  0.59470000  1.0 0.1100499441
H  H10  1  0.87253000  0.10544000  0.90530000  1.0 0.1100499441
H  H11  1  0.87253000  0.89456000  0.40530000  1.0 0.1100499441
H  H12  1  0.12747000  0.89456000  0.09470000  1.0 0.1100499441
H  H13  1  0.97781000  0.30959000  0.64747000  1.0 0.118458569
H  H14  1  0.02219000  0.30959000  0.85253000  1.0 0.118458569
H  H15  1  0.02219000  0.69041000  0.35253000  1.0 0.118458569
H  H16  1  0.97781000  0.69041000  0.14747000  1.0 0.118458569
H  H17  1  0.01763000  0.02115000  0.68400000  1.0 0.118458569
H  H18  1  0.98237000  0.02115000  0.81600000  1.0 0.118458569
H  H19  1  0.98237000  0.97885000  0.31600000  1.0 0.118458569
H  H20  1  0.01763000  0.97885000  0.18400000  1.0 0.118458569
H  H21  1  0.94487000  0.94210000  0.73527000  1.0 0.118458569
H  H22  1  0.05513000  0.94210000  0.76473000  1.0 0.118458569
H  H23  1  0.05513000  0.05790000  0.26473000  1.0 0.118458569
H  H24  1  0.94487000  0.05790000  0.23527000  1.0 0.118458569
H  H25  1  0.85402000  0.71316000  0.63280000  1.0 0.1100499441
H  H26  1  0.14598000  0.71316000  0.86720000  1.0 0.1100499441
H  H27  1  0.14598000  0.28684000  0.36720000  1.0 0.1100499441
H  H28  1  0.85402000  0.28684000  0.13280000  1.0 0.1100499441
H  H29  1  0.92439000  0.81164000  0.58216000  1.0 0.0992952577
H  H30  1  0.07561000  0.81164000  0.91784000  1.0 0.0992952577
H  H31  1  0.07561000  0.18836000  0.41784000  1.0 0.0992952577
H  H32  1  0.92439000  0.18836000  0.08216000  1.0 0.0992952577
H  H33  1  0.60630000  0.02924000  0.71037000  1.0 0.1100499441
H  H34  1  0.39370000  0.02924000  0.78963000  1.0 0.1100499441
H  H35  1  0.39370000  0.97076000  0.28963000  1.0 0.1100499441
H  H36  1  0.60630000  0.97076000  0.21037000  1.0 0.1100499441
H  H37  1  0.61094000  0.55351000  0.63175000  1.0 0.1100499441
H  H38  1  0.38906000  0.55351000  0.86825000  1.0 0.1100499441
H  H39  1  0.38906000  0.44649000  0.36825000  1.0 0.1100499441
H  H40  1  0.61094000  0.44649000  0.13175000  1.0 0.1100499441
H  H41  1  0.53346000  0.66291000  0.59169000  1.0 0.1100499441
H  H42  1  0.46654000  0.66291000  0.90831000  1.0 0.1100499441
H  H43  1  0.46654000  0.33709000  0.40831000  1.0 0.1100499441
H  H44  1  0.53346000  0.33709000  0.09169000  1.0 0.1100499441
H  H45  1  0.52673000  0.13971000  0.67071000  1.0 0.1100499441
H  H46  1  0.47327000  0.13971000  0.82929000  1.0 0.1100499441
H  H47  1  0.47327000  0.86029000  0.32929000  1.0 0.1100499441
H  H48  1  0.52673000  0.86029000  0.17071000  1.0 0.1100499441
H  H49  1  0.43354000  0.85979000  0.67455000  1.0 0.118458569
H  H50  1  0.56646000  0.85979000  0.82545000  1.0 0.118458569
H  H51  1  0.56646000  0.14021000  0.32545000  1.0 0.118458569
H  H52  1  0.43354000  0.14021000  0.17455000  1.0 0.118458569
H  H53  1  0.36399000  0.98742000  0.72093000  1.0 0.1100499441
H  H54  1  0.63601000  0.98742000  0.77907000  1.0 0.1100499441
H  H55  1  0.63601000  0.01258000  0.27907000  1.0 0.1100499441
H  H56  1  0.36399000  0.01258000  0.22093000  1.0 0.1100499441
H  H57  1  0.36482000  0.48125000  0.64865000  1.0 0.118458569
H  H58  1  0.63518000  0.48125000  0.85135000  1.0 0.118458569
H  H59  1  0.63518000  0.51875000  0.35135000  1.0 0.118458569
H  H60  1  0.36482000  0.51875000  0.14865000  1.0 0.118458569
H  H61  1  0.43075000  0.34869000  0.59929000  1.0 0.1100499441
H  H62  1  0.56925000  0.34869000  0.90071000  1.0 0.1100499441
H  H63  1  0.56925000  0.65131000  0.40071000  1.0 0.1100499441
H  H64  1  0.43075000  0.65131000  0.09929000  1.0 0.1100499441
H  H65  1  0.35478000  0.14166000  0.91898000  1.0 0.1100499441
H  H66  1  0.64522000  0.14166000  0.58102000  1.0 0.1100499441
H  H67  1  0.64522000  0.85834000  0.08102000  1.0 0.1100499441
H  H68  1  0.35478000  0.85834000  0.41898000  1.0 0.1100499441
H  H69  1  0.33721000  0.93854000  0.97913000  1.0 0.118458569
H  H70  1  0.66279000  0.93854000  0.52087000  1.0 0.118458569
H  H71  1  0.66279000  0.06146000  0.02087000  1.0 0.118458569
H  H72  1  0.33721000  0.06146000  0.47913000  1.0 0.118458569
H  H73  1  0.18955000  0.75862000  0.91882000  1.0 0.1100499441
H  H74  1  0.81045000  0.75862000  0.58118000  1.0 0.1100499441
H  H75  1  0.81045000  0.24138000  0.08118000  1.0 0.1100499441
H  H76  1  0.18955000  0.24138000  0.41882000  1.0 0.1100499441
H  H77  1  0.20502000  0.97705000  0.86100000  1.0 0.1100499441
H  H78  1  0.79498000  0.97705000  0.63900000  1.0 0.1100499441
H  H79  1  0.79498000  0.02295000  0.13900000  1.0 0.1100499441
H  H80  1  0.20502000  0.02295000  0.36100000  1.0 0.1100499441
H  H81  1  0.30372000  0.68635000  0.07358000  1.0 0.1100499441
H  H82  1  0.69628000  0.68635000  0.42642000  1.0 0.1100499441
H  H83  1  0.69628000  0.31365000  0.92642000  1.0 0.1100499441
H  H84  1  0.30372000  0.31365000  0.57358000  1.0 0.1100499441
H  H85  1  0.30282000  0.91174000  0.13086000  1.0 0.0992952577
H  H86  1  0.69718000  0.91174000  0.36914000  1.0 0.0992952577
H  H87  1  0.69718000  0.08826000  0.86914000  1.0 0.0992952577
H  H88  1  0.30282000  0.08826000  0.63086000  1.0 0.0992952577
H  H89  1  0.19777000  0.25514000  0.05800000  1.0 0.1100499441
H  H90  1  0.80223000  0.25514000  0.44200000  1.0 0.1100499441
H  H91  1  0.80223000  0.74486000  0.94200000  1.0 0.1100499441
H  H92  1  0.19777000  0.74486000  0.55800000  1.0 0.1100499441
H  H93  1  0.20146000  0.03864000  0.99869000  1.0 0.1100499441
H  H94  1  0.79854000  0.03864000  0.50131000  1.0 0.1100499441
H  H95  1  0.79854000  0.96136000  0.00131000  1.0 0.1100499441
H  H96  1  0.20146000  0.96136000  0.49869000  1.0 0.1100499441
H  H97  1  0.32807000  0.42173000  0.83554000  1.0 0.3599577141
H  H98  1  0.67193000  0.42173000  0.66446000  1.0 0.3599577141
H  H99  1  0.67193000  0.57827000  0.16446000  1.0 0.3599577141
H  H100  1  0.32807000  0.57827000  0.33554000  1.0 0.3599577141
H  H101  1  0.21152000  0.42671000  0.15928000  1.0 0.3599577141
H  H102  1  0.78848000  0.42671000  0.34072000  1.0 0.3599577141
H  H103  1  0.78848000  0.57329000  0.84072000  1.0 0.3599577141
H  H104  1  0.21152000  0.57329000  0.65928000  1.0 0.3599577141
C  C1  1  0.13529000  0.52753000  0.70493000  1.0 0.5817193579
C  C2  1  0.86471000  0.52753000  0.79507000  1.0 0.5817193579
C  C3  1  0.86471000  0.47247000  0.29507000  1.0 0.5817193579
C  C4  1  0.13529000  0.47247000  0.20493000  1.0 0.5817193579
C  C5  1  0.10648000  0.42724000  0.66993000  1.0 -0.0306470352
C  C6  1  0.89352000  0.42724000  0.83007000  1.0 -0.0306470352
C  C7  1  0.89352000  0.57276000  0.33007000  1.0 -0.0306470352
C  C8  1  0.10648000  0.57276000  0.16993000  1.0 -0.0306470352
C  C9  1  0.04968000  0.42863000  0.66922000  1.0 -0.0738980616
C  C10  1  0.95032000  0.42863000  0.83078000  1.0 -0.0738980616
C  C11  1  0.95032000  0.57137000  0.33078000  1.0 -0.0738980616
C  C12  1  0.04968000  0.57137000  0.16922000  1.0 -0.0738980616
C  C13  1  0.13348000  0.31510000  0.64117000  1.0 -0.078435454
C  C14  1  0.86652000  0.31510000  0.85883000  1.0 -0.078435454
C  C15  1  0.86652000  0.68490000  0.35883000  1.0 -0.078435454
C  C16  1  0.13348000  0.68490000  0.14117000  1.0 -0.078435454
C  C17  1  0.10468000  0.19284000  0.61586000  1.0 -0.1393971535
C  C18  1  0.89532000  0.19284000  0.88414000  1.0 -0.1393971535
C  C19  1  0.89532000  0.80716000  0.38414000  1.0 -0.1393971535
C  C20  1  0.10468000  0.80716000  0.11586000  1.0 -0.1393971535
C  C21  1  0.02093000  0.30872000  0.64374000  1.0 -0.149249827
C  C22  1  0.97907000  0.30872000  0.85626000  1.0 -0.149249827
C  C23  1  0.97907000  0.69128000  0.35626000  1.0 -0.149249827
C  C24  1  0.02093000  0.69128000  0.14374000  1.0 -0.149249827
C  C25  1  0.04803000  0.18024000  0.61870000  1.0 0.0891171918
C  C26  1  0.95197000  0.18024000  0.88130000  1.0 0.0891171918
C  C27  1  0.95197000  0.81976000  0.38130000  1.0 0.0891171918
C  C28  1  0.04803000  0.81976000  0.11870000  1.0 0.0891171918
C  C29  1  0.01422000  0.03064000  0.59674000  1.0 -0.2863097596
C  C30  1  0.98578000  0.03064000  0.90326000  1.0 -0.2863097596
C  C31  1  0.98578000  0.96936000  0.40326000  1.0 -0.2863097596
C  C32  1  0.01422000  0.96936000  0.09674000  1.0 -0.2863097596
C  C33  1  0.05073000  0.87496000  0.57941000  1.0 0.6810490158
C  C34  1  0.94927000  0.87496000  0.92059000  1.0 0.6810490158
C  C35  1  0.94927000  0.12504000  0.42059000  1.0 0.6810490158
C  C36  1  0.05073000  0.12504000  0.07941000  1.0 0.6810490158
C  C37  1  0.98395000  0.12620000  0.56206000  1.0 0.6741683972
C  C38  1  0.01605000  0.12620000  0.93794000  1.0 0.6741683972
C  C39  1  0.01605000  0.87380000  0.43794000  1.0 0.6741683972
C  C40  1  0.98395000  0.87380000  0.06206000  1.0 0.6741683972
C  C41  1  0.97453000  0.94100000  0.62997000  1.0 0.0992952577
C  C42  1  0.02547000  0.94100000  0.87003000  1.0 0.0992952577
C  C43  1  0.02547000  0.05900000  0.37003000  1.0 0.0992952577
C  C44  1  0.97453000  0.05900000  0.12997000  1.0 0.0992952577
C  C45  1  0.98179000  0.96005000  0.67382000  1.0 -0.149249827
C  C46  1  0.01821000  0.96005000  0.82618000  1.0 -0.149249827
C  C47  1  0.01821000  0.03995000  0.32618000  1.0 -0.149249827
C  C48  1  0.98179000  0.03995000  0.17382000  1.0 -0.149249827
C  C49  1  0.94062000  0.91413000  0.70159000  1.0 -0.0620236777
C  C50  1  0.05938000  0.91413000  0.79841000  1.0 -0.0620236777
C  C51  1  0.05938000  0.08587000  0.29841000  1.0 -0.0620236777
C  C52  1  0.94062000  0.08587000  0.20159000  1.0 -0.0620236777
C  C53  1  0.89246000  0.83759000  0.68635000  1.0 -0.0139908469
C  C54  1  0.10754000  0.83759000  0.81365000  1.0 -0.0139908469
C  C55  1  0.10754000  0.16241000  0.31365000  1.0 -0.0139908469
C  C56  1  0.89246000  0.16241000  0.18635000  1.0 -0.0139908469
C  C57  1  0.88954000  0.78677000  0.64389000  1.0 -0.0991310435
C  C58  1  0.11046000  0.78677000  0.85611000  1.0 -0.0991310435
C  C59  1  0.11046000  0.21323000  0.35611000  1.0 -0.0991310435
C  C60  1  0.88954000  0.21323000  0.14389000  1.0 -0.0991310435
C  C61  1  0.92960000  0.84176000  0.61560000  1.0 -0.1566986363
C  C62  1  0.07040000  0.84176000  0.88440000  1.0 -0.1566986363
C  C63  1  0.07040000  0.15824000  0.38440000  1.0 -0.1566986363
C  C64  1  0.92960000  0.15824000  0.11560000  1.0 -0.1566986363
C  C65  1  0.84305000  0.84491000  0.71316000  1.0 0.6023884805
C  C66  1  0.15695000  0.84491000  0.78684000  1.0 0.6023884805
C  C67  1  0.15695000  0.15509000  0.28684000  1.0 0.6023884805
C  C68  1  0.84305000  0.15509000  0.21316000  1.0 0.6023884805
C  C69  1  0.66391000  0.72717000  0.69881000  1.0 0.6403742027
C  C70  1  0.33609000  0.72717000  0.80119000  1.0 0.6403742027
C  C71  1  0.33609000  0.27283000  0.30119000  1.0 0.6403742027
C  C72  1  0.66391000  0.27283000  0.19881000  1.0 0.6403742027
C  C73  1  0.61418000  0.78318000  0.67453000  1.0 -0.0524365562
C  C74  1  0.38582000  0.78318000  0.82547000  1.0 -0.0524365562
C  C75  1  0.38582000  0.21682000  0.32547000  1.0 -0.0524365562
C  C76  1  0.61418000  0.21682000  0.17453000  1.0 -0.0524365562
C  C77  1  0.58952000  0.94835000  0.68470000  1.0 -0.0738980616
C  C78  1  0.41048000  0.94835000  0.81530000  1.0 -0.0738980616
C  C79  1  0.41048000  0.05165000  0.31530000  1.0 -0.0738980616
C  C80  1  0.58952000  0.05165000  0.18470000  1.0 -0.0738980616
C  C81  1  0.59269000  0.68159000  0.64100000  1.0 -0.078435454
C  C82  1  0.40731000  0.68159000  0.85900000  1.0 -0.078435454
C  C83  1  0.40731000  0.31841000  0.35900000  1.0 -0.078435454
C  C84  1  0.59269000  0.31841000  0.14100000  1.0 -0.078435454
C  C85  1  0.54820000  0.74463000  0.61794000  1.0 -0.1393971535
C  C86  1  0.45180000  0.74463000  0.88206000  1.0 -0.1393971535
C  C87  1  0.45180000  0.25537000  0.38206000  1.0 -0.1393971535
C  C88  1  0.54820000  0.25537000  0.11794000  1.0 -0.1393971535
C  C89  1  0.54495000  0.01067000  0.66206000  1.0 -0.121982615
C  C90  1  0.45505000  0.01067000  0.83794000  1.0 -0.121982615
C  C91  1  0.45505000  0.98933000  0.33794000  1.0 -0.121982615
C  C92  1  0.54495000  0.98933000  0.16206000  1.0 -0.121982615
C  C93  1  0.52374000  0.91015000  0.62814000  1.0 0.0891171918
C  C94  1  0.47626000  0.91015000  0.87186000  1.0 0.0891171918
C  C95  1  0.47626000  0.08985000  0.37186000  1.0 0.0891171918
C  C96  1  0.52374000  0.08985000  0.12814000  1.0 0.0891171918
C  C97  1  0.47667000  0.99449000  0.60254000  1.0 -0.2780652154
C  C98  1  0.52333000  0.99449000  0.89746000  1.0 -0.2780652154
C  C99  1  0.52333000  0.00551000  0.39746000  1.0 -0.2780652154
C  C100  1  0.47667000  0.00551000  0.10254000  1.0 -0.2780652154
C  C101  1  0.44300000  0.85033000  0.57728000  1.0 0.6810490158
C  C102  1  0.55700000  0.85033000  0.92272000  1.0 0.6810490158
C  C103  1  0.55700000  0.14967000  0.42272000  1.0 0.6810490158
C  C104  1  0.44300000  0.14967000  0.07728000  1.0 0.6810490158
C  C105  1  0.50348000  0.12565000  0.56983000  1.0 0.6810490158
C  C106  1  0.49652000  0.12565000  0.93017000  1.0 0.6810490158
C  C107  1  0.49652000  0.87435000  0.43017000  1.0 0.6810490158
C  C108  1  0.50348000  0.87435000  0.06983000  1.0 0.6810490158
C  C109  1  0.43654000  0.09142000  0.63245000  1.0 0.0891171918
C  C110  1  0.56346000  0.09142000  0.86755000  1.0 0.0891171918
C  C111  1  0.56346000  0.90858000  0.36755000  1.0 0.0891171918
C  C112  1  0.43654000  0.90858000  0.13245000  1.0 0.0891171918
C  C113  1  0.41797000  0.99481000  0.66785000  1.0 -0.121982615
C  C114  1  0.58203000  0.99481000  0.83215000  1.0 -0.121982615
C  C115  1  0.58203000  0.00519000  0.33215000  1.0 -0.121982615
C  C116  1  0.41797000  0.00519000  0.16785000  1.0 -0.121982615
C  C117  1  0.37888000  0.06785000  0.69448000  1.0 -0.089586535
C  C118  1  0.62112000  0.06785000  0.80552000  1.0 -0.089586535
C  C119  1  0.62112000  0.93215000  0.30552000  1.0 -0.089586535
C  C120  1  0.37888000  0.93215000  0.19448000  1.0 -0.089586535
C  C121  1  0.37959000  0.34379000  0.65370000  1.0 -0.078435454
C  C122  1  0.62041000  0.34379000  0.84630000  1.0 -0.078435454
C  C123  1  0.62041000  0.65621000  0.34630000  1.0 -0.078435454
C  C124  1  0.37959000  0.65621000  0.15370000  1.0 -0.078435454
C  C125  1  0.41720000  0.26785000  0.62598000  1.0 -0.1393971535
C  C126  1  0.58280000  0.26785000  0.87402000  1.0 -0.1393971535
C  C127  1  0.58280000  0.73215000  0.37402000  1.0 -0.1393971535
C  C128  1  0.41720000  0.73215000  0.12598000  1.0 -0.1393971535
C  C129  1  0.35871000  0.24255000  0.68737000  1.0 -0.0425935905
C  C130  1  0.64129000  0.24255000  0.81263000  1.0 -0.0425935905
C  C131  1  0.64129000  0.75745000  0.31263000  1.0 -0.0425935905
C  C132  1  0.35871000  0.75745000  0.18737000  1.0 -0.0425935905
C  C133  1  0.31327000  0.31828000  0.71341000  1.0 0.6023884805
C  C134  1  0.68673000  0.31828000  0.78659000  1.0 0.6023884805
C  C135  1  0.68673000  0.68172000  0.28659000  1.0 0.6023884805
C  C136  1  0.31327000  0.68172000  0.21341000  1.0 0.6023884805
C  C137  1  0.28726000  0.20809000  0.85221000  1.0 0.6023884805
C  C138  1  0.71274000  0.20809000  0.64779000  1.0 0.6023884805
C  C139  1  0.71274000  0.79191000  0.14779000  1.0 0.6023884805
C  C140  1  0.28726000  0.79191000  0.35221000  1.0 0.6023884805
C  C141  1  0.28091000  0.07125000  0.88606000  1.0 -0.0524365562
C  C142  1  0.71909000  0.07125000  0.61394000  1.0 -0.0524365562
C  C143  1  0.71909000  0.92875000  0.11394000  1.0 -0.0524365562
C  C144  1  0.28091000  0.92875000  0.38606000  1.0 -0.0524365562
C  C145  1  0.31861000  0.05740000  0.91917000  1.0 -0.0738980616
C  C146  1  0.68139000  0.05740000  0.58083000  1.0 -0.0738980616
C  C147  1  0.68139000  0.94260000  0.08083000  1.0 -0.0738980616
C  C148  1  0.31861000  0.94260000  0.41917000  1.0 -0.0738980616
C  C149  1  0.30874000  0.94134000  0.95277000  1.0 -0.1263264674
C  C150  1  0.69126000  0.94134000  0.54723000  1.0 -0.1263264674
C  C151  1  0.69126000  0.05866000  0.04723000  1.0 -0.1263264674
C  C152  1  0.30874000  0.05866000  0.45277000  1.0 -0.1263264674
C  C153  1  0.22585000  0.84148000  0.91926000  1.0 -0.1393971535
C  C154  1  0.77415000  0.84148000  0.58074000  1.0 -0.1393971535
C  C155  1  0.77415000  0.15852000  0.08074000  1.0 -0.1393971535
C  C156  1  0.22585000  0.15852000  0.41926000  1.0 -0.1393971535
C  C157  1  0.26195000  0.83286000  0.95335000  1.0 0.0891171918
C  C158  1  0.73805000  0.83286000  0.54665000  1.0 0.0891171918
C  C159  1  0.73805000  0.16714000  0.04665000  1.0 0.0891171918
C  C160  1  0.26195000  0.16714000  0.45335000  1.0 0.0891171918
C  C161  1  0.23470000  0.96233000  0.88630000  1.0 -0.0524365562
C  C162  1  0.76530000  0.96233000  0.61370000  1.0 -0.0524365562
C  C163  1  0.76530000  0.03767000  0.11370000  1.0 -0.0524365562
C  C164  1  0.23470000  0.03767000  0.38630000  1.0 -0.0524365562
C  C165  1  0.25125000  0.71855000  0.99318000  1.0 -0.2780652154
C  C166  1  0.74875000  0.71855000  0.50682000  1.0 -0.2780652154
C  C167  1  0.74875000  0.28145000  0.00682000  1.0 -0.2780652154
C  C168  1  0.25125000  0.28145000  0.49318000  1.0 -0.2780652154
C  C169  1  0.19482000  0.62109000  0.99308000  1.0 0.6810490158
C  C170  1  0.80518000  0.62109000  0.50692000  1.0 0.6810490158
C  C171  1  0.80518000  0.37891000  0.00692000  1.0 0.6810490158
C  C172  1  0.19482000  0.37891000  0.49308000  1.0 0.6810490158
C  C173  1  0.29642000  0.56969000  0.99498000  1.0 0.6741683972
C  C174  1  0.70358000  0.56969000  0.50502000  1.0 0.6741683972
C  C175  1  0.70358000  0.43031000  0.00502000  1.0 0.6741683972
C  C176  1  0.29642000  0.43031000  0.49498000  1.0 0.6741683972
C  C177  1  0.25334000  0.84728000  0.03146000  1.0 0.0891171918
C  C178  1  0.74666000  0.84728000  0.46854000  1.0 0.0891171918
C  C179  1  0.74666000  0.15272000  0.96854000  1.0 0.0891171918
C  C180  1  0.25334000  0.15272000  0.53146000  1.0 0.0891171918
C  C181  1  0.28101000  0.81107000  0.06919000  1.0 -0.1393971535
C  C182  1  0.71899000  0.81107000  0.43081000  1.0 -0.1393971535
C  C183  1  0.71899000  0.18893000  0.93081000  1.0 -0.1393971535
C  C184  1  0.28101000  0.18893000  0.56919000  1.0 -0.1393971535
C  C185  1  0.28035000  0.93723000  0.10183000  1.0 -0.0620236777
C  C186  1  0.71965000  0.93723000  0.39817000  1.0 -0.0620236777
C  C187  1  0.71965000  0.06277000  0.89817000  1.0 -0.0620236777
C  C188  1  0.28035000  0.06277000  0.60183000  1.0 -0.0620236777
C  C189  1  0.25117000  0.09867000  0.09789000  1.0 -0.0620236777
C  C190  1  0.74883000  0.09867000  0.40211000  1.0 -0.0620236777
C  C191  1  0.74883000  0.90133000  0.90211000  1.0 -0.0620236777
C  C192  1  0.25117000  0.90133000  0.59789000  1.0 -0.0620236777
C  C193  1  0.22162000  0.13217000  0.06084000  1.0 -0.0738980616
C  C194  1  0.77838000  0.13217000  0.43916000  1.0 -0.0738980616
C  C195  1  0.77838000  0.86783000  0.93916000  1.0 -0.0738980616
C  C196  1  0.22162000  0.86783000  0.56084000  1.0 -0.0738980616
C  C197  1  0.22345000  0.00861000  0.02778000  1.0 -0.121982615
C  C198  1  0.77655000  0.00861000  0.47222000  1.0 -0.121982615
C  C199  1  0.77655000  0.99139000  0.97222000  1.0 -0.121982615
C  C200  1  0.22345000  0.99139000  0.52778000  1.0 -0.121982615
C  C201  1  0.25035000  0.22434000  0.13442000  1.0 0.61122926
C  C202  1  0.74965000  0.22434000  0.36558000  1.0 0.61122926
C  C203  1  0.74965000  0.77566000  0.86558000  1.0 0.61122926
C  C204  1  0.25035000  0.77566000  0.63442000  1.0 0.61122926
O  O1  1  0.18819000  0.53182000  0.70501000  1.0 -0.6878665942
O  O2  1  0.81181000  0.53182000  0.79499000  1.0 -0.6878665942
O  O3  1  0.81181000  0.46818000  0.29499000  1.0 -0.6878665942
O  O4  1  0.18819000  0.46818000  0.20501000  1.0 -0.6878665942
O  O5  1  0.10668000  0.58876000  0.73447000  1.0 -0.5199059057
O  O6  1  0.89332000  0.58876000  0.76553000  1.0 -0.5199059057
O  O7  1  0.89332000  0.41124000  0.26553000  1.0 -0.5199059057
O  O8  1  0.10668000  0.41124000  0.23447000  1.0 -0.5199059057
O  O9  1  0.84029000  0.98438000  0.73761000  1.0 -0.6279541063
O  O10  1  0.15971000  0.98438000  0.76239000  1.0 -0.6279541063
O  O11  1  0.15971000  0.01562000  0.26239000  1.0 -0.6279541063
O  O12  1  0.84029000  0.01562000  0.23761000  1.0 -0.6279541063
O  O13  1  0.80360000  0.73466000  0.71006000  1.0 -0.6878665942
O  O14  1  0.19640000  0.73466000  0.78994000  1.0 -0.6878665942
O  O15  1  0.19640000  0.26534000  0.28994000  1.0 -0.6878665942
O  O16  1  0.80360000  0.26534000  0.21006000  1.0 -0.6878665942
O  O17  1  0.68221000  0.83520000  0.72636000  1.0 -0.6204933334
O  O18  1  0.31779000  0.83520000  0.77364000  1.0 -0.6204933334
O  O19  1  0.31779000  0.16480000  0.27364000  1.0 -0.6204933334
O  O20  1  0.68221000  0.16480000  0.22636000  1.0 -0.6204933334
O  O21  1  0.68699000  0.57504000  0.69063000  1.0 -0.6204933334
O  O22  1  0.31301000  0.57504000  0.80937000  1.0 -0.6204933334
O  O23  1  0.31301000  0.42496000  0.30937000  1.0 -0.6204933334
O  O24  1  0.68699000  0.42496000  0.19063000  1.0 -0.6204933334
O  O25  1  0.30925000  0.48610000  0.71886000  1.0 -0.5596138644
O  O26  1  0.69075000  0.48610000  0.78114000  1.0 -0.5596138644
O  O27  1  0.69075000  0.51390000  0.28114000  1.0 -0.5596138644
O  O28  1  0.30925000  0.51390000  0.21886000  1.0 -0.5596138644
O  O29  1  0.27824000  0.20562000  0.72930000  1.0 -0.7165927696
O  O30  1  0.72176000  0.20562000  0.77070000  1.0 -0.7165927696
O  O31  1  0.72176000  0.79438000  0.27070000  1.0 -0.7165927696
O  O32  1  0.27824000  0.79438000  0.22930000  1.0 -0.7165927696
O  O33  1  0.25274000  0.22727000  0.82358000  1.0 -0.5871201041
O  O34  1  0.74726000  0.22727000  0.67642000  1.0 -0.5871201041
O  O35  1  0.74726000  0.77273000  0.17642000  1.0 -0.5871201041
O  O36  1  0.25274000  0.77273000  0.32358000  1.0 -0.5871201041
O  O37  1  0.33123000  0.30904000  0.85575000  1.0 -0.4881587732
O  O38  1  0.66877000  0.30904000  0.64425000  1.0 -0.4881587732
O  O39  1  0.66877000  0.69096000  0.14425000  1.0 -0.4881587732
O  O40  1  0.33123000  0.69096000  0.35575000  1.0 -0.4881587732
O  O41  1  0.27470000  0.18626000  0.16788000  1.0 -0.5871201041
O  O42  1  0.72530000  0.18626000  0.33212000  1.0 -0.5871201041
O  O43  1  0.72530000  0.81374000  0.83212000  1.0 -0.5871201041
O  O44  1  0.27470000  0.81374000  0.66788000  1.0 -0.5871201041
O  O45  1  0.22150000  0.37303000  0.12960000  1.0 -0.4601592529
O  O46  1  0.77850000  0.37303000  0.37040000  1.0 -0.4601592529
O  O47  1  0.77850000  0.62697000  0.87040000  1.0 -0.4601592529
O  O48  1  0.22150000  0.62697000  0.62960000  1.0 -0.4601592529
F  F1  1  0.02144000  0.73615000  0.56284000  1.0 -0.2007210759
F  F2  1  0.97856000  0.73615000  0.93716000  1.0 -0.2007210759
F  F3  1  0.97856000  0.26385000  0.43716000  1.0 -0.2007210759
F  F4  1  0.02144000  0.26385000  0.06284000  1.0 -0.2007210759
F  F5  1  0.08101000  0.80451000  0.61167000  1.0 -0.2007210759
F  F6  1  0.91899000  0.80451000  0.88833000  1.0 -0.2007210759
F  F7  1  0.91899000  0.19549000  0.38833000  1.0 -0.2007210759
F  F8  1  0.08101000  0.19549000  0.11167000  1.0 -0.2007210759
F  F9  1  0.08582000  0.92918000  0.54862000  1.0 -0.2007210759
F  F10  1  0.91418000  0.92918000  0.95138000  1.0 -0.2007210759
F  F11  1  0.91418000  0.07082000  0.45138000  1.0 -0.2007210759
F  F12  1  0.08582000  0.07082000  0.04862000  1.0 -0.2007210759
F  F13  1  0.96013000  0.00838000  0.53467000  1.0 -0.2007210759
F  F14  1  0.03987000  0.00838000  0.96533000  1.0 -0.2007210759
F  F15  1  0.03987000  0.99162000  0.46533000  1.0 -0.2007210759
F  F16  1  0.96013000  0.99162000  0.03467000  1.0 -0.2007210759
F  F17  1  0.01653000  0.23395000  0.53686000  1.0 -0.2007210759
F  F18  1  0.98347000  0.23395000  0.96314000  1.0 -0.2007210759
F  F19  1  0.98347000  0.76605000  0.46314000  1.0 -0.2007210759
F  F20  1  0.01653000  0.76605000  0.03686000  1.0 -0.2007210759
F  F21  1  0.94355000  0.23423000  0.57740000  1.0 -0.192950021
F  F22  1  0.05645000  0.23423000  0.92260000  1.0 -0.192950021
F  F23  1  0.05645000  0.76577000  0.42260000  1.0 -0.192950021
F  F24  1  0.94355000  0.76577000  0.07740000  1.0 -0.192950021
F  F25  1  0.46771000  0.19310000  0.54091000  1.0 -0.2007210759
F  F26  1  0.53229000  0.19310000  0.95909000  1.0 -0.2007210759
F  F27  1  0.53229000  0.80690000  0.45909000  1.0 -0.2007210759
F  F28  1  0.46771000  0.80690000  0.04091000  1.0 -0.2007210759
F  F29  1  0.54366000  0.04241000  0.54774000  1.0 -0.2007210759
F  F30  1  0.45634000  0.04241000  0.95226000  1.0 -0.2007210759
F  F31  1  0.45634000  0.95759000  0.45226000  1.0 -0.2007210759
F  F32  1  0.54366000  0.95759000  0.04774000  1.0 -0.2007210759
F  F33  1  0.52680000  0.27002000  0.58983000  1.0 -0.2007210759
F  F34  1  0.47320000  0.27002000  0.91017000  1.0 -0.2007210759
F  F35  1  0.47320000  0.72998000  0.41017000  1.0 -0.2007210759
F  F36  1  0.52680000  0.72998000  0.08983000  1.0 -0.2007210759
F  F37  1  0.47065000  0.77405000  0.54452000  1.0 -0.2090184908
F  F38  1  0.52935000  0.77405000  0.95548000  1.0 -0.2090184908
F  F39  1  0.52935000  0.22595000  0.45548000  1.0 -0.2090184908
F  F40  1  0.47065000  0.22595000  0.04452000  1.0 -0.2090184908
F  F41  1  0.39703000  0.92306000  0.56056000  1.0 -0.2007210759
F  F42  1  0.60297000  0.92306000  0.93944000  1.0 -0.2007210759
F  F43  1  0.60297000  0.07694000  0.43944000  1.0 -0.2007210759
F  F44  1  0.39703000  0.07694000  0.06056000  1.0 -0.2007210759
F  F45  1  0.42721000  0.71181000  0.60312000  1.0 -0.2007210759
F  F46  1  0.57279000  0.71181000  0.89688000  1.0 -0.2007210759
F  F47  1  0.57279000  0.28819000  0.39688000  1.0 -0.2007210759
F  F48  1  0.42721000  0.28819000  0.10312000  1.0 -0.2007210759
F  F49  1  0.34820000  0.64157000  0.00405000  1.0 -0.2090184908
F  F50  1  0.65180000  0.64157000  0.49595000  1.0 -0.2090184908
F  F51  1  0.65180000  0.35843000  0.99595000  1.0 -0.2090184908
F  F52  1  0.34820000  0.35843000  0.50405000  1.0 -0.2090184908
F  F53  1  0.28903000  0.43943000  0.02457000  1.0 -0.2007210759
F  F54  1  0.71097000  0.43943000  0.47543000  1.0 -0.2007210759
F  F55  1  0.71097000  0.56057000  0.97543000  1.0 -0.2007210759
F  F56  1  0.28903000  0.56057000  0.52457000  1.0 -0.2007210759
F  F57  1  0.30116000  0.48411000  0.95707000  1.0 -0.2007210759
F  F58  1  0.69884000  0.48411000  0.54293000  1.0 -0.2007210759
F  F59  1  0.69884000  0.51589000  0.04293000  1.0 -0.2007210759
F  F60  1  0.30116000  0.51589000  0.45707000  1.0 -0.2007210759
F  F61  1  0.19137000  0.48654000  0.96359000  1.0 -0.2090184908
F  F62  1  0.80863000  0.48654000  0.53641000  1.0 -0.2090184908
F  F63  1  0.80863000  0.51346000  0.03641000  1.0 -0.2090184908
F  F64  1  0.19137000  0.51346000  0.46359000  1.0 -0.2090184908
F  F65  1  0.18635000  0.54546000  0.03136000  1.0 -0.192950021
F  F66  1  0.81365000  0.54546000  0.46864000  1.0 -0.192950021
F  F67  1  0.81365000  0.45454000  0.96864000  1.0 -0.192950021
F  F68  1  0.18635000  0.45454000  0.53136000  1.0 -0.192950021
F  F69  1  0.15320000  0.73831000  0.98531000  1.0 -0.192950021
F  F70  1  0.84680000  0.73831000  0.51469000  1.0 -0.192950021
F  F71  1  0.84680000  0.26169000  0.01469000  1.0 -0.192950021
F  F72  1  0.15320000  0.26169000  0.48531000  1.0 -0.192950021
