# DDEC6 charges by PACMAN v1.1 (https://github.com/mtap-research/PACMAN-charge/)
data_VAHSON_ASR_pacman
_symmetry_space_group_name_H-M   'P 1'
_cell_length_a   9.36190000
_cell_length_b   10.11580000
_cell_length_c   12.64560000
_cell_angle_alpha   98.48500000
_cell_angle_beta   107.01800000
_cell_angle_gamma   105.42400000
_symmetry_Int_Tables_number   1
_chemical_formula_structural   Ga4P5HO20
_chemical_formula_sum   'Ga8 P10 H2 O40'
_cell_volume   1070.38709228
_cell_formula_units_Z   2
loop_
 _symmetry_equiv_pos_site_id
 _symmetry_equiv_pos_as_xyz
  1  'x, y, z'
loop_
 _atom_site_type_symbol
 _atom_site_label
 _atom_site_symmetry_multiplicity
 _atom_site_fract_x
 _atom_site_fract_y
 _atom_site_fract_z
 _atom_site_occupancy
 _atom_site_charge
Ga  Ga1  1  0.77725000  0.09779000  0.51184000  1.0 1.5441142301
Ga  Ga2  1  0.22275000  0.90221000  0.48816000  1.0 1.5441142301
Ga  Ga3  1  0.78445000  0.60168000  0.51664000  1.0 1.5306240598
Ga  Ga4  1  0.21555000  0.39832000  0.48336000  1.0 1.5306240598
Ga  Ga5  1  0.49811000  0.20143000  0.22769000  1.0 1.5306240598
Ga  Ga6  1  0.50189000  0.79857000  0.77231000  1.0 1.5306240598
Ga  Ga7  1  0.51244000  0.69117000  0.21973000  1.0 1.5472612957
Ga  Ga8  1  0.48756000  0.30883000  0.78027000  1.0 1.5441142301
P  P1  1  0.41700000  0.95460000  0.32450000  1.0 1.5748258809
P  P2  1  0.58300000  0.04540000  0.67550000  1.0 1.5767685155
P  P3  1  0.42290000  0.46470000  0.33500000  1.0 1.5584795217
P  P4  1  0.57710000  0.53530000  0.66500000  1.0 1.5584795217
P  P5  1  0.84080000  0.33940000  0.39230000  1.0 1.5584795217
P  P6  1  0.15920000  0.66060000  0.60770000  1.0 1.5584795217
P  P7  1  0.15500000  0.16130000  0.60440000  1.0 1.5584795217
P  P8  1  0.84500000  0.83870000  0.39560000  1.0 1.5472612957
P  P9  1  0.49570000  0.18960000  0.98290000  1.0 1.5173684339
P  P10  1  0.50430000  0.81040000  0.01710000  1.0 1.5139447431
H  H1  1  0.63600000  0.07600000  0.05500000  1.0 0.4073984603
H  H2  1  0.36400000  0.92400000  0.94500000  1.0 0.4073984603
O  O1  1  0.56080000  0.05590000  0.41980000  1.0 -0.7420026084
O  O2  1  0.43920000  0.94410000  0.58020000  1.0 -0.7420026084
O  O3  1  0.26830000  0.92610000  0.35720000  1.0 -0.6920982619
O  O4  1  0.73170000  0.07390000  0.64280000  1.0 -0.6920982619
O  O5  1  0.83040000  0.28490000  0.49800000  1.0 -0.7582925727
O  O6  1  0.16960000  0.71510000  0.50200000  1.0 -0.7582925727
O  O7  1  0.99550000  0.14160000  0.61910000  1.0 -0.6705362072
O  O8  1  0.00450000  0.85840000  0.38090000  1.0 -0.6705362072
O  O9  1  0.19090000  0.02220000  0.59840000  1.0 -0.7500638982
O  O10  1  0.80910000  0.97780000  0.40160000  1.0 -0.7500638982
O  O11  1  0.56780000  0.57030000  0.42740000  1.0 -0.7500638982
O  O12  1  0.43220000  0.42970000  0.57260000  1.0 -0.7500638982
O  O13  1  0.27280000  0.45660000  0.36410000  1.0 -0.6920982619
O  O14  1  0.72720000  0.54340000  0.63590000  1.0 -0.6920982619
O  O15  1  0.82170000  0.48640000  0.40570000  1.0 -0.7582925727
O  O16  1  0.17830000  0.51360000  0.59430000  1.0 -0.7582925727
O  O17  1  0.99660000  0.34780000  0.37330000  1.0 -0.6705362072
O  O18  1  0.00340000  0.65220000  0.62670000  1.0 -0.6705362072
O  O19  1  0.16230000  0.21200000  0.49750000  1.0 -0.7500638982
O  O20  1  0.83770000  0.78800000  0.50250000  1.0 -0.7500638982
O  O21  1  0.38440000  0.02170000  0.22120000  1.0 -0.7330653389
O  O22  1  0.61560000  0.97830000  0.77880000  1.0 -0.7330653389
O  O23  1  0.43300000  0.31530000  0.31370000  1.0 -0.7420026084
O  O24  1  0.56700000  0.68470000  0.68630000  1.0 -0.7420026084
O  O25  1  0.71070000  0.23840000  0.28360000  1.0 -0.7330653389
O  O26  1  0.28930000  0.76160000  0.71640000  1.0 -0.7330653389
O  O27  1  0.44580000  0.23150000  0.08380000  1.0 -0.7001810888
O  O28  1  0.55420000  0.76850000  0.91620000  1.0 -0.7001810888
O  O29  1  0.43050000  0.80870000  0.28610000  1.0 -0.7420026084
O  O30  1  0.56950000  0.19130000  0.71390000  1.0 -0.7420026084
O  O31  1  0.40030000  0.51560000  0.22340000  1.0 -0.718345048
O  O32  1  0.59970000  0.48440000  0.77660000  1.0 -0.718345048
O  O33  1  0.27580000  0.26990000  0.71340000  1.0 -0.7420026084
O  O34  1  0.72420000  0.73010000  0.28660000  1.0 -0.7420026084
O  O35  1  0.53020000  0.31840000  0.93210000  1.0 -0.6846551915
O  O36  1  0.46980000  0.68160000  0.06790000  1.0 -0.6846551915
O  O37  1  0.65900000  0.16620000  0.02840000  1.0 -0.596029224
O  O38  1  0.34100000  0.83380000  0.97160000  1.0 -0.592418613
O  O39  1  0.37200000  0.06060000  0.89710000  1.0 -0.7001810888
O  O40  1  0.62800000  0.93940000  0.10290000  1.0 -0.6920982619
