# DDEC6 charges by PACMAN v1.1 (https://github.com/mtap-research/PACMAN-charge/)
data_VAHTUW_ASR_pacman
_symmetry_space_group_name_H-M   'P 1'
_cell_length_a   46.53330000
_cell_length_b   44.94250000
_cell_length_c   15.59970000
_cell_angle_alpha   85.99910000
_cell_angle_beta   74.46350000
_cell_angle_gamma   19.53730000
_symmetry_Int_Tables_number   1
_chemical_formula_structural   Tb3H96(C21O2)8
_chemical_formula_sum   'Tb6 H192 C336 O32'
_cell_volume   8659.15806576
_cell_formula_units_Z   2
loop_
 _symmetry_equiv_pos_site_id
 _symmetry_equiv_pos_as_xyz
  1  'x, y, z'
loop_
 _atom_site_type_symbol
 _atom_site_label
 _atom_site_symmetry_multiplicity
 _atom_site_fract_x
 _atom_site_fract_y
 _atom_site_fract_z
 _atom_site_occupancy
 _atom_site_charge
Tb  Tb1  1  0.90207000  0.09995000  0.52389000  1.0 2.128697389
Tb  Tb2  1  0.52389000  0.47409000  0.90207000  1.0 2.128697389
Tb  Tb3  1  0.15005000  0.34793000  0.77591000  1.0 2.128697389
Tb  Tb4  1  0.77591000  0.72611000  0.15005000  1.0 2.128697389
Tb  Tb5  1  0.29101000  0.70899000  0.29101000  1.0 2.1376734312
Tb  Tb6  1  0.54101000  0.95899000  0.54101000  1.0 2.1376734312
H  H1  1  0.10200000  0.65720000  0.09260000  1.0 0.1100040833
H  H2  1  0.09260000  0.14820000  0.10200000  1.0 0.1100040833
H  H3  1  0.59280000  0.14800000  0.10180000  1.0 0.1100040833
H  H4  1  0.10180000  0.15740000  0.59280000  1.0 0.1100040833
H  H5  1  0.23510000  0.55410000  0.94410000  1.0 0.1010405825
H  H6  1  0.94410000  0.26670000  0.23510000  1.0 0.1010405825
H  H7  1  0.69590000  0.01490000  0.98330000  1.0 0.1010405825
H  H8  1  0.98330000  0.30590000  0.69590000  1.0 0.1010405825
H  H9  1  0.25240000  0.59000000  0.94320000  1.0 0.1010405825
H  H10  1  0.94320000  0.21440000  0.25240000  1.0 0.1010405825
H  H11  1  0.66000000  0.99760000  0.03560000  1.0 0.1010405825
H  H12  1  0.03560000  0.30680000  0.66000000  1.0 0.1010405825
H  H13  1  0.17560000  0.68480000  0.10680000  1.0 0.1100040833
H  H14  1  0.10680000  0.03280000  0.17560000  1.0 0.1100040833
H  H15  1  0.56520000  0.07440000  0.21720000  1.0 0.1100040833
H  H16  1  0.21720000  0.14320000  0.56520000  1.0 0.1100040833
H  H17  1  0.19060000  0.68180000  0.25820000  1.0 0.1100040833
H  H18  1  0.25820000  0.86940000  0.19060000  1.0 0.1100040833
H  H19  1  0.56820000  0.05940000  0.38060000  1.0 0.1100040833
H  H20  1  0.38060000  0.99180000  0.56820000  1.0 0.1100040833
H  H21  1  0.19920000  0.72260000  0.28560000  1.0 0.1100040833
H  H22  1  0.28560000  0.79260000  0.19920000  1.0 0.1100040833
H  H23  1  0.52740000  0.05080000  0.45740000  1.0 0.1100040833
H  H24  1  0.45740000  0.96440000  0.52740000  1.0 0.1100040833
H  H25  1  0.89950000  0.02310000  0.36110000  1.0 0.1198690966
H  H26  1  0.36110000  0.71630000  0.89950000  1.0 0.1198690966
H  H27  1  0.22690000  0.35050000  0.53370000  1.0 0.1198690966
H  H28  1  0.53370000  0.88890000  0.22690000  1.0 0.1198690966
H  H29  1  0.89020000  0.98340000  0.34500000  1.0 0.1100040833
H  H30  1  0.34500000  0.78140000  0.89020000  1.0 0.1100040833
H  H31  1  0.26660000  0.35980000  0.46860000  1.0 0.1100040833
H  H32  1  0.46860000  0.90500000  0.26660000  1.0 0.1100040833
H  H33  1  0.18890000  0.73210000  0.53570000  1.0 0.1321209456
H  H34  1  0.53570000  0.54330000  0.18890000  1.0 0.1321209456
H  H35  1  0.51790000  0.06110000  0.70670000  1.0 0.1321209456
H  H36  1  0.70670000  0.71430000  0.51790000  1.0 0.1321209456
H  H37  1  0.14980000  0.72480000  0.61860000  1.0 0.1198690966
H  H38  1  0.61860000  0.50680000  0.14980000  1.0 0.1198690966
H  H39  1  0.52520000  0.10020000  0.74320000  1.0 0.1198690966
H  H40  1  0.74320000  0.63140000  0.52520000  1.0 0.1198690966
H  H41  1  0.85610000  0.01470000  0.68470000  1.0 0.1198690966
H  H42  1  0.68470000  0.44450000  0.85610000  1.0 0.1198690966
H  H43  1  0.23530000  0.39390000  0.80550000  1.0 0.1198690966
H  H44  1  0.80550000  0.56530000  0.23530000  1.0 0.1198690966
H  H45  1  0.88960000  0.03200000  0.63080000  1.0 0.1198690966
H  H46  1  0.63080000  0.44760000  0.88960000  1.0 0.1198690966
H  H47  1  0.21800000  0.36040000  0.80240000  1.0 0.1198690966
H  H48  1  0.80240000  0.61920000  0.21800000  1.0 0.1198690966
H  H49  1  0.10450000  0.73790000  0.47870000  1.0 0.1100040833
H  H50  1  0.47870000  0.67890000  0.10450000  1.0 0.1100040833
H  H51  1  0.51210000  0.14550000  0.57110000  1.0 0.1100040833
H  H52  1  0.57110000  0.77130000  0.51210000  1.0 0.1100040833
H  H53  1  0.21600000  0.59760000  0.35360000  1.0 0.1010405825
H  H54  1  0.35360000  0.83280000  0.21600000  1.0 0.1010405825
H  H55  1  0.65240000  0.03400000  0.41720000  1.0 0.1010405825
H  H56  1  0.41720000  0.89640000  0.65240000  1.0 0.1010405825
H  H57  1  0.19800000  0.56420000  0.41620000  1.0 0.1010405825
H  H58  1  0.41620000  0.82160000  0.19800000  1.0 0.1010405825
H  H59  1  0.68580000  0.05200000  0.42840000  1.0 0.1010405825
H  H60  1  0.42840000  0.83380000  0.68580000  1.0 0.1010405825
H  H61  1  0.08050000  0.66150000  0.59050000  1.0 0.1100040833
H  H62  1  0.59050000  0.66750000  0.08050000  1.0 0.1100040833
H  H63  1  0.58850000  0.16950000  0.58250000  1.0 0.1100040833
H  H64  1  0.58250000  0.65950000  0.58850000  1.0 0.1100040833
H  H65  1  0.80120000  0.95660000  0.97340000  1.0 0.1100040833
H  H66  1  0.97340000  0.26880000  0.80120000  1.0 0.1100040833
H  H67  1  0.29340000  0.44880000  0.98120000  1.0 0.1100040833
H  H68  1  0.98120000  0.27660000  0.29340000  1.0 0.1100040833
H  H69  1  0.70490000  0.08470000  0.10210000  1.0 0.1010405825
H  H70  1  0.10210000  0.10830000  0.70490000  1.0 0.1010405825
H  H71  1  0.16530000  0.54510000  0.14170000  1.0 0.1010405825
H  H72  1  0.14170000  0.14790000  0.16530000  1.0 0.1010405825
H  H73  1  0.74320000  0.10060000  0.04000000  1.0 0.1100040833
H  H74  1  0.04000000  0.11620000  0.74320000  1.0 0.1100040833
H  H75  1  0.14940000  0.50680000  0.13380000  1.0 0.1100040833
H  H76  1  0.13380000  0.21000000  0.14940000  1.0 0.1100040833
H  H77  1  0.85090000  0.01050000  0.86450000  1.0 0.1198690966
H  H78  1  0.86450000  0.27410000  0.85090000  1.0 0.1198690966
H  H79  1  0.23950000  0.39910000  0.97590000  1.0 0.1198690966
H  H80  1  0.97590000  0.38550000  0.23950000  1.0 0.1198690966
H  H81  1  0.03770000  0.73150000  0.85990000  1.0 0.1100040833
H  H82  1  0.85990000  0.37090000  0.03770000  1.0 0.1100040833
H  H83  1  0.51850000  0.21230000  0.87910000  1.0 0.1100040833
H  H84  1  0.87910000  0.39010000  0.51850000  1.0 0.1100040833
H  H85  1  0.11100000  0.64040000  0.93760000  1.0 0.1100040833
H  H86  1  0.93760000  0.31100000  0.11100000  1.0 0.1010405825
H  H87  1  0.60960000  0.13900000  0.93900000  1.0 0.1100040833
H  H88  1  0.93900000  0.31240000  0.60960000  1.0 0.1100040833
H  H89  1  0.11150000  0.58910000  0.97470000  1.0 0.1100040833
H  H90  1  0.97470000  0.32470000  0.11150000  1.0 0.1100040833
H  H91  1  0.66090000  0.13850000  0.92530000  1.0 0.1100040833
H  H92  1  0.92530000  0.27530000  0.66090000  1.0 0.1100040833
H  H93  1  0.02020000  0.64700000  0.95260000  1.0 0.1198690966
H  H94  1  0.95260000  0.38020000  0.02020000  1.0 0.1198690966
H  H95  1  0.60300000  0.22980000  0.86980000  1.0 0.1198690966
H  H96  1  0.86980000  0.29740000  0.60300000  1.0 0.1198690966
H  H97  1  0.83220000  0.91060000  0.70780000  1.0 0.1198690966
H  H98  1  0.70780000  0.54940000  0.83220000  1.0 0.1198690966
H  H99  1  0.33940000  0.41780000  0.70060000  1.0 0.1198690966
H  H100  1  0.70060000  0.54220000  0.33940000  1.0 0.1198690966
H  H101  1  0.73620000  0.97100000  0.69060000  1.0 0.1198690966
H  H102  1  0.69060000  0.60220000  0.73620000  1.0 0.1198690966
H  H103  1  0.27900000  0.51380000  0.64780000  1.0 0.1198690966
H  H104  1  0.64780000  0.55940000  0.27900000  1.0 0.1198690966
H  H105  1  0.75540000  0.90280000  0.70800000  1.0 0.1198690966
H  H106  1  0.70800000  0.63380000  0.75540000  1.0 0.1198690966
H  H107  1  0.34720000  0.49460000  0.61620000  1.0 0.1198690966
H  H108  1  0.61620000  0.54200000  0.34720000  1.0 0.1198690966
H  H109  1  0.81380000  0.82620000  0.79600000  1.0 0.1198690966
H  H110  1  0.79600000  0.56400000  0.81380000  1.0 0.1198690966
H  H111  1  0.42380000  0.43620000  0.68600000  1.0 0.1198690966
H  H112  1  0.68600000  0.45400000  0.42380000  1.0 0.1198690966
H  H113  1  0.05980000  0.58020000  0.71740000  1.0 0.1198690966
H  H114  1  0.71740000  0.64260000  0.05980000  1.0 0.1198690966
H  H115  1  0.66980000  0.19020000  0.60740000  1.0 0.1198690966
H  H116  1  0.60740000  0.53260000  0.66980000  1.0 0.1198690966
H  H117  1  0.09630000  0.49670000  0.74350000  1.0 0.1198690966
H  H118  1  0.74350000  0.66350000  0.09630000  1.0 0.1198690966
H  H119  1  0.75330000  0.15370000  0.58650000  1.0 0.1198690966
H  H120  1  0.58650000  0.50650000  0.75330000  1.0 0.1198690966
H  H121  1  0.83550000  0.74810000  0.04890000  1.0 0.1100040833
H  H122  1  0.04890000  0.36750000  0.83550000  1.0 0.1100040833
H  H123  1  0.50190000  0.41450000  0.88250000  1.0 0.1100040833
H  H124  1  0.88250000  0.20110000  0.50190000  1.0 0.1100040833
H  H125  1  0.80020000  0.82960000  0.01580000  1.0 0.1198690966
H  H126  1  0.01580000  0.35440000  0.80020000  1.0 0.1198690966
H  H127  1  0.42040000  0.44980000  0.89560000  1.0 0.1198690966
H  H128  1  0.89560000  0.23420000  0.42040000  1.0 0.1198690966
H  H129  1  0.89400000  0.95040000  0.51460000  1.0 0.1100040833
H  H130  1  0.51460000  0.64100000  0.89400000  1.0 0.1100040833
H  H131  1  0.29960000  0.35600000  0.60900000  1.0 0.1100040833
H  H132  1  0.60900000  0.73540000  0.29960000  1.0 0.1100040833
H  H133  1  0.77010000  0.04110000  0.65890000  1.0 0.1100040833
H  H134  1  0.65890000  0.52990000  0.77010000  1.0 0.1100040833
H  H135  1  0.20890000  0.47990000  0.72010000  1.0 0.1100040833
H  H136  1  0.72010000  0.59110000  0.20890000  1.0 0.1100040833
H  H137  1  0.72800000  0.03540000  0.65200000  1.0 0.1100040833
H  H138  1  0.65200000  0.58460000  0.72800000  1.0 0.1100040833
H  H139  1  0.21460000  0.52200000  0.66540000  1.0 0.1100040833
H  H140  1  0.66540000  0.59800000  0.21460000  1.0 0.1100040833
H  H141  1  0.81370000  0.93110000  0.50130000  1.0 0.1198690966
H  H142  1  0.50130000  0.75390000  0.81370000  1.0 0.1198690966
H  H143  1  0.31890000  0.43630000  0.49610000  1.0 0.1198690966
H  H144  1  0.49610000  0.74870000  0.31890000  1.0 0.1198690966
H  H145  1  0.06950000  0.67430000  0.37030000  1.0 0.1010405825
H  H146  1  0.37030000  0.88590000  0.06950000  1.0 0.1010405825
H  H147  1  0.57570000  0.18050000  0.36410000  1.0 0.1010405825
H  H148  1  0.36410000  0.87970000  0.57570000  1.0 0.1010405825
H  H149  1  0.11230000  0.59270000  0.44770000  1.0 0.1100040833
H  H150  1  0.44770000  0.84730000  0.11230000  1.0 0.1100040833
H  H151  1  0.65730000  0.13770000  0.40270000  1.0 0.1100040833
H  H152  1  0.40270000  0.80230000  0.65730000  1.0 0.1100040833
H  H153  1  0.05010000  0.60490000  0.46430000  1.0 0.1100040833
H  H154  1  0.46430000  0.88070000  0.05010000  1.0 0.1100040833
H  H155  1  0.64510000  0.19990000  0.36930000  1.0 0.1100040833
H  H156  1  0.36930000  0.78570000  0.64510000  1.0 0.1100040833
H  H157  1  0.97030000  0.67230000  0.38350000  1.0 0.1100040833
H  H158  1  0.38350000  0.97390000  0.97030000  1.0 0.1100040833
H  H159  1  0.57770000  0.27970000  0.27610000  1.0 0.1100040833
H  H160  1  0.27610000  0.86650000  0.57770000  1.0 0.1100040833
H  H161  1  0.81060000  0.85900000  0.20520000  1.0 0.1010405825
H  H162  1  0.20520000  0.12520000  0.81060000  1.0 0.1010405825
H  H163  1  0.39100000  0.43940000  0.12480000  1.0 0.1010405825
H  H164  1  0.12480000  0.04480000  0.39100000  1.0 0.1010405825
H  H165  1  0.75180000  0.95680000  0.14400000  1.0 0.1010405825
H  H166  1  0.14400000  0.14740000  0.75180000  1.0 0.1010405825
H  H167  1  0.29320000  0.49820000  0.10260000  1.0 0.1010405825
H  H168  1  0.10260000  0.10600000  0.29320000  1.0 0.1010405825
H  H169  1  0.80220000  0.95660000  0.14500000  1.0 0.1100040833
H  H170  1  0.14500000  0.09620000  0.80220000  1.0 0.1100040833
H  H171  1  0.29340000  0.44780000  0.15380000  1.0 0.1100040833
H  H172  1  0.15380000  0.10500000  0.29340000  1.0 0.1100040833
H  H173  1  0.88680000  0.88640000  0.20860000  1.0 0.1198690966
H  H174  1  0.20860000  0.01820000  0.88680000  1.0 0.1198690966
H  H175  1  0.36360000  0.36320000  0.23180000  1.0 0.1198690966
H  H176  1  0.23180000  0.04140000  0.36360000  1.0 0.1198690966
H  H177  1  0.97810000  0.66130000  0.14870000  1.0 0.1100040833
H  H178  1  0.14870000  0.21190000  0.97810000  1.0 0.1100040833
H  H179  1  0.58870000  0.27190000  0.03810000  1.0 0.1100040833
H  H180  1  0.03810000  0.10130000  0.58870000  1.0 0.1100040833
H  H181  1  0.90770000  0.68210000  0.15810000  1.0 0.1198690966
H  H182  1  0.15810000  0.25210000  0.90770000  1.0 0.1198690966
H  H183  1  0.56790000  0.34230000  0.99790000  1.0 0.1198690966
H  H184  1  0.99790000  0.09190000  0.56790000  1.0 0.1198690966
H  H185  1  0.69280000  0.89460000  0.47240000  1.0 0.1198690966
H  H186  1  0.47240000  0.94020000  0.69280000  1.0 0.1198690966
H  H187  1  0.35540000  0.55720000  0.30980000  1.0 0.1198690966
H  H188  1  0.30980000  0.77760000  0.35540000  1.0 0.1198690966
H  H189  1  0.73620000  0.90180000  0.45920000  1.0 0.1198690966
H  H190  1  0.45920000  0.90280000  0.73620000  1.0 0.1198690966
H  H191  1  0.34820000  0.51380000  0.34720000  1.0 0.1198690966
H  H192  1  0.34720000  0.79080000  0.34820000  1.0 0.1198690966
C  C1  1  0.11850000  0.66050000  0.09790000  1.0 -0.1489125209
C  C2  1  0.09790000  0.12310000  0.11850000  1.0 -0.1489125209
C  C3  1  0.58950000  0.13150000  0.12690000  1.0 -0.1489125209
C  C4  1  0.12690000  0.15210000  0.58950000  1.0 -0.1489125209
C  C5  1  0.19240000  0.60460000  0.00860000  1.0 -0.1092582475
C  C6  1  0.00860000  0.19440000  0.19240000  1.0 -0.1092582475
C  C7  1  0.64540000  0.05760000  0.05560000  1.0 -0.1092582475
C  C8  1  0.05560000  0.24140000  0.64540000  1.0 -0.1092582475
C  C9  1  0.20940000  0.62000000  0.00780000  1.0 -0.1092582475
C  C10  1  0.00780000  0.16280000  0.20940000  1.0 -0.1092582475
C  C11  1  0.63000000  0.04060000  0.08720000  1.0 -0.1092582475
C  C12  1  0.08720000  0.24220000  0.63000000  1.0 -0.1092582475
C  C13  1  0.15960000  0.68060000  0.10640000  1.0 -0.1583604895
C  C14  1  0.10640000  0.05340000  0.15960000  1.0 -0.1583604895
C  C15  1  0.56940000  0.09040000  0.19660000  1.0 -0.1583604895
C  C16  1  0.19660000  0.14360000  0.56940000  1.0 -0.1583604895
C  C17  1  0.03460000  0.83060000  0.30860000  1.0 0.0791695383
C  C18  1  0.30860000  0.82620000  0.03460000  1.0 0.0791695383
C  C19  1  0.41940000  0.21540000  0.42380000  1.0 0.0791695383
C  C20  1  0.42380000  0.94140000  0.41940000  1.0 0.0791695383
C  C21  1  0.13060000  0.75160000  0.28340000  1.0 -0.171020809
C  C22  1  0.28340000  0.83440000  0.13060000  1.0 -0.171020809
C  C23  1  0.49840000  0.11940000  0.41560000  1.0 -0.171020809
C  C24  1  0.41560000  0.96660000  0.49840000  1.0 -0.171020809
C  C25  1  0.13820000  0.77420000  0.29540000  1.0 -0.0917332227
C  C26  1  0.29540000  0.79220000  0.13820000  1.0 -0.0917332227
C  C27  1  0.47580000  0.11180000  0.45780000  1.0 -0.0917332227
C  C28  1  0.45780000  0.95460000  0.47580000  1.0 -0.0917332227
C  C29  1  0.05640000  0.87200000  0.32120000  1.0 -0.0694883529
C  C30  1  0.32120000  0.75040000  0.05640000  1.0 -0.0694883529
C  C31  1  0.37800000  0.19360000  0.49960000  1.0 -0.0694883529
C  C32  1  0.49960000  0.92880000  0.37800000  1.0 -0.0694883529
C  C33  1  0.95690000  0.95530000  0.34230000  1.0 -0.0917332227
C  C34  1  0.34230000  0.74550000  0.95690000  1.0 -0.0917332227
C  C35  1  0.29470000  0.29310000  0.50450000  1.0 -0.0917332227
C  C36  1  0.50450000  0.90770000  0.29470000  1.0 -0.0917332227
C  C37  1  0.95180000  0.93140000  0.33380000  1.0 -0.1489125209
C  C38  1  0.33380000  0.78300000  0.95180000  1.0 -0.1489125209
C  C39  1  0.31860000  0.29820000  0.46700000  1.0 -0.1489125209
C  C40  1  0.46700000  0.91620000  0.31860000  1.0 -0.1489125209
C  C41  1  0.05990000  0.89970000  0.33650000  1.0 0.6400185983
C  C42  1  0.33650000  0.70390000  0.05990000  1.0 0.6400185983
C  C43  1  0.35030000  0.19010000  0.54610000  1.0 0.6400185983
C  C44  1  0.54610000  0.91350000  0.35030000  1.0 0.6400185983
C  C45  1  0.08310000  0.87830000  0.51790000  1.0 0.6989535625
C  C46  1  0.51790000  0.52070000  0.08310000  1.0 0.6989535625
C  C47  1  0.37170000  0.16690000  0.72930000  1.0 0.6989535625
C  C48  1  0.72930000  0.73210000  0.37170000  1.0 0.6989535625
C  C49  1  0.05510000  0.87050000  0.57310000  1.0 -0.0206966481
C  C50  1  0.57310000  0.50130000  0.05510000  1.0 -0.0206966481
C  C51  1  0.37950000  0.19490000  0.74870000  1.0 -0.0206966481
C  C52  1  0.74870000  0.67690000  0.37950000  1.0 -0.0206966481
C  C53  1  0.11900000  0.79220000  0.57140000  1.0 -0.0782944922
C  C54  1  0.57140000  0.51740000  0.11900000  1.0 -0.0782944922
C  C55  1  0.45780000  0.13100000  0.73260000  1.0 -0.0782944922
C  C56  1  0.73260000  0.67860000  0.45780000  1.0 -0.0782944922
C  C57  1  0.09840000  0.78440000  0.61560000  1.0 -0.171020809
C  C58  1  0.61560000  0.50160000  0.09840000  1.0 -0.171020809
C  C59  1  0.46560000  0.15160000  0.74840000  1.0 -0.171020809
C  C60  1  0.74840000  0.63440000  0.46560000  1.0 -0.171020809
C  C61  1  0.99810000  0.86670000  0.65890000  1.0 0.0791695383
C  C62  1  0.65890000  0.47630000  0.99810000  1.0 0.0791695383
C  C63  1  0.38330000  0.25190000  0.77370000  1.0 0.0791695383
C  C64  1  0.77370000  0.59110000  0.38330000  1.0 0.0791695383
C  C65  1  0.92260000  0.95860000  0.65900000  1.0 -0.171020809
C  C66  1  0.65900000  0.45980000  0.92260000  1.0 -0.171020809
C  C67  1  0.29140000  0.32740000  0.79020000  1.0 -0.171020809
C  C68  1  0.79020000  0.59100000  0.29140000  1.0 -0.171020809
C  C69  1  0.94200000  0.96900000  0.62400000  1.0 -0.0991169638
C  C70  1  0.62400000  0.46500000  0.94200000  1.0 -0.0991169638
C  C71  1  0.28100000  0.30800000  0.78500000  1.0 -0.0991169638
C  C72  1  0.78500000  0.62600000  0.28100000  1.0 -0.0991169638
C  C73  1  0.03540000  0.77720000  0.61720000  1.0 0.0465010163
C  C74  1  0.61720000  0.57020000  0.03540000  1.0 0.0465010163
C  C75  1  0.47280000  0.21460000  0.67980000  1.0 0.0465010163
C  C76  1  0.67980000  0.63280000  0.47280000  1.0 0.0465010163
C  C77  1  0.02190000  0.75870000  0.65950000  1.0 0.0413351305
C  C78  1  0.65950000  0.55990000  0.02190000  1.0 0.0413351305
C  C79  1  0.49130000  0.22810000  0.69010000  1.0 0.0413351305
C  C80  1  0.69010000  0.59050000  0.49130000  1.0 0.0413351305
C  C81  1  0.94890000  0.82130000  0.76290000  1.0 -0.0206966481
C  C82  1  0.76290000  0.46690000  0.94890000  1.0 -0.0206966481
C  C83  1  0.42870000  0.30110000  0.78310000  1.0 -0.0206966481
C  C84  1  0.78310000  0.48710000  0.42870000  1.0 -0.0206966481
C  C85  1  0.88600000  0.90320000  0.84020000  1.0 0.0297599619
C  C86  1  0.84020000  0.37060000  0.88600000  1.0 0.0297599619
C  C87  1  0.34680000  0.36400000  0.87940000  1.0 0.0297599619
C  C88  1  0.87940000  0.40980000  0.34680000  1.0 0.0297599619
C  C89  1  0.89970000  0.92250000  0.81210000  1.0 0.0413351305
C  C90  1  0.81210000  0.36570000  0.89970000  1.0 0.0413351305
C  C91  1  0.32750000  0.35030000  0.88430000  1.0 0.0465010163
C  C92  1  0.88430000  0.43790000  0.32750000  1.0 0.0413351305
C  C93  1  0.97820000  0.85380000  0.69340000  1.0 -0.0586296849
C  C94  1  0.69340000  0.47460000  0.97820000  1.0 -0.0586296849
C  C95  1  0.39620000  0.27180000  0.77540000  1.0 -0.0586296849
C  C96  1  0.77540000  0.55660000  0.39620000  1.0 -0.0586296849
C  C97  1  0.10450000  0.71830000  0.50170000  1.0 -0.1489125209
C  C98  1  0.50170000  0.67550000  0.10450000  1.0 -0.1489125209
C  C99  1  0.53170000  0.14550000  0.57450000  1.0 -0.1489125209
C  C100  1  0.57450000  0.74830000  0.53170000  1.0 -0.1489125209
C  C101  1  0.16760000  0.63820000  0.42660000  1.0 -0.1092582475
C  C102  1  0.42660000  0.76760000  0.16760000  1.0 -0.1092582475
C  C103  1  0.61180000  0.08240000  0.48240000  1.0 -0.1092582475
C  C104  1  0.48240000  0.82340000  0.61180000  1.0 -0.1092582475
C  C105  1  0.15580000  0.61900000  0.46640000  1.0 -0.1092582475
C  C106  1  0.46640000  0.75880000  0.15580000  1.0 -0.1092582475
C  C107  1  0.63100000  0.09420000  0.49120000  1.0 -0.1092582475
C  C108  1  0.49120000  0.78360000  0.63100000  1.0 -0.1092582475
C  C109  1  0.08680000  0.67580000  0.57260000  1.0 -0.171020809
C  C110  1  0.57260000  0.66480000  0.08680000  1.0 -0.171020809
C  C111  1  0.57420000  0.16320000  0.58520000  1.0 -0.171020809
C  C112  1  0.58520000  0.67740000  0.57420000  1.0 -0.171020809
C  C113  1  0.81220000  0.96600000  0.95120000  1.0 -0.171020809
C  C114  1  0.95120000  0.27060000  0.81220000  1.0 -0.171020809
C  C115  1  0.28400000  0.43780000  0.97940000  1.0 -0.171020809
C  C116  1  0.97940000  0.29880000  0.28400000  1.0 -0.171020809
C  C117  1  0.75480000  0.04240000  0.02920000  1.0 -0.1201623577
C  C118  1  0.02920000  0.17360000  0.75480000  1.0 -0.1201623577
C  C119  1  0.20760000  0.49520000  0.07640000  1.0 -0.1201623577
C  C120  1  0.07640000  0.22080000  0.20760000  1.0 -0.1201623577
C  C121  1  0.77700000  0.05340000  0.98980000  1.0 -0.0991169638
C  C122  1  0.98980000  0.17980000  0.77700000  1.0 -0.0991169638
C  C123  1  0.19660000  0.47300000  0.07020000  1.0 -0.0991169638
C  C124  1  0.07020000  0.26020000  0.19660000  1.0 -0.0991169638
C  C125  1  0.84280000  0.99820000  0.88680000  1.0 -0.1297516961
C  C126  1  0.88680000  0.27220000  0.84280000  1.0 -0.1297516961
C  C127  1  0.25180000  0.40720000  0.97780000  1.0 -0.1297516961
C  C128  1  0.97780000  0.36320000  0.25180000  1.0 -0.1297516961
C  C129  1  0.93820000  0.79840000  0.79860000  1.0 -0.0206966481
C  C130  1  0.79860000  0.46480000  0.93820000  1.0 -0.0206966481
C  C131  1  0.45160000  0.31180000  0.78520000  1.0 -0.0206966481
C  C132  1  0.78520000  0.45140000  0.45160000  1.0 -0.0206966481
C  C133  1  0.88010000  0.83430000  0.77770000  1.0 0.0193626177
C  C134  1  0.77770000  0.50790000  0.88010000  1.0 0.0193626177
C  C135  1  0.41570000  0.36990000  0.74210000  1.0 0.0193626177
C  C136  1  0.74210000  0.47230000  0.41570000  1.0 0.0193626177
C  C137  1  0.87910000  0.80430000  0.80050000  1.0 0.0297599619
C  C138  1  0.80050000  0.51610000  0.87910000  1.0 0.0297599619
C  C139  1  0.44570000  0.37090000  0.73390000  1.0 0.0297599619
C  C140  1  0.73390000  0.44950000  0.44570000  1.0 0.0297599619
C  C141  1  0.93150000  0.74090000  0.84610000  1.0 -0.0694883529
C  C142  1  0.84610000  0.48150000  0.93150000  1.0 -0.0694883529
C  C143  1  0.50910000  0.31850000  0.76850000  1.0 -0.0694883529
C  C144  1  0.76850000  0.40390000  0.50910000  1.0 -0.0694883529
C  C145  1  0.97900000  0.71660000  0.87520000  1.0 0.0297599619
C  C146  1  0.87520000  0.42920000  0.97900000  1.0 0.0297599619
C  C147  1  0.53340000  0.27100000  0.82080000  1.0 0.0297599619
C  C148  1  0.82080000  0.37480000  0.53340000  1.0 0.0297599619
C  C149  1  0.97850000  0.74730000  0.84410000  1.0 0.0193626177
C  C150  1  0.84410000  0.43010000  0.97850000  1.0 0.0193626177
C  C151  1  0.50270000  0.27150000  0.81990000  1.0 0.0193626177
C  C152  1  0.81990000  0.40590000  0.50270000  1.0 0.0193626177
C  C153  1  0.03440000  0.71420000  0.87400000  1.0 -0.1489125209
C  C154  1  0.87400000  0.37740000  0.03440000  1.0 -0.1489125209
C  C155  1  0.53580000  0.21560000  0.87260000  1.0 -0.1489125209
C  C156  1  0.87260000  0.37600000  0.53580000  1.0 -0.1489125209
C  C157  1  0.07780000  0.65980000  0.92080000  1.0 -0.1201623577
C  C158  1  0.92080000  0.34160000  0.07780000  1.0 -0.1201623577
C  C159  1  0.59020000  0.17220000  0.90840000  1.0 -0.1201623577
C  C160  1  0.90840000  0.32920000  0.59020000  1.0 -0.1201623577
C  C161  1  0.07640000  0.63020000  0.94620000  1.0 -0.0782944922
C  C162  1  0.94620000  0.34720000  0.07640000  1.0 -0.0782944922
C  C163  1  0.61980000  0.17360000  0.90280000  1.0 -0.0782944922
C  C164  1  0.90280000  0.30380000  0.61980000  1.0 -0.0782944922
C  C165  1  0.02680000  0.66060000  0.92960000  1.0 -0.1297516961
C  C166  1  0.92960000  0.38300000  0.02680000  1.0 -0.1297516961
C  C167  1  0.58940000  0.22320000  0.86700000  1.0 -0.1297516961
C  C168  1  0.86700000  0.32040000  0.58940000  1.0 -0.1297516961
C  C169  1  0.82860000  0.89400000  0.72880000  1.0 -0.1583604895
C  C170  1  0.72880000  0.54860000  0.82860000  1.0 -0.1583604895
C  C171  1  0.35600000  0.42140000  0.70140000  1.0 -0.1583604895
C  C172  1  0.70140000  0.52120000  0.35600000  1.0 -0.1583604895
C  C173  1  0.77660000  0.92520000  0.71340000  1.0 -0.1092582475
C  C174  1  0.71340000  0.58480000  0.77660000  1.0 -0.1092582475
C  C175  1  0.32480000  0.47340000  0.66520000  1.0 -0.1092582475
C  C176  1  0.66520000  0.53660000  0.32480000  1.0 -0.1092582475
C  C177  1  0.78230000  0.88950000  0.73170000  1.0 -0.0991169638
C  C178  1  0.73170000  0.59650000  0.78230000  1.0 -0.0991169638
C  C179  1  0.36050000  0.46770000  0.65350000  1.0 -0.0991169638
C  C180  1  0.65350000  0.51830000  0.36050000  1.0 -0.0991169638
C  C181  1  0.82100000  0.83960000  0.77780000  1.0 -0.1297516961
C  C182  1  0.77780000  0.56160000  0.82100000  1.0 -0.1297516961
C  C183  1  0.41040000  0.42900000  0.68840000  1.0 -0.1297516961
C  C184  1  0.68840000  0.47220000  0.41040000  1.0 -0.1297516961
C  C185  1  0.93980000  0.70080000  0.86600000  1.0 0.0735973726
C  C186  1  0.86600000  0.49340000  0.93980000  1.0 0.0735973726
C  C187  1  0.54920000  0.31020000  0.75660000  1.0 0.0735973726
C  C188  1  0.75660000  0.38400000  0.54920000  1.0 0.0735973726
C  C189  1  0.01620000  0.61260000  0.78600000  1.0 -0.140969325
C  C190  1  0.78600000  0.58520000  0.01620000  1.0 -0.140969325
C  C191  1  0.63740000  0.23380000  0.66480000  1.0 -0.140969325
C  C192  1  0.66480000  0.46400000  0.63740000  1.0 -0.140969325
C  C193  1  0.03460000  0.56520000  0.80020000  1.0 -0.1201623577
C  C194  1  0.80020000  0.60000000  0.03460000  1.0 -0.1201623577
C  C195  1  0.68480000  0.21540000  0.65000000  1.0 -0.1201623577
C  C196  1  0.65000000  0.44980000  0.68480000  1.0 -0.1201623577
C  C197  1  0.96410000  0.61650000  0.89630000  1.0 -0.0369933602
C  C198  1  0.89630000  0.52310000  0.96410000  1.0 -0.0369933602
C  C199  1  0.63350000  0.28590000  0.72690000  1.0 -0.0369933602
C  C200  1  0.72690000  0.35370000  0.63350000  1.0 -0.0369933602
C  C201  1  0.88070000  0.71350000  0.97950000  1.0 -0.0991169638
C  C202  1  0.97950000  0.42630000  0.88070000  1.0 -0.0991169638
C  C203  1  0.53650000  0.36930000  0.82370000  1.0 -0.0991169638
C  C204  1  0.82370000  0.27050000  0.53650000  1.0 -0.0991169638
C  C205  1  0.86320000  0.75940000  0.96260000  1.0 -0.171020809
C  C206  1  0.96260000  0.41480000  0.86320000  1.0 -0.171020809
C  C207  1  0.49060000  0.38680000  0.83520000  1.0 -0.171020809
C  C208  1  0.83520000  0.28740000  0.49060000  1.0 -0.171020809
C  C209  1  0.98480000  0.56460000  0.90880000  1.0 0.6400185983
C  C210  1  0.90880000  0.54180000  0.98480000  1.0 0.6400185983
C  C211  1  0.68540000  0.26520000  0.70820000  1.0 0.6400185983
C  C212  1  0.70820000  0.34120000  0.68540000  1.0 0.6400185983
C  C213  1  0.02608000  0.80728000  0.29852000  1.0 -0.0467428741
C  C214  1  0.29852000  0.86812000  0.02608000  1.0 -0.0467428741
C  C215  1  0.44272000  0.22392000  0.38188000  1.0 -0.0467428741
C  C216  1  0.38188000  0.95148000  0.44272000  1.0 -0.0467428741
C  C217  1  0.08470000  0.73650000  0.20710000  1.0 0.0465010163
C  C218  1  0.20710000  0.97170000  0.08470000  1.0 0.0465010163
C  C219  1  0.51350000  0.16530000  0.27830000  1.0 0.0465010163
C  C220  1  0.27830000  0.04290000  0.51350000  1.0 0.0465010163
C  C221  1  0.06220000  0.72600000  0.20300000  1.0 0.0413351305
C  C222  1  0.20300000  0.00880000  0.06220000  1.0 0.0413351305
C  C223  1  0.52400000  0.18780000  0.24120000  1.0 0.0413351305
C  C224  1  0.24120000  0.04700000  0.52400000  1.0 0.0413351305
C  C225  1  0.98490000  0.78530000  0.29590000  1.0 -0.0369933602
C  C226  1  0.29590000  0.93390000  0.98490000  1.0 -0.0369933602
C  C227  1  0.46470000  0.26510000  0.31610000  1.0 -0.0369933602
C  C228  1  0.31610000  0.95410000  0.46470000  1.0 -0.0369933602
C  C229  1  0.92760000  0.85380000  0.39800000  1.0 0.0413351305
C  C230  1  0.39800000  0.82060000  0.92760000  1.0 0.0413351305
C  C231  1  0.39620000  0.32240000  0.42940000  1.0 0.0413351305
C  C232  1  0.42940000  0.85200000  0.39620000  1.0 0.0413351305
C  C233  1  0.94390000  0.87130000  0.40070000  1.0 0.0465010163
C  C234  1  0.40070000  0.78410000  0.94390000  1.0 0.0465010163
C  C235  1  0.37870000  0.30610000  0.46590000  1.0 0.0465010163
C  C236  1  0.46590000  0.84930000  0.37870000  1.0 0.0465010163
C  C237  1  0.88210000  0.94250000  0.50630000  1.0 -0.1583604895
C  C238  1  0.50630000  0.66910000  0.88210000  1.0 -0.1583604895
C  C239  1  0.30750000  0.36790000  0.58090000  1.0 -0.1583604895
C  C240  1  0.58090000  0.74370000  0.30750000  1.0 -0.1583604895
C  C241  1  0.80810000  0.99650000  0.59170000  1.0 -0.1092582475
C  C242  1  0.59170000  0.60370000  0.80810000  1.0 -0.1092582475
C  C243  1  0.25350000  0.44190000  0.64630000  1.0 -0.1092582475
C  C244  1  0.64630000  0.65830000  0.25350000  1.0 -0.1092582475
C  C245  1  0.78380000  0.99180000  0.58860000  1.0 -0.0991169638
C  C246  1  0.58860000  0.63580000  0.78380000  1.0 -0.0991169638
C  C247  1  0.25820000  0.46620000  0.61420000  1.0 -0.0991169638
C  C248  1  0.61420000  0.66140000  0.25820000  1.0 -0.0991169638
C  C249  1  0.83550000  0.92910000  0.50050000  1.0 -0.140969325
C  C250  1  0.50050000  0.73490000  0.83550000  1.0 -0.140969325
C  C251  1  0.32090000  0.41450000  0.51510000  1.0 -0.140969325
C  C252  1  0.51510000  0.74950000  0.32090000  1.0 -0.140969325
C  C253  1  0.96500000  0.77320000  0.29280000  1.0 -0.0369933602
C  C254  1  0.29280000  0.96900000  0.96500000  1.0 -0.0369933602
C  C255  1  0.47680000  0.28500000  0.28100000  1.0 -0.0369933602
C  C256  1  0.28100000  0.95720000  0.47680000  1.0 -0.0369933602
C  C257  1  0.90800000  0.82060000  0.24900000  1.0 0.0193626177
C  C258  1  0.24900000  0.02240000  0.90800000  1.0 0.0193626177
C  C259  1  0.42940000  0.34200000  0.22760000  1.0 0.0193626177
C  C260  1  0.22760000  0.00100000  0.42940000  1.0 0.0193626177
C  C261  1  0.87890000  0.81950000  0.25130000  1.0 0.0297599619
C  C262  1  0.25130000  0.05030000  0.87890000  1.0 0.0297599619
C  C263  1  0.43050000  0.37110000  0.19970000  1.0 0.0297599619
C  C264  1  0.19970000  0.99870000  0.43050000  1.0 0.0297599619
C  C265  1  0.90430000  0.77190000  0.29510000  1.0 -0.0206966481
C  C266  1  0.29510000  0.02870000  0.90430000  1.0 -0.0206966481
C  C267  1  0.47810000  0.34570000  0.22130000  1.0 -0.0206966481
C  C268  1  0.22130000  0.95490000  0.47810000  1.0 -0.0206966481
C  C269  1  0.95910000  0.72310000  0.34110000  1.0 0.0297599619
C  C270  1  0.34110000  0.97670000  0.95910000  1.0 0.0297599619
C  C271  1  0.52690000  0.29090000  0.27330000  1.0 0.0297599619
C  C272  1  0.27330000  0.90890000  0.52690000  1.0 0.0297599619
C  C273  1  0.98400000  0.73080000  0.33780000  1.0 0.0297599619
C  C274  1  0.33780000  0.94740000  0.98400000  1.0 0.0297599619
C  C275  1  0.51920000  0.26600000  0.30260000  1.0 0.0297599619
C  C276  1  0.30260000  0.91220000  0.51920000  1.0 0.0297599619
C  C277  1  0.04710000  0.67650000  0.37550000  1.0 -0.171020809
C  C278  1  0.37550000  0.90090000  0.04710000  1.0 -0.171020809
C  C279  1  0.57350000  0.20290000  0.34910000  1.0 -0.171020809
C  C280  1  0.34910000  0.87450000  0.57350000  1.0 -0.171020809
C  C281  1  0.07270000  0.62710000  0.42270000  1.0 -0.0991169638
C  C282  1  0.42270000  0.87750000  0.07270000  1.0 -0.0991169638
C  C283  1  0.62290000  0.17730000  0.37250000  1.0 -0.0991169638
C  C284  1  0.37250000  0.82730000  0.62290000  1.0 -0.0991169638
C  C285  1  0.03870000  0.63130000  0.42970000  1.0 -0.1201623577
C  C286  1  0.42970000  0.90030000  0.03870000  1.0 -0.1201623577
C  C287  1  0.61870000  0.21130000  0.34970000  1.0 -0.1201623577
C  C288  1  0.34970000  0.82030000  0.61870000  1.0 -0.1201623577
C  C289  1  0.98660000  0.67640000  0.38340000  1.0 -0.1201623577
C  C290  1  0.38340000  0.95360000  0.98660000  1.0 -0.1201623577
C  C291  1  0.57360000  0.26340000  0.29640000  1.0 -0.1201623577
C  C292  1  0.29640000  0.86660000  0.57360000  1.0 -0.1201623577
C  C293  1  0.82470000  0.86510000  0.20850000  1.0 -0.1764525686
C  C294  1  0.20850000  0.10170000  0.82470000  1.0 -0.1764525686
C  C295  1  0.38490000  0.42530000  0.14830000  1.0 -0.1764525686
C  C296  1  0.14830000  0.04150000  0.38490000  1.0 -0.1764525686
C  C297  1  0.79120000  0.92200000  0.16960000  1.0 -0.1201623577
C  C298  1  0.16960000  0.11720000  0.79120000  1.0 -0.1201623577
C  C299  1  0.32800000  0.45880000  0.13280000  1.0 -0.1201623577
C  C300  1  0.13280000  0.08040000  0.32800000  1.0 -0.1201623577
C  C301  1  0.82180000  0.92220000  0.17220000  1.0 -0.0782944922
C  C302  1  0.17220000  0.08380000  0.82180000  1.0 -0.0782944922
C  C303  1  0.32780000  0.42820000  0.16620000  1.0 -0.0782944922
C  C304  1  0.16620000  0.07780000  0.32780000  1.0 -0.0782944922
C  C305  1  0.87210000  0.88070000  0.20770000  1.0 -0.1201623577
C  C306  1  0.20770000  0.03950000  0.87210000  1.0 -0.1201623577
C  C307  1  0.36930000  0.37790000  0.21050000  1.0 -0.1201623577
C  C308  1  0.21050000  0.04230000  0.36930000  1.0 -0.1201623577
C  C309  1  0.86420000  0.77760000  0.30420000  1.0 0.0791695383
C  C310  1  0.30420000  0.05400000  0.86420000  1.0 0.0791695383
C  C311  1  0.47240000  0.38580000  0.19600000  1.0 0.0791695383
C  C312  1  0.19600000  0.94580000  0.47240000  1.0 0.0791695383
C  C313  1  0.91710000  0.71190000  0.21350000  1.0 -0.1583604895
C  C314  1  0.21350000  0.15750000  0.91710000  1.0 -0.1583604895
C  C315  1  0.53810000  0.33290000  0.09250000  1.0 -0.1583604895
C  C316  1  0.09250000  0.03650000  0.53810000  1.0 -0.1583604895
C  C317  1  0.87570000  0.72310000  0.22070000  1.0 -0.1092582475
C  C318  1  0.22070000  0.18050000  0.87570000  1.0 -0.1092582475
C  C319  1  0.52690000  0.37430000  0.06950000  1.0 -0.1092582475
C  C320  1  0.06950000  0.02930000  0.52690000  1.0 -0.1092582475
C  C321  1  0.79240000  0.79060000  0.31480000  1.0 -0.0206966481
C  C322  1  0.31480000  0.10220000  0.79240000  1.0 -0.0206966481
C  C323  1  0.45940000  0.45760000  0.14780000  1.0 -0.0206966481
C  C324  1  0.14780000  0.93520000  0.45940000  1.0 -0.0206966481
C  C325  1  0.74650000  0.85170000  0.40490000  1.0 -0.1297516961
C  C326  1  0.40490000  0.99690000  0.74650000  1.0 -0.1297516961
C  C327  1  0.39830000  0.50350000  0.25310000  1.0 -0.1297516961
C  C328  1  0.25310000  0.84510000  0.39830000  1.0 -0.1297516961
C  C329  1  0.77560000  0.85220000  0.39960000  1.0 -0.140969325
C  C330  1  0.39960000  0.97260000  0.77560000  1.0 -0.140969325
C  C331  1  0.39780000  0.47440000  0.27740000  1.0 -0.140969325
C  C332  1  0.27740000  0.85040000  0.39780000  1.0 -0.140969325
C  C333  1  0.74570000  0.80490000  0.32530000  1.0 0.6707575853
C  C334  1  0.32530000  0.12410000  0.74570000  1.0 0.6707575853
C  C335  1  0.44510000  0.50430000  0.12590000  1.0 0.6707575853
C  C336  1  0.12590000  0.92470000  0.44510000  1.0 0.6707575853
O  O1  1  0.99970000  0.97370000  0.54270000  1.0 -0.739417604
O  O2  1  0.54270000  0.48390000  0.99970000  1.0 -0.739417604
O  O3  1  0.27630000  0.25030000  0.76610000  1.0 -0.739417604
O  O4  1  0.76610000  0.70730000  0.27630000  1.0 -0.739417604
O  O5  1  0.18290000  0.78630000  0.45330000  1.0 -0.6881316964
O  O6  1  0.45330000  0.57750000  0.18290000  1.0 -0.6881316964
O  O7  1  0.46370000  0.06710000  0.67250000  1.0 -0.6881316964
O  O8  1  0.67250000  0.79670000  0.46370000  1.0 -0.6881316964
O  O9  1  0.89980000  0.63320000  0.99000000  1.0 -0.739417604
O  O10  1  0.99000000  0.47700000  0.89980000  1.0 -0.739417604
O  O11  1  0.61680000  0.35020000  0.77300000  1.0 -0.739417604
O  O12  1  0.77300000  0.26000000  0.61680000  1.0 -0.739417604
O  O13  1  0.06266000  0.47786000  0.84694000  1.0 -0.5501414303
O  O14  1  0.84694000  0.61254000  0.06266000  1.0 -0.5501414303
O  O15  1  0.77214000  0.18734000  0.63746000  1.0 -0.5501414303
O  O16  1  0.63746000  0.40306000  0.77214000  1.0 -0.5501414303
O  O17  1  0.67181000  0.86521000  0.41239000  1.0 -0.654232568
O  O18  1  0.41239000  0.05059000  0.67181000  1.0 -0.654232568
O  O19  1  0.38479000  0.57819000  0.19941000  1.0 -0.654232568
O  O20  1  0.19941000  0.83761000  0.38479000  1.0 -0.654232568
O  O21  1  0.79060000  0.74920000  0.23640000  1.0 -0.7285708178
O  O22  1  0.23640000  0.22380000  0.79060000  1.0 -0.7285708178
O  O23  1  0.50080000  0.45940000  0.02620000  1.0 -0.7285708178
O  O24  1  0.02620000  0.01360000  0.50080000  1.0 -0.7285708178
O  O25  1  0.97450000  0.99870000  0.38270000  1.0 -0.7285708178
O  O26  1  0.38270000  0.64410000  0.97450000  1.0 -0.7285708178
O  O27  1  0.25130000  0.27550000  0.60590000  1.0 -0.7285708178
O  O28  1  0.60590000  0.86730000  0.25130000  1.0 -0.7285708178
O  O29  1  0.14680000  0.82820000  0.30160000  1.0 -0.6562092219
O  O30  1  0.30160000  0.72340000  0.14680000  1.0 -0.6562092219
O  O31  1  0.42180000  0.10320000  0.52660000  1.0 -0.6562092219
O  O32  1  0.52660000  0.94840000  0.42180000  1.0 -0.6562092219
