# DDEC6 charges by PACMAN v1.1 (https://github.com/mtap-research/PACMAN-charge/)
data_VAJTEH_FSR_pacman
_symmetry_space_group_name_H-M   'P 1'
_cell_length_a   7.52380000
_cell_length_b   21.95780000
_cell_length_c   33.18020000
_cell_angle_alpha   90.00000000
_cell_angle_beta   97.79810000
_cell_angle_gamma   90.00000000
_symmetry_Int_Tables_number   1
_chemical_formula_structural   Zn2H33C49S4(NO)8
_chemical_formula_sum   'Zn8 H132 C196 S16 N32 O32'
_cell_volume   5430.87958929
_cell_formula_units_Z   4
loop_
 _symmetry_equiv_pos_site_id
 _symmetry_equiv_pos_as_xyz
  1  'x, y, z'
loop_
 _atom_site_type_symbol
 _atom_site_label
 _atom_site_symmetry_multiplicity
 _atom_site_fract_x
 _atom_site_fract_y
 _atom_site_fract_z
 _atom_site_occupancy
 _atom_site_charge
Zn  Zn1  1  0.57814000  0.13912000  0.33409000  1.0 0.7477156175
Zn  Zn2  1  0.42186000  0.63912000  0.16591000  1.0 0.7477156175
Zn  Zn3  1  0.42186000  0.86088000  0.66591000  1.0 0.7477156175
Zn  Zn4  1  0.57814000  0.36088000  0.83409000  1.0 0.7477156175
Zn  Zn5  1  0.95987000  0.37941000  0.16732000  1.0 0.7434070957
Zn  Zn6  1  0.04013000  0.87941000  0.33268000  1.0 0.7434070957
Zn  Zn7  1  0.04013000  0.62059000  0.83268000  1.0 0.7434070957
Zn  Zn8  1  0.95987000  0.12059000  0.66732000  1.0 0.7434070957
H  H1  1  0.05830000  0.20760000  0.41080000  1.0 0.1104132756
H  H2  1  0.94170000  0.70760000  0.08920000  1.0 0.1104132756
H  H3  1  0.94170000  0.79240000  0.58920000  1.0 0.1104132756
H  H4  1  0.05830000  0.29240000  0.91080000  1.0 0.1104132756
H  H5  1  0.36160000  0.32450000  0.35970000  1.0 0.128357276
H  H6  1  0.63840000  0.82450000  0.14030000  1.0 0.128357276
H  H7  1  0.63840000  0.67550000  0.64030000  1.0 0.128357276
H  H8  1  0.36160000  0.17550000  0.85970000  1.0 0.128357276
H  H9  1  0.16560000  0.40090000  0.37170000  1.0 0.120152865
H  H10  1  0.83440000  0.90090000  0.12830000  1.0 0.120152865
H  H11  1  0.83440000  0.59910000  0.62830000  1.0 0.120152865
H  H12  1  0.16560000  0.09910000  0.87170000  1.0 0.120152865
H  H13  1  0.82660000  0.58510000  0.35170000  1.0 0.120152865
H  H14  1  0.17340000  0.08510000  0.14830000  1.0 0.120152865
H  H15  1  0.17340000  0.41490000  0.64830000  1.0 0.120152865
H  H16  1  0.82660000  0.91490000  0.85170000  1.0 0.120152865
H  H17  1  0.69550000  0.61430000  0.28940000  1.0 0.120152865
H  H18  1  0.30450000  0.11430000  0.21060000  1.0 0.120152865
H  H19  1  0.30450000  0.38570000  0.71060000  1.0 0.120152865
H  H20  1  0.69550000  0.88570000  0.78940000  1.0 0.120152865
H  H21  1  0.66430000  0.44190000  0.25390000  1.0 0.1022797932
H  H22  1  0.33570000  0.94190000  0.24610000  1.0 0.1022797932
H  H23  1  0.33570000  0.55810000  0.74610000  1.0 0.1022797932
H  H24  1  0.66430000  0.05810000  0.75390000  1.0 0.1022797932
H  H25  1  0.74130000  0.16920000  0.41350000  1.0 0.1104132756
H  H26  1  0.25870000  0.66920000  0.08650000  1.0 0.1104132756
H  H27  1  0.25870000  0.83080000  0.58650000  1.0 0.1104132756
H  H28  1  0.74130000  0.33080000  0.91350000  1.0 0.1104132756
H  H29  1  0.89500000  0.13060000  0.47100000  1.0 0.128357276
H  H30  1  0.10500000  0.63060000  0.02900000  1.0 0.128357276
H  H31  1  0.10500000  0.86940000  0.52900000  1.0 0.128357276
H  H32  1  0.89500000  0.36940000  0.97100000  1.0 0.128357276
H  H33  1  0.84220000  0.96560000  0.42160000  1.0 0.128357276
H  H34  1  0.15780000  0.46560000  0.07840000  1.0 0.128357276
H  H35  1  0.15780000  0.03440000  0.57840000  1.0 0.128357276
H  H36  1  0.84220000  0.53440000  0.92160000  1.0 0.128357276
H  H37  1  0.69600000  0.00810000  0.36300000  1.0 0.120152865
H  H38  1  0.30400000  0.50810000  0.13700000  1.0 0.120152865
H  H39  1  0.30400000  0.99190000  0.63700000  1.0 0.120152865
H  H40  1  0.69600000  0.49190000  0.86300000  1.0 0.120152865
H  H41  1  0.04660000  0.05940000  0.51080000  1.0 0.120152865
H  H42  1  0.95340000  0.55940000  0.98920000  1.0 0.120152865
H  H43  1  0.95340000  0.94060000  0.48920000  1.0 0.120152865
H  H44  1  0.04660000  0.44060000  0.01080000  1.0 0.120152865
H  H45  1  0.93970000  0.11380000  0.31160000  1.0 0.120152865
H  H46  1  0.06030000  0.61380000  0.18840000  1.0 0.120152865
H  H47  1  0.06030000  0.88620000  0.68840000  1.0 0.120152865
H  H48  1  0.93970000  0.38620000  0.81160000  1.0 0.120152865
H  H49  1  0.16110000  0.15660000  0.28050000  1.0 0.139044111
H  H50  1  0.83890000  0.65660000  0.21950000  1.0 0.139044111
H  H51  1  0.83890000  0.84340000  0.71950000  1.0 0.139044111
H  H52  1  0.16110000  0.34340000  0.78050000  1.0 0.139044111
H  H53  1  0.91770000  0.31780000  0.28690000  1.0 0.139044111
H  H54  1  0.08230000  0.81780000  0.21310000  1.0 0.139044111
H  H55  1  0.08230000  0.68220000  0.71310000  1.0 0.139044111
H  H56  1  0.91770000  0.18220000  0.78690000  1.0 0.139044111
H  H57  1  0.70030000  0.26980000  0.31720000  1.0 0.1104132756
H  H58  1  0.29970000  0.76980000  0.18280000  1.0 0.1104132756
H  H59  1  0.29970000  0.73020000  0.68280000  1.0 0.1104132756
H  H60  1  0.70030000  0.23020000  0.81720000  1.0 0.1104132756
H  H61  1  0.17810000  0.31350000  0.25030000  1.0 0.120152865
H  H62  1  0.82190000  0.81350000  0.24970000  1.0 0.120152865
H  H63  1  0.82190000  0.68650000  0.74970000  1.0 0.120152865
H  H64  1  0.17810000  0.18650000  0.75030000  1.0 0.120152865
H  H65  1  0.36090000  0.20630000  0.25230000  1.0 0.120152865
H  H66  1  0.63910000  0.70630000  0.24770000  1.0 0.120152865
H  H67  1  0.63910000  0.79370000  0.74770000  1.0 0.120152865
H  H68  1  0.36090000  0.29370000  0.75230000  1.0 0.120152865
H  H69  1  0.62210000  0.20210000  0.21670000  1.0 0.139044111
H  H70  1  0.37790000  0.70210000  0.28330000  1.0 0.139044111
H  H71  1  0.37790000  0.79790000  0.78330000  1.0 0.139044111
H  H72  1  0.62210000  0.29790000  0.71670000  1.0 0.139044111
H  H73  1  0.84250000  0.24850000  0.18690000  1.0 0.1022797932
H  H74  1  0.15750000  0.74850000  0.31310000  1.0 0.1022797932
H  H75  1  0.15750000  0.75150000  0.81310000  1.0 0.1022797932
H  H76  1  0.84250000  0.25150000  0.68690000  1.0 0.1022797932
H  H77  1  0.59250000  0.40400000  0.18730000  1.0 0.120152865
H  H78  1  0.40750000  0.90400000  0.31270000  1.0 0.120152865
H  H79  1  0.40750000  0.59600000  0.81270000  1.0 0.120152865
H  H80  1  0.59250000  0.09600000  0.68730000  1.0 0.120152865
H  H81  1  0.37130000  0.36220000  0.21880000  1.0 0.139044111
H  H82  1  0.62870000  0.86220000  0.28120000  1.0 0.139044111
H  H83  1  0.62870000  0.63780000  0.78120000  1.0 0.139044111
H  H84  1  0.37130000  0.13780000  0.71880000  1.0 0.139044111
H  H85  1  0.81760000  0.35430000  0.08440000  1.0 0.1022797932
H  H86  1  0.18240000  0.85430000  0.41560000  1.0 0.1022797932
H  H87  1  0.18240000  0.64570000  0.91560000  1.0 0.1022797932
H  H88  1  0.81760000  0.14570000  0.58440000  1.0 0.1022797932
H  H89  1  0.65080000  0.39590000  0.02880000  1.0 0.128357276
H  H90  1  0.34920000  0.89590000  0.47120000  1.0 0.128357276
H  H91  1  0.34920000  0.60410000  0.97120000  1.0 0.128357276
H  H92  1  0.65080000  0.10410000  0.52880000  1.0 0.128357276
H  H93  1  0.65470000  0.55360000  0.08950000  1.0 0.1537211416
H  H94  1  0.34530000  0.05360000  0.41050000  1.0 0.1537211416
H  H95  1  0.34530000  0.44640000  0.91050000  1.0 0.1537211416
H  H96  1  0.65470000  0.94640000  0.58950000  1.0 0.1537211416
H  H97  1  0.80930000  0.50680000  0.14440000  1.0 0.120152865
H  H98  1  0.19070000  0.00680000  0.35560000  1.0 0.120152865
H  H99  1  0.19070000  0.49320000  0.85560000  1.0 0.120152865
H  H100  1  0.80930000  0.99320000  0.64440000  1.0 0.120152865
H  H101  1  0.51900000  0.55440000  0.01980000  1.0 0.120152865
H  H102  1  0.48100000  0.05440000  0.48020000  1.0 0.120152865
H  H103  1  0.48100000  0.44560000  0.98020000  1.0 0.120152865
H  H104  1  0.51900000  0.94560000  0.51980000  1.0 0.120152865
H  H105  1  0.89320000  0.07810000  0.24010000  1.0 0.1104132756
H  H106  1  0.10680000  0.57810000  0.25990000  1.0 0.1104132756
H  H107  1  0.10680000  0.92190000  0.75990000  1.0 0.1104132756
H  H108  1  0.89320000  0.42190000  0.74010000  1.0 0.1104132756
H  H109  1  0.77020000  0.10820000  0.17540000  1.0 0.120152865
H  H110  1  0.22980000  0.60820000  0.32460000  1.0 0.120152865
H  H111  1  0.22980000  0.89180000  0.82460000  1.0 0.120152865
H  H112  1  0.77020000  0.39180000  0.67540000  1.0 0.120152865
H  H113  1  0.72460000  0.91040000  0.21340000  1.0 0.1022797932
H  H114  1  0.27540000  0.41040000  0.28660000  1.0 0.1022797932
H  H115  1  0.27540000  0.08960000  0.78660000  1.0 0.1022797932
H  H116  1  0.72460000  0.58960000  0.71340000  1.0 0.1022797932
H  H117  1  0.67800000  0.23890000  0.08030000  1.0 0.128357276
H  H118  1  0.32200000  0.73890000  0.41970000  1.0 0.128357276
H  H119  1  0.32200000  0.76110000  0.91970000  1.0 0.128357276
H  H120  1  0.67800000  0.26110000  0.58030000  1.0 0.128357276
H  H121  1  0.49400000  0.31570000  0.09270000  1.0 0.120152865
H  H122  1  0.50600000  0.81570000  0.40730000  1.0 0.120152865
H  H123  1  0.50600000  0.68430000  0.90730000  1.0 0.120152865
H  H124  1  0.49400000  0.18430000  0.59270000  1.0 0.120152865
H  H125  1  0.17440000  0.19830000  0.13900000  1.0 0.1104132756
H  H126  1  0.82560000  0.69830000  0.36100000  1.0 0.1104132756
H  H127  1  0.82560000  0.80170000  0.86100000  1.0 0.1104132756
H  H128  1  0.17440000  0.30170000  0.63900000  1.0 0.1104132756
H  H129  1  0.92940000  0.94900000  0.47830000  1.0 0.120152865
H  H130  1  0.07060000  0.44900000  0.02170000  1.0 0.120152865
H  H131  1  0.07060000  0.05100000  0.52170000  1.0 0.120152865
H  H132  1  0.92940000  0.55100000  0.97830000  1.0 0.120152865
C  C1  1  0.34063000  0.20329000  0.37343000  1.0 0.5420334366
C  C2  1  0.65937000  0.70329000  0.12657000  1.0 0.5420334366
C  C3  1  0.65937000  0.79671000  0.62657000  1.0 0.5420334366
C  C4  1  0.34063000  0.29671000  0.87343000  1.0 0.5420334366
C  C5  1  0.22764000  0.25608000  0.38274000  1.0 -0.0810191473
C  C6  1  0.77236000  0.75608000  0.11726000  1.0 -0.0810191473
C  C7  1  0.77236000  0.74392000  0.61726000  1.0 -0.0810191473
C  C8  1  0.22764000  0.24392000  0.88274000  1.0 -0.0810191473
C  C9  1  0.07804000  0.24668000  0.40164000  1.0 0.0513947801
C  C10  1  0.92196000  0.74668000  0.09836000  1.0 0.0513947801
C  C11  1  0.92196000  0.75332000  0.59836000  1.0 0.0513947801
C  C12  1  0.07804000  0.25332000  0.90164000  1.0 0.0513947801
C  C13  1  0.26015000  0.31550000  0.37175000  1.0 -0.0513153005
C  C14  1  0.73985000  0.81550000  0.12825000  1.0 -0.0513153005
C  C15  1  0.73985000  0.68450000  0.62825000  1.0 -0.0513153005
C  C16  1  0.26015000  0.18450000  0.87175000  1.0 -0.0513153005
C  C17  1  0.14370000  0.36077000  0.37850000  1.0 -0.1793122022
C  C18  1  0.85630000  0.86077000  0.12150000  1.0 -0.1793122022
C  C19  1  0.85630000  0.63923000  0.62150000  1.0 -0.1793122022
C  C20  1  0.14370000  0.13923000  0.87850000  1.0 -0.1793122022
C  C21  1  0.99425000  0.34585000  0.39555000  1.0 0.1801932705
C  C22  1  0.00575000  0.84585000  0.10445000  1.0 0.1801932705
C  C23  1  0.00575000  0.65415000  0.60445000  1.0 0.1801932705
C  C24  1  0.99425000  0.15415000  0.89555000  1.0 0.1801932705
C  C25  1  0.81238000  0.49707000  0.33998000  1.0 0.1605711923
C  C26  1  0.18762000  0.99707000  0.16002000  1.0 0.1605711923
C  C27  1  0.18762000  0.50293000  0.66002000  1.0 0.1605711923
C  C28  1  0.81238000  0.00293000  0.83998000  1.0 0.1605711923
C  C29  1  0.78977000  0.55606000  0.33187000  1.0 -0.1654731529
C  C30  1  0.21023000  0.05606000  0.16813000  1.0 -0.1654731529
C  C31  1  0.21023000  0.44394000  0.66813000  1.0 -0.1654731529
C  C32  1  0.78977000  0.94394000  0.83187000  1.0 -0.1654731529
C  C33  1  0.71325000  0.57306000  0.29475000  1.0 -0.0697016509
C  C34  1  0.28675000  0.07306000  0.20525000  1.0 -0.0697016509
C  C35  1  0.28675000  0.42694000  0.70525000  1.0 -0.0697016509
C  C36  1  0.71325000  0.92694000  0.79475000  1.0 -0.0697016509
C  C37  1  0.66038000  0.53208000  0.26448000  1.0 -0.0578187871
C  C38  1  0.33962000  0.03208000  0.23552000  1.0 -0.0578187871
C  C39  1  0.33962000  0.46792000  0.73552000  1.0 -0.0578187871
C  C40  1  0.66038000  0.96792000  0.76448000  1.0 -0.0578187871
C  C41  1  0.69464000  0.47121000  0.27394000  1.0 0.0402468712
C  C42  1  0.30536000  0.97121000  0.22606000  1.0 0.0402468712
C  C43  1  0.30536000  0.52879000  0.72606000  1.0 0.0402468712
C  C44  1  0.69464000  0.02879000  0.77394000  1.0 0.0402468712
C  C45  1  0.56822000  0.54962000  0.22292000  1.0 0.5622917665
C  C46  1  0.43178000  0.04962000  0.27708000  1.0 0.5622917665
C  C47  1  0.43178000  0.45038000  0.77708000  1.0 0.5622917665
C  C48  1  0.56822000  0.95038000  0.72292000  1.0 0.5622917665
C  C49  1  0.76376000  0.12750000  0.41486000  1.0 0.0742381745
C  C50  1  0.23624000  0.62750000  0.08514000  1.0 0.0742381745
C  C51  1  0.23624000  0.87250000  0.58514000  1.0 0.0742381745
C  C52  1  0.76376000  0.37250000  0.91486000  1.0 0.0742381745
C  C53  1  0.85445000  0.10460000  0.44955000  1.0 -0.2403021524
C  C54  1  0.14555000  0.60460000  0.05045000  1.0 -0.2403021524
C  C55  1  0.14555000  0.89540000  0.55045000  1.0 -0.2403021524
C  C56  1  0.85445000  0.39540000  0.94955000  1.0 -0.2403021524
C  C57  1  0.88734000  0.04330000  0.45334000  1.0 0.128357276
C  C58  1  0.11266000  0.54330000  0.04666000  1.0 0.128357276
C  C59  1  0.11266000  0.95670000  0.54666000  1.0 0.128357276
C  C60  1  0.88734000  0.45670000  0.95334000  1.0 0.128357276
C  C61  1  0.82433000  0.00750000  0.42023000  1.0 -0.2718472901
C  C62  1  0.17567000  0.50750000  0.07977000  1.0 -0.2718472901
C  C63  1  0.17567000  0.99250000  0.57977000  1.0 -0.2718472901
C  C64  1  0.82433000  0.49250000  0.92023000  1.0 -0.2718472901
C  C65  1  0.73519000  0.03312000  0.38509000  1.0 0.1104132756
C  C66  1  0.26481000  0.53312000  0.11491000  1.0 0.1104132756
C  C67  1  0.26481000  0.96688000  0.61491000  1.0 0.1104132756
C  C68  1  0.73519000  0.46688000  0.88509000  1.0 0.1104132756
C  C69  1  0.99290000  0.02860000  0.49420000  1.0 -0.0578187871
C  C70  1  0.00710000  0.52860000  0.00580000  1.0 -0.0578187871
C  C71  1  0.00710000  0.97140000  0.50580000  1.0 -0.0578187871
C  C72  1  0.99290000  0.47140000  0.99420000  1.0 -0.0578187871
C  C73  1  0.93357000  0.15522000  0.30587000  1.0 0.0797602003
C  C74  1  0.06643000  0.65522000  0.19413000  1.0 0.0797602003
C  C75  1  0.06643000  0.84478000  0.69413000  1.0 0.0797602003
C  C76  1  0.93357000  0.34478000  0.80587000  1.0 0.0797602003
C  C77  1  0.06799000  0.18068000  0.28729000  1.0 -0.1793122022
C  C78  1  0.93201000  0.68068000  0.21271000  1.0 -0.1793122022
C  C79  1  0.93201000  0.81932000  0.71271000  1.0 -0.1793122022
C  C80  1  0.06799000  0.31932000  0.78729000  1.0 -0.1793122022
C  C81  1  0.06413000  0.24271000  0.27873000  1.0 0.1605711923
C  C82  1  0.93587000  0.74271000  0.22127000  1.0 0.1605711923
C  C83  1  0.93587000  0.75729000  0.72127000  1.0 0.1605711923
C  C84  1  0.06413000  0.25729000  0.77873000  1.0 0.1605711923
C  C85  1  0.92380000  0.27593000  0.29100000  1.0 -0.1921023948
C  C86  1  0.07620000  0.77593000  0.20900000  1.0 -0.1921023948
C  C87  1  0.07620000  0.72407000  0.70900000  1.0 -0.1921023948
C  C88  1  0.92380000  0.22407000  0.79100000  1.0 -0.1921023948
C  C89  1  0.79318000  0.24673000  0.30928000  1.0 0.086980476
C  C90  1  0.20682000  0.74673000  0.19072000  1.0 0.086980476
C  C91  1  0.20682000  0.75327000  0.69072000  1.0 0.086980476
C  C92  1  0.79318000  0.25327000  0.80928000  1.0 0.086980476
C  C93  1  0.19735000  0.27264000  0.25685000  1.0 -0.1395347371
C  C94  1  0.80265000  0.77264000  0.24315000  1.0 -0.1395347371
C  C95  1  0.80265000  0.72736000  0.74315000  1.0 -0.1395347371
C  C96  1  0.19735000  0.22736000  0.75685000  1.0 -0.1395347371
C  C97  1  0.34145000  0.24715000  0.24555000  1.0 -0.1395347371
C  C98  1  0.65855000  0.74715000  0.25445000  1.0 -0.1395347371
C  C99  1  0.65855000  0.75285000  0.75445000  1.0 -0.1395347371
C  C100  1  0.34145000  0.25285000  0.74555000  1.0 -0.1395347371
C  C101  1  0.47375000  0.27653000  0.22355000  1.0 0.1605711923
C  C102  1  0.52625000  0.77653000  0.27645000  1.0 0.1605711923
C  C103  1  0.52625000  0.72347000  0.77645000  1.0 0.1605711923
C  C104  1  0.47375000  0.22347000  0.72355000  1.0 0.1605711923
C  C105  1  0.61584000  0.24383000  0.21204000  1.0 -0.1966321069
C  C106  1  0.38416000  0.74383000  0.28796000  1.0 -0.1966321069
C  C107  1  0.38416000  0.75617000  0.78796000  1.0 -0.1966321069
C  C108  1  0.61584000  0.25617000  0.71204000  1.0 -0.1966321069
C  C109  1  0.74771000  0.27171000  0.19381000  1.0 0.0742381745
C  C110  1  0.25229000  0.77171000  0.30619000  1.0 0.0742381745
C  C111  1  0.25229000  0.72829000  0.80619000  1.0 0.0742381745
C  C112  1  0.74771000  0.22829000  0.69381000  1.0 0.0742381745
C  C113  1  0.60100000  0.36300000  0.19440000  1.0 0.086980476
C  C114  1  0.39900000  0.86300000  0.30560000  1.0 0.086980476
C  C115  1  0.39900000  0.63700000  0.80560000  1.0 0.086980476
C  C116  1  0.60100000  0.13700000  0.69440000  1.0 0.086980476
C  C117  1  0.46661000  0.33818000  0.21311000  1.0 -0.1793122022
C  C118  1  0.53339000  0.83818000  0.28689000  1.0 -0.1793122022
C  C119  1  0.53339000  0.66182000  0.78689000  1.0 -0.1793122022
C  C120  1  0.46661000  0.16182000  0.71311000  1.0 -0.1793122022
C  C121  1  0.78172000  0.39469000  0.08552000  1.0 0.0566898891
C  C122  1  0.21828000  0.89469000  0.41448000  1.0 0.0566898891
C  C123  1  0.21828000  0.60531000  0.91448000  1.0 0.0566898891
C  C124  1  0.78172000  0.10531000  0.58552000  1.0 0.0566898891
C  C125  1  0.68367000  0.41959000  0.05187000  1.0 -0.210414541
C  C126  1  0.31633000  0.91959000  0.44813000  1.0 -0.210414541
C  C127  1  0.31633000  0.58041000  0.94813000  1.0 -0.210414541
C  C128  1  0.68367000  0.08041000  0.55187000  1.0 -0.210414541
C  C129  1  0.63287000  0.48088000  0.05227000  1.0 0.139044111
C  C130  1  0.36713000  0.98088000  0.44773000  1.0 0.139044111
C  C131  1  0.36713000  0.51912000  0.94773000  1.0 0.139044111
C  C132  1  0.63287000  0.01912000  0.55227000  1.0 0.139044111
C  C133  1  0.68435000  0.51262000  0.08785000  1.0 -0.1793122022
C  C134  1  0.31565000  0.01262000  0.41215000  1.0 -0.1793122022
C  C135  1  0.31565000  0.48738000  0.91215000  1.0 -0.1793122022
C  C136  1  0.68435000  0.98738000  0.58785000  1.0 -0.1793122022
C  C137  1  0.77862000  0.48441000  0.12072000  1.0 0.1022797932
C  C138  1  0.22138000  0.98441000  0.37928000  1.0 0.1022797932
C  C139  1  0.22138000  0.51559000  0.87928000  1.0 0.1022797932
C  C140  1  0.77862000  0.01559000  0.62072000  1.0 0.1022797932
C  C141  1  0.53432000  0.51258000  0.01732000  1.0 -0.1921023948
C  C142  1  0.46568000  0.01258000  0.48268000  1.0 -0.1921023948
C  C143  1  0.46568000  0.48742000  0.98268000  1.0 -0.1921023948
C  C144  1  0.53432000  0.98742000  0.51732000  1.0 -0.1921023948
C  C145  1  0.91358000  0.96908000  0.27508000  1.0 0.5622917665
C  C146  1  0.08642000  0.46908000  0.22492000  1.0 0.5622917665
C  C147  1  0.08642000  0.03092000  0.72492000  1.0 0.5622917665
C  C148  1  0.91358000  0.53092000  0.77508000  1.0 0.5622917665
C  C149  1  0.82630000  0.98980000  0.23390000  1.0 -0.0578187871
C  C150  1  0.17370000  0.48980000  0.26610000  1.0 -0.0578187871
C  C151  1  0.17370000  0.01020000  0.76610000  1.0 -0.0578187871
C  C152  1  0.82630000  0.51020000  0.73390000  1.0 -0.0578187871
C  C153  1  0.83636000  0.04960000  0.22196000  1.0 -0.0513153005
C  C154  1  0.16364000  0.54960000  0.27804000  1.0 -0.0578187871
C  C155  1  0.16364000  0.95040000  0.77804000  1.0 -0.0578187871
C  C156  1  0.83636000  0.45040000  0.72196000  1.0 -0.0513153005
C  C157  1  0.76341000  0.06780000  0.18351000  1.0 -0.1921023948
C  C158  1  0.23659000  0.56780000  0.31649000  1.0 -0.1921023948
C  C159  1  0.23659000  0.93220000  0.81649000  1.0 -0.1921023948
C  C160  1  0.76341000  0.43220000  0.68351000  1.0 -0.1921023948
C  C161  1  0.68138000  0.02519000  0.15788000  1.0 0.1801932705
C  C162  1  0.31862000  0.52519000  0.34212000  1.0 0.1801932705
C  C163  1  0.31862000  0.97481000  0.84212000  1.0 0.1801932705
C  C164  1  0.68138000  0.47481000  0.65788000  1.0 0.1801932705
C  C165  1  0.73555000  0.95084000  0.20585000  1.0 0.0513947801
C  C166  1  0.26445000  0.45084000  0.29415000  1.0 0.0513947801
C  C167  1  0.26445000  0.04916000  0.79415000  1.0 0.0513947801
C  C168  1  0.73555000  0.54916000  0.70585000  1.0 0.0513947801
C  C169  1  0.53429000  0.17530000  0.10139000  1.0 0.1605711923
C  C170  1  0.46571000  0.67530000  0.39861000  1.0 0.1605711923
C  C171  1  0.46571000  0.82470000  0.89861000  1.0 0.1605711923
C  C172  1  0.53429000  0.32470000  0.60139000  1.0 0.1605711923
C  C173  1  0.57516000  0.23096000  0.09216000  1.0 -0.1633458035
C  C174  1  0.42484000  0.73096000  0.40784000  1.0 -0.1633458035
C  C175  1  0.42484000  0.76904000  0.90784000  1.0 -0.1633458035
C  C176  1  0.57516000  0.26904000  0.59216000  1.0 -0.1633458035
C  C177  1  0.46687000  0.27620000  0.09997000  1.0 -0.0697016509
C  C178  1  0.53313000  0.77620000  0.40003000  1.0 -0.0697016509
C  C179  1  0.53313000  0.72380000  0.90003000  1.0 -0.0697016509
C  C180  1  0.46687000  0.22380000  0.59997000  1.0 -0.0697016509
C  C181  1  0.31466000  0.26653000  0.11866000  1.0 -0.0697016509
C  C182  1  0.68534000  0.76653000  0.38134000  1.0 -0.0697016509
C  C183  1  0.68534000  0.73347000  0.88134000  1.0 -0.0697016509
C  C184  1  0.31466000  0.23347000  0.61866000  1.0 -0.0697016509
C  C185  1  0.27681000  0.20704000  0.12721000  1.0 0.0513947801
C  C186  1  0.72319000  0.70704000  0.37279000  1.0 0.0513947801
C  C187  1  0.72319000  0.79296000  0.87279000  1.0 0.0513947801
C  C188  1  0.27681000  0.29296000  0.62721000  1.0 0.0513947801
C  C189  1  0.20183000  0.31832000  0.12963000  1.0 0.5420334366
C  C190  1  0.79817000  0.81832000  0.37037000  1.0 0.5420334366
C  C191  1  0.79817000  0.68168000  0.87037000  1.0 0.5420334366
C  C192  1  0.20183000  0.18168000  0.62963000  1.0 0.5420334366
C  C193  1  0.95390000  0.99000000  0.48360000  1.0 -0.0438860432
C  C194  1  0.04610000  0.49000000  0.01640000  1.0 -0.0438860432
C  C195  1  0.04610000  0.01000000  0.51640000  1.0 -0.0438860432
C  C196  1  0.95390000  0.51000000  0.98360000  1.0 -0.0438860432
S  S1  1  0.68971000  0.11779000  0.09063000  1.0 -0.0104514715
S  S2  1  0.31029000  0.61779000  0.40937000  1.0 -0.0104514715
S  S3  1  0.31029000  0.88221000  0.90937000  1.0 -0.0104514715
S  S4  1  0.68971000  0.38221000  0.59063000  1.0 -0.0104514715
S  S5  1  0.81866000  0.39732000  0.40332000  1.0 0.0402468712
S  S6  1  0.18134000  0.89732000  0.09668000  1.0 0.0402468712
S  S7  1  0.18134000  0.60268000  0.59668000  1.0 0.0402468712
S  S8  1  0.81866000  0.10268000  0.90332000  1.0 0.0402468712
S  S9  1  0.90776000  0.48135000  0.39104000  1.0 0.0060099875
S  S10  1  0.09224000  0.98135000  0.10896000  1.0 0.0060099875
S  S11  1  0.09224000  0.51865000  0.60896000  1.0 0.0060099875
S  S12  1  0.90776000  0.01865000  0.89104000  1.0 0.0060099875
S  S13  1  0.58474000  0.03801000  0.10655000  1.0 0.0263015376
S  S14  1  0.41526000  0.53801000  0.39345000  1.0 0.0263015376
S  S15  1  0.41526000  0.96199000  0.89345000  1.0 0.0263015376
S  S16  1  0.58474000  0.46199000  0.60655000  1.0 0.0263015376
N  N1  1  0.77188000  0.45284000  0.31188000  1.0 -0.3091294552
N  N2  1  0.22812000  0.95284000  0.18812000  1.0 -0.3091294552
N  N3  1  0.22812000  0.54716000  0.68812000  1.0 -0.3091294552
N  N4  1  0.77188000  0.04716000  0.81188000  1.0 -0.3091294552
N  N5  1  0.95925000  0.28975000  0.40775000  1.0 -0.3026775095
N  N6  1  0.04075000  0.78975000  0.09225000  1.0 -0.3026775095
N  N7  1  0.04075000  0.71025000  0.59225000  1.0 -0.3026775095
N  N8  1  0.95925000  0.21025000  0.90775000  1.0 -0.3026775095
N  N9  1  0.70389000  0.09317000  0.38209000  1.0 -0.2403021524
N  N10  1  0.29611000  0.59317000  0.11791000  1.0 -0.2403021524
N  N11  1  0.29611000  0.90683000  0.61791000  1.0 -0.2403021524
N  N12  1  0.70389000  0.40683000  0.88209000  1.0 -0.2403021524
N  N13  1  0.79436000  0.18659000  0.31616000  1.0 -0.2403021524
N  N14  1  0.20564000  0.68659000  0.18384000  1.0 -0.2403021524
N  N15  1  0.20564000  0.81341000  0.68384000  1.0 -0.2403021524
N  N16  1  0.79436000  0.31341000  0.81616000  1.0 -0.2403021524
N  N17  1  0.74332000  0.33194000  0.18572000  1.0 -0.2403021524
N  N18  1  0.25668000  0.83194000  0.31428000  1.0 -0.2403021524
N  N19  1  0.25668000  0.66806000  0.81428000  1.0 -0.2403021524
N  N20  1  0.74332000  0.16806000  0.68572000  1.0 -0.2403021524
N  N21  1  0.82874000  0.42591000  0.12024000  1.0 -0.2403021524
N  N22  1  0.17126000  0.92591000  0.37976000  1.0 -0.2403021524
N  N23  1  0.17126000  0.57409000  0.87976000  1.0 -0.2403021524
N  N24  1  0.82874000  0.07409000  0.62024000  1.0 -0.2403021524
N  N25  1  0.66170000  0.96736000  0.16830000  1.0 -0.2718472901
N  N26  1  0.33830000  0.46736000  0.33170000  1.0 -0.2718472901
N  N27  1  0.33830000  0.03264000  0.83170000  1.0 -0.2718472901
N  N28  1  0.66170000  0.53264000  0.66830000  1.0 -0.2718472901
N  N29  1  0.38642000  0.16075000  0.11882000  1.0 -0.3091294552
N  N30  1  0.61358000  0.66075000  0.38118000  1.0 -0.3091294552
N  N31  1  0.61358000  0.83925000  0.88118000  1.0 -0.3091294552
N  N32  1  0.38642000  0.33925000  0.61882000  1.0 -0.3091294552
O  O1  1  0.45341000  0.21286000  0.34901000  1.0 -0.531441281
O  O2  1  0.54659000  0.71286000  0.15099000  1.0 -0.531441281
O  O3  1  0.54659000  0.78714000  0.65099000  1.0 -0.531441281
O  O4  1  0.45341000  0.28714000  0.84901000  1.0 -0.531441281
O  O5  1  0.31984000  0.15358000  0.38894000  1.0 -0.538875361
O  O6  1  0.68016000  0.65358000  0.11106000  1.0 -0.538875361
O  O7  1  0.68016000  0.84642000  0.61106000  1.0 -0.538875361
O  O8  1  0.31984000  0.34642000  0.88894000  1.0 -0.538875361
O  O9  1  0.54173000  0.60656000  0.21713000  1.0 -0.5582082915
O  O10  1  0.45827000  0.10656000  0.28287000  1.0 -0.5582082915
O  O11  1  0.45827000  0.39344000  0.78287000  1.0 -0.5582082915
O  O12  1  0.54173000  0.89344000  0.71713000  1.0 -0.5582082915
O  O13  1  0.52264000  0.51051000  0.19774000  1.0 -0.523667072
O  O14  1  0.47736000  0.01051000  0.30226000  1.0 -0.523667072
O  O15  1  0.47736000  0.48949000  0.80226000  1.0 -0.523667072
O  O16  1  0.52264000  0.98949000  0.69774000  1.0 -0.523667072
O  O17  1  0.08232000  0.30635000  0.15162000  1.0 -0.538875361
O  O18  1  0.91768000  0.80635000  0.34838000  1.0 -0.538875361
O  O19  1  0.91768000  0.69365000  0.84838000  1.0 -0.538875361
O  O20  1  0.08232000  0.19365000  0.65162000  1.0 -0.538875361
O  O21  1  0.23142000  0.37006000  0.11732000  1.0 -0.531441281
O  O22  1  0.76858000  0.87006000  0.38268000  1.0 -0.531441281
O  O23  1  0.76858000  0.62994000  0.88268000  1.0 -0.531441281
O  O24  1  0.23142000  0.12994000  0.61732000  1.0 -0.531441281
O  O25  1  0.91970000  0.91211000  0.28150000  1.0 -0.5510424274
O  O26  1  0.08030000  0.41211000  0.21850000  1.0 -0.5510424274
O  O27  1  0.08030000  0.08789000  0.71850000  1.0 -0.5510424274
O  O28  1  0.91970000  0.58789000  0.78150000  1.0 -0.5510424274
O  O29  1  0.97638000  0.00762000  0.29948000  1.0 -0.531441281
O  O30  1  0.02362000  0.50762000  0.20052000  1.0 -0.531441281
O  O31  1  0.02362000  0.99238000  0.70052000  1.0 -0.531441281
O  O32  1  0.97638000  0.49238000  0.79948000  1.0 -0.531441281
