# DDEC6 charges by PACMAN v1.1 (https://github.com/mtap-research/PACMAN-charge/)
data_VAKBIU_ASR_pacman
_symmetry_space_group_name_H-M   'P 1'
_cell_length_a   21.93400000
_cell_length_b   21.93400000
_cell_length_c   21.93400000
_cell_angle_alpha   92.98820000
_cell_angle_beta   92.98820000
_cell_angle_gamma   153.60300000
_symmetry_Int_Tables_number   1
_chemical_formula_structural   MnH14C15N3O4
_chemical_formula_sum   'Mn8 H112 C120 N24 O32'
_cell_volume   4567.58198598
_cell_formula_units_Z   8
loop_
 _symmetry_equiv_pos_site_id
 _symmetry_equiv_pos_as_xyz
  1  'x, y, z'
loop_
 _atom_site_type_symbol
 _atom_site_label
 _atom_site_symmetry_multiplicity
 _atom_site_fract_x
 _atom_site_fract_y
 _atom_site_fract_z
 _atom_site_occupancy
 _atom_site_charge
Mn  Mn1  1  0.08268000  0.80406000  0.68363000  1.0 0.9147864898
Mn  Mn2  1  0.12043000  0.39905000  0.31637000  1.0 0.9147864898
Mn  Mn3  1  0.64905000  0.83268000  0.77862000  1.0 0.9147864898
Mn  Mn4  1  0.05406000  0.87043000  0.22138000  1.0 0.9147864898
Mn  Mn5  1  0.16732000  0.94594000  0.81636000  1.0 0.9158328068
Mn  Mn6  1  0.12957000  0.35095000  0.18363000  1.0 0.9147864898
Mn  Mn7  1  0.60095000  0.91732000  0.72138000  1.0 0.9147864898
Mn  Mn8  1  0.19594000  0.87957000  0.27862000  1.0 0.9147864898
H  H1  1  0.72440000  0.71151000  0.59310000  1.0 0.130613713
H  H2  1  0.11841000  0.13130000  0.40690000  1.0 0.130613713
H  H3  1  0.38130000  0.47440000  0.51289000  1.0 0.130613713
H  H4  1  0.96151000  0.86841000  0.48710000  1.0 0.130613713
H  H5  1  0.52560000  0.03849000  0.90690000  1.0 0.130613713
H  H6  1  0.13159000  0.61870000  0.09310000  1.0 0.130613713
H  H7  1  0.86870000  0.27560000  0.98711000  1.0 0.130613713
H  H8  1  0.28849000  0.88159000  0.01290000  1.0 0.130613713
H  H9  1  0.63030000  0.58081000  0.54190000  1.0 0.1116165474
H  H10  1  0.03891000  0.08840000  0.45810000  1.0 0.1116165474
H  H11  1  0.33840000  0.38030000  0.54949000  1.0 0.1116165474
H  H12  1  0.83081000  0.78891000  0.45050000  1.0 0.1116165474
H  H13  1  0.61970000  0.16919000  0.95810000  1.0 0.1116165474
H  H14  1  0.21109000  0.66160000  0.04190000  1.0 0.1116165474
H  H15  1  0.91160000  0.36970000  0.95051000  1.0 0.1116165474
H  H16  1  0.41919000  0.96109000  0.04949000  1.0 0.1116165474
H  H17  1  0.59410000  0.55971000  0.60920000  1.0 0.1187694238
H  H18  1  0.95051000  0.98490000  0.39080000  1.0 0.1187694238
H  H19  1  0.23490000  0.34410000  0.53439000  1.0 0.1187694238
H  H20  1  0.80971000  0.70051000  0.46560000  1.0 0.1187694238
H  H21  1  0.65590000  0.19029000  0.89080000  1.0 0.1187694238
H  H22  1  0.29949000  0.76510000  0.10920000  1.0 0.1187694238
H  H23  1  0.01510000  0.40590000  0.96560000  1.0 0.1187694238
H  H24  1  0.44029000  0.04949000  0.03440000  1.0 0.1187694238
H  H25  1  0.49910000  0.38531000  0.56480000  1.0 0.1116165474
H  H26  1  0.82051000  0.93430000  0.43520000  1.0 0.1116165474
H  H27  1  0.18430000  0.24910000  0.61379000  1.0 0.1116165474
H  H28  1  0.63531000  0.57051000  0.38621000  1.0 0.1116165474
H  H29  1  0.75090000  0.36469000  0.93520000  1.0 0.1116165474
H  H30  1  0.42949000  0.81570000  0.06480000  1.0 0.1116165474
H  H31  1  0.06570000  0.50090000  0.88621000  1.0 0.1116165474
H  H32  1  0.61469000  0.17949000  0.11379000  1.0 0.1116165474
H  H33  1  0.41160000  0.20651000  0.55570000  1.0 0.1187694238
H  H34  1  0.65081000  0.85590000  0.44430000  1.0 0.1187694238
H  H35  1  0.10590000  0.16160000  0.70510000  1.0 0.1187694238
H  H36  1  0.45651000  0.40081000  0.29490000  1.0 0.1187694238
H  H37  1  0.83840000  0.54349000  0.94430000  1.0 0.1187694238
H  H38  1  0.59919000  0.89410000  0.05570000  1.0 0.1187694238
H  H39  1  0.14410000  0.58840000  0.79490000  1.0 0.1187694238
H  H40  1  0.79349000  0.34919000  0.20509000  1.0 0.1187694238
H  H41  1  0.56110000  0.26131000  0.58780000  1.0 0.1116165474
H  H42  1  0.67351000  0.97330000  0.41220000  1.0 0.1116165474
H  H43  1  0.22330000  0.31110000  0.79980000  1.0 0.1116165474
H  H44  1  0.51131000  0.42351000  0.20021000  1.0 0.1116165474
H  H45  1  0.68890000  0.48869000  0.91220000  1.0 0.1116165474
H  H46  1  0.57649000  0.77670000  0.08780000  1.0 0.1116165474
H  H47  1  0.02670000  0.43890000  0.70020000  1.0 0.1116165474
H  H48  1  0.73869000  0.32649000  0.29979000  1.0 0.1116165474
H  H49  1  0.78500000  0.42301000  0.62320000  1.0 0.1116165474
H  H50  1  0.79981000  0.16180000  0.37680000  1.0 0.1116165474
H  H51  1  0.41180000  0.53500000  0.86199000  1.0 0.1116165474
H  H52  1  0.67301000  0.54981000  0.13800000  1.0 0.1116165474
H  H53  1  0.46500000  0.32699000  0.87680000  1.0 0.1116165474
H  H54  1  0.45019000  0.58820000  0.12320000  1.0 0.1116165474
H  H55  1  0.83820000  0.21500000  0.63801000  1.0 0.1116165474
H  H56  1  0.57699000  0.20019000  0.36200000  1.0 0.1116165474
H  H57  1  0.13650000  0.62241000  0.63290000  1.0 0.130613713
H  H58  1  0.98951000  0.50360000  0.36710000  1.0 0.130613713
H  H59  1  0.75360000  0.88650000  0.01409000  1.0 0.130613713
H  H60  1  0.87241000  0.73951000  0.98590000  1.0 0.130613713
H  H61  1  0.11350000  0.12759000  0.86710000  1.0 0.130613713
H  H62  1  0.26049000  0.24640000  0.13290000  1.0 0.130613713
H  H63  1  0.49640000  0.86350000  0.48590000  1.0 0.130613713
H  H64  1  0.37759000  0.01049000  0.51409000  1.0 0.130613713
H  H65  1  0.29120000  0.68051000  0.64730000  1.0 0.1116165474
H  H66  1  0.03321000  0.64390000  0.35270000  1.0 0.1116165474
H  H67  1  0.89390000  0.04120000  0.11070000  1.0 0.1116165474
H  H68  1  0.93051000  0.78321000  0.88931000  1.0 0.1116165474
H  H69  1  0.95880000  0.06949000  0.85270000  1.0 0.1116165474
H  H70  1  0.21679000  0.10610000  0.14730000  1.0 0.1116165474
H  H71  1  0.35610000  0.70880000  0.38931000  1.0 0.1116165474
H  H72  1  0.31949000  0.96679000  0.61069000  1.0 0.1116165474
H  H73  1  0.54930000  0.00381000  0.78330000  1.0 0.1030193683
H  H74  1  0.22051000  0.76600000  0.21670000  1.0 0.1030193683
H  H75  1  0.01600000  0.29930000  0.04550000  1.0 0.1030193683
H  H76  1  0.25381000  0.97051000  0.95451000  1.0 0.1030193683
H  H77  1  0.70070000  0.74619000  0.71670000  1.0 0.1030193683
H  H78  1  0.02949000  0.98400000  0.28330000  1.0 0.1030193683
H  H79  1  0.23400000  0.45070000  0.45450000  1.0 0.1030193683
H  H80  1  0.99619000  0.77949000  0.54549000  1.0 0.1030193683
H  H81  1  0.40600000  0.95991000  0.77130000  1.0 0.14129285
H  H82  1  0.18861000  0.63470000  0.22870000  1.0 0.14129285
H  H83  1  0.88470000  0.15600000  0.94610000  1.0 0.14129285
H  H84  1  0.20991000  0.93861000  0.05390000  1.0 0.14129285
H  H85  1  0.84400000  0.79009000  0.72870000  1.0 0.14129285
H  H86  1  0.06139000  0.11530000  0.27130000  1.0 0.14129285
H  H87  1  0.36530000  0.59400000  0.55390000  1.0 0.14129285
H  H88  1  0.04009000  0.81139000  0.44609000  1.0 0.14129285
H  H89  1  0.39280000  0.18611000  0.73630000  1.0 0.1116165474
H  H90  1  0.44981000  0.65650000  0.26370000  1.0 0.1116165474
H  H91  1  0.90650000  0.14280000  0.70669000  1.0 0.1116165474
H  H92  1  0.43611000  0.19981000  0.29330000  1.0 0.1116165474
H  H93  1  0.85720000  0.56389000  0.76370000  1.0 0.1116165474
H  H94  1  0.80019000  0.09350000  0.23630000  1.0 0.1116165474
H  H95  1  0.34350000  0.60720000  0.79331000  1.0 0.1116165474
H  H96  1  0.81389000  0.55019000  0.20669000  1.0 0.1116165474
H  H97  1  0.39850000  0.11861000  0.72570000  1.0 0.1187694238
H  H98  1  0.39291000  0.67280000  0.27430000  1.0 0.1187694238
H  H99  1  0.92280000  0.14850000  0.77989000  1.0 0.1187694238
H  H100  1  0.36861000  0.14291000  0.22010000  1.0 0.1187694238
H  H101  1  0.85150000  0.63139000  0.77430000  1.0 0.1187694238
H  H102  1  0.85709000  0.07720000  0.22570000  1.0 0.1187694238
H  H103  1  0.32720000  0.60150000  0.72010000  1.0 0.1187694238
H  H104  1  0.88139000  0.60709000  0.27990000  1.0 0.1187694238
H  H105  1  0.34130000  0.10841000  0.66750000  1.0 0.1116165474
H  H106  1  0.44091000  0.67380000  0.33250000  1.0 0.1116165474
H  H107  1  0.92380000  0.09130000  0.73289000  1.0 0.1116165474
H  H108  1  0.35841000  0.19091000  0.26710000  1.0 0.1116165474
H  H109  1  0.90870000  0.64159000  0.83250000  1.0 0.1116165474
H  H110  1  0.80909000  0.07620000  0.16750000  1.0 0.1116165474
H  H111  1  0.32620000  0.65870000  0.76710000  1.0 0.1116165474
H  H112  1  0.89159000  0.55909000  0.23289000  1.0 0.1116165474
C  C1  1  0.67022000  0.62461000  0.58662000  1.0 -0.2611274157
C  C2  1  0.03799000  0.08360000  0.41338000  1.0 -0.2611274157
C  C3  1  0.33360000  0.42022000  0.54561000  1.0 -0.2611274157
C  C4  1  0.87461000  0.78799000  0.45438000  1.0 -0.2611274157
C  C5  1  0.57978000  0.12539000  0.91338000  1.0 -0.2611274157
C  C6  1  0.21201000  0.66640000  0.08662000  1.0 -0.2611274157
C  C7  1  0.91640000  0.32978000  0.95439000  1.0 -0.2611274157
C  C8  1  0.37539000  0.96201000  0.04562000  1.0 -0.2611274157
C  C9  1  0.70060000  0.54586000  0.60285000  1.0 0.14129285
C  C10  1  0.94301000  0.09775000  0.39715000  1.0 0.14129285
C  C11  1  0.34775000  0.45060000  0.65475000  1.0 0.14129285
C  C12  1  0.79586000  0.69301000  0.34525000  1.0 0.14129285
C  C13  1  0.54940000  0.20414000  0.89715000  1.0 0.14129285
C  C14  1  0.30699000  0.65225000  0.10285000  1.0 0.14129285
C  C15  1  0.90225000  0.29940000  0.84525000  1.0 0.14129285
C  C16  1  0.45414000  0.05699000  0.15474000  1.0 0.14129285
C  C17  1  0.56106000  0.40836000  0.57821000  1.0 -0.2255605378
C  C18  1  0.83015000  0.98285000  0.42179000  1.0 -0.2255605378
C  C19  1  0.23285000  0.31106000  0.65270000  1.0 -0.2255605378
C  C20  1  0.65836000  0.58015000  0.34730000  1.0 -0.2255605378
C  C21  1  0.68894000  0.34164000  0.92179000  1.0 -0.2255605378
C  C22  1  0.41985000  0.76715000  0.07821000  1.0 -0.2255605378
C  C23  1  0.01715000  0.43894000  0.84730000  1.0 -0.2255605378
C  C24  1  0.59164000  0.16985000  0.15271000  1.0 -0.2161739477
C  C25  1  0.50870000  0.30156000  0.57265000  1.0 -0.0981756444
C  C26  1  0.72891000  0.93605000  0.42735000  1.0 -0.0981756444
C  C27  1  0.18605000  0.25870000  0.70715000  1.0 -0.0981756444
C  C28  1  0.55156000  0.47891000  0.29285000  1.0 -0.0981756444
C  C29  1  0.74130000  0.44844000  0.92735000  1.0 -0.0981756444
C  C30  1  0.52109000  0.81395000  0.07265000  1.0 -0.0981756444
C  C31  1  0.06395000  0.49130000  0.79285000  1.0 -0.0981756444
C  C32  1  0.69844000  0.27109000  0.20714000  1.0 -0.0981756444
C  C33  1  0.59680000  0.33394000  0.59153000  1.0 -0.176093075
C  C34  1  0.74241000  0.00527000  0.40847000  1.0 -0.176093075
C  C35  1  0.25527000  0.34680000  0.76287000  1.0 -0.176093075
C  C36  1  0.58394000  0.49241000  0.23714000  1.0 -0.176093075
C  C37  1  0.65320000  0.41606000  0.90847000  1.0 -0.176093075
C  C38  1  0.50759000  0.74473000  0.09153000  1.0 -0.176093075
C  C39  1  0.99473000  0.40320000  0.73713000  1.0 -0.176093075
C  C40  1  0.66606000  0.25759000  0.26287000  1.0 -0.176093075
C  C41  1  0.74144000  0.47505000  0.61668000  1.0 -0.0516786073
C  C42  1  0.85837000  0.12476000  0.38332000  1.0 -0.0516786073
C  C43  1  0.37476000  0.49144000  0.76639000  1.0 -0.0516786073
C  C44  1  0.72505000  0.60837000  0.23361000  1.0 -0.0516786073
C  C45  1  0.50856000  0.27495000  0.88332000  1.0 -0.0516786073
C  C46  1  0.39163000  0.62524000  0.11668000  1.0 -0.0516786073
C  C47  1  0.87524000  0.25856000  0.73360000  1.0 -0.0516786073
C  C48  1  0.52495000  0.14163000  0.26639000  1.0 -0.0516786073
C  C49  1  0.79579000  0.58342000  0.62460000  1.0 0.1809726865
C  C50  1  0.95882000  0.17119000  0.37540000  1.0 0.1809726865
C  C51  1  0.42119000  0.54579000  0.71237000  1.0 0.1809726865
C  C52  1  0.83342000  0.70882000  0.28763000  1.0 0.1809726865
C  C53  1  0.45421000  0.16658000  0.87540000  1.0 0.1809726865
C  C54  1  0.29118000  0.57881000  0.12460000  1.0 0.1809726865
C  C55  1  0.82881000  0.20421000  0.78762000  1.0 0.1809726865
C  C56  1  0.41658000  0.04118000  0.21238000  1.0 0.1809726865
C  C57  1  0.82864000  0.50133000  0.63136000  1.0 0.0527722251
C  C58  1  0.86997000  0.19728000  0.36864000  1.0 0.0527722251
C  C59  1  0.44728000  0.57864000  0.82732000  1.0 0.0527722251
C  C60  1  0.75133000  0.61997000  0.17269000  1.0 0.0527722251
C  C61  1  0.42136000  0.24867000  0.86864000  1.0 0.0527722251
C  C62  1  0.38003000  0.55272000  0.13136000  1.0 0.0527722251
C  C63  1  0.80272000  0.17136000  0.67268000  1.0 0.0527722251
C  C64  1  0.49867000  0.13003000  0.32732000  1.0 0.0527722251
C  C65  1  0.16255000  0.75692000  0.68886000  1.0 0.3729151529
C  C66  1  0.06806000  0.47369000  0.31114000  1.0 0.3729151529
C  C67  1  0.72369000  0.91255000  0.90563000  1.0 0.3729151529
C  C68  1  0.00692000  0.81806000  0.09437000  1.0 0.3729151529
C  C69  1  0.08745000  0.99308000  0.81114000  1.0 0.3729151529
C  C70  1  0.18194000  0.27631000  0.18886000  1.0 0.3729151529
C  C71  1  0.52631000  0.83745000  0.59437000  1.0 0.3729151529
C  C72  1  0.24308000  0.93194000  0.40564000  1.0 0.3729151529
C  C73  1  0.25557000  0.78645000  0.69961000  1.0 0.0527722251
C  C74  1  0.08684000  0.55596000  0.30039000  1.0 0.0527722251
C  C75  1  0.80596000  0.00557000  0.96913000  1.0 0.0527722251
C  C76  1  0.03645000  0.83684000  0.03087000  1.0 0.0527722251
C  C77  1  0.99443000  0.96355000  0.80039000  1.0 0.0527722251
C  C78  1  0.16316000  0.19404000  0.19961000  1.0 0.0527722251
C  C79  1  0.44404000  0.74443000  0.53087000  1.0 0.0527722251
C  C80  1  0.21355000  0.91316000  0.46913000  1.0 0.0527722251
C  C81  1  0.22210000  0.70297000  0.66366000  1.0 -0.1676383591
C  C82  1  0.03931000  0.55844000  0.33634000  1.0 -0.1676383591
C  C83  1  0.80844000  0.97210000  0.01913000  1.0 -0.1676383591
C  C84  1  0.95297000  0.78931000  0.98087000  1.0 -0.1676383591
C  C85  1  0.02790000  0.04703000  0.83634000  1.0 -0.1676383591
C  C86  1  0.21069000  0.19156000  0.16366000  1.0 -0.1676383591
C  C87  1  0.44156000  0.77790000  0.48086000  1.0 -0.1676383591
C  C88  1  0.29703000  0.96069000  0.51914000  1.0 -0.1676383591
C  C89  1  0.31459000  0.73787000  0.67285000  1.0 0.0738799441
C  C90  1  0.06502000  0.64174000  0.32715000  1.0 0.0738799441
C  C91  1  0.89174000  0.06459000  0.07673000  1.0 0.0738799441
C  C92  1  0.98787000  0.81502000  0.92327000  1.0 0.0738799441
C  C93  1  0.93541000  0.01213000  0.82715000  1.0 0.0738799441
C  C94  1  0.18498000  0.10826000  0.17285000  1.0 0.0738799441
C  C95  1  0.35826000  0.68541000  0.42328000  1.0 0.0738799441
C  C96  1  0.26213000  0.93498000  0.57673000  1.0 0.0738799441
C  C97  1  0.46496000  0.92630000  0.75165000  1.0 0.0738799441
C  C98  1  0.17465000  0.71331000  0.24835000  1.0 0.0738799441
C  C99  1  0.96331000  0.21496000  0.03866000  1.0 0.0738799441
C  C100  1  0.17630000  0.92465000  0.96133000  1.0 0.0738799441
C  C101  1  0.78504000  0.82370000  0.74835000  1.0 0.0738799441
C  C102  1  0.07535000  0.03669000  0.25165000  1.0 0.0738799441
C  C103  1  0.28669000  0.53504000  0.46133000  1.0 0.0738799441
C  C104  1  0.07370000  0.82535000  0.53866000  1.0 0.0738799441
C  C105  1  0.38005000  0.90076000  0.74520000  1.0 -0.1610125057
C  C106  1  0.15556000  0.63485000  0.25480000  1.0 -0.1610125057
C  C107  1  0.88485000  0.13005000  0.97930000  1.0 -0.1610125057
C  C108  1  0.15076000  0.90556000  0.02071000  1.0 -0.1610125057
C  C109  1  0.86995000  0.84924000  0.75480000  1.0 -0.1610125057
C  C110  1  0.09444000  0.11515000  0.24520000  1.0 -0.1610125057
C  C111  1  0.36515000  0.61995000  0.52070000  1.0 -0.1610125057
C  C112  1  0.09924000  0.84444000  0.47930000  1.0 -0.1610125057
C  C113  1  0.34569000  0.10801000  0.71209000  1.0 -0.2161739477
C  C114  1  0.39592000  0.63360000  0.28791000  1.0 -0.2161739477
C  C115  1  0.88360000  0.09569000  0.73769000  1.0 -0.2161739477
C  C116  1  0.35801000  0.14592000  0.26232000  1.0 -0.2161739477
C  C117  1  0.90431000  0.64199000  0.78791000  1.0 -0.2161739477
C  C118  1  0.85408000  0.11640000  0.21209000  1.0 -0.2161739477
C  C119  1  0.36640000  0.65431000  0.76231000  1.0 -0.2161739477
C  C120  1  0.89199000  0.60408000  0.23769000  1.0 -0.2161739477
N  N1  1  0.96173000  0.62297000  0.65469000  1.0 -0.1527296356
N  N2  1  0.96828000  0.30704000  0.34531000  1.0 -0.1527296356
N  N3  1  0.55704000  0.71173000  0.83876000  1.0 -0.1527296356
N  N4  1  0.87297000  0.71828000  0.16123000  1.0 -0.1527296356
N  N5  1  0.28827000  0.12703000  0.84531000  1.0 -0.1527296356
N  N6  1  0.28172000  0.44296000  0.15469000  1.0 -0.1527296356
N  N7  1  0.69296000  0.03827000  0.66124000  1.0 -0.1527296356
N  N8  1  0.37703000  0.03172000  0.33876000  1.0 -0.1527296356
N  N9  1  0.03131000  0.62878000  0.66308000  1.0 -0.3392951261
N  N10  1  0.96570000  0.36823000  0.33692000  1.0 -0.3392951261
N  N11  1  0.61823000  0.78131000  0.90253000  1.0 -0.3392951261
N  N12  1  0.87878000  0.71570000  0.09746000  1.0 -0.3392951261
N  N13  1  0.21869000  0.12122000  0.83692000  1.0 -0.3392951261
N  N14  1  0.28430000  0.38177000  0.16308000  1.0 -0.3392951261
N  N15  1  0.63177000  0.96869000  0.59747000  1.0 -0.3392951261
N  N16  1  0.37122000  0.03430000  0.40254000  1.0 -0.3392951261
N  N17  1  0.43548000  0.84826000  0.71593000  1.0 -0.2255605378
N  N18  1  0.13233000  0.71955000  0.28407000  1.0 -0.2255605378
N  N19  1  0.96955000  0.18548000  0.08722000  1.0 -0.2255605378
N  N20  1  0.09826000  0.88233000  0.91278000  1.0 -0.2255605378
N  N21  1  0.81452000  0.90174000  0.78407000  1.0 -0.2255605378
N  N22  1  0.11767000  0.03045000  0.21593000  1.0 -0.2255605378
N  N23  1  0.28045000  0.56452000  0.41277000  1.0 -0.2255605378
N  N24  1  0.15174000  0.86767000  0.58722000  1.0 -0.2255605378
O  O1  1  0.76051000  0.65670000  0.60980000  1.0 -0.1358455229
O  O2  1  0.04690000  0.15071000  0.39020000  1.0 -0.1349764872
O  O3  1  0.40071000  0.51051000  0.60381000  1.0 -0.1358455229
O  O4  1  0.90670000  0.79690000  0.39619000  1.0 -0.1358455229
O  O5  1  0.48949000  0.09330000  0.89020000  1.0 -0.1358455229
O  O6  1  0.20310000  0.59929000  0.10980000  1.0 -0.1358455229
O  O7  1  0.84929000  0.23949000  0.89619000  1.0 -0.1358455229
O  O8  1  0.34330000  0.95310000  0.10382000  1.0 -0.1358455229
O  O9  1  0.92857000  0.71689000  0.64965000  1.0 -0.4330667365
O  O10  1  0.06724000  0.27892000  0.35035000  1.0 -0.4330667365
O  O11  1  0.52892000  0.67857000  0.71169000  1.0 -0.4330667365
O  O12  1  0.96689000  0.81724000  0.28831000  1.0 -0.4330667365
O  O13  1  0.32143000  0.03311000  0.85035000  1.0 -0.4330667365
O  O14  1  0.18276000  0.47108000  0.14965000  1.0 -0.4330667365
O  O15  1  0.72108000  0.07143000  0.78831000  1.0 -0.4330667365
O  O16  1  0.28311000  0.93276000  0.21169000  1.0 -0.4330667365
O  O17  1  0.21888000  0.86132000  0.70559000  1.0 -0.4630994941
O  O18  1  0.15573000  0.51329000  0.29441000  1.0 -0.4630994941
O  O19  1  0.76329000  0.96888000  0.85756000  1.0 -0.4630994941
O  O20  1  0.11132000  0.90573000  0.14244000  1.0 -0.4630994941
O  O21  1  0.03112000  0.88868000  0.79441000  1.0 -0.4630994941
O  O22  1  0.09427000  0.23671000  0.20559000  1.0 -0.4630994941
O  O23  1  0.48671000  0.78112000  0.64243000  1.0 -0.4630994941
O  O24  1  0.13868000  0.84427000  0.35757000  1.0 -0.4630994941
O  O25  1  0.20828000  0.97982000  0.72189000  1.0 -0.4007908623
O  O26  1  0.25793000  0.48639000  0.27811000  1.0 -0.4007908623
O  O27  1  0.73639000  0.95828000  0.72847000  1.0 -0.4007908623
O  O28  1  0.22982000  0.00793000  0.27154000  1.0 -0.4007908623
O  O29  1  0.04172000  0.77018000  0.77811000  1.0 -0.4007908623
O  O30  1  0.99207000  0.26361000  0.22189000  1.0 -0.4007908623
O  O31  1  0.51361000  0.79172000  0.77153000  1.0 -0.4007908623
O  O32  1  0.02018000  0.74207000  0.22847000  1.0 -0.4007908623
