# DDEC6 charges by PACMAN v1.1 (https://github.com/mtap-research/PACMAN-charge/)
data_VAKNAZ_FSR_pacman
_symmetry_space_group_name_H-M   'P 1'
_cell_length_a   16.36400000
_cell_length_b   16.36400000
_cell_length_c   41.79700000
_cell_angle_alpha   90.00000000
_cell_angle_beta   90.00000000
_cell_angle_gamma   90.00000000
_symmetry_Int_Tables_number   1
_chemical_formula_structural   Cd2H22C25(NO5)2
_chemical_formula_sum   'Cd16 H176 C200 N16 O80'
_cell_volume   11192.42139131
_cell_formula_units_Z   8
loop_
 _symmetry_equiv_pos_site_id
 _symmetry_equiv_pos_as_xyz
  1  'x, y, z'
loop_
 _atom_site_type_symbol
 _atom_site_label
 _atom_site_symmetry_multiplicity
 _atom_site_fract_x
 _atom_site_fract_y
 _atom_site_fract_z
 _atom_site_occupancy
 _atom_site_charge
Cd  Cd1  1  0.58377000  0.93270000  0.59714000  1.0 0.9120259743
Cd  Cd2  1  0.41623000  0.06730000  0.09714000  1.0 0.9162296813
Cd  Cd3  1  0.08377000  0.56730000  0.15286000  1.0 0.9120259743
Cd  Cd4  1  0.91623000  0.43270000  0.65286000  1.0 0.9120259743
Cd  Cd5  1  0.06730000  0.41623000  0.90286000  1.0 0.9162296813
Cd  Cd6  1  0.93270000  0.58377000  0.40286000  1.0 0.9120259743
Cd  Cd7  1  0.43270000  0.91623000  0.34714000  1.0 0.9120259743
Cd  Cd8  1  0.56730000  0.08377000  0.84714000  1.0 0.9120259743
Cd  Cd9  1  0.07880000  0.07380000  0.49201000  1.0 0.3665818185
Cd  Cd10  1  0.92120000  0.92620000  0.99201000  1.0 0.3512768458
Cd  Cd11  1  0.57880000  0.42620000  0.25799000  1.0 0.3665818185
Cd  Cd12  1  0.42120000  0.57380000  0.75799000  1.0 0.3665818185
Cd  Cd13  1  0.92620000  0.92120000  0.00799000  1.0 0.3512768458
Cd  Cd14  1  0.07380000  0.07880000  0.50799000  1.0 0.3665818185
Cd  Cd15  1  0.57380000  0.42120000  0.24201000  1.0 0.3665818185
Cd  Cd16  1  0.42620000  0.57880000  0.74201000  1.0 0.3665818185
H  H1  1  0.55930000  0.97810000  0.48440000  1.0 0.1306820522
H  H2  1  0.44070000  0.02190000  0.98440000  1.0 0.1306820522
H  H3  1  0.05930000  0.52190000  0.26560000  1.0 0.1306820522
H  H4  1  0.94070000  0.47810000  0.76560000  1.0 0.1306820522
H  H5  1  0.02190000  0.44070000  0.01560000  1.0 0.1306820522
H  H6  1  0.97810000  0.55930000  0.51560000  1.0 0.1306820522
H  H7  1  0.47810000  0.94070000  0.23440000  1.0 0.1306820522
H  H8  1  0.52190000  0.05930000  0.73440000  1.0 0.1306820522
H  H9  1  0.50030000  0.99410000  0.43540000  1.0 0.1215499189
H  H10  1  0.49970000  0.00590000  0.93540000  1.0 0.1215499189
H  H11  1  0.00030000  0.50590000  0.31460000  1.0 0.1215499189
H  H12  1  0.99970000  0.49410000  0.81460000  1.0 0.1215499189
H  H13  1  0.00590000  0.49970000  0.06460000  1.0 0.1215499189
H  H14  1  0.99410000  0.50030000  0.56460000  1.0 0.1215499189
H  H15  1  0.49410000  0.99970000  0.18540000  1.0 0.1215499189
H  H16  1  0.50590000  0.00030000  0.68540000  1.0 0.1215499189
H  H17  1  0.36610000  0.02330000  0.43260000  1.0 0.1215499189
H  H18  1  0.63390000  0.97670000  0.93260000  1.0 0.1215499189
H  H19  1  0.86610000  0.47670000  0.31740000  1.0 0.1215499189
H  H20  1  0.13390000  0.52330000  0.81740000  1.0 0.1215499189
H  H21  1  0.97670000  0.63390000  0.06740000  1.0 0.1215499189
H  H22  1  0.02330000  0.36610000  0.56740000  1.0 0.1215499189
H  H23  1  0.52330000  0.13390000  0.18260000  1.0 0.1215499189
H  H24  1  0.47670000  0.86610000  0.68260000  1.0 0.1215499189
H  H25  1  0.34370000  0.00540000  0.52790000  1.0 0.1491047508
H  H26  1  0.65630000  0.99460000  0.02790000  1.0 0.1491047508
H  H27  1  0.84370000  0.49460000  0.22210000  1.0 0.1491047508
H  H28  1  0.15630000  0.50540000  0.72210000  1.0 0.1491047508
H  H29  1  0.99460000  0.65630000  0.97210000  1.0 0.1491047508
H  H30  1  0.00540000  0.34370000  0.47210000  1.0 0.1491047508
H  H31  1  0.50540000  0.15630000  0.27790000  1.0 0.1491047508
H  H32  1  0.49460000  0.84370000  0.77790000  1.0 0.1491047508
H  H33  1  0.84960000  0.85510000  0.56550000  1.0 0.139827441
H  H34  1  0.15040000  0.14490000  0.06550000  1.0 0.139827441
H  H35  1  0.34960000  0.64490000  0.18450000  1.0 0.139827441
H  H36  1  0.65040000  0.35510000  0.68450000  1.0 0.139827441
H  H37  1  0.14490000  0.15040000  0.93450000  1.0 0.139827441
H  H38  1  0.85510000  0.84960000  0.43450000  1.0 0.139827441
H  H39  1  0.35510000  0.65040000  0.31550000  1.0 0.139827441
H  H40  1  0.64490000  0.34960000  0.81550000  1.0 0.139827441
H  H41  1  0.96860000  0.77920000  0.55910000  1.0 0.139827441
H  H42  1  0.03140000  0.22080000  0.05910000  1.0 0.139827441
H  H43  1  0.46860000  0.72080000  0.19090000  1.0 0.139827441
H  H44  1  0.53140000  0.27920000  0.69090000  1.0 0.139827441
H  H45  1  0.22080000  0.03140000  0.94090000  1.0 0.139827441
H  H46  1  0.77920000  0.96860000  0.44090000  1.0 0.139827441
H  H47  1  0.27920000  0.53140000  0.30910000  1.0 0.139827441
H  H48  1  0.72080000  0.46860000  0.80910000  1.0 0.139827441
H  H49  1  0.97410000  0.64890000  0.58230000  1.0 0.1306820522
H  H50  1  0.02590000  0.35110000  0.08230000  1.0 0.1306820522
H  H51  1  0.47410000  0.85110000  0.16770000  1.0 0.1306820522
H  H52  1  0.52590000  0.14890000  0.66770000  1.0 0.1306820522
H  H53  1  0.35110000  0.02590000  0.91770000  1.0 0.1306820522
H  H54  1  0.64890000  0.97410000  0.41770000  1.0 0.1306820522
H  H55  1  0.14890000  0.52590000  0.33230000  1.0 0.1306820522
H  H56  1  0.85110000  0.47410000  0.83230000  1.0 0.1306820522
H  H57  1  0.76010000  0.69100000  0.62660000  1.0 0.139827441
H  H58  1  0.23990000  0.30900000  0.12660000  1.0 0.139827441
H  H59  1  0.26010000  0.80900000  0.12340000  1.0 0.139827441
H  H60  1  0.73990000  0.19100000  0.62340000  1.0 0.139827441
H  H61  1  0.30900000  0.23990000  0.87340000  1.0 0.139827441
H  H62  1  0.69100000  0.76010000  0.37340000  1.0 0.139827441
H  H63  1  0.19100000  0.73990000  0.37660000  1.0 0.139827441
H  H64  1  0.80900000  0.26010000  0.87660000  1.0 0.139827441
H  H65  1  0.40530000  0.94590000  0.62490000  1.0 0.1306820522
H  H66  1  0.59470000  0.05410000  0.12490000  1.0 0.1306820522
H  H67  1  0.90530000  0.55410000  0.12510000  1.0 0.1306820522
H  H68  1  0.09470000  0.44590000  0.62510000  1.0 0.1306820522
H  H69  1  0.05410000  0.59470000  0.87510000  1.0 0.1306820522
H  H70  1  0.94590000  0.40530000  0.37510000  1.0 0.1306820522
H  H71  1  0.44590000  0.09470000  0.37490000  1.0 0.1306820522
H  H72  1  0.55410000  0.90530000  0.87490000  1.0 0.1306820522
H  H73  1  0.28700000  0.87610000  0.63420000  1.0 0.139827441
H  H74  1  0.71300000  0.12390000  0.13420000  1.0 0.139827441
H  H75  1  0.78700000  0.62390000  0.11580000  1.0 0.139827441
H  H76  1  0.21300000  0.37610000  0.61580000  1.0 0.139827441
H  H77  1  0.12390000  0.71300000  0.86580000  1.0 0.139827441
H  H78  1  0.87610000  0.28700000  0.36580000  1.0 0.139827441
H  H79  1  0.37610000  0.21300000  0.38420000  1.0 0.139827441
H  H80  1  0.62390000  0.78700000  0.88420000  1.0 0.139827441
H  H81  1  0.28260000  0.73640000  0.62510000  1.0 0.1306820522
H  H82  1  0.71740000  0.26360000  0.12510000  1.0 0.139827441
H  H83  1  0.78260000  0.76360000  0.12490000  1.0 0.1306820522
H  H84  1  0.21740000  0.23640000  0.62490000  1.0 0.139827441
H  H85  1  0.26360000  0.71740000  0.87490000  1.0 0.1306820522
H  H86  1  0.73640000  0.28260000  0.37490000  1.0 0.1306820522
H  H87  1  0.23640000  0.21740000  0.37510000  1.0 0.139827441
H  H88  1  0.76360000  0.78260000  0.87510000  1.0 0.1306820522
H  H89  1  0.52300000  0.74710000  0.60420000  1.0 0.1215499189
H  H90  1  0.47700000  0.25290000  0.10420000  1.0 0.1215499189
H  H91  1  0.02300000  0.75290000  0.14580000  1.0 0.1215499189
H  H92  1  0.97700000  0.24710000  0.64580000  1.0 0.1215499189
H  H93  1  0.25290000  0.47700000  0.89580000  1.0 0.1215499189
H  H94  1  0.74710000  0.52300000  0.39580000  1.0 0.1215499189
H  H95  1  0.24710000  0.97700000  0.35420000  1.0 0.1215499189
H  H96  1  0.75290000  0.02300000  0.85420000  1.0 0.1215499189
H  H97  1  0.35970000  0.60980000  0.61790000  1.0 0.139827441
H  H98  1  0.64030000  0.39020000  0.11790000  1.0 0.139827441
H  H99  1  0.85970000  0.89020000  0.13210000  1.0 0.139827441
H  H100  1  0.14030000  0.10980000  0.63210000  1.0 0.139827441
H  H101  1  0.39020000  0.64030000  0.88210000  1.0 0.139827441
H  H102  1  0.60980000  0.35970000  0.38210000  1.0 0.139827441
H  H103  1  0.10980000  0.14030000  0.36790000  1.0 0.139827441
H  H104  1  0.89020000  0.85970000  0.86790000  1.0 0.139827441
H  H105  1  0.45520000  0.61350000  0.61760000  1.0 0.1491047508
H  H106  1  0.54480000  0.38650000  0.11760000  1.0 0.1491047508
H  H107  1  0.95520000  0.88650000  0.13240000  1.0 0.1491047508
H  H108  1  0.04480000  0.11350000  0.63240000  1.0 0.1491047508
H  H109  1  0.38650000  0.54480000  0.88240000  1.0 0.1491047508
H  H110  1  0.61350000  0.45520000  0.38240000  1.0 0.1491047508
H  H111  1  0.11350000  0.04480000  0.36760000  1.0 0.1491047508
H  H112  1  0.88650000  0.95520000  0.86760000  1.0 0.1491047508
H  H113  1  0.36170000  0.50070000  0.57360000  1.0 0.1106198341
H  H114  1  0.63830000  0.49930000  0.07360000  1.0 0.1106198341
H  H115  1  0.86170000  0.99930000  0.17640000  1.0 0.1106198341
H  H116  1  0.13830000  0.00070000  0.67640000  1.0 0.1106198341
H  H117  1  0.49930000  0.63830000  0.92640000  1.0 0.1106198341
H  H118  1  0.50070000  0.36170000  0.42640000  1.0 0.1106198341
H  H119  1  0.00070000  0.13830000  0.32360000  1.0 0.1106198341
H  H120  1  0.99930000  0.86170000  0.82360000  1.0 0.1106198341
H  H121  1  0.45680000  0.50350000  0.57710000  1.0 0.1106198341
H  H122  1  0.54320000  0.49650000  0.07710000  1.0 0.1106198341
H  H123  1  0.95680000  0.99650000  0.17290000  1.0 0.1106198341
H  H124  1  0.04320000  0.00350000  0.67290000  1.0 0.1106198341
H  H125  1  0.49650000  0.54320000  0.92290000  1.0 0.1106198341
H  H126  1  0.50350000  0.45680000  0.42290000  1.0 0.1106198341
H  H127  1  0.00350000  0.04320000  0.32710000  1.0 0.1106198341
H  H128  1  0.99650000  0.95680000  0.82710000  1.0 0.1106198341
H  H129  1  0.38500000  0.54370000  0.51850000  1.0 0.1017326123
H  H130  1  0.61500000  0.45630000  0.01850000  1.0 0.1017326123
H  H131  1  0.88500000  0.95630000  0.23150000  1.0 0.1017326123
H  H132  1  0.11500000  0.04370000  0.73150000  1.0 0.1017326123
H  H133  1  0.45630000  0.61500000  0.98150000  1.0 0.1017326123
H  H134  1  0.54370000  0.38500000  0.48150000  1.0 0.1017326123
H  H135  1  0.04370000  0.11500000  0.26850000  1.0 0.1017326123
H  H136  1  0.95630000  0.88500000  0.76850000  1.0 0.1017326123
H  H137  1  0.40250000  0.45270000  0.52640000  1.0 0.1106198341
H  H138  1  0.59750000  0.54730000  0.02640000  1.0 0.1106198341
H  H139  1  0.90250000  0.04730000  0.22360000  1.0 0.1106198341
H  H140  1  0.09750000  0.95270000  0.72360000  1.0 0.1215499189
H  H141  1  0.54730000  0.59750000  0.97360000  1.0 0.1215499189
H  H142  1  0.45270000  0.40250000  0.47360000  1.0 0.1106198341
H  H143  1  0.95270000  0.09750000  0.27640000  1.0 0.1215499189
H  H144  1  0.04730000  0.90250000  0.77640000  1.0 0.1106198341
H  H145  1  0.54170000  0.47940000  0.53070000  1.0 0.1017326123
H  H146  1  0.45830000  0.52060000  0.03070000  1.0 0.1017326123
H  H147  1  0.04170000  0.02060000  0.21930000  1.0 0.1017326123
H  H148  1  0.95830000  0.97940000  0.71930000  1.0 0.1017326123
H  H149  1  0.52060000  0.45830000  0.96930000  1.0 0.1017326123
H  H150  1  0.47940000  0.54170000  0.46930000  1.0 0.1017326123
H  H151  1  0.97940000  0.95830000  0.28070000  1.0 0.1017326123
H  H152  1  0.02060000  0.04170000  0.78070000  1.0 0.1017326123
H  H153  1  0.52640000  0.57190000  0.52550000  1.0 0.0876725876
H  H154  1  0.47360000  0.42810000  0.02550000  1.0 0.0876725876
H  H155  1  0.02640000  0.92810000  0.22450000  1.0 0.0876725876
H  H156  1  0.97360000  0.07190000  0.72450000  1.0 0.0876725876
H  H157  1  0.42810000  0.47360000  0.97450000  1.0 0.0876725876
H  H158  1  0.57190000  0.52640000  0.47450000  1.0 0.0876725876
H  H159  1  0.07190000  0.97360000  0.27550000  1.0 0.0876725876
H  H160  1  0.92810000  0.02640000  0.77550000  1.0 0.0876725876
H  H161  1  0.36110000  0.63390000  0.56470000  1.0 0.2384938012
H  H162  1  0.63890000  0.36610000  0.06470000  1.0 0.2384938012
H  H163  1  0.86110000  0.86610000  0.18530000  1.0 0.2384938012
H  H164  1  0.13890000  0.13390000  0.68530000  1.0 0.2384938012
H  H165  1  0.36610000  0.63890000  0.93530000  1.0 0.2384938012
H  H166  1  0.63390000  0.36110000  0.43530000  1.0 0.2384938012
H  H167  1  0.13390000  0.13890000  0.31470000  1.0 0.2384938012
H  H168  1  0.86610000  0.86110000  0.81470000  1.0 0.2384938012
H  H169  1  0.44860000  0.63860000  0.56430000  1.0 0.2490006212
H  H170  1  0.55140000  0.36140000  0.06430000  1.0 0.2490006212
H  H171  1  0.94860000  0.86140000  0.18570000  1.0 0.2490006212
H  H172  1  0.05140000  0.13860000  0.68570000  1.0 0.2490006212
H  H173  1  0.36140000  0.55140000  0.93570000  1.0 0.2490006212
H  H174  1  0.63860000  0.44860000  0.43570000  1.0 0.2490006212
H  H175  1  0.13860000  0.05140000  0.31430000  1.0 0.2490006212
H  H176  1  0.86140000  0.94860000  0.81430000  1.0 0.2490006212
C  C1  1  0.49790000  0.97150000  0.54240000  1.0 0.5477782313
C  C2  1  0.50210000  0.02850000  0.04240000  1.0 0.5477782313
C  C3  1  0.99790000  0.52850000  0.20760000  1.0 0.5477782313
C  C4  1  0.00210000  0.47150000  0.70760000  1.0 0.5477782313
C  C5  1  0.02850000  0.50210000  0.95760000  1.0 0.5477782313
C  C6  1  0.97150000  0.49790000  0.45760000  1.0 0.5477782313
C  C7  1  0.47150000  0.00210000  0.29240000  1.0 0.5477782313
C  C8  1  0.52850000  0.99790000  0.79240000  1.0 0.5477782313
C  C9  1  0.45720000  0.98650000  0.51150000  1.0 -0.0180759458
C  C10  1  0.54280000  0.01350000  0.01150000  1.0 -0.0180759458
C  C11  1  0.95720000  0.51350000  0.23850000  1.0 -0.0180759458
C  C12  1  0.04280000  0.48650000  0.73850000  1.0 -0.0180759458
C  C13  1  0.01350000  0.54280000  0.98850000  1.0 -0.0180759458
C  C14  1  0.98650000  0.45720000  0.48850000  1.0 -0.0180759458
C  C15  1  0.48650000  0.04280000  0.26150000  1.0 -0.0180759458
C  C16  1  0.51350000  0.95720000  0.76150000  1.0 -0.0180759458
C  C17  1  0.50310000  0.98630000  0.48310000  1.0 -0.0900569939
C  C18  1  0.49690000  0.01370000  0.98310000  1.0 -0.0900569939
C  C19  1  0.00310000  0.51370000  0.26690000  1.0 -0.0900569939
C  C20  1  0.99690000  0.48630000  0.76690000  1.0 -0.0900569939
C  C21  1  0.01370000  0.49690000  0.01690000  1.0 -0.0900569939
C  C22  1  0.98630000  0.50310000  0.51690000  1.0 -0.0900569939
C  C23  1  0.48630000  0.99690000  0.23310000  1.0 -0.0900569939
C  C24  1  0.51370000  0.00310000  0.73310000  1.0 -0.0900569939
C  C25  1  0.46900000  0.99750000  0.45400000  1.0 -0.0900569939
C  C26  1  0.53100000  0.00250000  0.95400000  1.0 -0.0900569939
C  C27  1  0.96900000  0.50250000  0.29600000  1.0 -0.0900569939
C  C28  1  0.03100000  0.49750000  0.79600000  1.0 -0.0900569939
C  C29  1  0.00250000  0.53100000  0.04600000  1.0 -0.0900569939
C  C30  1  0.99750000  0.46900000  0.54600000  1.0 -0.0900569939
C  C31  1  0.49750000  0.03100000  0.20400000  1.0 -0.0900569939
C  C32  1  0.50250000  0.96900000  0.70400000  1.0 -0.0900569939
C  C33  1  0.38950000  0.01350000  0.45250000  1.0 -0.0900569939
C  C34  1  0.61050000  0.98650000  0.95250000  1.0 -0.0900569939
C  C35  1  0.88950000  0.48650000  0.29750000  1.0 -0.0900569939
C  C36  1  0.11050000  0.51350000  0.79750000  1.0 -0.0900569939
C  C37  1  0.98650000  0.61050000  0.04750000  1.0 -0.0900569939
C  C38  1  0.01350000  0.38950000  0.54750000  1.0 -0.0900569939
C  C39  1  0.51350000  0.11050000  0.20250000  1.0 -0.0900569939
C  C40  1  0.48650000  0.88950000  0.70250000  1.0 -0.0900569939
C  C41  1  0.33960000  0.01630000  0.47940000  1.0 -0.0089727866
C  C42  1  0.66040000  0.98370000  0.97940000  1.0 -0.0089727866
C  C43  1  0.83960000  0.48370000  0.27060000  1.0 -0.0089727866
C  C44  1  0.16040000  0.51630000  0.77060000  1.0 -0.0089727866
C  C45  1  0.98370000  0.66040000  0.02060000  1.0 -0.0089727866
C  C46  1  0.01630000  0.33960000  0.52060000  1.0 -0.0089727866
C  C47  1  0.51630000  0.16040000  0.22940000  1.0 -0.0089727866
C  C48  1  0.48370000  0.83960000  0.72940000  1.0 -0.0089727866
C  C49  1  0.37540000  0.00300000  0.50950000  1.0 -0.0981140505
C  C50  1  0.62460000  0.99700000  0.00950000  1.0 -0.0981140505
C  C51  1  0.87540000  0.49700000  0.24050000  1.0 -0.0981140505
C  C52  1  0.12460000  0.50300000  0.74050000  1.0 -0.0981140505
C  C53  1  0.99700000  0.62460000  0.99050000  1.0 -0.0981140505
C  C54  1  0.00300000  0.37540000  0.49050000  1.0 -0.0981140505
C  C55  1  0.50300000  0.12460000  0.25950000  1.0 -0.0981140505
C  C56  1  0.49700000  0.87540000  0.75950000  1.0 -0.0981140505
C  C57  1  0.25080000  0.03330000  0.47650000  1.0 0.5716253008
C  C58  1  0.74920000  0.96670000  0.97650000  1.0 0.5716253008
C  C59  1  0.75080000  0.46670000  0.27350000  1.0 0.5716253008
C  C60  1  0.24920000  0.53330000  0.77350000  1.0 0.5716253008
C  C61  1  0.96670000  0.74920000  0.02350000  1.0 0.5716253008
C  C62  1  0.03330000  0.25080000  0.52350000  1.0 0.5716253008
C  C63  1  0.53330000  0.24920000  0.22650000  1.0 0.5716253008
C  C64  1  0.46670000  0.75080000  0.72650000  1.0 0.5716253008
C  C65  1  0.72180000  0.83310000  0.60130000  1.0 0.5370137255
C  C66  1  0.27820000  0.16690000  0.10130000  1.0 0.5370137255
C  C67  1  0.22180000  0.66690000  0.14870000  1.0 0.5370137255
C  C68  1  0.77820000  0.33310000  0.64870000  1.0 0.5370137255
C  C69  1  0.16690000  0.27820000  0.89870000  1.0 0.5370137255
C  C70  1  0.83310000  0.72180000  0.39870000  1.0 0.5370137255
C  C71  1  0.33310000  0.77820000  0.35130000  1.0 0.5370137255
C  C72  1  0.66690000  0.22180000  0.85130000  1.0 0.5370137255
C  C73  1  0.79540000  0.78140000  0.59720000  1.0 -0.0180759458
C  C74  1  0.20460000  0.21860000  0.09720000  1.0 -0.0180759458
C  C75  1  0.29540000  0.71860000  0.15280000  1.0 -0.0180759458
C  C76  1  0.70460000  0.28140000  0.65280000  1.0 -0.0180759458
C  C77  1  0.21860000  0.20460000  0.90280000  1.0 -0.0180759458
C  C78  1  0.78140000  0.79540000  0.40280000  1.0 -0.0180759458
C  C79  1  0.28140000  0.70460000  0.34720000  1.0 -0.0180759458
C  C80  1  0.71860000  0.29540000  0.84720000  1.0 -0.0180759458
C  C81  1  0.85580000  0.80610000  0.57650000  1.0 -0.0726135027
C  C82  1  0.14420000  0.19390000  0.07650000  1.0 -0.0726135027
C  C83  1  0.35580000  0.69390000  0.17350000  1.0 -0.0765314986
C  C84  1  0.64420000  0.30610000  0.67350000  1.0 -0.0726135027
C  C85  1  0.19390000  0.14420000  0.92350000  1.0 -0.0726135027
C  C86  1  0.80610000  0.85580000  0.42350000  1.0 -0.0726135027
C  C87  1  0.30610000  0.64420000  0.32650000  1.0 -0.0726135027
C  C88  1  0.69390000  0.35580000  0.82650000  1.0 -0.0765314986
C  C89  1  0.92600000  0.76000000  0.57170000  1.0 -0.0900569939
C  C90  1  0.07400000  0.24000000  0.07170000  1.0 -0.0900569939
C  C91  1  0.42600000  0.74000000  0.17830000  1.0 -0.0900569939
C  C92  1  0.57400000  0.26000000  0.67830000  1.0 -0.0900569939
C  C93  1  0.24000000  0.07400000  0.92830000  1.0 -0.0900569939
C  C94  1  0.76000000  0.92600000  0.42830000  1.0 -0.0900569939
C  C95  1  0.26000000  0.57400000  0.32170000  1.0 -0.0900569939
C  C96  1  0.74000000  0.42600000  0.82170000  1.0 -0.0900569939
C  C97  1  0.93010000  0.68310000  0.58660000  1.0 -0.0900569939
C  C98  1  0.06990000  0.31690000  0.08660000  1.0 -0.0900569939
C  C99  1  0.43010000  0.81690000  0.16340000  1.0 -0.0900569939
C  C100  1  0.56990000  0.18310000  0.66340000  1.0 -0.0900569939
C  C101  1  0.31690000  0.06990000  0.91340000  1.0 -0.0900569939
C  C102  1  0.68310000  0.93010000  0.41340000  1.0 -0.0900569939
C  C103  1  0.18310000  0.56990000  0.33660000  1.0 -0.0900569939
C  C104  1  0.81690000  0.43010000  0.83660000  1.0 -0.0900569939
C  C105  1  0.87100000  0.65730000  0.60730000  1.0 -0.0089727866
C  C106  1  0.12900000  0.34270000  0.10730000  1.0 -0.0089727866
C  C107  1  0.37100000  0.84270000  0.14270000  1.0 -0.0089727866
C  C108  1  0.62900000  0.15730000  0.64270000  1.0 -0.0089727866
C  C109  1  0.34270000  0.12900000  0.89270000  1.0 -0.0089727866
C  C110  1  0.65730000  0.87100000  0.39270000  1.0 -0.0089727866
C  C111  1  0.15730000  0.62900000  0.35730000  1.0 -0.0089727866
C  C112  1  0.84270000  0.37100000  0.85730000  1.0 -0.0089727866
C  C113  1  0.80120000  0.70780000  0.61270000  1.0 -0.0900569939
C  C114  1  0.19880000  0.29220000  0.11270000  1.0 -0.0900569939
C  C115  1  0.30120000  0.79220000  0.13730000  1.0 -0.0900569939
C  C116  1  0.69880000  0.20780000  0.63730000  1.0 -0.0900569939
C  C117  1  0.29220000  0.19880000  0.88730000  1.0 -0.0900569939
C  C118  1  0.70780000  0.80120000  0.38730000  1.0 -0.0900569939
C  C119  1  0.20780000  0.69880000  0.36270000  1.0 -0.0900569939
C  C120  1  0.79220000  0.30120000  0.86270000  1.0 -0.0900569939
C  C121  1  0.87830000  0.57890000  0.62540000  1.0 0.5477782313
C  C122  1  0.12170000  0.42110000  0.12540000  1.0 0.5477782313
C  C123  1  0.37830000  0.92110000  0.12460000  1.0 0.5477782313
C  C124  1  0.62170000  0.07890000  0.62460000  1.0 0.5477782313
C  C125  1  0.42110000  0.12170000  0.87460000  1.0 0.5477782313
C  C126  1  0.57890000  0.87830000  0.37460000  1.0 0.5477782313
C  C127  1  0.07890000  0.62170000  0.37540000  1.0 0.5477782313
C  C128  1  0.92110000  0.37830000  0.87540000  1.0 0.5477782313
C  C129  1  0.40490000  0.88940000  0.62250000  1.0 0.0614837381
C  C130  1  0.59510000  0.11060000  0.12250000  1.0 0.0614837381
C  C131  1  0.90490000  0.61060000  0.12750000  1.0 0.0614837381
C  C132  1  0.09510000  0.38940000  0.62750000  1.0 0.0614837381
C  C133  1  0.11060000  0.59510000  0.87750000  1.0 0.0614837381
C  C134  1  0.88940000  0.40490000  0.37750000  1.0 0.0614837381
C  C135  1  0.38940000  0.09510000  0.37250000  1.0 0.0614837381
C  C136  1  0.61060000  0.90490000  0.87250000  1.0 0.0614837381
C  C137  1  0.33350000  0.84830000  0.62760000  1.0 -0.1143859205
C  C138  1  0.66650000  0.15170000  0.12760000  1.0 -0.1152084757
C  C139  1  0.83350000  0.65170000  0.12240000  1.0 -0.1152084757
C  C140  1  0.16650000  0.34830000  0.62240000  1.0 -0.1143859205
C  C141  1  0.15170000  0.66650000  0.87240000  1.0 -0.1152084757
C  C142  1  0.84830000  0.33350000  0.37240000  1.0 -0.1143859205
C  C143  1  0.34830000  0.16650000  0.37760000  1.0 -0.1152084757
C  C144  1  0.65170000  0.83350000  0.87760000  1.0 -0.1143859205
C  C145  1  0.33140000  0.76490000  0.62280000  1.0 -0.0981140505
C  C146  1  0.66860000  0.23510000  0.12280000  1.0 -0.0981140505
C  C147  1  0.83140000  0.73510000  0.12720000  1.0 -0.0981140505
C  C148  1  0.16860000  0.26490000  0.62720000  1.0 -0.0981140505
C  C149  1  0.23510000  0.66860000  0.87720000  1.0 -0.0981140505
C  C150  1  0.76490000  0.33140000  0.37720000  1.0 -0.0981140505
C  C151  1  0.26490000  0.16860000  0.37280000  1.0 -0.0981140505
C  C152  1  0.73510000  0.83140000  0.87280000  1.0 -0.0981140505
C  C153  1  0.40300000  0.72370000  0.61440000  1.0 0.0385081565
C  C154  1  0.59700000  0.27630000  0.11440000  1.0 0.0385081565
C  C155  1  0.90300000  0.77630000  0.13560000  1.0 0.0385081565
C  C156  1  0.09700000  0.22370000  0.63560000  1.0 0.0385081565
C  C157  1  0.27630000  0.59700000  0.88560000  1.0 0.0385081565
C  C158  1  0.72370000  0.40300000  0.38560000  1.0 0.0385081565
C  C159  1  0.22370000  0.09700000  0.36440000  1.0 0.0385081565
C  C160  1  0.77630000  0.90300000  0.86440000  1.0 0.0385081565
C  C161  1  0.47470000  0.77280000  0.61010000  1.0 0.0731324341
C  C162  1  0.52530000  0.22720000  0.11010000  1.0 0.0731324341
C  C163  1  0.97470000  0.72720000  0.13990000  1.0 0.0731324341
C  C164  1  0.02530000  0.27280000  0.63990000  1.0 0.0731324341
C  C165  1  0.22720000  0.52530000  0.88990000  1.0 0.0731324341
C  C166  1  0.77280000  0.47470000  0.38990000  1.0 0.0731324341
C  C167  1  0.27280000  0.02530000  0.36010000  1.0 0.0731324341
C  C168  1  0.72720000  0.97470000  0.86010000  1.0 0.0731324341
C  C169  1  0.40630000  0.63570000  0.60780000  1.0 -0.1466524739
C  C170  1  0.59370000  0.36430000  0.10780000  1.0 -0.1466524739
C  C171  1  0.90630000  0.86430000  0.14220000  1.0 -0.1466524739
C  C172  1  0.09370000  0.13570000  0.64220000  1.0 -0.1466524739
C  C173  1  0.36430000  0.59370000  0.89220000  1.0 -0.1466524739
C  C174  1  0.63570000  0.40630000  0.39220000  1.0 -0.1466524739
C  C175  1  0.13570000  0.09370000  0.35780000  1.0 -0.1466524739
C  C176  1  0.86430000  0.90630000  0.85780000  1.0 -0.1466524739
C  C177  1  0.41090000  0.52710000  0.56580000  1.0 -0.0981140505
C  C178  1  0.58910000  0.47290000  0.06580000  1.0 -0.0981140505
C  C179  1  0.91090000  0.97290000  0.18420000  1.0 -0.0981140505
C  C180  1  0.08910000  0.02710000  0.68420000  1.0 -0.0981140505
C  C181  1  0.47290000  0.58910000  0.93420000  1.0 -0.0981140505
C  C182  1  0.52710000  0.41090000  0.43420000  1.0 -0.0981140505
C  C183  1  0.02710000  0.08910000  0.31580000  1.0 -0.0981140505
C  C184  1  0.97290000  0.91090000  0.81580000  1.0 -0.0981140505
C  C185  1  0.42010000  0.50780000  0.53030000  1.0 -0.2224189777
C  C186  1  0.57990000  0.49220000  0.03030000  1.0 -0.2262460678
C  C187  1  0.92010000  0.99220000  0.21970000  1.0 -0.2262460678
C  C188  1  0.07990000  0.00780000  0.71970000  1.0 -0.2262460678
C  C189  1  0.49220000  0.57990000  0.96970000  1.0 -0.2262460678
C  C190  1  0.50780000  0.42010000  0.46970000  1.0 -0.2224189777
C  C191  1  0.00780000  0.07990000  0.28030000  1.0 -0.2262460678
C  C192  1  0.99220000  0.92010000  0.78030000  1.0 -0.2262460678
C  C193  1  0.50770000  0.51830000  0.51970000  1.0 -0.1925691188
C  C194  1  0.49230000  0.48170000  0.01970000  1.0 -0.1925691188
C  C195  1  0.00770000  0.98170000  0.23030000  1.0 -0.1925691188
C  C196  1  0.99230000  0.01830000  0.73030000  1.0 -0.1925691188
C  C197  1  0.48170000  0.49230000  0.98030000  1.0 -0.1925691188
C  C198  1  0.51830000  0.50770000  0.48030000  1.0 -0.1925691188
C  C199  1  0.01830000  0.99230000  0.26970000  1.0 -0.1925691188
C  C200  1  0.98170000  0.00770000  0.76970000  1.0 -0.1925691188
N  N1  1  0.47530000  0.85140000  0.61400000  1.0 -0.2008605123
N  N2  1  0.52470000  0.14860000  0.11400000  1.0 -0.2008605123
N  N3  1  0.97530000  0.64860000  0.13600000  1.0 -0.2008605123
N  N4  1  0.02470000  0.35140000  0.63600000  1.0 -0.2008605123
N  N5  1  0.14860000  0.52470000  0.88600000  1.0 -0.2008605123
N  N6  1  0.85140000  0.47530000  0.38600000  1.0 -0.2008605123
N  N7  1  0.35140000  0.02470000  0.36400000  1.0 -0.2008605123
N  N8  1  0.64860000  0.97530000  0.86400000  1.0 -0.2008605123
N  N9  1  0.40640000  0.61370000  0.57353000  1.0 -0.2008605123
N  N10  1  0.59360000  0.38630000  0.07353000  1.0 -0.2008605123
N  N11  1  0.90640000  0.88630000  0.17647000  1.0 -0.2008605123
N  N12  1  0.09360000  0.11370000  0.67647000  1.0 -0.2008605123
N  N13  1  0.38630000  0.59360000  0.92647000  1.0 -0.2008605123
N  N14  1  0.61370000  0.40640000  0.42647000  1.0 -0.2008605123
N  N15  1  0.11370000  0.09360000  0.32353000  1.0 -0.2008605123
N  N16  1  0.88630000  0.90640000  0.82353000  1.0 -0.2008605123
O  O1  1  0.46880000  0.00310000  0.56730000  1.0 -0.5204447321
O  O2  1  0.53120000  0.99690000  0.06730000  1.0 -0.5204447321
O  O3  1  0.96880000  0.49690000  0.18270000  1.0 -0.5204447321
O  O4  1  0.03120000  0.50310000  0.68270000  1.0 -0.5204447321
O  O5  1  0.99690000  0.53120000  0.93270000  1.0 -0.5204447321
O  O6  1  0.00310000  0.46880000  0.43270000  1.0 -0.5204447321
O  O7  1  0.50310000  0.03120000  0.31730000  1.0 -0.5204447321
O  O8  1  0.49690000  0.96880000  0.81730000  1.0 -0.5204447321
O  O9  1  0.56120000  0.92710000  0.54320000  1.0 -0.5204447321
O  O10  1  0.43880000  0.07290000  0.04320000  1.0 -0.5204447321
O  O11  1  0.06120000  0.57290000  0.20680000  1.0 -0.5204447321
O  O12  1  0.93880000  0.42710000  0.70680000  1.0 -0.5204447321
O  O13  1  0.07290000  0.43880000  0.95680000  1.0 -0.5204447321
O  O14  1  0.92710000  0.56120000  0.45680000  1.0 -0.5204447321
O  O15  1  0.42710000  0.93880000  0.29320000  1.0 -0.5204447321
O  O16  1  0.57290000  0.06120000  0.79320000  1.0 -0.5204447321
O  O17  1  0.71390000  0.89450000  0.58240000  1.0 -0.4468085122
O  O18  1  0.28610000  0.10550000  0.08240000  1.0 -0.4468085122
O  O19  1  0.21390000  0.60550000  0.16760000  1.0 -0.4468085122
O  O20  1  0.78610000  0.39450000  0.66760000  1.0 -0.4468085122
O  O21  1  0.10550000  0.28610000  0.91760000  1.0 -0.4468085122
O  O22  1  0.89450000  0.71390000  0.41760000  1.0 -0.4468085122
O  O23  1  0.39450000  0.78610000  0.33240000  1.0 -0.4468085122
O  O24  1  0.60550000  0.21390000  0.83240000  1.0 -0.4468085122
O  O25  1  0.66960000  0.81800000  0.62080000  1.0 -0.4888922263
O  O26  1  0.33040000  0.18200000  0.12080000  1.0 -0.4888922263
O  O27  1  0.16960000  0.68200000  0.12920000  1.0 -0.4888922263
O  O28  1  0.83040000  0.31800000  0.62920000  1.0 -0.4888922263
O  O29  1  0.18200000  0.33040000  0.87920000  1.0 -0.4888922263
O  O30  1  0.81800000  0.66960000  0.37920000  1.0 -0.4888922263
O  O31  1  0.31800000  0.83040000  0.37080000  1.0 -0.4888922263
O  O32  1  0.68200000  0.16960000  0.87080000  1.0 -0.4888922263
O  O33  1  0.21310000  0.06170000  0.50020000  1.0 -0.4119745631
O  O34  1  0.78690000  0.93830000  0.00020000  1.0 -0.4119745631
O  O35  1  0.71310000  0.43830000  0.24980000  1.0 -0.4119745631
O  O36  1  0.28690000  0.56170000  0.74980000  1.0 -0.4119745631
O  O37  1  0.93830000  0.78690000  0.99980000  1.0 -0.4119745631
O  O38  1  0.06170000  0.21310000  0.49980000  1.0 -0.4119745631
O  O39  1  0.56170000  0.28690000  0.25020000  1.0 -0.4119745631
O  O40  1  0.43830000  0.71310000  0.75020000  1.0 -0.4119745631
O  O41  1  0.22240000  0.02740000  0.44880000  1.0 -0.4824604113
O  O42  1  0.77760000  0.97260000  0.94880000  1.0 -0.4824604113
O  O43  1  0.72240000  0.47260000  0.30120000  1.0 -0.4824604113
O  O44  1  0.27760000  0.52740000  0.80120000  1.0 -0.4824604113
O  O45  1  0.97260000  0.77760000  0.05120000  1.0 -0.4824604113
O  O46  1  0.02740000  0.22240000  0.55120000  1.0 -0.4824604113
O  O47  1  0.52740000  0.27760000  0.19880000  1.0 -0.4824604113
O  O48  1  0.47260000  0.72240000  0.69880000  1.0 -0.4824604113
O  O49  1  0.92080000  0.52310000  0.61290000  1.0 -0.5148085792
O  O50  1  0.07920000  0.47690000  0.11290000  1.0 -0.5204447321
O  O51  1  0.42080000  0.97690000  0.13710000  1.0 -0.5204447321
O  O52  1  0.57920000  0.02310000  0.63710000  1.0 -0.5204447321
O  O53  1  0.47690000  0.07920000  0.88710000  1.0 -0.5204447321
O  O54  1  0.52310000  0.92080000  0.38710000  1.0 -0.5148085792
O  O55  1  0.02310000  0.57920000  0.36290000  1.0 -0.5204447321
O  O56  1  0.97690000  0.42080000  0.86290000  1.0 -0.5204447321
O  O57  1  0.84590000  0.57190000  0.65190000  1.0 -0.4360844929
O  O58  1  0.15410000  0.42810000  0.15190000  1.0 -0.4306966701
O  O59  1  0.34590000  0.92810000  0.09810000  1.0 -0.4306966701
O  O60  1  0.65410000  0.07190000  0.59810000  1.0 -0.4306966701
O  O61  1  0.42810000  0.15410000  0.84810000  1.0 -0.4306966701
O  O62  1  0.57190000  0.84590000  0.34810000  1.0 -0.4360844929
O  O63  1  0.07190000  0.65410000  0.40190000  1.0 -0.4306966701
O  O64  1  0.92810000  0.34590000  0.90190000  1.0 -0.4306966701
O  O65  1  0.08140000  0.07460000  0.55110000  1.0 -0.4700262312
O  O66  1  0.91860000  0.92540000  0.05110000  1.0 -0.4592552919
O  O67  1  0.58140000  0.42540000  0.19890000  1.0 -0.4700262312
O  O68  1  0.41860000  0.57460000  0.69890000  1.0 -0.4824604113
O  O69  1  0.92540000  0.91860000  0.94890000  1.0 -0.4592552919
O  O70  1  0.07460000  0.08140000  0.44890000  1.0 -0.4700262312
O  O71  1  0.57460000  0.41860000  0.30110000  1.0 -0.4824604113
O  O72  1  0.42540000  0.58140000  0.80110000  1.0 -0.4700262312
O  O73  1  0.06370000  0.93410000  0.50240000  1.0 -0.3114576478
O  O74  1  0.93630000  0.06590000  0.00240000  1.0 -0.3446966846
O  O75  1  0.56370000  0.56590000  0.24760000  1.0 -0.3114576478
O  O76  1  0.43630000  0.43410000  0.74760000  1.0 -0.3114576478
O  O77  1  0.06590000  0.93630000  0.99760000  1.0 -0.3461316366
O  O78  1  0.93410000  0.06370000  0.49760000  1.0 -0.3114576478
O  O79  1  0.43410000  0.43630000  0.25240000  1.0 -0.3114576478
O  O80  1  0.56590000  0.56370000  0.75240000  1.0 -0.3114576478
