# DDEC6 charges by PACMAN v1.1 (https://github.com/mtap-research/PACMAN-charge/)
data_VAKPUV_ASR_pacman
_symmetry_space_group_name_H-M   'P 1'
_cell_length_a   19.61350000
_cell_length_b   19.61350000
_cell_length_c   31.22780000
_cell_angle_alpha   77.78880000
_cell_angle_beta   102.21100000
_cell_angle_gamma   136.06000000
_symmetry_Int_Tables_number   1
_chemical_formula_structural   Zn6H106C117I18(N2O)12
_chemical_formula_sum   'Zn12 H212 C234 I36 N48 O24'
_cell_volume   8116.17106375
_cell_formula_units_Z   2
loop_
 _symmetry_equiv_pos_site_id
 _symmetry_equiv_pos_as_xyz
  1  'x, y, z'
loop_
 _atom_site_type_symbol
 _atom_site_label
 _atom_site_symmetry_multiplicity
 _atom_site_fract_x
 _atom_site_fract_y
 _atom_site_fract_z
 _atom_site_occupancy
 _atom_site_charge
Zn  Zn1  1  0.68705000  0.54271000  0.85481000  1.0 0.4382026907
Zn  Zn2  1  0.98278000  0.22018000  0.17470000  1.0 0.4609289285
Zn  Zn3  1  0.45083000  0.30255000  0.35084000  1.0 0.2531961616
Zn  Zn4  1  0.02252000  0.67700000  0.03020000  1.0 0.2974352952
Zn  Zn5  1  0.32574000  0.97240000  0.53488000  1.0 0.4495193478
Zn  Zn6  1  0.77759000  0.01577000  0.67270000  1.0 0.4795155045
Zn  Zn7  1  0.54271000  0.68705000  0.14519000  1.0 0.4382026907
Zn  Zn8  1  0.22018000  0.98278000  0.82530000  1.0 0.4609289285
Zn  Zn9  1  0.30255000  0.45083000  0.64916000  1.0 0.2566105839
Zn  Zn10  1  0.67700000  0.02252000  0.96980000  1.0 0.2974352952
Zn  Zn11  1  0.97240000  0.32574000  0.46512000  1.0 0.4495193478
Zn  Zn12  1  0.01577000  0.77759000  0.32730000  1.0 0.4795155045
H  H1  1  0.42540000  0.72440000  0.84250000  1.0 0.0705878239
H  H2  1  0.72440000  0.42540000  0.15750000  1.0 0.0705878239
H  H3  1  0.31450000  0.59630000  0.79950000  1.0 0.0705878239
H  H4  1  0.59630000  0.31450000  0.20050000  1.0 0.0705878239
H  H5  1  0.44510000  0.61350000  0.83210000  1.0 0.1095190395
H  H6  1  0.61350000  0.44510000  0.16790000  1.0 0.1095190395
H  H7  1  0.35020000  0.50220000  0.82040000  1.0 0.0705878239
H  H8  1  0.50220000  0.35020000  0.17960000  1.0 0.0705878239
H  H9  1  0.31460000  0.45060000  0.89290000  1.0 0.0809218857
H  H10  1  0.45060000  0.31460000  0.10710000  1.0 0.0809218857
H  H11  1  0.42780000  0.51080000  0.89140000  1.0 0.1185193192
H  H12  1  0.51080000  0.42780000  0.10860000  1.0 0.1185193192
H  H13  1  0.44960000  0.77800000  0.92150000  1.0 0.0809218857
H  H14  1  0.77800000  0.44960000  0.07850000  1.0 0.0809218857
H  H15  1  0.52250000  0.77790000  0.99130000  1.0 0.0809218857
H  H16  1  0.77790000  0.52250000  0.00870000  1.0 0.0809218857
H  H17  1  0.52600000  0.65880000  0.01410000  1.0 0.0705878239
H  H18  1  0.65880000  0.52600000  0.98590000  1.0 0.0705878239
H  H19  1  0.27150000  0.79290000  0.78800000  1.0 0.0904003784
H  H20  1  0.79290000  0.27150000  0.21200000  1.0 0.0904003784
H  H21  1  0.26350000  0.78350000  0.83930000  1.0 0.0705878239
H  H22  1  0.78350000  0.26350000  0.16070000  1.0 0.0705878239
H  H23  1  0.18160000  0.68880000  0.81180000  1.0 0.0809218857
H  H24  1  0.68880000  0.18160000  0.18820000  1.0 0.0809218857
H  H25  1  0.21010000  0.51370000  0.85950000  1.0 0.1605007354
H  H26  1  0.51370000  0.21010000  0.14050000  1.0 0.1605007354
H  H27  1  0.47340000  0.42520000  0.98930000  1.0 0.1699789282
H  H28  1  0.42520000  0.47340000  0.01070000  1.0 0.1699789282
H  H29  1  0.54990000  0.52690000  0.01180000  1.0 0.1001163997
H  H30  1  0.52690000  0.54990000  0.98820000  1.0 0.1001163997
H  H31  1  0.55690000  0.52670000  0.96170000  1.0 0.0512924241
H  H32  1  0.52670000  0.55690000  0.03830000  1.0 0.0512924241
H  H33  1  0.36800000  0.62600000  0.86060000  1.0 0.0599199262
H  H34  1  0.62600000  0.36800000  0.13940000  1.0 0.0599199262
H  H35  1  0.25820000  0.45320000  0.86000000  1.0 0.1001163997
H  H36  1  0.45320000  0.25820000  0.14000000  1.0 0.1001163997
H  H37  1  0.10760000  0.34440000  0.88890000  1.0 0.1001163997
H  H38  1  0.34440000  0.10760000  0.11110000  1.0 0.1001163997
H  H39  1  0.12800000  0.43380000  0.89990000  1.0 0.0904003784
H  H40  1  0.43380000  0.12800000  0.10010000  1.0 0.0904003784
H  H41  1  0.16040000  0.39560000  0.96480000  1.0 0.1001163997
H  H42  1  0.39560000  0.16040000  0.03520000  1.0 0.1001163997
H  H43  1  0.19050000  0.34930000  0.94770000  1.0 0.0809218857
H  H44  1  0.34930000  0.19050000  0.05230000  1.0 0.0809218857
H  H45  1  0.48360000  0.73260000  0.92010000  1.0 0.1001163997
H  H46  1  0.73260000  0.48360000  0.07990000  1.0 0.1001163997
H  H47  1  0.55350000  0.73470000  0.99120000  1.0 0.0809218857
H  H48  1  0.73470000  0.55350000  0.00880000  1.0 0.0809218857
H  H49  1  0.46850000  0.58910000  0.03800000  1.0 0.0904003784
H  H50  1  0.58910000  0.46850000  0.96200000  1.0 0.0904003784
H  H51  1  0.29290000  0.77610000  0.80050000  1.0 0.1001163997
H  H52  1  0.77610000  0.29290000  0.19950000  1.0 0.0904003784
H  H53  1  0.26950000  0.76250000  0.84930000  1.0 0.0904003784
H  H54  1  0.76250000  0.26950000  0.15070000  1.0 0.0904003784
H  H55  1  0.19030000  0.67410000  0.81820000  1.0 0.1001163997
H  H56  1  0.67410000  0.19030000  0.18180000  1.0 0.1001163997
H  H57  1  0.13530000  0.45430000  0.82180000  1.0 0.2808234211
H  H58  1  0.45430000  0.13530000  0.17820000  1.0 0.2808234211
H  H59  1  0.20000000  0.26040000  0.03210000  1.0 0.1295290657
H  H60  1  0.26040000  0.20000000  0.96790000  1.0 0.1295290657
H  H61  1  0.28070000  0.31150000  0.99880000  1.0 0.0809218857
H  H62  1  0.31150000  0.28070000  0.00120000  1.0 0.0809218857
H  H63  1  0.18600000  0.29320000  0.98230000  1.0 0.0599199262
H  H64  1  0.29320000  0.18600000  0.01770000  1.0 0.0599199262
H  H65  1  0.24920000  0.14040000  0.92540000  1.0 0.0705878239
H  H66  1  0.14040000  0.24920000  0.07460000  1.0 0.0705878239
H  H67  1  0.20950000  0.02830000  0.97950000  1.0 0.0705878239
H  H68  1  0.02830000  0.20950000  0.02050000  1.0 0.0705878239
H  H69  1  0.21670000  0.08290000  0.01450000  1.0 0.0809218857
H  H70  1  0.08290000  0.21670000  0.98550000  1.0 0.0809218857
H  H71  1  0.04730000  0.92810000  0.99760000  1.0 0.0705878239
H  H72  1  0.92810000  0.04730000  0.00240000  1.0 0.0705878239
H  H73  1  0.05320000  0.97540000  0.94790000  1.0 0.0904003784
H  H74  1  0.97540000  0.05320000  0.05210000  1.0 0.0904003784
H  H75  1  0.16890000  0.27210000  0.98580000  1.0 0.0809218857
H  H76  1  0.27210000  0.16890000  0.01420000  1.0 0.0809218857
H  H77  1  0.07350000  0.20390000  0.04750000  1.0 0.0705878239
H  H78  1  0.20390000  0.07350000  0.95250000  1.0 0.0705878239
H  H79  1  0.92600000  0.03320000  0.04640000  1.0 0.0599199262
H  H80  1  0.03320000  0.92600000  0.95360000  1.0 0.0599199262
H  H81  1  0.92650000  0.11510000  0.86050000  1.0 0.1095190395
H  H82  1  0.11510000  0.92650000  0.13950000  1.0 0.1095190395
H  H83  1  0.01310000  0.20250000  0.82940000  1.0 0.040829954
H  H84  1  0.20250000  0.01310000  0.17060000  1.0 0.040829954
H  H85  1  0.01650000  0.22290000  0.87710000  1.0 0.0705878239
H  H86  1  0.22290000  0.01650000  0.12290000  1.0 0.0705878239
H  H87  1  0.75410000  0.79050000  0.98110000  1.0 0.0809218857
H  H88  1  0.79050000  0.75410000  0.01890000  1.0 0.0809218857
H  H89  1  0.76270000  0.78450000  0.03360000  1.0 0.0599199262
H  H90  1  0.78450000  0.76270000  0.96640000  1.0 0.0599199262
H  H91  1  0.81120000  0.76400000  0.01030000  1.0 0.0904003784
H  H92  1  0.76400000  0.81120000  0.98970000  1.0 0.0904003784
H  H93  1  0.16210000  0.19570000  0.80820000  1.0 0.1185193192
H  H94  1  0.19570000  0.16210000  0.19180000  1.0 0.1185193192
H  H95  1  0.12590000  0.12010000  0.85160000  1.0 0.1095190395
H  H96  1  0.12010000  0.12590000  0.14840000  1.0 0.1095190395
H  H97  1  0.01520000  0.12800000  0.86180000  1.0 0.1481759962
H  H98  1  0.12800000  0.01520000  0.13820000  1.0 0.1481759962
H  H99  1  0.99710000  0.11310000  0.81050000  1.0 0.0321962036
H  H100  1  0.11310000  0.99710000  0.18950000  1.0 0.0321962036
H  H101  1  0.03290000  0.25290000  0.80050000  1.0 0.0809218857
H  H102  1  0.25290000  0.03290000  0.19950000  1.0 0.0809218857
H  H103  1  0.09280000  0.28640000  0.84810000  1.0 0.0705878239
H  H104  1  0.28640000  0.09280000  0.15190000  1.0 0.0705878239
H  H105  1  0.16920000  0.29060000  0.77750000  1.0 0.0705878239
H  H106  1  0.29060000  0.16920000  0.22250000  1.0 0.0705878239
H  H107  1  0.19590000  0.38550000  0.78590000  1.0 0.0904003784
H  H108  1  0.38550000  0.19590000  0.21410000  1.0 0.0904003784
H  H109  1  0.31750000  0.37310000  0.81700000  1.0 0.0904003784
H  H110  1  0.37310000  0.31750000  0.18300000  1.0 0.0904003784
H  H111  1  0.30000000  0.41640000  0.84700000  1.0 0.0512924241
H  H112  1  0.41640000  0.30000000  0.15300000  1.0 0.0512924241
H  H113  1  0.19260000  0.26600000  0.88920000  1.0 0.0904003784
H  H114  1  0.26600000  0.19260000  0.11080000  1.0 0.0904003784
H  H115  1  0.27050000  0.26530000  0.88060000  1.0 0.0809218857
H  H116  1  0.26530000  0.27050000  0.11940000  1.0 0.0809218857
H  H117  1  0.80170000  0.50370000  0.91800000  1.0 0.0809218857
H  H118  1  0.77060000  0.38640000  0.97170000  1.0 0.1185193192
H  H119  1  0.48290000  0.23850000  0.95640000  1.0 0.1381889996
H  H120  1  0.52130000  0.35570000  0.89930000  1.0 0.1001163997
H  H121  1  0.76640000  0.06460000  0.16040000  1.0 0.1001163997
H  H122  1  0.63550000  0.03330000  0.11810000  1.0 0.1295290657
H  H123  1  0.83370000  0.28950000  0.04490000  1.0 0.1095190395
H  H124  1  0.95800000  0.31340000  0.09040000  1.0 0.0904003784
H  H125  1  0.21840000  0.73800000  0.07020000  1.0 0.0809218857
H  H126  1  0.38680000  0.87740000  0.06910000  1.0 0.1295290657
H  H127  1  0.32650000  0.03250000  0.00340000  1.0 0.1295290657
H  H128  1  0.16070000  0.89150000  0.00920000  1.0 0.0904003784
H  H129  1  0.91210000  0.04990000  0.24410000  1.0 0.1001163997
H  H130  1  0.86550000  0.90170000  0.25000000  1.0 0.1295290657
H  H131  1  0.90270000  0.94510000  0.12120000  1.0 0.1295290657
H  H132  1  0.94210000  0.08930000  0.11910000  1.0 0.0904003784
H  H133  1  0.53450000  0.50570000  0.31270000  1.0 0.0809218857
H  H134  1  0.65390000  0.63930000  0.26720000  1.0 0.1381889996
H  H135  1  0.70430000  0.48290000  0.24460000  1.0 0.1295290657
H  H136  1  0.58350000  0.35550000  0.29140000  1.0 0.0809218857
H  H137  1  0.95120000  0.59240000  0.12100000  1.0 0.0809218857
H  H138  1  0.88780000  0.60440000  0.17090000  1.0 0.1295290657
H  H139  1  0.91220000  0.80340000  0.08450000  1.0 0.1295290657
H  H140  1  0.97000000  0.78200000  0.03710000  1.0 0.0904003784
H  H141  1  0.61410000  0.45910000  0.40790000  1.0 0.0904003784
H  H142  1  0.75390000  0.50690000  0.45110000  1.0 0.1295290657
H  H143  1  0.63280000  0.23280000  0.45690000  1.0 0.1295290657
H  H144  1  0.50960000  0.19720000  0.40310000  1.0 0.0809218857
H  H145  1  0.11850000  0.83770000  0.49150000  1.0 0.1001163997
H  H146  1  0.97510000  0.67390000  0.48850000  1.0 0.1295290657
H  H147  1  0.10670000  0.60810000  0.57810000  1.0 0.1295290657
H  H148  1  0.24670000  0.77530000  0.58000000  1.0 0.1095190395
H  H149  1  0.67670000  0.03870000  0.59130000  1.0 0.1095190395
H  H150  1  0.69890000  0.16130000  0.54650000  1.0 0.1295290657
H  H151  1  0.96480000  0.36460000  0.61310000  1.0 0.1295290657
H  H152  1  0.93300000  0.23560000  0.65910000  1.0 0.0705878239
H  H153  1  0.42820000  0.07340000  0.62190000  1.0 0.1095190395
H  H154  1  0.41890000  0.14270000  0.66790000  1.0 0.1295290657
H  H155  1  0.17100000  0.04740000  0.59230000  1.0 0.1295290657
H  H156  1  0.19750000  0.99290000  0.54560000  1.0 0.1095190395
H  H157  1  0.94180000  0.07860000  0.74260000  1.0 0.0904003784
H  H158  1  0.09170000  0.12590000  0.74980000  1.0 0.1095190395
H  H159  1  0.05790000  0.10170000  0.62110000  1.0 0.1381889996
H  H160  1  0.90730000  0.05190000  0.61510000  1.0 0.1185193192
H  H161  1  0.64030000  0.41750000  0.79240000  1.0 0.1001163997
H  H162  1  0.51460000  0.30140000  0.74300000  1.0 0.1381889996
H  H163  1  0.35000000  0.33760000  0.77030000  1.0 0.1185193192
H  H164  1  0.48030000  0.45190000  0.81920000  1.0 0.1095190395
H  H165  1  0.50370000  0.80170000  0.08200000  1.0 0.0809218857
H  H166  1  0.38640000  0.77060000  0.02830000  1.0 0.1185193192
H  H167  1  0.23850000  0.48290000  0.04360000  1.0 0.1381889996
H  H168  1  0.35570000  0.52130000  0.10070000  1.0 0.1001163997
H  H169  1  0.06460000  0.76640000  0.83960000  1.0 0.1001163997
H  H170  1  0.03330000  0.63550000  0.88190000  1.0 0.1295290657
H  H171  1  0.28950000  0.83370000  0.95510000  1.0 0.1095190395
H  H172  1  0.31340000  0.95800000  0.90960000  1.0 0.0904003784
H  H173  1  0.73800000  0.21840000  0.92980000  1.0 0.0809218857
H  H174  1  0.87740000  0.38680000  0.93090000  1.0 0.1295290657
H  H175  1  0.03250000  0.32650000  0.99660000  1.0 0.1295290657
H  H176  1  0.89150000  0.16070000  0.99080000  1.0 0.0904003784
H  H177  1  0.04990000  0.91210000  0.75590000  1.0 0.1001163997
H  H178  1  0.90170000  0.86550000  0.75000000  1.0 0.1295290657
H  H179  1  0.94510000  0.90270000  0.87880000  1.0 0.1295290657
H  H180  1  0.08930000  0.94210000  0.88090000  1.0 0.0904003784
H  H181  1  0.50570000  0.53450000  0.68730000  1.0 0.0904003784
H  H182  1  0.63930000  0.65390000  0.73280000  1.0 0.1381889996
H  H183  1  0.48290000  0.70430000  0.75540000  1.0 0.1295290657
H  H184  1  0.35550000  0.58350000  0.70860000  1.0 0.0809218857
H  H185  1  0.59240000  0.95120000  0.87900000  1.0 0.0809218857
H  H186  1  0.60440000  0.88780000  0.82910000  1.0 0.1295290657
H  H187  1  0.80340000  0.91220000  0.91550000  1.0 0.1295290657
H  H188  1  0.78200000  0.97000000  0.96290000  1.0 0.0904003784
H  H189  1  0.45910000  0.61410000  0.59210000  1.0 0.0904003784
H  H190  1  0.50690000  0.75390000  0.54890000  1.0 0.1295290657
H  H191  1  0.23280000  0.63280000  0.54310000  1.0 0.1295290657
H  H192  1  0.19720000  0.50960000  0.59690000  1.0 0.0809218857
H  H193  1  0.83770000  0.11850000  0.50850000  1.0 0.1001163997
H  H194  1  0.67390000  0.97510000  0.51150000  1.0 0.1295290657
H  H195  1  0.60810000  0.10670000  0.42190000  1.0 0.1295290657
H  H196  1  0.77530000  0.24670000  0.42000000  1.0 0.1095190395
H  H197  1  0.03870000  0.67670000  0.40870000  1.0 0.1095190395
H  H198  1  0.16130000  0.69890000  0.45350000  1.0 0.1295290657
H  H199  1  0.36460000  0.96480000  0.38690000  1.0 0.1295290657
H  H200  1  0.23560000  0.93300000  0.34090000  1.0 0.0705878239
H  H201  1  0.07340000  0.42820000  0.37810000  1.0 0.1095190395
H  H202  1  0.14270000  0.41890000  0.33210000  1.0 0.1295290657
H  H203  1  0.04740000  0.17100000  0.40770000  1.0 0.1295290657
H  H204  1  0.99290000  0.19750000  0.45440000  1.0 0.1095190395
H  H205  1  0.07860000  0.94180000  0.25740000  1.0 0.0904003784
H  H206  1  0.12590000  0.09170000  0.25020000  1.0 0.1095190395
H  H207  1  0.10170000  0.05790000  0.37890000  1.0 0.1381889996
H  H208  1  0.05190000  0.90730000  0.38490000  1.0 0.1185193192
H  H209  1  0.41750000  0.64030000  0.20760000  1.0 0.1001163997
H  H210  1  0.30140000  0.51460000  0.25700000  1.0 0.1381889996
H  H211  1  0.33760000  0.35000000  0.22970000  1.0 0.1185193192
H  H212  1  0.45190000  0.48030000  0.18080000  1.0 0.1095190395
C  C1  1  0.37000000  0.66200000  0.85920000  1.0 -0.0920451006
C  C2  1  0.66200000  0.37000000  0.14080000  1.0 -0.0920451006
C  C3  1  0.31450000  0.57350000  0.83130000  1.0 0.0904003784
C  C4  1  0.57350000  0.31450000  0.16870000  1.0 0.0904003784
C  C5  1  0.37740000  0.55260000  0.83970000  1.0 -0.2995539589
C  C6  1  0.55260000  0.37740000  0.16030000  1.0 -0.2995539589
C  C7  1  0.38090000  0.51710000  0.88640000  1.0 -0.2786180411
C  C8  1  0.51710000  0.38090000  0.11360000  1.0 -0.2786180411
C  C9  1  0.41200000  0.58820000  0.91650000  1.0 0.040829954
C  C10  1  0.58820000  0.41200000  0.08350000  1.0 0.040829954
C  C11  1  0.40990000  0.65890000  0.90290000  1.0 -0.050235218
C  C12  1  0.65890000  0.40990000  0.09710000  1.0 -0.050235218
C  C13  1  0.45100000  0.72960000  0.93080000  1.0 -0.1508869376
C  C14  1  0.72960000  0.45100000  0.06920000  1.0 -0.1508869376
C  C15  1  0.49430000  0.72950000  0.97220000  1.0 -0.0920451006
C  C16  1  0.72950000  0.49430000  0.02780000  1.0 -0.0920451006
C  C17  1  0.49680000  0.65920000  0.98580000  1.0 -0.0694212841
C  C18  1  0.65920000  0.49680000  0.01420000  1.0 -0.0694212841
C  C19  1  0.45560000  0.58840000  0.95790000  1.0 0.0904003784
C  C20  1  0.58840000  0.45560000  0.04210000  1.0 0.0904003784
C  C21  1  0.29660000  0.66740000  0.86310000  1.0 0.2531961616
C  C22  1  0.66740000  0.29660000  0.13690000  1.0 0.2531961616
C  C23  1  0.25200000  0.75000000  0.81500000  1.0 -0.1986625029
C  C24  1  0.75000000  0.25200000  0.18500000  1.0 -0.1986625029
C  C25  1  0.51210000  0.49590000  0.98400000  1.0 -0.0920451006
C  C26  1  0.49590000  0.51210000  0.01600000  1.0 -0.0920451006
C  C27  1  0.31390000  0.58210000  0.88090000  1.0 -0.0408707182
C  C28  1  0.58210000  0.31390000  0.11910000  1.0 -0.0408707182
C  C29  1  0.22860000  0.47740000  0.86240000  1.0 0.1605007354
C  C30  1  0.47740000  0.22860000  0.13760000  1.0 0.1605007354
C  C31  1  0.15990000  0.41210000  0.89830000  1.0 -0.3474416915
C  C32  1  0.41210000  0.15990000  0.10170000  1.0 -0.3474416915
C  C33  1  0.19920000  0.40680000  0.94340000  1.0 -0.2995539589
C  C34  1  0.40680000  0.19920000  0.05660000  1.0 -0.2995539589
C  C35  1  0.30680000  0.49920000  0.95250000  1.0 -0.0779735479
C  C36  1  0.49920000  0.30680000  0.04750000  1.0 -0.0779735479
C  C37  1  0.35720000  0.58560000  0.92470000  1.0 -0.0100774482
C  C38  1  0.58560000  0.35720000  0.07530000  1.0 -0.0100774482
C  C39  1  0.44920000  0.67340000  0.93910000  1.0 0.019897891
C  C40  1  0.67340000  0.44920000  0.06090000  1.0 0.019897891
C  C41  1  0.49060000  0.67480000  0.98140000  1.0 -0.0290389067
C  C42  1  0.67480000  0.49060000  0.01860000  1.0 -0.0290389067
C  C43  1  0.44000000  0.58800000  0.00920000  1.0 -0.0993695754
C  C44  1  0.58800000  0.44000000  0.99080000  1.0 -0.0993695754
C  C45  1  0.34790000  0.50010000  0.99470000  1.0 -0.0100774482
C  C46  1  0.50010000  0.34790000  0.00530000  1.0 -0.0100774482
C  C47  1  0.27120000  0.62480000  0.87910000  1.0 0.2247022506
C  C48  1  0.62480000  0.27120000  0.12090000  1.0 0.2247022506
C  C49  1  0.26080000  0.72920000  0.82600000  1.0 -0.050235218
C  C50  1  0.72920000  0.26080000  0.17400000  1.0 -0.0408707182
C  C51  1  0.23400000  0.31000000  0.00700000  1.0 0.0512924241
C  C52  1  0.31000000  0.23400000  0.99300000  1.0 0.0512924241
C  C53  1  0.17600000  0.17600000  0.93940000  1.0 -0.2489260745
C  C54  1  0.17600000  0.17600000  0.06060000  1.0 -0.2420615438
C  C55  1  0.23700000  0.14900000  0.95200000  1.0 -0.0290389067
C  C56  1  0.14900000  0.23700000  0.04800000  1.0 -0.0290389067
C  C57  1  0.19180000  0.06220000  0.98400000  1.0 -0.0694212841
C  C58  1  0.06220000  0.19180000  0.01600000  1.0 -0.0694212841
C  C59  1  0.07900000  0.99100000  0.97900000  1.0 -0.0993695754
C  C60  1  0.99100000  0.07900000  0.02100000  1.0 -0.0993695754
C  C61  1  0.06100000  0.04500000  0.99400000  1.0 0.0321962036
C  C62  1  0.04500000  0.06100000  0.00600000  1.0 0.0321962036
C  C63  1  0.12270000  0.14330000  0.98130000  1.0 -0.0694212841
C  C64  1  0.14330000  0.12270000  0.01870000  1.0 -0.0694212841
C  C65  1  0.12600000  0.20400000  0.99600000  1.0 -0.1199783679
C  C66  1  0.20400000  0.12600000  0.00400000  1.0 -0.1199783679
C  C67  1  0.06300000  0.16300000  0.02900000  1.0 -0.0408707182
C  C68  1  0.16300000  0.06300000  0.97100000  1.0 -0.0408707182
C  C69  1  0.98300000  0.06100000  0.03400000  1.0 -0.1199783679
C  C70  1  0.06100000  0.98300000  0.96600000  1.0 -0.1199783679
C  C71  1  0.98300000  0.99700000  0.02000000  1.0 0.0599199262
C  C72  1  0.99700000  0.98300000  0.98000000  1.0 0.0599199262
C  C73  1  0.14200000  0.18200000  0.88910000  1.0 0.0809218857
C  C74  1  0.18200000  0.14200000  0.11090000  1.0 0.0809218857
C  C75  1  0.99800000  0.17400000  0.86000000  1.0 -0.1508869376
C  C76  1  0.17400000  0.99800000  0.14000000  1.0 -0.1508869376
C  C77  1  0.79700000  0.80300000  0.00800000  1.0 -0.1199783679
C  C78  1  0.80300000  0.79700000  0.99200000  1.0 -0.1199783679
C  C79  1  0.14050000  0.17950000  0.83800000  1.0 0.0809218857
C  C80  1  0.17950000  0.14050000  0.16200000  1.0 0.0809218857
C  C81  1  0.04600000  0.15800000  0.83360000  1.0 0.0705878239
C  C82  1  0.15800000  0.04600000  0.16640000  1.0 0.0705878239
C  C83  1  0.08170000  0.25830000  0.82100000  1.0 -0.1508869376
C  C84  1  0.25830000  0.08170000  0.17900000  1.0 -0.1508869376
C  C85  1  0.17900000  0.32500000  0.80050000  1.0 -0.2995539589
C  C86  1  0.32500000  0.17900000  0.19950000  1.0 -0.2995539589
C  C87  1  0.26800000  0.35800000  0.83200000  1.0 -0.2618810121
C  C88  1  0.35800000  0.26800000  0.16800000  1.0 -0.2618810121
C  C89  1  0.22100000  0.26700000  0.86600000  1.0 0.040829954
C  C90  1  0.26700000  0.22100000  0.13400000  1.0 0.040829954
C  C91  1  0.73580000  0.44780000  0.92520000  1.0 0.0705878239
C  C92  1  0.71770000  0.37790000  0.95680000  1.0 -0.1785348374
C  C93  1  0.62160000  0.29440000  0.96730000  1.0 0.0809218857
C  C94  1  0.54810000  0.28990000  0.94760000  1.0 -0.1896600985
C  C95  1  0.57260000  0.36220000  0.91490000  1.0 0.0705878239
C  C96  1  0.77980000  0.11120000  0.13680000  1.0 0.0904003784
C  C97  1  0.70140000  0.09220000  0.11190000  1.0 -0.1785348374
C  C98  1  0.72060000  0.16040000  0.07770000  1.0 0.0512924241
C  C99  1  0.81790000  0.24270000  0.06910000  1.0 -0.1986625029
C  C100  1  0.89110000  0.25590000  0.09590000  1.0 0.040829954
C  C101  1  0.24090000  0.79870000  0.05650000  1.0 0.0705878239
C  C102  1  0.34110000  0.88150000  0.05640000  1.0 -0.1578477456
C  C103  1  0.37410000  0.97030000  0.03760000  1.0 0.0705878239
C  C104  1  0.30570000  0.97310000  0.01810000  1.0 -0.1896600985
C  C105  1  0.20740000  0.88840000  0.02040000  1.0 0.040829954
C  C106  1  0.59650000  0.21270000  0.99980000  1.0 0.3485727352
C  C107  1  0.64050000  0.14770000  0.05120000  1.0 0.3320939805
C  C108  1  0.48040000  0.06160000  0.03380000  1.0 0.3407876756
C  C109  1  0.91120000  0.02900000  0.21900000  1.0 0.0904003784
C  C110  1  0.88360000  0.94100000  0.22270000  1.0 -0.1412150327
C  C111  1  0.88210000  0.91010000  0.18740000  1.0 0.0599199262
C  C112  1  0.90450000  0.96550000  0.14680000  1.0 -0.2489260745
C  C113  1  0.92930000  0.05110000  0.14640000  1.0 -0.0100774482
C  C114  1  0.56940000  0.50120000  0.29850000  1.0 0.0599199262
C  C115  1  0.63980000  0.58080000  0.27120000  1.0 -0.1412150327
C  C116  1  0.68870000  0.57410000  0.25000000  1.0 0.0599199262
C  C117  1  0.66970000  0.48890000  0.25790000  1.0 -0.1578477456
C  C118  1  0.59810000  0.41430000  0.28600000  1.0 0.0599199262
C  C119  1  0.94400000  0.63660000  0.11370000  1.0 0.0599199262
C  C120  1  0.90590000  0.64350000  0.14360000  1.0 -0.1578477456
C  C121  1  0.89450000  0.70590000  0.13360000  1.0 0.0599199262
C  C122  1  0.91940000  0.75940000  0.09310000  1.0 -0.2420615438
C  C123  1  0.95520000  0.74700000  0.06540000  1.0 -0.0408707182
C  C124  1  0.85300000  0.81400000  0.19000000  1.0 0.3877526638
C  C125  1  0.76400000  0.65860000  0.21940000  1.0 0.375422534
C  C126  1  0.85680000  0.71740000  0.16420000  1.0 0.366652545
C  C127  1  0.62210000  0.41550000  0.41520000  1.0 0.0705878239
C  C128  1  0.70060000  0.44060000  0.44360000  1.0 -0.1199783679
C  C129  1  0.70370000  0.37370000  0.46110000  1.0 0.0599199262
C  C130  1  0.63220000  0.28140000  0.44580000  1.0 -0.1199783679
C  C131  1  0.55910000  0.26070000  0.41380000  1.0 0.0904003784
C  C132  1  0.11580000  0.79040000  0.50950000  1.0 0.0705878239
C  C133  1  0.03060000  0.69320000  0.50740000  1.0 -0.1306240406
C  C134  1  0.02520000  0.62300000  0.53280000  1.0 0.0512924241
C  C135  1  0.10770000  0.65450000  0.56020000  1.0 -0.1412150327
C  C136  1  0.19060000  0.75400000  0.56090000  1.0 0.0705878239
C  C137  1  0.73510000  0.10550000  0.59620000  1.0 0.0705878239
C  C138  1  0.74830000  0.17810000  0.56930000  1.0 -0.1199783679
C  C139  1  0.83440000  0.27740000  0.57510000  1.0 0.0599199262
C  C140  1  0.90440000  0.29820000  0.60860000  1.0 -0.1306240406
C  C141  1  0.88530000  0.22050000  0.63560000  1.0 0.0809218857
C  C142  1  0.78380000  0.40020000  0.49470000  1.0 0.366652545
C  C143  1  0.93460000  0.51700000  0.52910000  1.0 0.3589130805
C  C144  1  0.84640000  0.35400000  0.54700000  1.0 0.3589130805
C  C145  1  0.37640000  0.07000000  0.61570000  1.0 0.0809218857
C  C146  1  0.37100000  0.11040000  0.64360000  1.0 -0.1306240406
C  C147  1  0.29310000  0.10330000  0.63560000  1.0 0.0512924241
C  C148  1  0.22600000  0.05560000  0.59850000  1.0 -0.1412150327
C  C149  1  0.24080000  0.02120000  0.57150000  1.0 0.0904003784
C  C150  1  0.96470000  0.08170000  0.71760000  1.0 0.0599199262
C  C151  1  0.05370000  0.10910000  0.72220000  1.0 -0.1986625029
C  C152  1  0.08700000  0.11180000  0.68610000  1.0 0.0512924241
C  C153  1  0.03350000  0.09450000  0.64670000  1.0 -0.1306240406
C  C154  1  0.94460000  0.06640000  0.64280000  1.0 0.0809218857
C  C155  1  0.58020000  0.40040000  0.78780000  1.0 0.0705878239
C  C156  1  0.50550000  0.33090000  0.75840000  1.0 -0.1412150327
C  C157  1  0.41740000  0.30520000  0.75200000  1.0 0.0599199262
C  C158  1  0.40870000  0.35210000  0.77460000  1.0 -0.1785348374
C  C159  1  0.48690000  0.42070000  0.80340000  1.0 0.0705878239
C  C160  1  0.28050000  0.14230000  0.66470000  1.0 0.3485727352
C  C161  1  0.18200000  0.14320000  0.68960000  1.0 0.3407876756
C  C162  1  0.33640000  0.23160000  0.72070000  1.0 0.3589130805
C  C163  1  0.44780000  0.73580000  0.07480000  1.0 0.0705878239
C  C164  1  0.37790000  0.71770000  0.04320000  1.0 -0.1785348374
C  C165  1  0.29440000  0.62160000  0.03270000  1.0 0.0809218857
C  C166  1  0.28990000  0.54810000  0.05240000  1.0 -0.1896600985
C  C167  1  0.36220000  0.57260000  0.08510000  1.0 0.0705878239
C  C168  1  0.11120000  0.77980000  0.86320000  1.0 0.0904003784
C  C169  1  0.09220000  0.70140000  0.88810000  1.0 -0.1896600985
C  C170  1  0.16040000  0.72060000  0.92230000  1.0 0.0512924241
C  C171  1  0.24270000  0.81790000  0.93090000  1.0 -0.1986625029
C  C172  1  0.25590000  0.89110000  0.90410000  1.0 0.040829954
C  C173  1  0.79870000  0.24090000  0.94350000  1.0 0.0705878239
C  C174  1  0.88150000  0.34110000  0.94360000  1.0 -0.1578477456
C  C175  1  0.97030000  0.37410000  0.96240000  1.0 0.0705878239
C  C176  1  0.97310000  0.30570000  0.98190000  1.0 -0.1896600985
C  C177  1  0.88840000  0.20740000  0.97960000  1.0 0.040829954
C  C178  1  0.21270000  0.59650000  0.00020000  1.0 0.3485727352
C  C179  1  0.14770000  0.64050000  0.94880000  1.0 0.3320939805
C  C180  1  0.06160000  0.48040000  0.96620000  1.0 0.3407876756
C  C181  1  0.02900000  0.91120000  0.78100000  1.0 0.0904003784
C  C182  1  0.94100000  0.88360000  0.77730000  1.0 -0.1412150327
C  C183  1  0.91010000  0.88210000  0.81260000  1.0 0.0599199262
C  C184  1  0.96550000  0.90450000  0.85320000  1.0 -0.2489260745
C  C185  1  0.05110000  0.92930000  0.85360000  1.0 -0.0100774482
C  C186  1  0.50120000  0.56940000  0.70150000  1.0 0.0599199262
C  C187  1  0.58080000  0.63980000  0.72880000  1.0 -0.1412150327
C  C188  1  0.57410000  0.68870000  0.75000000  1.0 0.0599199262
C  C189  1  0.48890000  0.66970000  0.74210000  1.0 -0.1578477456
C  C190  1  0.41430000  0.59810000  0.71400000  1.0 0.0599199262
C  C191  1  0.63660000  0.94400000  0.88630000  1.0 0.0599199262
C  C192  1  0.64350000  0.90590000  0.85640000  1.0 -0.1578477456
C  C193  1  0.70590000  0.89450000  0.86640000  1.0 0.0599199262
C  C194  1  0.75940000  0.91940000  0.90690000  1.0 -0.2420615438
C  C195  1  0.74700000  0.95520000  0.93460000  1.0 -0.050235218
C  C196  1  0.81400000  0.85300000  0.81000000  1.0 0.3877526638
C  C197  1  0.65860000  0.76400000  0.78060000  1.0 0.375422534
C  C198  1  0.71740000  0.85680000  0.83580000  1.0 0.366652545
C  C199  1  0.41550000  0.62210000  0.58480000  1.0 0.0705878239
C  C200  1  0.44060000  0.70060000  0.55640000  1.0 -0.1199783679
C  C201  1  0.37370000  0.70370000  0.53890000  1.0 0.0599199262
C  C202  1  0.28140000  0.63220000  0.55420000  1.0 -0.1199783679
C  C203  1  0.26070000  0.55910000  0.58620000  1.0 0.0904003784
C  C204  1  0.79040000  0.11580000  0.49050000  1.0 0.0705878239
C  C205  1  0.69320000  0.03060000  0.49260000  1.0 -0.1306240406
C  C206  1  0.62300000  0.02520000  0.46720000  1.0 0.0512924241
C  C207  1  0.65450000  0.10770000  0.43980000  1.0 -0.1412150327
C  C208  1  0.75400000  0.19060000  0.43910000  1.0 0.0705878239
C  C209  1  0.10550000  0.73510000  0.40380000  1.0 0.0705878239
C  C210  1  0.17810000  0.74830000  0.43070000  1.0 -0.1199783679
C  C211  1  0.27740000  0.83440000  0.42490000  1.0 0.0599199262
C  C212  1  0.29820000  0.90440000  0.39140000  1.0 -0.1306240406
C  C213  1  0.22050000  0.88530000  0.36440000  1.0 0.0809218857
C  C214  1  0.40020000  0.78380000  0.50530000  1.0 0.366652545
C  C215  1  0.51700000  0.93460000  0.47090000  1.0 0.3589130805
C  C216  1  0.35400000  0.84640000  0.45300000  1.0 0.3589130805
C  C217  1  0.07000000  0.37640000  0.38430000  1.0 0.0809218857
C  C218  1  0.11040000  0.37100000  0.35640000  1.0 -0.1306240406
C  C219  1  0.10330000  0.29310000  0.36440000  1.0 0.0512924241
C  C220  1  0.05560000  0.22600000  0.40150000  1.0 -0.1412150327
C  C221  1  0.02120000  0.24080000  0.42850000  1.0 0.0809218857
C  C222  1  0.08170000  0.96470000  0.28240000  1.0 0.0599199262
C  C223  1  0.10910000  0.05370000  0.27780000  1.0 -0.1986625029
C  C224  1  0.11180000  0.08700000  0.31390000  1.0 0.0512924241
C  C225  1  0.09450000  0.03350000  0.35330000  1.0 -0.1306240406
C  C226  1  0.06640000  0.94460000  0.35720000  1.0 0.0809218857
C  C227  1  0.40040000  0.58020000  0.21220000  1.0 0.0705878239
C  C228  1  0.33090000  0.50550000  0.24160000  1.0 -0.1412150327
C  C229  1  0.30520000  0.41740000  0.24800000  1.0 0.0599199262
C  C230  1  0.35210000  0.40870000  0.22540000  1.0 -0.1785348374
C  C231  1  0.42070000  0.48690000  0.19660000  1.0 0.0705878239
C  C232  1  0.14230000  0.28050000  0.33530000  1.0 0.3485727352
C  C233  1  0.14320000  0.18200000  0.31040000  1.0 0.3407876756
C  C234  1  0.23160000  0.33640000  0.27930000  1.0 0.3589130805
I  I1  1  0.64776000  0.62114000  0.88424000  1.0 -0.4594283386
I  I2  1  0.84140000  0.63152000  0.82067000  1.0 -0.4101310555
I  I3  1  0.96342000  0.24736000  0.24522000  1.0 -0.4462031109
I  I4  1  0.14057000  0.34559000  0.13697000  1.0 -0.4594283386
I  I5  1  0.75190000  0.02600000  0.74596000  1.0 -0.4320840124
I  I6  1  0.65921000  0.86097000  0.63175000  1.0 -0.4404588465
I  I7  1  0.37669000  0.34751000  0.38278000  1.0 0.040829954
I  I8  1  0.35409000  0.14965000  0.31525000  1.0 0.0904003784
I  I9  1  0.98680000  0.52500000  0.04990000  1.0 0.0087015953
I  I10  1  0.96502000  0.71504000  0.95546000  1.0 -0.1785348374
I  I11  1  0.46510000  0.98090000  0.56101000  1.0 -0.4196614209
I  I12  1  0.31315000  0.05245000  0.46136000  1.0 -0.4912958775
I  I13  1  0.38170000  0.32590000  0.38350000  1.0 0.019897891
I  I14  1  0.36350000  0.13950000  0.30560000  1.0 0.1001163997
I  I15  1  0.00050000  0.51590000  0.05790000  1.0 0.040829954
I  I16  1  0.96630000  0.69970000  0.95740000  1.0 -0.1508869376
I  I17  1  0.46830000  0.99350000  0.56100000  1.0 -0.3976735407
I  I18  1  0.31380000  0.04700000  0.45980000  1.0 -0.4912958775
I  I19  1  0.62114000  0.64776000  0.11576000  1.0 -0.4594283386
I  I20  1  0.63152000  0.84140000  0.17933000  1.0 -0.4101310555
I  I21  1  0.24736000  0.96342000  0.75478000  1.0 -0.4404588465
I  I22  1  0.34559000  0.14057000  0.86303000  1.0 -0.4594283386
I  I23  1  0.02600000  0.75190000  0.25404000  1.0 -0.4320840124
I  I24  1  0.86097000  0.65921000  0.36825000  1.0 -0.4404588465
I  I25  1  0.34751000  0.37669000  0.61722000  1.0 0.040829954
I  I26  1  0.14965000  0.35409000  0.68475000  1.0 0.1001163997
I  I27  1  0.52500000  0.98680000  0.95010000  1.0 0.0087015953
I  I28  1  0.71504000  0.96502000  0.04454000  1.0 -0.1785348374
I  I29  1  0.98090000  0.46510000  0.43899000  1.0 -0.4196614209
I  I30  1  0.05245000  0.31315000  0.53864000  1.0 -0.4912958775
I  I31  1  0.32590000  0.38170000  0.61650000  1.0 0.0087015953
I  I32  1  0.13950000  0.36350000  0.69440000  1.0 0.1001163997
I  I33  1  0.51590000  0.00050000  0.94210000  1.0 0.0512924241
I  I34  1  0.69970000  0.96630000  0.04260000  1.0 -0.1508869376
I  I35  1  0.99350000  0.46830000  0.43900000  1.0 -0.3976735407
I  I36  1  0.04700000  0.31380000  0.54020000  1.0 -0.4912958775
N  N1  1  0.66510000  0.44110000  0.90410000  1.0 -0.1986625029
N  N2  1  0.87190000  0.19070000  0.12950000  1.0 -0.1986625029
N  N3  1  0.17440000  0.80100000  0.03790000  1.0 -0.1896600985
N  N4  1  0.66920000  0.22260000  0.02120000  1.0 -0.4594283386
N  N5  1  0.54730000  0.06610000  0.05830000  1.0 -0.4404588465
N  N6  1  0.50000000  0.13320000  0.00520000  1.0 -0.4196614209
N  N7  1  0.93660000  0.08500000  0.18170000  1.0 -0.1896600985
N  N8  1  0.54820000  0.41860000  0.30590000  1.0 -0.1896600985
N  N9  1  0.97020000  0.68960000  0.07590000  1.0 -0.1785348374
N  N10  1  0.79370000  0.74430000  0.22070000  1.0 -0.3976735407
N  N11  1  0.79250000  0.64090000  0.19260000  1.0 -0.4101310555
N  N12  1  0.88590000  0.80490000  0.16040000  1.0 -0.4196614209
N  N13  1  0.55690000  0.32710000  0.39820000  1.0 -0.173605192
N  N14  1  0.19650000  0.82290000  0.53590000  1.0 -0.1508869376
N  N15  1  0.80280000  0.12560000  0.63010000  1.0 -0.1896600985
N  N16  1  0.86070000  0.49490000  0.50040000  1.0 -0.3695706014
N  N17  1  0.93040000  0.45000000  0.55420000  1.0 -0.361823428
N  N18  1  0.77320000  0.32700000  0.51630000  1.0 -0.361823428
N  N19  1  0.31380000  0.02580000  0.58010000  1.0 -0.1508869376
N  N20  1  0.91040000  0.05940000  0.67900000  1.0 -0.1986625029
N  N21  1  0.57050000  0.44390000  0.80950000  1.0 -0.1896600985
N  N22  1  0.19250000  0.11090000  0.66080000  1.0 -0.3941915813
N  N23  1  0.24910000  0.20030000  0.72160000  1.0 -0.4462031109
N  N24  1  0.35640000  0.20440000  0.69340000  1.0 -0.3976735407
N  N25  1  0.44110000  0.66510000  0.09590000  1.0 -0.1986625029
N  N26  1  0.19070000  0.87190000  0.87050000  1.0 -0.1986625029
N  N27  1  0.80100000  0.17440000  0.96210000  1.0 -0.1896600985
N  N28  1  0.22260000  0.66920000  0.97880000  1.0 -0.4594283386
N  N29  1  0.06610000  0.54730000  0.94170000  1.0 -0.4404588465
N  N30  1  0.13320000  0.50000000  0.99480000  1.0 -0.4196614209
N  N31  1  0.08500000  0.93660000  0.81830000  1.0 -0.1896600985
N  N32  1  0.41860000  0.54820000  0.69410000  1.0 -0.1896600985
N  N33  1  0.68960000  0.97020000  0.92410000  1.0 -0.1785348374
N  N34  1  0.74430000  0.79370000  0.77930000  1.0 -0.3976735407
N  N35  1  0.64090000  0.79250000  0.80740000  1.0 -0.4101310555
N  N36  1  0.80490000  0.88590000  0.83960000  1.0 -0.4196614209
N  N37  1  0.32710000  0.55690000  0.60180000  1.0 -0.1785348374
N  N38  1  0.82290000  0.19650000  0.46410000  1.0 -0.1508869376
N  N39  1  0.12560000  0.80280000  0.36990000  1.0 -0.1896600985
N  N40  1  0.49490000  0.86070000  0.49960000  1.0 -0.3695706014
N  N41  1  0.45000000  0.93040000  0.44580000  1.0 -0.361823428
N  N42  1  0.32700000  0.77320000  0.48370000  1.0 -0.361823428
N  N43  1  0.02580000  0.31380000  0.41990000  1.0 -0.1508869376
N  N44  1  0.05940000  0.91040000  0.32100000  1.0 -0.1986625029
N  N45  1  0.44390000  0.57050000  0.19050000  1.0 -0.1896600985
N  N46  1  0.11090000  0.19250000  0.33920000  1.0 -0.3941915813
N  N47  1  0.20030000  0.24910000  0.27840000  1.0 -0.4462031109
N  N48  1  0.20440000  0.35640000  0.30660000  1.0 -0.3976735407
O  O1  1  0.24930000  0.64070000  0.88410000  1.0 0.0087015953
O  O2  1  0.64070000  0.24930000  0.11590000  1.0 0.0087015953
O  O3  1  0.31210000  0.72590000  0.82650000  1.0 -0.0779735479
O  O4  1  0.72590000  0.31210000  0.17350000  1.0 -0.0779735479
O  O5  1  0.22140000  0.49860000  0.84100000  1.0 -0.0993695754
O  O6  1  0.49860000  0.22140000  0.15900000  1.0 -0.0993695754
O  O7  1  0.44630000  0.50770000  0.97000000  1.0 -0.2489260745
O  O8  1  0.50770000  0.44630000  0.03000000  1.0 -0.2489260745
O  O9  1  0.23090000  0.61710000  0.89790000  1.0 -0.1116974834
O  O10  1  0.61710000  0.23090000  0.10210000  1.0 -0.1116974834
O  O11  1  0.30740000  0.69060000  0.84330000  1.0 0.040829954
O  O12  1  0.69060000  0.30740000  0.15670000  1.0 0.040829954
O  O13  1  0.19470000  0.48530000  0.82190000  1.0 -0.1306240406
O  O14  1  0.48530000  0.19470000  0.17810000  1.0 -0.1306240406
O  O15  1  0.28800000  0.40600000  0.01980000  1.0 -0.2489260745
O  O16  1  0.40600000  0.28800000  0.98020000  1.0 -0.2489260745
O  O17  1  0.14200000  0.20400000  0.84800000  1.0 -0.0610988173
O  O18  1  0.20400000  0.14200000  0.15200000  1.0 -0.0610988173
O  O19  1  0.05100000  0.14900000  0.87800000  1.0 -0.0993695754
O  O20  1  0.14900000  0.05100000  0.12200000  1.0 -0.0993695754
O  O21  1  0.31000000  0.25200000  0.95900000  1.0 -0.0993695754
O  O22  1  0.25200000  0.31000000  0.04100000  1.0 -0.0993695754
O  O23  1  0.88600000  0.90600000  0.00700000  1.0 -0.1199783679
O  O24  1  0.90600000  0.88600000  0.99300000  1.0 -0.1199783679
