# DDEC6 charges by PACMAN v1.1 (https://github.com/mtap-research/PACMAN-charge/)
data_VAKPOP_FSR_pacman
_symmetry_space_group_name_H-M   'P 1'
_cell_length_a   19.39030000
_cell_length_b   19.39030000
_cell_length_c   30.93450000
_cell_angle_alpha   76.98940000
_cell_angle_beta   103.01100000
_cell_angle_gamma   134.29400000
_symmetry_Int_Tables_number   1
_chemical_formula_structural   Zn4H45C56I8(N3Cl)4
_chemical_formula_sum   'Zn16 H180 C224 I32 N48 Cl16'
_cell_volume   8072.70403633
_cell_formula_units_Z   4
loop_
 _symmetry_equiv_pos_site_id
 _symmetry_equiv_pos_as_xyz
  1  'x, y, z'
loop_
 _atom_site_type_symbol
 _atom_site_label
 _atom_site_symmetry_multiplicity
 _atom_site_fract_x
 _atom_site_fract_y
 _atom_site_fract_z
 _atom_site_occupancy
 _atom_site_charge
Zn  Zn1  1  0.53801000  0.67579000  0.90568000  1.0 0.2178469364
Zn  Zn2  1  0.32421000  0.46199000  0.40568000  1.0 0.2178469364
Zn  Zn3  1  0.67870000  0.02522000  0.72962000  1.0 0.4365483698
Zn  Zn4  1  0.97478000  0.32130000  0.22962000  1.0 0.4365483698
Zn  Zn5  1  0.21403000  0.97043000  0.56417000  1.0 0.4609161791
Zn  Zn6  1  0.02957000  0.78597000  0.06417000  1.0 0.4609161791
Zn  Zn7  1  0.54390000  0.70350000  0.90710000  1.0 0.1304878433
Zn  Zn8  1  0.29650000  0.45610000  0.40710000  1.0 0.1304878433
Zn  Zn9  1  0.67579000  0.53801000  0.59432000  1.0 0.2178469364
Zn  Zn10  1  0.46199000  0.32421000  0.09432000  1.0 0.2178469364
Zn  Zn11  1  0.02522000  0.67870000  0.77038000  1.0 0.4365483698
Zn  Zn12  1  0.32130000  0.97478000  0.27038000  1.0 0.4365483698
Zn  Zn13  1  0.97043000  0.21403000  0.93583000  1.0 0.4609161791
Zn  Zn14  1  0.78597000  0.02957000  0.43583000  1.0 0.4609161791
Zn  Zn15  1  0.70350000  0.54390000  0.59290000  1.0 0.1304878433
Zn  Zn16  1  0.45610000  0.29650000  0.09290000  1.0 0.1304878433
H  H1  1  0.49310000  0.79290000  0.83980000  1.0 0.0799859297
H  H2  1  0.20710000  0.50690000  0.33980000  1.0 0.0799859297
H  H3  1  0.36820000  0.75720000  0.78310000  1.0 0.120869439
H  H4  1  0.24280000  0.63180000  0.28310000  1.0 0.120869439
H  H5  1  0.24500000  0.47700000  0.80030000  1.0 0.1304878433
H  H6  1  0.52300000  0.75500000  0.30030000  1.0 0.1304878433
H  H7  1  0.36930000  0.52110000  0.85700000  1.0 0.0799859297
H  H8  1  0.47890000  0.63070000  0.35700000  1.0 0.0799859297
H  H9  1  0.74650000  0.21970000  0.68200000  1.0 0.1069655615
H  H10  1  0.78030000  0.25350000  0.18200000  1.0 0.1069655615
H  H11  1  0.88420000  0.37820000  0.67520000  1.0 0.1368768093
H  H12  1  0.62180000  0.11580000  0.17520000  1.0 0.1368768093
H  H13  1  0.02260000  0.31840000  0.76970000  1.0 0.1304878433
H  H14  1  0.68160000  0.97740000  0.26970000  1.0 0.1304878433
H  H15  1  0.88190000  0.15990000  0.76910000  1.0 0.0890403097
H  H16  1  0.84010000  0.11810000  0.26910000  1.0 0.0890403097
H  H17  1  0.06330000  0.75270000  0.57910000  1.0 0.0890403097
H  H18  1  0.24730000  0.93670000  0.07910000  1.0 0.0890403097
H  H19  1  0.03150000  0.62530000  0.62710000  1.0 0.1304878433
H  H20  1  0.37470000  0.96850000  0.12710000  1.0 0.1304878433
H  H21  1  0.29520000  0.81760000  0.69170000  1.0 0.120869439
H  H22  1  0.18240000  0.70480000  0.19170000  1.0 0.120869439
H  H23  1  0.31600000  0.94140000  0.64500000  1.0 0.1007774605
H  H24  1  0.05860000  0.68400000  0.14500000  1.0 0.1007774605
H  H25  1  0.11310000  0.97190000  0.62250000  1.0 0.0890403097
H  H26  1  0.02810000  0.88690000  0.12250000  1.0 0.0890403097
H  H27  1  0.97480000  0.94160000  0.62280000  1.0 0.120869439
H  H28  1  0.05840000  0.02520000  0.12280000  1.0 0.120869439
H  H29  1  0.88740000  0.85160000  0.50040000  1.0 0.1304878433
H  H30  1  0.14840000  0.11260000  0.00040000  1.0 0.1304878433
H  H31  1  0.02920000  0.89220000  0.50150000  1.0 0.1007774605
H  H32  1  0.10780000  0.97080000  0.00150000  1.0 0.1007774605
H  H33  1  0.51980000  0.55060000  0.44080000  1.0 0.0799859297
H  H34  1  0.44940000  0.48020000  0.94080000  1.0 0.0799859297
H  H35  1  0.65010000  0.66850000  0.48670000  1.0 0.1304878433
H  H36  1  0.33150000  0.34990000  0.98670000  1.0 0.1304878433
H  H37  1  0.48200000  0.70020000  0.51760000  1.0 0.120869439
H  H38  1  0.29980000  0.51800000  0.01760000  1.0 0.120869439
H  H39  1  0.35630000  0.57850000  0.47160000  1.0 0.0799859297
H  H40  1  0.42150000  0.64370000  0.97160000  1.0 0.0799859297
H  H41  1  0.58260000  0.93660000  0.64050000  1.0 0.0799859297
H  H42  1  0.06340000  0.41740000  0.14050000  1.0 0.0799859297
H  H43  1  0.59380000  0.87020000  0.59290000  1.0 0.120869439
H  H44  1  0.12980000  0.40620000  0.09290000  1.0 0.120869439
H  H45  1  0.83680000  0.95220000  0.66580000  1.0 0.1069655615
H  H46  1  0.04780000  0.16320000  0.16580000  1.0 0.1069655615
H  H47  1  0.81900000  0.01720000  0.71190000  1.0 0.0799859297
H  H48  1  0.98280000  0.18100000  0.21190000  1.0 0.0799859297
H  H49  1  0.79290000  0.49310000  0.66020000  1.0 0.0799859297
H  H50  1  0.50690000  0.20710000  0.16020000  1.0 0.0799859297
H  H51  1  0.75720000  0.36820000  0.71690000  1.0 0.120869439
H  H52  1  0.63180000  0.24280000  0.21690000  1.0 0.120869439
H  H53  1  0.47700000  0.24500000  0.69970000  1.0 0.1304878433
H  H54  1  0.75500000  0.52300000  0.19970000  1.0 0.1304878433
H  H55  1  0.52110000  0.36930000  0.64300000  1.0 0.0799859297
H  H56  1  0.63070000  0.47890000  0.14300000  1.0 0.0799859297
H  H57  1  0.21970000  0.74650000  0.81800000  1.0 0.1069655615
H  H58  1  0.25350000  0.78030000  0.31800000  1.0 0.1069655615
H  H59  1  0.37820000  0.88420000  0.82480000  1.0 0.1368768093
H  H60  1  0.11580000  0.62180000  0.32480000  1.0 0.1368768093
H  H61  1  0.31840000  0.02260000  0.73030000  1.0 0.1304878433
H  H62  1  0.97740000  0.68160000  0.23030000  1.0 0.1304878433
H  H63  1  0.15990000  0.88190000  0.73090000  1.0 0.0890403097
H  H64  1  0.11810000  0.84010000  0.23090000  1.0 0.0890403097
H  H65  1  0.75270000  0.06330000  0.92090000  1.0 0.0890403097
H  H66  1  0.93670000  0.24730000  0.42090000  1.0 0.0890403097
H  H67  1  0.62530000  0.03150000  0.87290000  1.0 0.1304878433
H  H68  1  0.96850000  0.37470000  0.37290000  1.0 0.1304878433
H  H69  1  0.81760000  0.29520000  0.80830000  1.0 0.120869439
H  H70  1  0.70480000  0.18240000  0.30830000  1.0 0.120869439
H  H71  1  0.94140000  0.31600000  0.85500000  1.0 0.1007774605
H  H72  1  0.68400000  0.05860000  0.35500000  1.0 0.1007774605
H  H73  1  0.97190000  0.11310000  0.87750000  1.0 0.0890403097
H  H74  1  0.88690000  0.02810000  0.37750000  1.0 0.0890403097
H  H75  1  0.94160000  0.97480000  0.87720000  1.0 0.120869439
H  H76  1  0.02520000  0.05840000  0.37720000  1.0 0.120869439
H  H77  1  0.85160000  0.88740000  0.99960000  1.0 0.1304878433
H  H78  1  0.11260000  0.14840000  0.49960000  1.0 0.1304878433
H  H79  1  0.89220000  0.02920000  0.99850000  1.0 0.1007774605
H  H80  1  0.97080000  0.10780000  0.49850000  1.0 0.1007774605
H  H81  1  0.55060000  0.51980000  0.05920000  1.0 0.0799859297
H  H82  1  0.48020000  0.44940000  0.55920000  1.0 0.0799859297
H  H83  1  0.66850000  0.65010000  0.01330000  1.0 0.1304878433
H  H84  1  0.34990000  0.33150000  0.51330000  1.0 0.1304878433
H  H85  1  0.70020000  0.48200000  0.98240000  1.0 0.120869439
H  H86  1  0.51800000  0.29980000  0.48240000  1.0 0.120869439
H  H87  1  0.57850000  0.35630000  0.02840000  1.0 0.0799859297
H  H88  1  0.64370000  0.42150000  0.52840000  1.0 0.0799859297
H  H89  1  0.93660000  0.58260000  0.85950000  1.0 0.0799859297
H  H90  1  0.41740000  0.06340000  0.35950000  1.0 0.0799859297
H  H91  1  0.87020000  0.59380000  0.90710000  1.0 0.120869439
H  H92  1  0.40620000  0.12980000  0.40710000  1.0 0.120869439
H  H93  1  0.95220000  0.83680000  0.83420000  1.0 0.1069655615
H  H94  1  0.16320000  0.04780000  0.33420000  1.0 0.1069655615
H  H95  1  0.01720000  0.81900000  0.78810000  1.0 0.0799859297
H  H96  1  0.18100000  0.98280000  0.28810000  1.0 0.0799859297
H  H97  1  0.43790000  0.41690000  0.21370000  1.0 0.0890403097
H  H98  1  0.41690000  0.43790000  0.28630000  1.0 0.0890403097
H  H99  1  0.44700000  0.27740000  0.24250000  1.0 0.1069655615
H  H100  1  0.27740000  0.44700000  0.25750000  1.0 0.1069655615
H  H101  1  0.54990000  0.25490000  0.28170000  1.0 0.120869439
H  H102  1  0.25490000  0.54990000  0.21830000  1.0 0.120869439
H  H103  1  0.57760000  0.35900000  0.38930000  1.0 0.1069655615
H  H104  1  0.35900000  0.57760000  0.11070000  1.0 0.1069655615
H  H105  1  0.47670000  0.38330000  0.35180000  1.0 0.1007774605
H  H106  1  0.38330000  0.47670000  0.14820000  1.0 0.1007774605
H  H107  1  0.23220000  0.29400000  0.29550000  1.0 0.0799859297
H  H108  1  0.29400000  0.23220000  0.20450000  1.0 0.0799859297
H  H109  1  0.07460000  0.13360000  0.29430000  1.0 0.1007774605
H  H110  1  0.13360000  0.07460000  0.20570000  1.0 0.1007774605
H  H111  1  0.15530000  0.06590000  0.21270000  1.0 0.0890403097
H  H112  1  0.06590000  0.15530000  0.28730000  1.0 0.0890403097
H  H113  1  0.31240000  0.22000000  0.21860000  1.0 0.0578127133
H  H114  1  0.22000000  0.31240000  0.28140000  1.0 0.0578127133
H  H115  1  0.66290000  0.40730000  0.44540000  1.0 0.1069655615
H  H116  1  0.40730000  0.66290000  0.05460000  1.0 0.1069655615
H  H117  1  0.76490000  0.46910000  0.42790000  1.0 0.120869439
H  H118  1  0.46910000  0.76490000  0.07210000  1.0 0.120869439
H  H119  1  0.63480000  0.26800000  0.45920000  1.0 0.1007774605
H  H120  1  0.26800000  0.63480000  0.04080000  1.0 0.1007774605
H  H121  1  0.74600000  0.35160000  0.47770000  1.0 0.1304878433
H  H122  1  0.35160000  0.74600000  0.02230000  1.0 0.1304878433
H  H123  1  0.73080000  0.25720000  0.43010000  1.0 0.1007774605
H  H124  1  0.25720000  0.73080000  0.06990000  1.0 0.1007774605
H  H125  1  0.79970000  0.36870000  0.41090000  1.0 0.1007774605
H  H126  1  0.36870000  0.79970000  0.08910000  1.0 0.1007774605
H  H127  1  0.59810000  0.22330000  0.37840000  1.0 0.1304878433
H  H128  1  0.22330000  0.59810000  0.12160000  1.0 0.1304878433
H  H129  1  0.68480000  0.26240000  0.35300000  1.0 0.120869439
H  H130  1  0.26240000  0.68480000  0.14700000  1.0 0.120869439
H  H131  1  0.74050000  0.42150000  0.33790000  1.0 0.0890403097
H  H132  1  0.42150000  0.74050000  0.16210000  1.0 0.0890403097
H  H133  1  0.62760000  0.34480000  0.32030000  1.0 0.1069655615
H  H134  1  0.34480000  0.62760000  0.17970000  1.0 0.1069655615
H  H135  1  0.67430000  0.46130000  0.36780000  1.0 0.1069655615
H  H136  1  0.46130000  0.67430000  0.13220000  1.0 0.1069655615
H  H137  1  0.58160000  0.35060000  0.38060000  1.0 0.1007774605
H  H138  1  0.35060000  0.58160000  0.11940000  1.0 0.1007774605
H  H139  1  0.56210000  0.58310000  0.78630000  1.0 0.0890403097
H  H140  1  0.58310000  0.56210000  0.71370000  1.0 0.0890403097
H  H141  1  0.55300000  0.72260000  0.75750000  1.0 0.1069655615
H  H142  1  0.72260000  0.55300000  0.74250000  1.0 0.1069655615
H  H143  1  0.45010000  0.74510000  0.71830000  1.0 0.120869439
H  H144  1  0.74510000  0.45010000  0.78170000  1.0 0.120869439
H  H145  1  0.42240000  0.64100000  0.61070000  1.0 0.1069655615
H  H146  1  0.64100000  0.42240000  0.88930000  1.0 0.1069655615
H  H147  1  0.52330000  0.61670000  0.64820000  1.0 0.1007774605
H  H148  1  0.61670000  0.52330000  0.85180000  1.0 0.1007774605
H  H149  1  0.76780000  0.70600000  0.70450000  1.0 0.0799859297
H  H150  1  0.70600000  0.76780000  0.79550000  1.0 0.0799859297
H  H151  1  0.92540000  0.86640000  0.70570000  1.0 0.1007774605
H  H152  1  0.86640000  0.92540000  0.79430000  1.0 0.1007774605
H  H153  1  0.84470000  0.93410000  0.78730000  1.0 0.0890403097
H  H154  1  0.93410000  0.84470000  0.71270000  1.0 0.0890403097
H  H155  1  0.68760000  0.78000000  0.78140000  1.0 0.0578127133
H  H156  1  0.78000000  0.68760000  0.71860000  1.0 0.0578127133
H  H157  1  0.33710000  0.59270000  0.55460000  1.0 0.1069655615
H  H158  1  0.59270000  0.33710000  0.94540000  1.0 0.1069655615
H  H159  1  0.23510000  0.53090000  0.57210000  1.0 0.120869439
H  H160  1  0.53090000  0.23510000  0.92790000  1.0 0.120869439
H  H161  1  0.36520000  0.73200000  0.54080000  1.0 0.1007774605
H  H162  1  0.73200000  0.36520000  0.95920000  1.0 0.1007774605
H  H163  1  0.25400000  0.64840000  0.52230000  1.0 0.1304878433
H  H164  1  0.64840000  0.25400000  0.97770000  1.0 0.1304878433
H  H165  1  0.26920000  0.74280000  0.56990000  1.0 0.1007774605
H  H166  1  0.74280000  0.26920000  0.93010000  1.0 0.1007774605
H  H167  1  0.20030000  0.63130000  0.58910000  1.0 0.1007774605
H  H168  1  0.63130000  0.20030000  0.91090000  1.0 0.1007774605
H  H169  1  0.40190000  0.77670000  0.62160000  1.0 0.1304878433
H  H170  1  0.77670000  0.40190000  0.87840000  1.0 0.1304878433
H  H171  1  0.31520000  0.73760000  0.64700000  1.0 0.120869439
H  H172  1  0.73760000  0.31520000  0.85300000  1.0 0.120869439
H  H173  1  0.25950000  0.57850000  0.66210000  1.0 0.0890403097
H  H174  1  0.57850000  0.25950000  0.83790000  1.0 0.0890403097
H  H175  1  0.37240000  0.65520000  0.67970000  1.0 0.1069655615
H  H176  1  0.65520000  0.37240000  0.82030000  1.0 0.1069655615
H  H177  1  0.32570000  0.53870000  0.63220000  1.0 0.1069655615
H  H178  1  0.53870000  0.32570000  0.86780000  1.0 0.1069655615
H  H179  1  0.41840000  0.64940000  0.61940000  1.0 0.1007774605
H  H180  1  0.64940000  0.41840000  0.88060000  1.0 0.1007774605
C  C1  1  0.44130000  0.72850000  0.83200000  1.0 0.051264148
C  C2  1  0.27150000  0.55870000  0.33200000  1.0 0.051264148
C  C3  1  0.36760000  0.70800000  0.79750000  1.0 -0.1629760909
C  C4  1  0.29200000  0.63240000  0.29750000  1.0 -0.1629760909
C  C5  1  0.29600000  0.61500000  0.78620000  1.0 0.0578127133
C  C6  1  0.38500000  0.70400000  0.28620000  1.0 0.0578127133
C  C7  1  0.29430000  0.54170000  0.80800000  1.0 -0.1703678976
C  C8  1  0.45830000  0.70570000  0.30800000  1.0 -0.1703678976
C  C9  1  0.36890000  0.56930000  0.84170000  1.0 0.0675912228
C  C10  1  0.43070000  0.63110000  0.34170000  1.0 0.0675912228
C  C11  1  0.21270000  0.58710000  0.75240000  1.0 0.3815856304
C  C12  1  0.41290000  0.78730000  0.25240000  1.0 0.3815856304
C  C13  1  0.15050000  0.63030000  0.69510000  1.0 0.3694661137
C  C14  1  0.36970000  0.84950000  0.19510000  1.0 0.3694661137
C  C15  1  0.06240000  0.47260000  0.72020000  1.0 0.3628899296
C  C16  1  0.52740000  0.93760000  0.22020000  1.0 0.3628899296
C  C17  1  0.80420000  0.24020000  0.69930000  1.0 0.051264148
C  C18  1  0.75980000  0.19580000  0.19930000  1.0 0.051264148
C  C19  1  0.88530000  0.33430000  0.69570000  1.0 -0.1790136286
C  C20  1  0.66570000  0.11470000  0.19570000  1.0 -0.1790136286
C  C21  1  0.97280000  0.36940000  0.72180000  1.0 0.0578127133
C  C22  1  0.63060000  0.02720000  0.22180000  1.0 0.0578127133
C  C23  1  0.96770000  0.30050000  0.75030000  1.0 -0.1629760909
C  C24  1  0.69950000  0.03230000  0.25030000  1.0 -0.1629760909
C  C25  1  0.88260000  0.20640000  0.75020000  1.0 0.0675912228
C  C26  1  0.79360000  0.11740000  0.25020000  1.0 0.0675912228
C  C27  1  0.11050000  0.76630000  0.60310000  1.0 0.0578127133
C  C28  1  0.23370000  0.88950000  0.10310000  1.0 0.0578127133
C  C29  1  0.09170000  0.68970000  0.63060000  1.0 -0.1629760909
C  C30  1  0.31030000  0.90830000  0.13060000  1.0 -0.1629760909
C  C31  1  0.16360000  0.70960000  0.66380000  1.0 0.051264148
C  C32  1  0.29040000  0.83640000  0.16380000  1.0 0.051264148
C  C33  1  0.24580000  0.80260000  0.66890000  1.0 -0.1790136286
C  C34  1  0.19740000  0.75420000  0.16890000  1.0 -0.1790136286
C  C35  1  0.25790000  0.87630000  0.64060000  1.0 0.0799859297
C  C36  1  0.12370000  0.74210000  0.14060000  1.0 0.0799859297
C  C37  1  0.06730000  0.94870000  0.59690000  1.0 0.0799859297
C  C38  1  0.05130000  0.93270000  0.09690000  1.0 0.0799859297
C  C39  1  0.98390000  0.92890000  0.59770000  1.0 -0.1790136286
C  C40  1  0.07110000  0.01610000  0.09770000  1.0 -0.1790136286
C  C41  1  0.91490000  0.89130000  0.56240000  1.0 0.051264148
C  C42  1  0.10870000  0.08510000  0.06240000  1.0 0.051264148
C  C43  1  0.93340000  0.87740000  0.52580000  1.0 -0.1533661209
C  C44  1  0.12260000  0.06660000  0.02580000  1.0 -0.1533661209
C  C45  1  0.01720000  0.90100000  0.52700000  1.0 0.0425278347
C  C46  1  0.09900000  0.98280000  0.02700000  1.0 0.0425278347
C  C47  1  0.82130000  0.86210000  0.56250000  1.0 0.3628899296
C  C48  1  0.13790000  0.17870000  0.06250000  1.0 0.3628899296
C  C49  1  0.72670000  0.86490000  0.59250000  1.0 0.3694661137
C  C50  1  0.13510000  0.27330000  0.09250000  1.0 0.3694661137
C  C51  1  0.66510000  0.77490000  0.53590000  1.0 0.349493089
C  C52  1  0.22510000  0.33490000  0.03590000  1.0 0.349493089
C  C53  1  0.51220000  0.58160000  0.45650000  1.0 0.0578127133
C  C54  1  0.41840000  0.48780000  0.95650000  1.0 0.051264148
C  C55  1  0.59040000  0.65200000  0.48360000  1.0 -0.1533661209
C  C56  1  0.34800000  0.40960000  0.98360000  1.0 -0.1533661209
C  C57  1  0.57990000  0.69970000  0.50710000  1.0 0.0578127133
C  C58  1  0.30030000  0.42010000  0.00710000  1.0 0.0578127133
C  C59  1  0.49290000  0.67150000  0.50240000  1.0 -0.1533661209
C  C60  1  0.32850000  0.50710000  0.00240000  1.0 -0.1533661209
C  C61  1  0.41780000  0.59840000  0.47430000  1.0 0.051264148
C  C62  1  0.40160000  0.58220000  0.97430000  1.0 0.051264148
C  C63  1  0.63420000  0.93860000  0.64650000  1.0 0.0799859297
C  C64  1  0.06140000  0.36580000  0.14650000  1.0 0.0799859297
C  C65  1  0.64130000  0.90010000  0.61750000  1.0 -0.1703678976
C  C66  1  0.09990000  0.35870000  0.11750000  1.0 -0.1703678976
C  C67  1  0.71750000  0.90470000  0.62390000  1.0 0.0675912228
C  C68  1  0.09530000  0.28250000  0.12390000  1.0 0.0675912228
C  C69  1  0.78370000  0.94770000  0.65980000  1.0 -0.1916791285
C  C70  1  0.05230000  0.21630000  0.15980000  1.0 -0.1916791285
C  C71  1  0.77110000  0.98490000  0.68760000  1.0 0.0177580909
C  C72  1  0.01510000  0.22890000  0.18760000  1.0 0.0177580909
C  C73  1  0.72850000  0.44130000  0.66800000  1.0 0.051264148
C  C74  1  0.55870000  0.27150000  0.16800000  1.0 0.051264148
C  C75  1  0.70800000  0.36760000  0.70250000  1.0 -0.1629760909
C  C76  1  0.63240000  0.29200000  0.20250000  1.0 -0.1629760909
C  C77  1  0.61500000  0.29600000  0.71380000  1.0 0.0578127133
C  C78  1  0.70400000  0.38500000  0.21380000  1.0 0.0578127133
C  C79  1  0.54170000  0.29430000  0.69200000  1.0 -0.1703678976
C  C80  1  0.70570000  0.45830000  0.19200000  1.0 -0.1703678976
C  C81  1  0.56930000  0.36890000  0.65830000  1.0 0.0675912228
C  C82  1  0.63110000  0.43070000  0.15830000  1.0 0.0675912228
C  C83  1  0.58710000  0.21270000  0.74760000  1.0 0.3815856304
C  C84  1  0.78730000  0.41290000  0.24760000  1.0 0.3815856304
C  C85  1  0.63030000  0.15050000  0.80490000  1.0 0.3694661137
C  C86  1  0.84950000  0.36970000  0.30490000  1.0 0.3694661137
C  C87  1  0.47260000  0.06240000  0.77980000  1.0 0.3628899296
C  C88  1  0.93760000  0.52740000  0.27980000  1.0 0.3628899296
C  C89  1  0.24020000  0.80420000  0.80070000  1.0 0.051264148
C  C90  1  0.19580000  0.75980000  0.30070000  1.0 0.051264148
C  C91  1  0.33430000  0.88530000  0.80430000  1.0 -0.1790136286
C  C92  1  0.11470000  0.66570000  0.30430000  1.0 -0.1790136286
C  C93  1  0.36940000  0.97280000  0.77820000  1.0 0.0578127133
C  C94  1  0.02720000  0.63060000  0.27820000  1.0 0.0578127133
C  C95  1  0.30050000  0.96770000  0.74970000  1.0 -0.1629760909
C  C96  1  0.03230000  0.69950000  0.24970000  1.0 -0.1629760909
C  C97  1  0.20640000  0.88260000  0.74980000  1.0 0.0675912228
C  C98  1  0.11740000  0.79360000  0.24980000  1.0 0.0675912228
C  C99  1  0.76630000  0.11050000  0.89690000  1.0 0.0578127133
C  C100  1  0.88950000  0.23370000  0.39690000  1.0 0.0578127133
C  C101  1  0.68970000  0.09170000  0.86940000  1.0 -0.1629760909
C  C102  1  0.90830000  0.31030000  0.36940000  1.0 -0.1629760909
C  C103  1  0.70960000  0.16360000  0.83620000  1.0 0.051264148
C  C104  1  0.83640000  0.29040000  0.33620000  1.0 0.051264148
C  C105  1  0.80260000  0.24580000  0.83110000  1.0 -0.1790136286
C  C106  1  0.75420000  0.19740000  0.33110000  1.0 -0.1790136286
C  C107  1  0.87630000  0.25790000  0.85940000  1.0 0.0799859297
C  C108  1  0.74210000  0.12370000  0.35940000  1.0 0.0799859297
C  C109  1  0.94870000  0.06730000  0.90310000  1.0 0.0799859297
C  C110  1  0.93270000  0.05130000  0.40310000  1.0 0.0799859297
C  C111  1  0.92890000  0.98390000  0.90230000  1.0 -0.1790136286
C  C112  1  0.01610000  0.07110000  0.40230000  1.0 -0.1790136286
C  C113  1  0.89130000  0.91490000  0.93760000  1.0 0.051264148
C  C114  1  0.08510000  0.10870000  0.43760000  1.0 0.051264148
C  C115  1  0.87740000  0.93340000  0.97420000  1.0 -0.1533661209
C  C116  1  0.06660000  0.12260000  0.47420000  1.0 -0.1533661209
C  C117  1  0.90100000  0.01720000  0.97300000  1.0 0.0425278347
C  C118  1  0.98280000  0.09900000  0.47300000  1.0 0.0425278347
C  C119  1  0.86210000  0.82130000  0.93750000  1.0 0.3628899296
C  C120  1  0.17870000  0.13790000  0.43750000  1.0 0.3628899296
C  C121  1  0.86490000  0.72670000  0.90750000  1.0 0.3694661137
C  C122  1  0.27330000  0.13510000  0.40750000  1.0 0.3694661137
C  C123  1  0.77490000  0.66510000  0.96410000  1.0 0.349493089
C  C124  1  0.33490000  0.22510000  0.46410000  1.0 0.349493089
C  C125  1  0.58160000  0.51220000  0.04350000  1.0 0.051264148
C  C126  1  0.48780000  0.41840000  0.54350000  1.0 0.051264148
C  C127  1  0.65200000  0.59040000  0.01640000  1.0 -0.1533661209
C  C128  1  0.40960000  0.34800000  0.51640000  1.0 -0.1533661209
C  C129  1  0.69970000  0.57990000  0.99290000  1.0 0.0578127133
C  C130  1  0.42010000  0.30030000  0.49290000  1.0 0.0578127133
C  C131  1  0.67150000  0.49290000  0.99760000  1.0 -0.1533661209
C  C132  1  0.50710000  0.32850000  0.49760000  1.0 -0.1533661209
C  C133  1  0.59840000  0.41780000  0.02570000  1.0 0.051264148
C  C134  1  0.58220000  0.40160000  0.52570000  1.0 0.051264148
C  C135  1  0.93860000  0.63420000  0.85350000  1.0 0.0799859297
C  C136  1  0.36580000  0.06140000  0.35350000  1.0 0.0799859297
C  C137  1  0.90010000  0.64130000  0.88250000  1.0 -0.1703678976
C  C138  1  0.35870000  0.09990000  0.38250000  1.0 -0.1703678976
C  C139  1  0.90470000  0.71750000  0.87610000  1.0 0.0675912228
C  C140  1  0.28250000  0.09530000  0.37610000  1.0 0.0675912228
C  C141  1  0.94770000  0.78370000  0.84020000  1.0 -0.1916791285
C  C142  1  0.21630000  0.05230000  0.34020000  1.0 -0.1916791285
C  C143  1  0.98490000  0.77110000  0.81240000  1.0 0.0177580909
C  C144  1  0.22890000  0.01510000  0.31240000  1.0 0.0177580909
C  C145  1  0.43340000  0.43500000  0.24010000  1.0 -0.0312552686
C  C146  1  0.43500000  0.43340000  0.25990000  1.0 -0.0312552686
C  C147  1  0.39500000  0.35500000  0.27190000  1.0 0.0093690892
C  C148  1  0.35500000  0.39500000  0.22810000  1.0 0.0093690892
C  C149  1  0.45660000  0.33740000  0.29340000  1.0 0.0799859297
C  C150  1  0.33740000  0.45660000  0.20660000  1.0 0.0799859297
C  C151  1  0.47550000  0.29650000  0.27180000  1.0 -0.0911093048
C  C152  1  0.29650000  0.47550000  0.22820000  1.0 -0.0911093048
C  C153  1  0.53750000  0.28450000  0.29520000  1.0 -0.2713548664
C  C154  1  0.28450000  0.53750000  0.20480000  1.0 -0.2713548664
C  C155  1  0.58040000  0.31360000  0.33750000  1.0 -0.01682317
C  C156  1  0.31360000  0.58040000  0.16250000  1.0 -0.01682317
C  C157  1  0.55410000  0.34590000  0.35910000  1.0 -0.1703678976
C  C158  1  0.34590000  0.55410000  0.14090000  1.0 -0.1703678976
C  C159  1  0.49300000  0.35900000  0.33710000  1.0 -0.2090051687
C  C160  1  0.35900000  0.49300000  0.16290000  1.0 -0.2090051687
C  C161  1  0.28780000  0.26180000  0.26370000  1.0 -0.0017484207
C  C162  1  0.26180000  0.28780000  0.23630000  1.0 -0.0017484207
C  C163  1  0.21730000  0.24570000  0.28140000  1.0 -0.0400658182
C  C164  1  0.24570000  0.21730000  0.21860000  1.0 -0.0400658182
C  C165  1  0.12240000  0.15380000  0.27740000  1.0 -0.0501311348
C  C166  1  0.15380000  0.12240000  0.22260000  1.0 -0.0501311348
C  C167  1  0.09870000  0.09250000  0.24800000  1.0 -0.0763841543
C  C168  1  0.09250000  0.09870000  0.25200000  1.0 -0.0763841543
C  C169  1  0.17030000  0.11170000  0.22900000  1.0 -0.0501311348
C  C170  1  0.11170000  0.17030000  0.27100000  1.0 -0.0501311348
C  C171  1  0.26370000  0.20030000  0.23460000  1.0 -0.0587801627
C  C172  1  0.20030000  0.26370000  0.26540000  1.0 -0.0587801627
C  C173  1  0.69690000  0.40510000  0.42710000  1.0 -0.249389154
C  C174  1  0.40510000  0.69690000  0.07290000  1.0 -0.249389154
C  C175  1  0.69970000  0.32830000  0.45050000  1.0 -0.2090051687
C  C176  1  0.32830000  0.69970000  0.04950000  1.0 -0.2090051687
C  C177  1  0.73230000  0.30970000  0.41690000  1.0 -0.1192527945
C  C178  1  0.30970000  0.73230000  0.08310000  1.0 -0.1192527945
C  C179  1  0.66580000  0.28020000  0.37200000  1.0 -0.0312552686
C  C180  1  0.28020000  0.66580000  0.12800000  1.0 -0.0312552686
C  C181  1  0.67410000  0.36590000  0.34720000  1.0 -0.0400658182
C  C182  1  0.36590000  0.67410000  0.15280000  1.0 -0.0400658182
C  C183  1  0.65250000  0.39750000  0.38000000  1.0 -0.141030294
C  C184  1  0.39750000  0.65250000  0.12000000  1.0 -0.141030294
C  C185  1  0.56660000  0.56500000  0.75990000  1.0 -0.0312552686
C  C186  1  0.56500000  0.56660000  0.74010000  1.0 -0.0312552686
C  C187  1  0.60500000  0.64500000  0.72810000  1.0 0.0093690892
C  C188  1  0.64500000  0.60500000  0.77190000  1.0 0.0093690892
C  C189  1  0.54340000  0.66260000  0.70660000  1.0 0.0799859297
C  C190  1  0.66260000  0.54340000  0.79340000  1.0 0.0799859297
C  C191  1  0.52450000  0.70350000  0.72820000  1.0 -0.0911093048
C  C192  1  0.70350000  0.52450000  0.77180000  1.0 -0.0911093048
C  C193  1  0.46250000  0.71550000  0.70480000  1.0 -0.2713548664
C  C194  1  0.71550000  0.46250000  0.79520000  1.0 -0.2713548664
C  C195  1  0.41960000  0.68640000  0.66250000  1.0 -0.01682317
C  C196  1  0.68640000  0.41960000  0.83750000  1.0 -0.01682317
C  C197  1  0.44590000  0.65410000  0.64090000  1.0 -0.1703678976
C  C198  1  0.65410000  0.44590000  0.85910000  1.0 -0.1703678976
C  C199  1  0.50700000  0.64100000  0.66290000  1.0 -0.2090051687
C  C200  1  0.64100000  0.50700000  0.83710000  1.0 -0.2090051687
C  C201  1  0.71220000  0.73820000  0.73630000  1.0 -0.0017484207
C  C202  1  0.73820000  0.71220000  0.76370000  1.0 -0.0017484207
C  C203  1  0.78270000  0.75430000  0.71860000  1.0 -0.0400658182
C  C204  1  0.75430000  0.78270000  0.78140000  1.0 -0.0400658182
C  C205  1  0.87760000  0.84620000  0.72260000  1.0 -0.0501311348
C  C206  1  0.84620000  0.87760000  0.77740000  1.0 -0.0501311348
C  C207  1  0.90130000  0.90750000  0.75200000  1.0 -0.0763841543
C  C208  1  0.90750000  0.90130000  0.74800000  1.0 -0.0763841543
C  C209  1  0.82970000  0.88830000  0.77100000  1.0 -0.0501311348
C  C210  1  0.88830000  0.82970000  0.72900000  1.0 -0.0501311348
C  C211  1  0.73630000  0.79970000  0.76540000  1.0 -0.0587801627
C  C212  1  0.79970000  0.73630000  0.73460000  1.0 -0.0587801627
C  C213  1  0.30310000  0.59490000  0.57290000  1.0 -0.249389154
C  C214  1  0.59490000  0.30310000  0.92710000  1.0 -0.249389154
C  C215  1  0.30030000  0.67170000  0.54950000  1.0 -0.2090051687
C  C216  1  0.67170000  0.30030000  0.95050000  1.0 -0.2090051687
C  C217  1  0.26770000  0.69030000  0.58310000  1.0 -0.1192527945
C  C218  1  0.69030000  0.26770000  0.91690000  1.0 -0.1192527945
C  C219  1  0.33420000  0.71980000  0.62800000  1.0 -0.0312552686
C  C220  1  0.71980000  0.33420000  0.87200000  1.0 -0.0312552686
C  C221  1  0.32590000  0.63410000  0.65280000  1.0 -0.0400658182
C  C222  1  0.63410000  0.32590000  0.84720000  1.0 -0.0400658182
C  C223  1  0.34750000  0.60250000  0.62000000  1.0 -0.141030294
C  C224  1  0.60250000  0.34750000  0.88000000  1.0 -0.141030294
I  I1  1  0.60946000  0.63094000  0.87707000  1.0 0.0177580909
I  I2  1  0.36906000  0.39054000  0.37707000  1.0 0.0177580909
I  I3  1  0.63031000  0.83485000  0.93531000  1.0 -0.0400658182
I  I4  1  0.16515000  0.36969000  0.43531000  1.0 -0.0400658182
I  I5  1  0.70155000  0.95339000  0.80508000  1.0 -0.4749077979
I  I6  1  0.04661000  0.29845000  0.30508000  1.0 -0.4791669372
I  I7  1  0.52929000  0.00069000  0.70083000  1.0 -0.4596002969
I  I8  1  0.99931000  0.47071000  0.20083000  1.0 -0.4596002969
I  I9  1  0.22094000  0.94616000  0.48812000  1.0 -0.3880627874
I  I10  1  0.05384000  0.77906000  0.98812000  1.0 -0.3880627874
I  I11  1  0.34202000  0.12470000  0.60353000  1.0 -0.4402386296
I  I12  1  0.87530000  0.65798000  0.10353000  1.0 -0.4402386296
I  I13  1  0.62170000  0.85070000  0.94310000  1.0 0.0093690892
I  I14  1  0.14930000  0.37830000  0.44310000  1.0 -0.0017484207
I  I15  1  0.62030000  0.67290000  0.88370000  1.0 -0.01682317
I  I16  1  0.32710000  0.37970000  0.38370000  1.0 -0.01682317
I  I17  1  0.63094000  0.60946000  0.62293000  1.0 0.0177580909
I  I18  1  0.39054000  0.36906000  0.12293000  1.0 0.0177580909
I  I19  1  0.83485000  0.63031000  0.56469000  1.0 -0.0400658182
I  I20  1  0.36969000  0.16515000  0.06469000  1.0 -0.0400658182
I  I21  1  0.95339000  0.70155000  0.69492000  1.0 -0.4749077979
I  I22  1  0.29845000  0.04661000  0.19492000  1.0 -0.4791669372
I  I23  1  0.00069000  0.52929000  0.79917000  1.0 -0.4596002969
I  I24  1  0.47071000  0.99931000  0.29917000  1.0 -0.4596002969
I  I25  1  0.94616000  0.22094000  0.01188000  1.0 -0.3880627874
I  I26  1  0.77906000  0.05384000  0.51188000  1.0 -0.3880627874
I  I27  1  0.12470000  0.34202000  0.89647000  1.0 -0.4402386296
I  I28  1  0.65798000  0.87530000  0.39647000  1.0 -0.4402386296
I  I29  1  0.85070000  0.62170000  0.55690000  1.0 0.0093690892
I  I30  1  0.37830000  0.14930000  0.05690000  1.0 0.0093690892
I  I31  1  0.67290000  0.62030000  0.61630000  1.0 -0.01682317
I  I32  1  0.37970000  0.32710000  0.11630000  1.0 -0.01682317
N  N1  1  0.43890000  0.65830000  0.85340000  1.0 -0.2018952492
N  N2  1  0.34170000  0.56110000  0.35340000  1.0 -0.2018952492
N  N3  1  0.22540000  0.65960000  0.72610000  1.0 -0.4402386296
N  N4  1  0.34040000  0.77460000  0.22610000  1.0 -0.4402386296
N  N5  1  0.06710000  0.53790000  0.69100000  1.0 -0.4143754813
N  N6  1  0.46210000  0.93290000  0.19100000  1.0 -0.4143754813
N  N7  1  0.13480000  0.49400000  0.75020000  1.0 -0.4010161358
N  N8  1  0.50600000  0.86520000  0.25020000  1.0 -0.4010161358
N  N9  1  0.80120000  0.17360000  0.72640000  1.0 -0.1916791285
N  N10  1  0.82640000  0.19880000  0.22640000  1.0 -0.1916791285
N  N11  1  0.19180000  0.86000000  0.60780000  1.0 -0.1916791285
N  N12  1  0.14000000  0.80820000  0.10780000  1.0 -0.1916791285
N  N13  1  0.08620000  0.93660000  0.56220000  1.0 -0.1916791285
N  N14  1  0.06340000  0.91380000  0.06220000  1.0 -0.1916791285
N  N15  1  0.81220000  0.89280000  0.59400000  1.0 -0.4298362556
N  N16  1  0.10720000  0.18780000  0.09400000  1.0 -0.4298362556
N  N17  1  0.64900000  0.80320000  0.56490000  1.0 -0.4402386296
N  N18  1  0.19680000  0.35100000  0.06490000  1.0 -0.4402386296
N  N19  1  0.75050000  0.80590000  0.53200000  1.0 -0.4010161358
N  N20  1  0.19410000  0.24950000  0.03200000  1.0 -0.4010161358
N  N21  1  0.42710000  0.55570000  0.45150000  1.0 -0.1916791285
N  N22  1  0.44430000  0.57290000  0.95150000  1.0 -0.1916791285
N  N23  1  0.69580000  0.97860000  0.68250000  1.0 -0.1790136286
N  N24  1  0.02140000  0.30420000  0.18250000  1.0 -0.1790136286
N  N25  1  0.65830000  0.43890000  0.64660000  1.0 -0.2018952492
N  N26  1  0.56110000  0.34170000  0.14660000  1.0 -0.2018952492
N  N27  1  0.65960000  0.22540000  0.77390000  1.0 -0.4402386296
N  N28  1  0.77460000  0.34040000  0.27390000  1.0 -0.4402386296
N  N29  1  0.53790000  0.06710000  0.80900000  1.0 -0.4143754813
N  N30  1  0.93290000  0.46210000  0.30900000  1.0 -0.4143754813
N  N31  1  0.49400000  0.13480000  0.74980000  1.0 -0.4010161358
N  N32  1  0.86520000  0.50600000  0.24980000  1.0 -0.4010161358
N  N33  1  0.17360000  0.80120000  0.77360000  1.0 -0.1916791285
N  N34  1  0.19880000  0.82640000  0.27360000  1.0 -0.1916791285
N  N35  1  0.86000000  0.19180000  0.89220000  1.0 -0.1916791285
N  N36  1  0.80820000  0.14000000  0.39220000  1.0 -0.1916791285
N  N37  1  0.93660000  0.08620000  0.93780000  1.0 -0.1916791285
N  N38  1  0.91380000  0.06340000  0.43780000  1.0 -0.1916791285
N  N39  1  0.89280000  0.81220000  0.90600000  1.0 -0.4298362556
N  N40  1  0.18780000  0.10720000  0.40600000  1.0 -0.4298362556
N  N41  1  0.80320000  0.64900000  0.93510000  1.0 -0.4402386296
N  N42  1  0.35100000  0.19680000  0.43510000  1.0 -0.4402386296
N  N43  1  0.80590000  0.75050000  0.96800000  1.0 -0.4010161358
N  N44  1  0.24950000  0.19410000  0.46800000  1.0 -0.4010161358
N  N45  1  0.55570000  0.42710000  0.04850000  1.0 -0.1916791285
N  N46  1  0.57290000  0.44430000  0.54850000  1.0 -0.1916791285
N  N47  1  0.97860000  0.69580000  0.81750000  1.0 -0.1790136286
N  N48  1  0.30420000  0.02140000  0.31750000  1.0 -0.1790136286
Cl  Cl1  1  0.54710000  0.54310000  0.25180000  1.0 -0.1025916907
Cl  Cl2  1  0.54310000  0.54710000  0.24820000  1.0 -0.1025916907
Cl  Cl3  1  0.35680000  0.45940000  0.21940000  1.0 0.1007774605
Cl  Cl4  1  0.45940000  0.35680000  0.28060000  1.0 0.1007774605
Cl  Cl5  1  0.64950000  0.28750000  0.36750000  1.0 0.0093690892
Cl  Cl6  1  0.28750000  0.64950000  0.13250000  1.0 0.0093690892
Cl  Cl7  1  0.99320000  0.96580000  0.25470000  1.0 0.0425278347
Cl  Cl8  1  0.96580000  0.99320000  0.24530000  1.0 0.0425278347
Cl  Cl9  1  0.45290000  0.45690000  0.74820000  1.0 -0.1025916907
Cl  Cl10  1  0.45690000  0.45290000  0.75180000  1.0 -0.1025916907
Cl  Cl11  1  0.64320000  0.54060000  0.78060000  1.0 0.1007774605
Cl  Cl12  1  0.54060000  0.64320000  0.71940000  1.0 0.1007774605
Cl  Cl13  1  0.35050000  0.71250000  0.63250000  1.0 0.0093690892
Cl  Cl14  1  0.71250000  0.35050000  0.86750000  1.0 0.0044264522
Cl  Cl15  1  0.00680000  0.03420000  0.74530000  1.0 0.0425278347
Cl  Cl16  1  0.03420000  0.00680000  0.75470000  1.0 0.0425278347
