# DDEC6 charges by PACMAN v1.1 (https://github.com/mtap-research/PACMAN-charge/)
data_VALWOX_ASR_pacman
_symmetry_space_group_name_H-M   'P 1'
_cell_length_a   22.03540000
_cell_length_b   22.03540000
_cell_length_c   22.03540000
_cell_angle_alpha   90.00000000
_cell_angle_beta   90.00000000
_cell_angle_gamma   90.00000000
_symmetry_Int_Tables_number   1
_chemical_formula_structural   Mg3H9C24N3O13
_chemical_formula_sum   'Mg24 H72 C192 N24 O104'
_cell_volume   10699.48355292
_cell_formula_units_Z   8
loop_
 _symmetry_equiv_pos_site_id
 _symmetry_equiv_pos_as_xyz
  1  'x, y, z'
loop_
 _atom_site_type_symbol
 _atom_site_label
 _atom_site_symmetry_multiplicity
 _atom_site_fract_x
 _atom_site_fract_y
 _atom_site_fract_z
 _atom_site_occupancy
 _atom_site_charge
Mg  Mg1  1  0.17839000  0.23958000  0.30571000  1.0 1.4268181742
Mg  Mg2  1  0.73958000  0.32161000  0.19429000  1.0 1.4268181742
Mg  Mg3  1  0.82161000  0.76042000  0.30571000  1.0 1.4268181742
Mg  Mg4  1  0.26042000  0.67839000  0.19429000  1.0 1.4268181742
Mg  Mg5  1  0.17839000  0.76042000  0.69429000  1.0 1.4268181742
Mg  Mg6  1  0.26042000  0.32161000  0.80571000  1.0 1.4268181742
Mg  Mg7  1  0.82161000  0.23958000  0.69429000  1.0 1.4268181742
Mg  Mg8  1  0.73958000  0.67839000  0.80571000  1.0 1.4268181742
Mg  Mg9  1  0.30571000  0.17839000  0.23958000  1.0 1.4268181742
Mg  Mg10  1  0.67839000  0.19429000  0.26042000  1.0 1.4268181742
Mg  Mg11  1  0.69429000  0.82161000  0.23958000  1.0 1.4268181742
Mg  Mg12  1  0.32161000  0.80571000  0.26042000  1.0 1.4268181742
Mg  Mg13  1  0.30571000  0.82161000  0.76042000  1.0 1.4268181742
Mg  Mg14  1  0.32161000  0.19429000  0.73958000  1.0 1.4268181742
Mg  Mg15  1  0.69429000  0.17839000  0.76042000  1.0 1.4268181742
Mg  Mg16  1  0.67839000  0.80571000  0.73958000  1.0 1.4268181742
Mg  Mg17  1  0.23958000  0.30571000  0.17839000  1.0 1.4268181742
Mg  Mg18  1  0.80571000  0.73958000  0.67839000  1.0 1.4268181742
Mg  Mg19  1  0.80571000  0.26042000  0.32161000  1.0 1.4268181742
Mg  Mg20  1  0.19429000  0.26042000  0.67839000  1.0 1.4268181742
Mg  Mg21  1  0.19429000  0.73958000  0.32161000  1.0 1.4268181742
Mg  Mg22  1  0.23958000  0.69429000  0.82161000  1.0 1.4268181742
Mg  Mg23  1  0.76042000  0.69429000  0.17839000  1.0 1.4268181742
Mg  Mg24  1  0.76042000  0.30571000  0.82161000  1.0 1.4268181742
H  H1  1  0.89320000  0.29950000  0.09340000  1.0 0.1387159646
H  H2  1  0.79950000  0.60680000  0.40660000  1.0 0.1387159646
H  H3  1  0.10680000  0.70050000  0.09340000  1.0 0.1387159646
H  H4  1  0.20050000  0.39320000  0.40660000  1.0 0.1387159646
H  H5  1  0.89320000  0.70050000  0.90660000  1.0 0.1387159646
H  H6  1  0.20050000  0.60680000  0.59340000  1.0 0.1387159646
H  H7  1  0.10680000  0.29950000  0.90660000  1.0 0.1387159646
H  H8  1  0.79950000  0.39320000  0.59340000  1.0 0.1387159646
H  H9  1  0.09340000  0.89320000  0.29950000  1.0 0.1387159646
H  H10  1  0.39320000  0.40660000  0.20050000  1.0 0.1387159646
H  H11  1  0.90660000  0.10680000  0.29950000  1.0 0.1387159646
H  H12  1  0.60680000  0.59340000  0.20050000  1.0 0.1387159646
H  H13  1  0.09340000  0.10680000  0.70050000  1.0 0.1387159646
H  H14  1  0.60680000  0.40660000  0.79950000  1.0 0.1387159646
H  H15  1  0.90660000  0.89320000  0.70050000  1.0 0.1387159646
H  H16  1  0.39320000  0.59340000  0.79950000  1.0 0.1387159646
H  H17  1  0.29950000  0.09340000  0.89320000  1.0 0.1387159646
H  H18  1  0.59340000  0.79950000  0.39320000  1.0 0.1387159646
H  H19  1  0.59340000  0.20050000  0.60680000  1.0 0.1387159646
H  H20  1  0.40660000  0.20050000  0.39320000  1.0 0.1387159646
H  H21  1  0.40660000  0.79950000  0.60680000  1.0 0.1387159646
H  H22  1  0.29950000  0.90660000  0.10680000  1.0 0.1387159646
H  H23  1  0.70050000  0.90660000  0.89320000  1.0 0.1387159646
H  H24  1  0.70050000  0.09340000  0.10680000  1.0 0.1387159646
H  H25  1  0.99100000  0.27960000  0.24350000  1.0 0.1312039428
H  H26  1  0.77960000  0.50900000  0.25650000  1.0 0.1312039428
H  H27  1  0.00900000  0.72040000  0.24350000  1.0 0.1312039428
H  H28  1  0.22040000  0.49100000  0.25650000  1.0 0.1312039428
H  H29  1  0.99100000  0.72040000  0.75650000  1.0 0.1312039428
H  H30  1  0.22040000  0.50900000  0.74350000  1.0 0.1312039428
H  H31  1  0.00900000  0.27960000  0.75650000  1.0 0.1312039428
H  H32  1  0.77960000  0.49100000  0.74350000  1.0 0.1312039428
H  H33  1  0.24350000  0.99100000  0.27960000  1.0 0.1312039428
H  H34  1  0.49100000  0.25650000  0.22040000  1.0 0.1312039428
H  H35  1  0.75650000  0.00900000  0.27960000  1.0 0.1312039428
H  H36  1  0.50900000  0.74350000  0.22040000  1.0 0.1312039428
H  H37  1  0.24350000  0.00900000  0.72040000  1.0 0.1312039428
H  H38  1  0.50900000  0.25650000  0.77960000  1.0 0.1312039428
H  H39  1  0.75650000  0.99100000  0.72040000  1.0 0.1312039428
H  H40  1  0.49100000  0.74350000  0.77960000  1.0 0.1312039428
H  H41  1  0.27960000  0.24350000  0.99100000  1.0 0.1312039428
H  H42  1  0.74350000  0.77960000  0.49100000  1.0 0.1312039428
H  H43  1  0.74350000  0.22040000  0.50900000  1.0 0.1312039428
H  H44  1  0.25650000  0.22040000  0.49100000  1.0 0.1312039428
H  H45  1  0.25650000  0.77960000  0.50900000  1.0 0.1312039428
H  H46  1  0.27960000  0.75650000  0.00900000  1.0 0.1312039428
H  H47  1  0.72040000  0.75650000  0.99100000  1.0 0.1312039428
H  H48  1  0.72040000  0.24350000  0.00900000  1.0 0.1312039428
H  H49  1  0.07550000  0.28580000  0.08360000  1.0 0.1387159646
H  H50  1  0.78580000  0.42450000  0.41640000  1.0 0.1387159646
H  H51  1  0.92450000  0.71420000  0.08360000  1.0 0.1387159646
H  H52  1  0.21420000  0.57550000  0.41640000  1.0 0.1387159646
H  H53  1  0.07550000  0.71420000  0.91640000  1.0 0.1387159646
H  H54  1  0.21420000  0.42450000  0.58360000  1.0 0.1387159646
H  H55  1  0.92450000  0.28580000  0.91640000  1.0 0.1387159646
H  H56  1  0.78580000  0.57550000  0.58360000  1.0 0.1387159646
H  H57  1  0.08360000  0.07550000  0.28580000  1.0 0.1387159646
H  H58  1  0.57550000  0.41640000  0.21420000  1.0 0.1387159646
H  H59  1  0.91640000  0.92450000  0.28580000  1.0 0.1387159646
H  H60  1  0.42450000  0.58360000  0.21420000  1.0 0.1387159646
H  H61  1  0.08360000  0.92450000  0.71420000  1.0 0.1387159646
H  H62  1  0.42450000  0.41640000  0.78580000  1.0 0.1387159646
H  H63  1  0.91640000  0.07550000  0.71420000  1.0 0.1387159646
H  H64  1  0.57550000  0.58360000  0.78580000  1.0 0.1387159646
H  H65  1  0.28580000  0.08360000  0.07550000  1.0 0.1387159646
H  H66  1  0.58360000  0.78580000  0.57550000  1.0 0.1387159646
H  H67  1  0.58360000  0.21420000  0.42450000  1.0 0.1387159646
H  H68  1  0.41640000  0.21420000  0.57550000  1.0 0.1387159646
H  H69  1  0.41640000  0.78580000  0.42450000  1.0 0.1387159646
H  H70  1  0.28580000  0.91640000  0.92450000  1.0 0.1387159646
H  H71  1  0.71420000  0.91640000  0.07550000  1.0 0.1387159646
H  H72  1  0.71420000  0.08360000  0.92450000  1.0 0.1387159646
C  C1  1  0.98200000  0.29410000  0.07800000  1.0 0.1569863392
C  C2  1  0.79410000  0.51800000  0.42200000  1.0 0.1569863392
C  C3  1  0.01800000  0.70590000  0.07800000  1.0 0.1569863392
C  C4  1  0.20590000  0.48200000  0.42200000  1.0 0.1569863392
C  C5  1  0.98200000  0.70590000  0.92200000  1.0 0.1569863392
C  C6  1  0.20590000  0.51800000  0.57800000  1.0 0.1569863392
C  C7  1  0.01800000  0.29410000  0.92200000  1.0 0.1569863392
C  C8  1  0.79410000  0.48200000  0.57800000  1.0 0.1569863392
C  C9  1  0.07800000  0.98200000  0.29410000  1.0 0.1569863392
C  C10  1  0.48200000  0.42200000  0.20590000  1.0 0.1569863392
C  C11  1  0.92200000  0.01800000  0.29410000  1.0 0.1569863392
C  C12  1  0.51800000  0.57800000  0.20590000  1.0 0.1569863392
C  C13  1  0.07800000  0.01800000  0.70590000  1.0 0.1569863392
C  C14  1  0.51800000  0.42200000  0.79410000  1.0 0.1569863392
C  C15  1  0.92200000  0.98200000  0.70590000  1.0 0.1569863392
C  C16  1  0.48200000  0.57800000  0.79410000  1.0 0.1569863392
C  C17  1  0.29410000  0.07800000  0.98200000  1.0 0.1569863392
C  C18  1  0.57800000  0.79410000  0.48200000  1.0 0.1569863392
C  C19  1  0.57800000  0.20590000  0.51800000  1.0 0.1569863392
C  C20  1  0.42200000  0.20590000  0.48200000  1.0 0.1569863392
C  C21  1  0.42200000  0.79410000  0.51800000  1.0 0.1569863392
C  C22  1  0.29410000  0.92200000  0.01800000  1.0 0.1569863392
C  C23  1  0.70590000  0.92200000  0.98200000  1.0 0.1569863392
C  C24  1  0.70590000  0.07800000  0.01800000  1.0 0.1569863392
C  C25  1  0.93060000  0.29580000  0.11250000  1.0 -0.1334407244
C  C26  1  0.79580000  0.56940000  0.38750000  1.0 -0.1334407244
C  C27  1  0.06940000  0.70420000  0.11250000  1.0 -0.1334407244
C  C28  1  0.20420000  0.43060000  0.38750000  1.0 -0.1334407244
C  C29  1  0.93060000  0.70420000  0.88750000  1.0 -0.1334407244
C  C30  1  0.20420000  0.56940000  0.61250000  1.0 -0.1334407244
C  C31  1  0.06940000  0.29580000  0.88750000  1.0 -0.1334407244
C  C32  1  0.79580000  0.43060000  0.61250000  1.0 -0.1334407244
C  C33  1  0.11250000  0.93060000  0.29580000  1.0 -0.1334407244
C  C34  1  0.43060000  0.38750000  0.20420000  1.0 -0.1334407244
C  C35  1  0.88750000  0.06940000  0.29580000  1.0 -0.1334407244
C  C36  1  0.56940000  0.61250000  0.20420000  1.0 -0.1334407244
C  C37  1  0.11250000  0.06940000  0.70420000  1.0 -0.1334407244
C  C38  1  0.56940000  0.38750000  0.79580000  1.0 -0.1334407244
C  C39  1  0.88750000  0.93060000  0.70420000  1.0 -0.1334407244
C  C40  1  0.43060000  0.61250000  0.79580000  1.0 -0.1334407244
C  C41  1  0.29580000  0.11250000  0.93060000  1.0 -0.1334407244
C  C42  1  0.61250000  0.79580000  0.43060000  1.0 -0.1334407244
C  C43  1  0.61250000  0.20420000  0.56940000  1.0 -0.1334407244
C  C44  1  0.38750000  0.20420000  0.43060000  1.0 -0.1334407244
C  C45  1  0.38750000  0.79580000  0.56940000  1.0 -0.1334407244
C  C46  1  0.29580000  0.88750000  0.06940000  1.0 -0.1334407244
C  C47  1  0.70420000  0.88750000  0.93060000  1.0 -0.1334407244
C  C48  1  0.70420000  0.11250000  0.06940000  1.0 -0.1334407244
C  C49  1  0.93270000  0.29200000  0.17490000  1.0 -0.0069045806
C  C50  1  0.79200000  0.56730000  0.32510000  1.0 -0.0069045806
C  C51  1  0.06730000  0.70800000  0.17490000  1.0 -0.0069045806
C  C52  1  0.20800000  0.43270000  0.32510000  1.0 -0.0069045806
C  C53  1  0.93270000  0.70800000  0.82510000  1.0 -0.0069045806
C  C54  1  0.20800000  0.56730000  0.67490000  1.0 -0.0069045806
C  C55  1  0.06730000  0.29200000  0.82510000  1.0 -0.0069045806
C  C56  1  0.79200000  0.43270000  0.67490000  1.0 -0.0069045806
C  C57  1  0.17490000  0.93270000  0.29200000  1.0 -0.0069045806
C  C58  1  0.43270000  0.32510000  0.20800000  1.0 -0.0069045806
C  C59  1  0.82510000  0.06730000  0.29200000  1.0 -0.0069045806
C  C60  1  0.56730000  0.67490000  0.20800000  1.0 -0.0069045806
C  C61  1  0.17490000  0.06730000  0.70800000  1.0 -0.0069045806
C  C62  1  0.56730000  0.32510000  0.79200000  1.0 -0.0069045806
C  C63  1  0.82510000  0.93270000  0.70800000  1.0 -0.0069045806
C  C64  1  0.43270000  0.67490000  0.79200000  1.0 -0.0069045806
C  C65  1  0.29200000  0.17490000  0.93270000  1.0 -0.0069045806
C  C66  1  0.67490000  0.79200000  0.43270000  1.0 -0.0069045806
C  C67  1  0.67490000  0.20800000  0.56730000  1.0 -0.0069045806
C  C68  1  0.32510000  0.20800000  0.43270000  1.0 -0.0069045806
C  C69  1  0.32510000  0.79200000  0.56730000  1.0 -0.0069045806
C  C70  1  0.29200000  0.82510000  0.06730000  1.0 -0.0069045806
C  C71  1  0.70800000  0.82510000  0.93270000  1.0 -0.0069045806
C  C72  1  0.70800000  0.17490000  0.06730000  1.0 -0.0069045806
C  C73  1  0.98860000  0.28520000  0.20170000  1.0 -0.076960548
C  C74  1  0.78520000  0.51140000  0.29830000  1.0 -0.076960548
C  C75  1  0.01140000  0.71480000  0.20170000  1.0 -0.076960548
C  C76  1  0.21480000  0.48860000  0.29830000  1.0 -0.076960548
C  C77  1  0.98860000  0.71480000  0.79830000  1.0 -0.076960548
C  C78  1  0.21480000  0.51140000  0.70170000  1.0 -0.076960548
C  C79  1  0.01140000  0.28520000  0.79830000  1.0 -0.076960548
C  C80  1  0.78520000  0.48860000  0.70170000  1.0 -0.076960548
C  C81  1  0.20170000  0.98860000  0.28520000  1.0 -0.076960548
C  C82  1  0.48860000  0.29830000  0.21480000  1.0 -0.076960548
C  C83  1  0.79830000  0.01140000  0.28520000  1.0 -0.076960548
C  C84  1  0.51140000  0.70170000  0.21480000  1.0 -0.076960548
C  C85  1  0.20170000  0.01140000  0.71480000  1.0 -0.076960548
C  C86  1  0.51140000  0.29830000  0.78520000  1.0 -0.076960548
C  C87  1  0.79830000  0.98860000  0.71480000  1.0 -0.076960548
C  C88  1  0.48860000  0.70170000  0.78520000  1.0 -0.076960548
C  C89  1  0.28520000  0.20170000  0.98860000  1.0 -0.076960548
C  C90  1  0.70170000  0.78520000  0.48860000  1.0 -0.076960548
C  C91  1  0.70170000  0.21480000  0.51140000  1.0 -0.076960548
C  C92  1  0.29830000  0.21480000  0.48860000  1.0 -0.076960548
C  C93  1  0.29830000  0.78520000  0.51140000  1.0 -0.076960548
C  C94  1  0.28520000  0.79830000  0.01140000  1.0 -0.076960548
C  C95  1  0.71480000  0.79830000  0.98860000  1.0 -0.076960548
C  C96  1  0.71480000  0.20170000  0.01140000  1.0 -0.076960548
C  C97  1  0.04210000  0.28660000  0.16720000  1.0 0.0061910747
C  C98  1  0.78660000  0.45790000  0.33280000  1.0 0.0061910747
C  C99  1  0.95790000  0.71340000  0.16720000  1.0 0.0061910747
C  C100  1  0.21340000  0.54210000  0.33280000  1.0 0.0061910747
C  C101  1  0.04210000  0.71340000  0.83280000  1.0 0.0061910747
C  C102  1  0.21340000  0.45790000  0.66720000  1.0 0.0061910747
C  C103  1  0.95790000  0.28660000  0.83280000  1.0 0.0061910747
C  C104  1  0.78660000  0.54210000  0.66720000  1.0 0.0061910747
C  C105  1  0.16720000  0.04210000  0.28660000  1.0 0.0061910747
C  C106  1  0.54210000  0.33280000  0.21340000  1.0 0.0061910747
C  C107  1  0.83280000  0.95790000  0.28660000  1.0 0.0061910747
C  C108  1  0.45790000  0.66720000  0.21340000  1.0 0.0061910747
C  C109  1  0.16720000  0.95790000  0.71340000  1.0 0.0061910747
C  C110  1  0.45790000  0.33280000  0.78660000  1.0 0.0061910747
C  C111  1  0.83280000  0.04210000  0.71340000  1.0 0.0061910747
C  C112  1  0.54210000  0.66720000  0.78660000  1.0 0.0061910747
C  C113  1  0.28660000  0.16720000  0.04210000  1.0 0.0061910747
C  C114  1  0.66720000  0.78660000  0.54210000  1.0 0.0061910747
C  C115  1  0.66720000  0.21340000  0.45790000  1.0 0.0061910747
C  C116  1  0.33280000  0.21340000  0.54210000  1.0 0.0061910747
C  C117  1  0.33280000  0.78660000  0.45790000  1.0 0.0061910747
C  C118  1  0.28660000  0.83280000  0.95790000  1.0 0.0061910747
C  C119  1  0.71340000  0.83280000  0.04210000  1.0 0.0061910747
C  C120  1  0.71340000  0.16720000  0.95790000  1.0 0.0061910747
C  C121  1  0.04020000  0.28830000  0.10650000  1.0 -0.1334407244
C  C122  1  0.78830000  0.45980000  0.39350000  1.0 -0.1334407244
C  C123  1  0.95980000  0.71170000  0.10650000  1.0 -0.1334407244
C  C124  1  0.21170000  0.54020000  0.39350000  1.0 -0.1334407244
C  C125  1  0.04020000  0.71170000  0.89350000  1.0 -0.1334407244
C  C126  1  0.21170000  0.45980000  0.60650000  1.0 -0.1334407244
C  C127  1  0.95980000  0.28830000  0.89350000  1.0 -0.1334407244
C  C128  1  0.78830000  0.54020000  0.60650000  1.0 -0.1334407244
C  C129  1  0.10650000  0.04020000  0.28830000  1.0 -0.1334407244
C  C130  1  0.54020000  0.39350000  0.21170000  1.0 -0.1334407244
C  C131  1  0.89350000  0.95980000  0.28830000  1.0 -0.1334407244
C  C132  1  0.45980000  0.60650000  0.21170000  1.0 -0.1334407244
C  C133  1  0.10650000  0.95980000  0.71170000  1.0 -0.1334407244
C  C134  1  0.45980000  0.39350000  0.78830000  1.0 -0.1334407244
C  C135  1  0.89350000  0.04020000  0.71170000  1.0 -0.1334407244
C  C136  1  0.54020000  0.60650000  0.78830000  1.0 -0.1334407244
C  C137  1  0.28830000  0.10650000  0.04020000  1.0 -0.1334407244
C  C138  1  0.60650000  0.78830000  0.54020000  1.0 -0.1334407244
C  C139  1  0.60650000  0.21170000  0.45980000  1.0 -0.1334407244
C  C140  1  0.39350000  0.21170000  0.54020000  1.0 -0.1334407244
C  C141  1  0.39350000  0.78830000  0.45980000  1.0 -0.1334407244
C  C142  1  0.28830000  0.89350000  0.95980000  1.0 -0.1334407244
C  C143  1  0.71170000  0.89350000  0.04020000  1.0 -0.1334407244
C  C144  1  0.71170000  0.10650000  0.95980000  1.0 -0.1334407244
C  C145  1  0.87330000  0.29180000  0.20790000  1.0 0.6275450856
C  C146  1  0.79180000  0.62670000  0.29210000  1.0 0.6275450856
C  C147  1  0.12670000  0.70820000  0.20790000  1.0 0.6275450856
C  C148  1  0.20820000  0.37330000  0.29210000  1.0 0.6275450856
C  C149  1  0.87330000  0.70820000  0.79210000  1.0 0.6275450856
C  C150  1  0.20820000  0.62670000  0.70790000  1.0 0.6275450856
C  C151  1  0.12670000  0.29180000  0.79210000  1.0 0.6275450856
C  C152  1  0.79180000  0.37330000  0.70790000  1.0 0.6275450856
C  C153  1  0.20790000  0.87330000  0.29180000  1.0 0.6275450856
C  C154  1  0.37330000  0.29210000  0.20820000  1.0 0.6275450856
C  C155  1  0.79210000  0.12670000  0.29180000  1.0 0.6275450856
C  C156  1  0.62670000  0.70790000  0.20820000  1.0 0.6275450856
C  C157  1  0.20790000  0.12670000  0.70820000  1.0 0.6275450856
C  C158  1  0.62670000  0.29210000  0.79180000  1.0 0.6275450856
C  C159  1  0.79210000  0.87330000  0.70820000  1.0 0.6275450856
C  C160  1  0.37330000  0.70790000  0.79180000  1.0 0.6275450856
C  C161  1  0.29180000  0.20790000  0.87330000  1.0 0.6275450856
C  C162  1  0.70790000  0.79180000  0.37330000  1.0 0.6275450856
C  C163  1  0.70790000  0.20820000  0.62670000  1.0 0.6275450856
C  C164  1  0.29210000  0.20820000  0.37330000  1.0 0.6275450856
C  C165  1  0.29210000  0.79180000  0.62670000  1.0 0.6275450856
C  C166  1  0.29180000  0.79210000  0.12670000  1.0 0.6275450856
C  C167  1  0.70820000  0.79210000  0.87330000  1.0 0.6275450856
C  C168  1  0.70820000  0.20790000  0.12670000  1.0 0.6275450856
C  C169  1  0.10310000  0.27790000  0.19750000  1.0 0.6275450856
C  C170  1  0.77790000  0.39690000  0.30250000  1.0 0.6275450856
C  C171  1  0.89690000  0.72210000  0.19750000  1.0 0.6275450856
C  C172  1  0.22210000  0.60310000  0.30250000  1.0 0.6275450856
C  C173  1  0.10310000  0.72210000  0.80250000  1.0 0.6275450856
C  C174  1  0.22210000  0.39690000  0.69750000  1.0 0.6275450856
C  C175  1  0.89690000  0.27790000  0.80250000  1.0 0.6275450856
C  C176  1  0.77790000  0.60310000  0.69750000  1.0 0.6275450856
C  C177  1  0.19750000  0.10310000  0.27790000  1.0 0.6275450856
C  C178  1  0.60310000  0.30250000  0.22210000  1.0 0.6275450856
C  C179  1  0.80250000  0.89690000  0.27790000  1.0 0.6275450856
C  C180  1  0.39690000  0.69750000  0.22210000  1.0 0.6275450856
C  C181  1  0.19750000  0.89690000  0.72210000  1.0 0.6275450856
C  C182  1  0.39690000  0.30250000  0.77790000  1.0 0.6275450856
C  C183  1  0.80250000  0.10310000  0.72210000  1.0 0.6275450856
C  C184  1  0.60310000  0.69750000  0.77790000  1.0 0.6275450856
C  C185  1  0.27790000  0.19750000  0.10310000  1.0 0.6275450856
C  C186  1  0.69750000  0.77790000  0.60310000  1.0 0.6275450856
C  C187  1  0.69750000  0.22210000  0.39690000  1.0 0.6275450856
C  C188  1  0.30250000  0.22210000  0.60310000  1.0 0.6275450856
C  C189  1  0.30250000  0.77790000  0.39690000  1.0 0.6275450856
C  C190  1  0.27790000  0.80250000  0.89690000  1.0 0.6275450856
C  C191  1  0.72210000  0.80250000  0.10310000  1.0 0.6275450856
C  C192  1  0.72210000  0.19750000  0.89690000  1.0 0.6275450856
N  N1  1  0.97650000  0.29590000  0.01420000  1.0 -0.1033398122
N  N2  1  0.79590000  0.52350000  0.48580000  1.0 -0.1033398122
N  N3  1  0.02350000  0.70410000  0.01420000  1.0 -0.1033398122
N  N4  1  0.20410000  0.47650000  0.48580000  1.0 -0.1033398122
N  N5  1  0.97650000  0.70410000  0.98580000  1.0 -0.1033398122
N  N6  1  0.20410000  0.52350000  0.51420000  1.0 -0.1033398122
N  N7  1  0.02350000  0.29590000  0.98580000  1.0 -0.1033398122
N  N8  1  0.79590000  0.47650000  0.51420000  1.0 -0.1033398122
N  N9  1  0.01420000  0.97650000  0.29590000  1.0 -0.1033398122
N  N10  1  0.47650000  0.48580000  0.20410000  1.0 -0.1033398122
N  N11  1  0.98580000  0.02350000  0.29590000  1.0 -0.1033398122
N  N12  1  0.52350000  0.51420000  0.20410000  1.0 -0.1033398122
N  N13  1  0.01420000  0.02350000  0.70410000  1.0 -0.1033398122
N  N14  1  0.52350000  0.48580000  0.79590000  1.0 -0.1033398122
N  N15  1  0.98580000  0.97650000  0.70410000  1.0 -0.1033398122
N  N16  1  0.47650000  0.51420000  0.79590000  1.0 -0.1033398122
N  N17  1  0.29590000  0.01420000  0.97650000  1.0 -0.1033398122
N  N18  1  0.51420000  0.79590000  0.47650000  1.0 -0.1033398122
N  N19  1  0.51420000  0.20410000  0.52350000  1.0 -0.1033398122
N  N20  1  0.48580000  0.20410000  0.47650000  1.0 -0.1033398122
N  N21  1  0.48580000  0.79590000  0.52350000  1.0 -0.1033398122
N  N22  1  0.29590000  0.98580000  0.02350000  1.0 -0.1033398122
N  N23  1  0.70410000  0.98580000  0.97650000  1.0 -0.1033398122
N  N24  1  0.70410000  0.01420000  0.02350000  1.0 -0.1033398122
O  O1  1  0.24150000  0.24150000  0.24150000  1.0 -1.126677829
O  O2  1  0.74150000  0.25850000  0.25850000  1.0 -1.126677829
O  O3  1  0.75850000  0.75850000  0.24150000  1.0 -1.126677829
O  O4  1  0.25850000  0.74150000  0.25850000  1.0 -1.126677829
O  O5  1  0.24150000  0.75850000  0.75850000  1.0 -1.126677829
O  O6  1  0.25850000  0.25850000  0.74150000  1.0 -1.126677829
O  O7  1  0.75850000  0.24150000  0.75850000  1.0 -1.126677829
O  O8  1  0.74150000  0.74150000  0.74150000  1.0 -1.126677829
O  O9  1  0.82760000  0.30990000  0.17790000  1.0 -0.6092043697
O  O10  1  0.80990000  0.67240000  0.32210000  1.0 -0.6092043697
O  O11  1  0.17240000  0.69010000  0.17790000  1.0 -0.6092043697
O  O12  1  0.19010000  0.32760000  0.32210000  1.0 -0.6092043697
O  O13  1  0.82760000  0.69010000  0.82210000  1.0 -0.6092043697
O  O14  1  0.19010000  0.67240000  0.67790000  1.0 -0.6092043697
O  O15  1  0.17240000  0.30990000  0.82210000  1.0 -0.6092043697
O  O16  1  0.80990000  0.32760000  0.67790000  1.0 -0.6092043697
O  O17  1  0.17790000  0.82760000  0.30990000  1.0 -0.6092043697
O  O18  1  0.32760000  0.32210000  0.19010000  1.0 -0.6092043697
O  O19  1  0.82210000  0.17240000  0.30990000  1.0 -0.6092043697
O  O20  1  0.67240000  0.67790000  0.19010000  1.0 -0.6092043697
O  O21  1  0.17790000  0.17240000  0.69010000  1.0 -0.6092043697
O  O22  1  0.67240000  0.32210000  0.80990000  1.0 -0.6092043697
O  O23  1  0.82210000  0.82760000  0.69010000  1.0 -0.6092043697
O  O24  1  0.32760000  0.67790000  0.80990000  1.0 -0.6092043697
O  O25  1  0.30990000  0.17790000  0.82760000  1.0 -0.6092043697
O  O26  1  0.67790000  0.80990000  0.32760000  1.0 -0.6092043697
O  O27  1  0.67790000  0.19010000  0.67240000  1.0 -0.6092043697
O  O28  1  0.32210000  0.19010000  0.32760000  1.0 -0.6092043697
O  O29  1  0.32210000  0.80990000  0.67240000  1.0 -0.6092043697
O  O30  1  0.30990000  0.82210000  0.17240000  1.0 -0.6092043697
O  O31  1  0.69010000  0.82210000  0.82760000  1.0 -0.6092043697
O  O32  1  0.69010000  0.17790000  0.17240000  1.0 -0.6092043697
O  O33  1  0.87390000  0.27850000  0.26330000  1.0 -0.5987354347
O  O34  1  0.77850000  0.62610000  0.23670000  1.0 -0.5987354347
O  O35  1  0.12610000  0.72150000  0.26330000  1.0 -0.5987354347
O  O36  1  0.22150000  0.37390000  0.23670000  1.0 -0.5987354347
O  O37  1  0.87390000  0.72150000  0.73670000  1.0 -0.5987354347
O  O38  1  0.22150000  0.62610000  0.76330000  1.0 -0.5987354347
O  O39  1  0.12610000  0.27850000  0.73670000  1.0 -0.5987354347
O  O40  1  0.77850000  0.37390000  0.76330000  1.0 -0.5987354347
O  O41  1  0.26330000  0.87390000  0.27850000  1.0 -0.5987354347
O  O42  1  0.37390000  0.23670000  0.22150000  1.0 -0.5987354347
O  O43  1  0.73670000  0.12610000  0.27850000  1.0 -0.5987354347
O  O44  1  0.62610000  0.76330000  0.22150000  1.0 -0.5987354347
O  O45  1  0.26330000  0.12610000  0.72150000  1.0 -0.5987354347
O  O46  1  0.62610000  0.23670000  0.77850000  1.0 -0.5987354347
O  O47  1  0.73670000  0.87390000  0.72150000  1.0 -0.5987354347
O  O48  1  0.37390000  0.76330000  0.77850000  1.0 -0.5987354347
O  O49  1  0.27850000  0.26330000  0.87390000  1.0 -0.5987354347
O  O50  1  0.76330000  0.77850000  0.37390000  1.0 -0.5987354347
O  O51  1  0.76330000  0.22150000  0.62610000  1.0 -0.5987354347
O  O52  1  0.23670000  0.22150000  0.37390000  1.0 -0.5987354347
O  O53  1  0.23670000  0.77850000  0.62610000  1.0 -0.5987354347
O  O54  1  0.27850000  0.73670000  0.12610000  1.0 -0.5987354347
O  O55  1  0.72150000  0.73670000  0.87390000  1.0 -0.5987354347
O  O56  1  0.72150000  0.26330000  0.12610000  1.0 -0.5987354347
O  O57  1  0.14890000  0.29230000  0.16610000  1.0 -0.5987354347
O  O58  1  0.79230000  0.35110000  0.33390000  1.0 -0.5987354347
O  O59  1  0.85110000  0.70770000  0.16610000  1.0 -0.5987354347
O  O60  1  0.20770000  0.64890000  0.33390000  1.0 -0.5987354347
O  O61  1  0.14890000  0.70770000  0.83390000  1.0 -0.5987354347
O  O62  1  0.20770000  0.35110000  0.66610000  1.0 -0.5987354347
O  O63  1  0.85110000  0.29230000  0.83390000  1.0 -0.5987354347
O  O64  1  0.79230000  0.64890000  0.66610000  1.0 -0.5987354347
O  O65  1  0.16610000  0.14890000  0.29230000  1.0 -0.5987354347
O  O66  1  0.64890000  0.33390000  0.20770000  1.0 -0.5987354347
O  O67  1  0.83390000  0.85110000  0.29230000  1.0 -0.5987354347
O  O68  1  0.35110000  0.66610000  0.20770000  1.0 -0.5987354347
O  O69  1  0.16610000  0.85110000  0.70770000  1.0 -0.5987354347
O  O70  1  0.35110000  0.33390000  0.79230000  1.0 -0.5987354347
O  O71  1  0.83390000  0.14890000  0.70770000  1.0 -0.5987354347
O  O72  1  0.64890000  0.66610000  0.79230000  1.0 -0.5987354347
O  O73  1  0.29230000  0.16610000  0.14890000  1.0 -0.5987354347
O  O74  1  0.66610000  0.79230000  0.64890000  1.0 -0.5987354347
O  O75  1  0.66610000  0.20770000  0.35110000  1.0 -0.5987354347
O  O76  1  0.33390000  0.20770000  0.64890000  1.0 -0.5987354347
O  O77  1  0.33390000  0.79230000  0.35110000  1.0 -0.5987354347
O  O78  1  0.29230000  0.83390000  0.85110000  1.0 -0.5987354347
O  O79  1  0.70770000  0.83390000  0.14890000  1.0 -0.5987354347
O  O80  1  0.70770000  0.16610000  0.85110000  1.0 -0.5987354347
O  O81  1  0.10520000  0.25860000  0.25170000  1.0 -0.6174007261
O  O82  1  0.75860000  0.39480000  0.24830000  1.0 -0.6174007261
O  O83  1  0.89480000  0.74140000  0.25170000  1.0 -0.6174007261
O  O84  1  0.24140000  0.60520000  0.24830000  1.0 -0.6174007261
O  O85  1  0.10520000  0.74140000  0.74830000  1.0 -0.6174007261
O  O86  1  0.24140000  0.39480000  0.75170000  1.0 -0.6174007261
O  O87  1  0.89480000  0.25860000  0.74830000  1.0 -0.6174007261
O  O88  1  0.75860000  0.60520000  0.75170000  1.0 -0.6174007261
O  O89  1  0.25170000  0.10520000  0.25860000  1.0 -0.6174007261
O  O90  1  0.60520000  0.24830000  0.24140000  1.0 -0.6174007261
O  O91  1  0.74830000  0.89480000  0.25860000  1.0 -0.6174007261
O  O92  1  0.39480000  0.75170000  0.24140000  1.0 -0.6174007261
O  O93  1  0.25170000  0.89480000  0.74140000  1.0 -0.6174007261
O  O94  1  0.39480000  0.24830000  0.75860000  1.0 -0.6174007261
O  O95  1  0.74830000  0.10520000  0.74140000  1.0 -0.6174007261
O  O96  1  0.60520000  0.75170000  0.75860000  1.0 -0.6174007261
O  O97  1  0.25860000  0.25170000  0.10520000  1.0 -0.6174007261
O  O98  1  0.75170000  0.75860000  0.60520000  1.0 -0.6174007261
O  O99  1  0.75170000  0.24140000  0.39480000  1.0 -0.6174007261
O  O100  1  0.24830000  0.24140000  0.60520000  1.0 -0.6174007261
O  O101  1  0.24830000  0.75860000  0.39480000  1.0 -0.6174007261
O  O102  1  0.25860000  0.74830000  0.89480000  1.0 -0.6174007261
O  O103  1  0.74140000  0.74830000  0.10520000  1.0 -0.6174007261
O  O104  1  0.74140000  0.25170000  0.89480000  1.0 -0.6174007261
