# DDEC6 charges by PACMAN v1.1 (https://github.com/mtap-research/PACMAN-charge/)
data_VALWUD_ASR_pacman
_symmetry_space_group_name_H-M   'P 1'
_cell_length_a   22.29730000
_cell_length_b   22.29730000
_cell_length_c   22.29730000
_cell_angle_alpha   90.00000000
_cell_angle_beta   90.00000000
_cell_angle_gamma   90.00000000
_symmetry_Int_Tables_number   1
_chemical_formula_structural   Co3H9C24N3O13
_chemical_formula_sum   'Co24 H72 C192 N24 O104'
_cell_volume   11085.53943868
_cell_formula_units_Z   8
loop_
 _symmetry_equiv_pos_site_id
 _symmetry_equiv_pos_as_xyz
  1  'x, y, z'
loop_
 _atom_site_type_symbol
 _atom_site_label
 _atom_site_symmetry_multiplicity
 _atom_site_fract_x
 _atom_site_fract_y
 _atom_site_fract_z
 _atom_site_occupancy
 _atom_site_charge
Co  Co1  1  0.32314000  0.26014000  0.80824000  1.0 1.1539715437
Co  Co2  1  0.67686000  0.73986000  0.80824000  1.0 1.1539715437
Co  Co3  1  0.67686000  0.26014000  0.19176000  1.0 1.1539715437
Co  Co4  1  0.32314000  0.73986000  0.19176000  1.0 1.1539715437
Co  Co5  1  0.80824000  0.32314000  0.26014000  1.0 1.1539715437
Co  Co6  1  0.80824000  0.67686000  0.73986000  1.0 1.1539715437
Co  Co7  1  0.19176000  0.67686000  0.26014000  1.0 1.1539715437
Co  Co8  1  0.19176000  0.32314000  0.73986000  1.0 1.1539715437
Co  Co9  1  0.26014000  0.80824000  0.32314000  1.0 1.1539715437
Co  Co10  1  0.73986000  0.80824000  0.67686000  1.0 1.1539715437
Co  Co11  1  0.26014000  0.19176000  0.67686000  1.0 1.1539715437
Co  Co12  1  0.73986000  0.19176000  0.32314000  1.0 1.1539715437
Co  Co13  1  0.76014000  0.82314000  0.30824000  1.0 1.1539715437
Co  Co14  1  0.23986000  0.17686000  0.30824000  1.0 1.1539715437
Co  Co15  1  0.76014000  0.17686000  0.69176000  1.0 1.1539715437
Co  Co16  1  0.23986000  0.82314000  0.69176000  1.0 1.1539715437
Co  Co17  1  0.82314000  0.30824000  0.76014000  1.0 1.1539715437
Co  Co18  1  0.17686000  0.30824000  0.23986000  1.0 1.1539715437
Co  Co19  1  0.17686000  0.69176000  0.76014000  1.0 1.1539715437
Co  Co20  1  0.82314000  0.69176000  0.23986000  1.0 1.1539715437
Co  Co21  1  0.30824000  0.76014000  0.82314000  1.0 1.1539715437
Co  Co22  1  0.30824000  0.23986000  0.17686000  1.0 1.1539715437
Co  Co23  1  0.69176000  0.76014000  0.17686000  1.0 1.1539715437
Co  Co24  1  0.69176000  0.23986000  0.82314000  1.0 1.1539715437
H  H1  1  0.24210000  0.28140000  0.99180000  1.0 0.1313902097
H  H2  1  0.75790000  0.71860000  0.99180000  1.0 0.1313902097
H  H3  1  0.75790000  0.28140000  0.00820000  1.0 0.1313902097
H  H4  1  0.24210000  0.71860000  0.00820000  1.0 0.1313902097
H  H5  1  0.99180000  0.24210000  0.28140000  1.0 0.1313902097
H  H6  1  0.99180000  0.75790000  0.71860000  1.0 0.1313902097
H  H7  1  0.00820000  0.75790000  0.28140000  1.0 0.1313902097
H  H8  1  0.00820000  0.24210000  0.71860000  1.0 0.1313902097
H  H9  1  0.28140000  0.99180000  0.24210000  1.0 0.1313902097
H  H10  1  0.71860000  0.99180000  0.75790000  1.0 0.1313902097
H  H11  1  0.28140000  0.00820000  0.75790000  1.0 0.1313902097
H  H12  1  0.71860000  0.00820000  0.24210000  1.0 0.1313902097
H  H13  1  0.78140000  0.74210000  0.49180000  1.0 0.1313902097
H  H14  1  0.21860000  0.25790000  0.49180000  1.0 0.1313902097
H  H15  1  0.78140000  0.25790000  0.50820000  1.0 0.1313902097
H  H16  1  0.21860000  0.74210000  0.50820000  1.0 0.1313902097
H  H17  1  0.74210000  0.49180000  0.78140000  1.0 0.1313902097
H  H18  1  0.25790000  0.49180000  0.21860000  1.0 0.1313902097
H  H19  1  0.25790000  0.50820000  0.78140000  1.0 0.1313902097
H  H20  1  0.74210000  0.50820000  0.21860000  1.0 0.1313902097
H  H21  1  0.49180000  0.78140000  0.74210000  1.0 0.1313902097
H  H22  1  0.49180000  0.21860000  0.25790000  1.0 0.1313902097
H  H23  1  0.50820000  0.78140000  0.25790000  1.0 0.1313902097
H  H24  1  0.50820000  0.21860000  0.74210000  1.0 0.1313902097
H  H25  1  0.09180000  0.29870000  0.89480000  1.0 0.1313902097
H  H26  1  0.90820000  0.70130000  0.89480000  1.0 0.1313902097
H  H27  1  0.90820000  0.29870000  0.10520000  1.0 0.1313902097
H  H28  1  0.09180000  0.70130000  0.10520000  1.0 0.1313902097
H  H29  1  0.89480000  0.09180000  0.29870000  1.0 0.1313902097
H  H30  1  0.89480000  0.90820000  0.70130000  1.0 0.1313902097
H  H31  1  0.10520000  0.90820000  0.29870000  1.0 0.1313902097
H  H32  1  0.10520000  0.09180000  0.70130000  1.0 0.1313902097
H  H33  1  0.29870000  0.89480000  0.09180000  1.0 0.1313902097
H  H34  1  0.70130000  0.89480000  0.90820000  1.0 0.1313902097
H  H35  1  0.29870000  0.10520000  0.90820000  1.0 0.1313902097
H  H36  1  0.70130000  0.10520000  0.09180000  1.0 0.1313902097
H  H37  1  0.79870000  0.59180000  0.39480000  1.0 0.1313902097
H  H38  1  0.20130000  0.40820000  0.39480000  1.0 0.1313902097
H  H39  1  0.79870000  0.40820000  0.60520000  1.0 0.1313902097
H  H40  1  0.20130000  0.59180000  0.60520000  1.0 0.1313902097
H  H41  1  0.59180000  0.39480000  0.79870000  1.0 0.1313902097
H  H42  1  0.40820000  0.39480000  0.20130000  1.0 0.1313902097
H  H43  1  0.40820000  0.60520000  0.79870000  1.0 0.1313902097
H  H44  1  0.59180000  0.60520000  0.20130000  1.0 0.1313902097
H  H45  1  0.39480000  0.79870000  0.59180000  1.0 0.1313902097
H  H46  1  0.39480000  0.20130000  0.40820000  1.0 0.1313902097
H  H47  1  0.60520000  0.79870000  0.40820000  1.0 0.1313902097
H  H48  1  0.60520000  0.20130000  0.59180000  1.0 0.1313902097
H  H49  1  0.08380000  0.28850000  0.07460000  1.0 0.1313902097
H  H50  1  0.91620000  0.71150000  0.07460000  1.0 0.1313902097
H  H51  1  0.91620000  0.28850000  0.92540000  1.0 0.1313902097
H  H52  1  0.08380000  0.71150000  0.92540000  1.0 0.1313902097
H  H53  1  0.07460000  0.08380000  0.28850000  1.0 0.1313902097
H  H54  1  0.07460000  0.91620000  0.71150000  1.0 0.1313902097
H  H55  1  0.92540000  0.91620000  0.28850000  1.0 0.1313902097
H  H56  1  0.92540000  0.08380000  0.71150000  1.0 0.1313902097
H  H57  1  0.28850000  0.07460000  0.08380000  1.0 0.1313902097
H  H58  1  0.71150000  0.07460000  0.91620000  1.0 0.1313902097
H  H59  1  0.28850000  0.92540000  0.91620000  1.0 0.1313902097
H  H60  1  0.71150000  0.92540000  0.08380000  1.0 0.1313902097
H  H61  1  0.78850000  0.58380000  0.57460000  1.0 0.1313902097
H  H62  1  0.21150000  0.41620000  0.57460000  1.0 0.1313902097
H  H63  1  0.78850000  0.41620000  0.42540000  1.0 0.1313902097
H  H64  1  0.21150000  0.58380000  0.42540000  1.0 0.1313902097
H  H65  1  0.58380000  0.57460000  0.78850000  1.0 0.1313902097
H  H66  1  0.41620000  0.57460000  0.21150000  1.0 0.1313902097
H  H67  1  0.41620000  0.42540000  0.78850000  1.0 0.1313902097
H  H68  1  0.58380000  0.42540000  0.21150000  1.0 0.1313902097
H  H69  1  0.57460000  0.78850000  0.58380000  1.0 0.1313902097
H  H70  1  0.57460000  0.21150000  0.41620000  1.0 0.1313902097
H  H71  1  0.42540000  0.78850000  0.41620000  1.0 0.1313902097
H  H72  1  0.42540000  0.21150000  0.58380000  1.0 0.1313902097
C  C1  1  0.20690000  0.29216000  0.87599000  1.0 0.5882741988
C  C2  1  0.79310000  0.70784000  0.87599000  1.0 0.5882741988
C  C3  1  0.79310000  0.29216000  0.12401000  1.0 0.5882741988
C  C4  1  0.20690000  0.70784000  0.12401000  1.0 0.5882741988
C  C5  1  0.87599000  0.20690000  0.29216000  1.0 0.5882741988
C  C6  1  0.87599000  0.79310000  0.70784000  1.0 0.5882741988
C  C7  1  0.12401000  0.79310000  0.29216000  1.0 0.5882741988
C  C8  1  0.12401000  0.20690000  0.70784000  1.0 0.5882741988
C  C9  1  0.29216000  0.87599000  0.20690000  1.0 0.5882741988
C  C10  1  0.70784000  0.87599000  0.79310000  1.0 0.5882741988
C  C11  1  0.29216000  0.12401000  0.79310000  1.0 0.5882741988
C  C12  1  0.70784000  0.12401000  0.20690000  1.0 0.5882741988
C  C13  1  0.79216000  0.70690000  0.37599000  1.0 0.5882741988
C  C14  1  0.20784000  0.29310000  0.37599000  1.0 0.5882741988
C  C15  1  0.79216000  0.29310000  0.62401000  1.0 0.5882741988
C  C16  1  0.20784000  0.70690000  0.62401000  1.0 0.5882741988
C  C17  1  0.70690000  0.37599000  0.79216000  1.0 0.5882741988
C  C18  1  0.29310000  0.37599000  0.20784000  1.0 0.5882741988
C  C19  1  0.29310000  0.62401000  0.79216000  1.0 0.5882741988
C  C20  1  0.70690000  0.62401000  0.20784000  1.0 0.5882741988
C  C21  1  0.37599000  0.79216000  0.70690000  1.0 0.5882741988
C  C22  1  0.37599000  0.20784000  0.29310000  1.0 0.5882741988
C  C23  1  0.62401000  0.79216000  0.29310000  1.0 0.5882741988
C  C24  1  0.62401000  0.20784000  0.70690000  1.0 0.5882741988
C  C25  1  0.17299000  0.29098000  0.93444000  1.0 0.006884334
C  C26  1  0.82701000  0.70902000  0.93444000  1.0 0.006884334
C  C27  1  0.82701000  0.29098000  0.06556000  1.0 0.006884334
C  C28  1  0.17299000  0.70902000  0.06556000  1.0 0.0045034216
C  C29  1  0.93444000  0.17299000  0.29098000  1.0 0.006884334
C  C30  1  0.93444000  0.82701000  0.70902000  1.0 0.006884334
C  C31  1  0.06556000  0.82701000  0.29098000  1.0 0.0045034216
C  C32  1  0.06556000  0.17299000  0.70902000  1.0 0.006884334
C  C33  1  0.29098000  0.93444000  0.17299000  1.0 0.0045034216
C  C34  1  0.70902000  0.93444000  0.82701000  1.0 0.006884334
C  C35  1  0.29098000  0.06556000  0.82701000  1.0 0.006884334
C  C36  1  0.70902000  0.06556000  0.17299000  1.0 0.006884334
C  C37  1  0.79098000  0.67299000  0.43444000  1.0 0.006884334
C  C38  1  0.20902000  0.32701000  0.43444000  1.0 0.006884334
C  C39  1  0.79098000  0.32701000  0.56556000  1.0 0.006884334
C  C40  1  0.20902000  0.67299000  0.56556000  1.0 0.0045034216
C  C41  1  0.67299000  0.43444000  0.79098000  1.0 0.006884334
C  C42  1  0.32701000  0.43444000  0.20902000  1.0 0.006884334
C  C43  1  0.32701000  0.56556000  0.79098000  1.0 0.006884334
C  C44  1  0.67299000  0.56556000  0.20902000  1.0 0.006884334
C  C45  1  0.43444000  0.79098000  0.67299000  1.0 0.006884334
C  C46  1  0.43444000  0.20902000  0.32701000  1.0 0.006884334
C  C47  1  0.56556000  0.79098000  0.32701000  1.0 0.006884334
C  C48  1  0.56556000  0.20902000  0.67299000  1.0 0.006884334
C  C49  1  0.20060000  0.28532000  0.98983000  1.0 -0.0917817145
C  C50  1  0.79940000  0.71468000  0.98983000  1.0 -0.0917817145
C  C51  1  0.79940000  0.28532000  0.01017000  1.0 -0.0917817145
C  C52  1  0.20060000  0.71468000  0.01017000  1.0 -0.0917817145
C  C53  1  0.98983000  0.20060000  0.28532000  1.0 -0.0917817145
C  C54  1  0.98983000  0.79940000  0.71468000  1.0 -0.0917817145
C  C55  1  0.01017000  0.79940000  0.28532000  1.0 -0.0917817145
C  C56  1  0.01017000  0.20060000  0.71468000  1.0 -0.0917817145
C  C57  1  0.28532000  0.98983000  0.20060000  1.0 -0.0917817145
C  C58  1  0.71468000  0.98983000  0.79940000  1.0 -0.0917817145
C  C59  1  0.28532000  0.01017000  0.79940000  1.0 -0.0917817145
C  C60  1  0.71468000  0.01017000  0.20060000  1.0 -0.0917817145
C  C61  1  0.78532000  0.70060000  0.48983000  1.0 -0.0917817145
C  C62  1  0.21468000  0.29940000  0.48983000  1.0 -0.0917817145
C  C63  1  0.78532000  0.29940000  0.51017000  1.0 -0.0917817145
C  C64  1  0.21468000  0.70060000  0.51017000  1.0 -0.0917817145
C  C65  1  0.70060000  0.48983000  0.78532000  1.0 -0.0917817145
C  C66  1  0.29940000  0.48983000  0.21468000  1.0 -0.0917817145
C  C67  1  0.29940000  0.51017000  0.78532000  1.0 -0.0917817145
C  C68  1  0.70060000  0.51017000  0.21468000  1.0 -0.0917817145
C  C69  1  0.48983000  0.78532000  0.70060000  1.0 -0.0917817145
C  C70  1  0.48983000  0.21468000  0.29940000  1.0 -0.0917817145
C  C71  1  0.51017000  0.78532000  0.29940000  1.0 -0.0917817145
C  C72  1  0.51017000  0.21468000  0.70060000  1.0 -0.0917817145
C  C73  1  0.11104000  0.29521000  0.93164000  1.0 -0.1494145473
C  C74  1  0.88896000  0.70479000  0.93164000  1.0 -0.1494145473
C  C75  1  0.88896000  0.29521000  0.06836000  1.0 -0.1494145473
C  C76  1  0.11104000  0.70479000  0.06836000  1.0 -0.1494145473
C  C77  1  0.93164000  0.11104000  0.29521000  1.0 -0.1494145473
C  C78  1  0.93164000  0.88896000  0.70479000  1.0 -0.1494145473
C  C79  1  0.06836000  0.88896000  0.29521000  1.0 -0.1494145473
C  C80  1  0.06836000  0.11104000  0.70479000  1.0 -0.1494145473
C  C81  1  0.29521000  0.93164000  0.11104000  1.0 -0.1494145473
C  C82  1  0.70479000  0.93164000  0.88896000  1.0 -0.1494145473
C  C83  1  0.29521000  0.06836000  0.88896000  1.0 -0.1494145473
C  C84  1  0.70479000  0.06836000  0.11104000  1.0 -0.1494145473
C  C85  1  0.79521000  0.61104000  0.43164000  1.0 -0.1494145473
C  C86  1  0.20479000  0.38896000  0.43164000  1.0 -0.1494145473
C  C87  1  0.79521000  0.38896000  0.56836000  1.0 -0.1494145473
C  C88  1  0.20479000  0.61104000  0.56836000  1.0 -0.1494145473
C  C89  1  0.61104000  0.43164000  0.79521000  1.0 -0.1494145473
C  C90  1  0.38896000  0.43164000  0.20479000  1.0 -0.1494145473
C  C91  1  0.38896000  0.56836000  0.79521000  1.0 -0.1494145473
C  C92  1  0.61104000  0.56836000  0.20479000  1.0 -0.1494145473
C  C93  1  0.43164000  0.79521000  0.61104000  1.0 -0.1494145473
C  C94  1  0.43164000  0.20479000  0.38896000  1.0 -0.1494145473
C  C95  1  0.56836000  0.79521000  0.38896000  1.0 -0.1494145473
C  C96  1  0.56836000  0.20479000  0.61104000  1.0 -0.1494145473
C  C97  1  0.16747000  0.28544000  0.04227000  1.0 0.006884334
C  C98  1  0.83253000  0.71456000  0.04227000  1.0 0.0153343396
C  C99  1  0.83253000  0.28544000  0.95773000  1.0 0.0153343396
C  C100  1  0.16747000  0.71456000  0.95773000  1.0 0.0153343396
C  C101  1  0.04227000  0.16747000  0.28544000  1.0 0.006884334
C  C102  1  0.04227000  0.83253000  0.71456000  1.0 0.006884334
C  C103  1  0.95773000  0.83253000  0.28544000  1.0 0.0153343396
C  C104  1  0.95773000  0.16747000  0.71456000  1.0 0.0153343396
C  C105  1  0.28544000  0.04227000  0.16747000  1.0 0.006884334
C  C106  1  0.71456000  0.04227000  0.83253000  1.0 0.0153343396
C  C107  1  0.28544000  0.95773000  0.83253000  1.0 0.0153343396
C  C108  1  0.71456000  0.95773000  0.16747000  1.0 0.0153343396
C  C109  1  0.78544000  0.66747000  0.54227000  1.0 0.0153343396
C  C110  1  0.21456000  0.33253000  0.54227000  1.0 0.0153343396
C  C111  1  0.78544000  0.33253000  0.45773000  1.0 0.0153343396
C  C112  1  0.21456000  0.66747000  0.45773000  1.0 0.0153343396
C  C113  1  0.66747000  0.54227000  0.78544000  1.0 0.0153343396
C  C114  1  0.33253000  0.54227000  0.21456000  1.0 0.006884334
C  C115  1  0.33253000  0.45773000  0.78544000  1.0 0.0153343396
C  C116  1  0.66747000  0.45773000  0.21456000  1.0 0.0153343396
C  C117  1  0.54227000  0.78544000  0.66747000  1.0 0.0153343396
C  C118  1  0.54227000  0.21456000  0.33253000  1.0 0.0153343396
C  C119  1  0.45773000  0.78544000  0.33253000  1.0 0.0153343396
C  C120  1  0.45773000  0.21456000  0.66747000  1.0 0.0153343396
C  C121  1  0.07784000  0.29420000  0.98446000  1.0 0.1495065473
C  C122  1  0.92216000  0.70580000  0.98446000  1.0 0.1495065473
C  C123  1  0.92216000  0.29420000  0.01554000  1.0 0.1495065473
C  C124  1  0.07784000  0.70580000  0.01554000  1.0 0.1495065473
C  C125  1  0.98446000  0.07784000  0.29420000  1.0 0.1495065473
C  C126  1  0.98446000  0.92216000  0.70580000  1.0 0.1495065473
C  C127  1  0.01554000  0.92216000  0.29420000  1.0 0.1495065473
C  C128  1  0.01554000  0.07784000  0.70580000  1.0 0.1495065473
C  C129  1  0.29420000  0.98446000  0.07784000  1.0 0.1495065473
C  C130  1  0.70580000  0.98446000  0.92216000  1.0 0.1495065473
C  C131  1  0.29420000  0.01554000  0.92216000  1.0 0.1495065473
C  C132  1  0.70580000  0.01554000  0.07784000  1.0 0.1495065473
C  C133  1  0.79420000  0.57784000  0.48446000  1.0 0.1495065473
C  C134  1  0.20580000  0.42216000  0.48446000  1.0 0.1495065473
C  C135  1  0.79420000  0.42216000  0.51554000  1.0 0.1495065473
C  C136  1  0.20580000  0.57784000  0.51554000  1.0 0.1495065473
C  C137  1  0.57784000  0.48446000  0.79420000  1.0 0.1495065473
C  C138  1  0.42216000  0.48446000  0.20580000  1.0 0.1495065473
C  C139  1  0.42216000  0.51554000  0.79420000  1.0 0.1495065473
C  C140  1  0.57784000  0.51554000  0.20580000  1.0 0.1495065473
C  C141  1  0.48446000  0.79420000  0.57784000  1.0 0.1495065473
C  C142  1  0.48446000  0.20580000  0.42216000  1.0 0.1495065473
C  C143  1  0.51554000  0.79420000  0.42216000  1.0 0.1495065473
C  C144  1  0.51554000  0.20580000  0.57784000  1.0 0.1495065473
C  C145  1  0.19663000  0.27921000  0.10443000  1.0 0.5882741988
C  C146  1  0.80337000  0.72079000  0.10443000  1.0 0.5882741988
C  C147  1  0.80337000  0.27921000  0.89557000  1.0 0.5845780281
C  C148  1  0.19663000  0.72079000  0.89557000  1.0 0.5882741988
C  C149  1  0.10443000  0.19663000  0.27921000  1.0 0.5882741988
C  C150  1  0.10443000  0.80337000  0.72079000  1.0 0.5882741988
C  C151  1  0.89557000  0.80337000  0.27921000  1.0 0.5882741988
C  C152  1  0.89557000  0.19663000  0.72079000  1.0 0.5845780281
C  C153  1  0.27921000  0.10443000  0.19663000  1.0 0.5882741988
C  C154  1  0.72079000  0.10443000  0.80337000  1.0 0.5882741988
C  C155  1  0.27921000  0.89557000  0.80337000  1.0 0.5882741988
C  C156  1  0.72079000  0.89557000  0.19663000  1.0 0.5882741988
C  C157  1  0.77921000  0.69663000  0.60443000  1.0 0.5882741988
C  C158  1  0.22079000  0.30337000  0.60443000  1.0 0.5882741988
C  C159  1  0.77921000  0.30337000  0.39557000  1.0 0.5845780281
C  C160  1  0.22079000  0.69663000  0.39557000  1.0 0.5882741988
C  C161  1  0.69663000  0.60443000  0.77921000  1.0 0.5882741988
C  C162  1  0.30337000  0.60443000  0.22079000  1.0 0.5882741988
C  C163  1  0.30337000  0.39557000  0.77921000  1.0 0.5882741988
C  C164  1  0.69663000  0.39557000  0.22079000  1.0 0.5882741988
C  C165  1  0.60443000  0.77921000  0.69663000  1.0 0.5882741988
C  C166  1  0.60443000  0.22079000  0.30337000  1.0 0.5845780281
C  C167  1  0.39557000  0.77921000  0.30337000  1.0 0.5882741988
C  C168  1  0.39557000  0.22079000  0.69663000  1.0 0.5882741988
C  C169  1  0.10635000  0.28926000  0.03947000  1.0 -0.1494145473
C  C170  1  0.89365000  0.71074000  0.03947000  1.0 -0.1494145473
C  C171  1  0.89365000  0.28926000  0.96053000  1.0 -0.1494145473
C  C172  1  0.10635000  0.71074000  0.96053000  1.0 -0.1494145473
C  C173  1  0.03947000  0.10635000  0.28926000  1.0 -0.1494145473
C  C174  1  0.03947000  0.89365000  0.71074000  1.0 -0.1494145473
C  C175  1  0.96053000  0.89365000  0.28926000  1.0 -0.1494145473
C  C176  1  0.96053000  0.10635000  0.71074000  1.0 -0.1494145473
C  C177  1  0.28926000  0.03947000  0.10635000  1.0 -0.1494145473
C  C178  1  0.71074000  0.03947000  0.89365000  1.0 -0.1494145473
C  C179  1  0.28926000  0.96053000  0.89365000  1.0 -0.1494145473
C  C180  1  0.71074000  0.96053000  0.10635000  1.0 -0.1494145473
C  C181  1  0.78926000  0.60635000  0.53947000  1.0 -0.1494145473
C  C182  1  0.21074000  0.39365000  0.53947000  1.0 -0.1494145473
C  C183  1  0.78926000  0.39365000  0.46053000  1.0 -0.1494145473
C  C184  1  0.21074000  0.60635000  0.46053000  1.0 -0.1494145473
C  C185  1  0.60635000  0.53947000  0.78926000  1.0 -0.1494145473
C  C186  1  0.39365000  0.53947000  0.21074000  1.0 -0.1494145473
C  C187  1  0.39365000  0.46053000  0.78926000  1.0 -0.1494145473
C  C188  1  0.60635000  0.46053000  0.21074000  1.0 -0.1494145473
C  C189  1  0.53947000  0.78926000  0.60635000  1.0 -0.1494145473
C  C190  1  0.53947000  0.21074000  0.39365000  1.0 -0.1494145473
C  C191  1  0.46053000  0.78926000  0.39365000  1.0 -0.1494145473
C  C192  1  0.46053000  0.21074000  0.60635000  1.0 -0.1494145473
N  N1  1  0.01357000  0.29611000  0.97701000  1.0 -0.1031429956
N  N2  1  0.98643000  0.70389000  0.97701000  1.0 -0.1031429956
N  N3  1  0.98643000  0.29611000  0.02299000  1.0 -0.1031429956
N  N4  1  0.01357000  0.70389000  0.02299000  1.0 -0.1031429956
N  N5  1  0.97701000  0.01357000  0.29611000  1.0 -0.1031429956
N  N6  1  0.97701000  0.98643000  0.70389000  1.0 -0.1031429956
N  N7  1  0.02299000  0.98643000  0.29611000  1.0 -0.1031429956
N  N8  1  0.02299000  0.01357000  0.70389000  1.0 -0.1031429956
N  N9  1  0.29611000  0.97701000  0.01357000  1.0 -0.1031429956
N  N10  1  0.70389000  0.97701000  0.98643000  1.0 -0.1031429956
N  N11  1  0.29611000  0.02299000  0.98643000  1.0 -0.1031429956
N  N12  1  0.70389000  0.02299000  0.01357000  1.0 -0.1031429956
N  N13  1  0.79611000  0.51357000  0.47701000  1.0 -0.1031429956
N  N14  1  0.20389000  0.48643000  0.47701000  1.0 -0.1031429956
N  N15  1  0.79611000  0.48643000  0.52299000  1.0 -0.1031429956
N  N16  1  0.20389000  0.51357000  0.52299000  1.0 -0.1031429956
N  N17  1  0.51357000  0.47701000  0.79611000  1.0 -0.1031429956
N  N18  1  0.48643000  0.47701000  0.20389000  1.0 -0.1031429956
N  N19  1  0.48643000  0.52299000  0.79611000  1.0 -0.1031429956
N  N20  1  0.51357000  0.52299000  0.20389000  1.0 -0.1031429956
N  N21  1  0.47701000  0.79611000  0.51357000  1.0 -0.1031429956
N  N22  1  0.47701000  0.20389000  0.48643000  1.0 -0.1031429956
N  N23  1  0.52299000  0.79611000  0.48643000  1.0 -0.1031429956
N  N24  1  0.52299000  0.20389000  0.51357000  1.0 -0.1031429956
O  O1  1  0.26355000  0.26355000  0.73645000  1.0 -0.8577960226
O  O2  1  0.73645000  0.73645000  0.73645000  1.0 -0.8577960226
O  O3  1  0.73645000  0.26355000  0.26355000  1.0 -0.8577960226
O  O4  1  0.26355000  0.73645000  0.26355000  1.0 -0.8577960226
O  O5  1  0.76355000  0.76355000  0.23645000  1.0 -0.8577960226
O  O6  1  0.23645000  0.23645000  0.23645000  1.0 -0.8577960226
O  O7  1  0.76355000  0.23645000  0.76355000  1.0 -0.8577960226
O  O8  1  0.23645000  0.76355000  0.76355000  1.0 -0.8577960226
O  O9  1  0.26171000  0.28075000  0.87842000  1.0 -0.5301816332
O  O10  1  0.73829000  0.71925000  0.87842000  1.0 -0.5301816332
O  O11  1  0.73829000  0.28075000  0.12158000  1.0 -0.5301816332
O  O12  1  0.26171000  0.71925000  0.12158000  1.0 -0.5301816332
O  O13  1  0.87842000  0.26171000  0.28075000  1.0 -0.5301816332
O  O14  1  0.87842000  0.73829000  0.71925000  1.0 -0.5301816332
O  O15  1  0.12158000  0.73829000  0.28075000  1.0 -0.5301816332
O  O16  1  0.12158000  0.26171000  0.71925000  1.0 -0.5301816332
O  O17  1  0.28075000  0.87842000  0.26171000  1.0 -0.5301816332
O  O18  1  0.71925000  0.87842000  0.73829000  1.0 -0.5301816332
O  O19  1  0.28075000  0.12158000  0.73829000  1.0 -0.5301816332
O  O20  1  0.71925000  0.12158000  0.26171000  1.0 -0.5301816332
O  O21  1  0.78075000  0.76171000  0.37842000  1.0 -0.5301816332
O  O22  1  0.21925000  0.23829000  0.37842000  1.0 -0.5301816332
O  O23  1  0.78075000  0.23829000  0.62158000  1.0 -0.5301816332
O  O24  1  0.21925000  0.76171000  0.62158000  1.0 -0.5301816332
O  O25  1  0.76171000  0.37842000  0.78075000  1.0 -0.5301816332
O  O26  1  0.23829000  0.37842000  0.21925000  1.0 -0.5301816332
O  O27  1  0.23829000  0.62158000  0.78075000  1.0 -0.5301816332
O  O28  1  0.76171000  0.62158000  0.21925000  1.0 -0.5301816332
O  O29  1  0.37842000  0.78075000  0.76171000  1.0 -0.5301816332
O  O30  1  0.37842000  0.21925000  0.23829000  1.0 -0.5301816332
O  O31  1  0.62158000  0.78075000  0.23829000  1.0 -0.5301816332
O  O32  1  0.62158000  0.21925000  0.76171000  1.0 -0.5301816332
O  O33  1  0.17627000  0.30401000  0.82998000  1.0 -0.5464638961
O  O34  1  0.82373000  0.69599000  0.82998000  1.0 -0.5464638961
O  O35  1  0.82373000  0.30401000  0.17002000  1.0 -0.5464638961
O  O36  1  0.17627000  0.69599000  0.17002000  1.0 -0.5464638961
O  O37  1  0.82998000  0.17627000  0.30401000  1.0 -0.5464638961
O  O38  1  0.82998000  0.82373000  0.69599000  1.0 -0.5464638961
O  O39  1  0.17002000  0.82373000  0.30401000  1.0 -0.5464638961
O  O40  1  0.17002000  0.17627000  0.69599000  1.0 -0.5464638961
O  O41  1  0.30401000  0.82998000  0.17627000  1.0 -0.5464638961
O  O42  1  0.69599000  0.82998000  0.82373000  1.0 -0.5464638961
O  O43  1  0.30401000  0.17002000  0.82373000  1.0 -0.5464638961
O  O44  1  0.69599000  0.17002000  0.17627000  1.0 -0.5464638961
O  O45  1  0.80401000  0.67627000  0.32998000  1.0 -0.5464638961
O  O46  1  0.19599000  0.32373000  0.32998000  1.0 -0.5464638961
O  O47  1  0.80401000  0.32373000  0.67002000  1.0 -0.5464638961
O  O48  1  0.19599000  0.67627000  0.67002000  1.0 -0.5464638961
O  O49  1  0.67627000  0.32998000  0.80401000  1.0 -0.5464638961
O  O50  1  0.32373000  0.32998000  0.19599000  1.0 -0.5464638961
O  O51  1  0.32373000  0.67002000  0.80401000  1.0 -0.5464638961
O  O52  1  0.67627000  0.67002000  0.19599000  1.0 -0.5464638961
O  O53  1  0.32998000  0.80401000  0.67627000  1.0 -0.5464638961
O  O54  1  0.32998000  0.19599000  0.32373000  1.0 -0.5464638961
O  O55  1  0.67002000  0.80401000  0.32373000  1.0 -0.5464638961
O  O56  1  0.67002000  0.19599000  0.67627000  1.0 -0.5464638961
O  O57  1  0.20853000  0.33704000  0.64759000  1.0 -0.5186555924
O  O58  1  0.79147000  0.66296000  0.64759000  1.0 -0.5186555924
O  O59  1  0.79147000  0.33704000  0.35241000  1.0 -0.5186555924
O  O60  1  0.20853000  0.66296000  0.35241000  1.0 -0.5186555924
O  O61  1  0.64759000  0.20853000  0.33704000  1.0 -0.5186555924
O  O62  1  0.64759000  0.79147000  0.66296000  1.0 -0.5186555924
O  O63  1  0.35241000  0.79147000  0.33704000  1.0 -0.5186555924
O  O64  1  0.35241000  0.20853000  0.66296000  1.0 -0.5186555924
O  O65  1  0.33704000  0.64759000  0.20853000  1.0 -0.5186555924
O  O66  1  0.66296000  0.64759000  0.79147000  1.0 -0.5186555924
O  O67  1  0.33704000  0.35241000  0.79147000  1.0 -0.5186555924
O  O68  1  0.66296000  0.35241000  0.20853000  1.0 -0.5186555924
O  O69  1  0.83704000  0.70853000  0.14759000  1.0 -0.5186555924
O  O70  1  0.16296000  0.29147000  0.14759000  1.0 -0.5186555924
O  O71  1  0.83704000  0.29147000  0.85241000  1.0 -0.5186555924
O  O72  1  0.16296000  0.70853000  0.85241000  1.0 -0.5186555924
O  O73  1  0.70853000  0.14759000  0.83704000  1.0 -0.5186555924
O  O74  1  0.29147000  0.14759000  0.16296000  1.0 -0.5186555924
O  O75  1  0.29147000  0.85241000  0.83704000  1.0 -0.5186555924
O  O76  1  0.70853000  0.85241000  0.16296000  1.0 -0.5186555924
O  O77  1  0.14759000  0.83704000  0.70853000  1.0 -0.5186555924
O  O78  1  0.14759000  0.16296000  0.29147000  1.0 -0.5186555924
O  O79  1  0.85241000  0.83704000  0.29147000  1.0 -0.5186555924
O  O80  1  0.85241000  0.16296000  0.70853000  1.0 -0.5186555924
O  O81  1  0.25030000  0.39465000  0.76294000  1.0 -0.5186555924
O  O82  1  0.74970000  0.60535000  0.76294000  1.0 -0.5186555924
O  O83  1  0.74970000  0.39465000  0.23706000  1.0 -0.5186555924
O  O84  1  0.25030000  0.60535000  0.23706000  1.0 -0.5186555924
O  O85  1  0.76294000  0.25030000  0.39465000  1.0 -0.5186555924
O  O86  1  0.76294000  0.74970000  0.60535000  1.0 -0.5186555924
O  O87  1  0.23706000  0.74970000  0.39465000  1.0 -0.5186555924
O  O88  1  0.23706000  0.25030000  0.60535000  1.0 -0.5186555924
O  O89  1  0.39465000  0.76294000  0.25030000  1.0 -0.5186555924
O  O90  1  0.60535000  0.76294000  0.74970000  1.0 -0.5186555924
O  O91  1  0.39465000  0.23706000  0.74970000  1.0 -0.5186555924
O  O92  1  0.60535000  0.23706000  0.25030000  1.0 -0.5186555924
O  O93  1  0.89465000  0.75030000  0.26294000  1.0 -0.5186555924
O  O94  1  0.10535000  0.24970000  0.26294000  1.0 -0.5186555924
O  O95  1  0.89465000  0.24970000  0.73706000  1.0 -0.5186555924
O  O96  1  0.10535000  0.75030000  0.73706000  1.0 -0.5186555924
O  O97  1  0.75030000  0.26294000  0.89465000  1.0 -0.5186555924
O  O98  1  0.24970000  0.26294000  0.10535000  1.0 -0.5186555924
O  O99  1  0.24970000  0.73706000  0.89465000  1.0 -0.5186555924
O  O100  1  0.75030000  0.73706000  0.10535000  1.0 -0.5186555924
O  O101  1  0.26294000  0.89465000  0.75030000  1.0 -0.5186555924
O  O102  1  0.26294000  0.10535000  0.24970000  1.0 -0.5186555924
O  O103  1  0.73706000  0.89465000  0.24970000  1.0 -0.5186555924
O  O104  1  0.73706000  0.10535000  0.75030000  1.0 -0.5186555924
