# DDEC6 charges by PACMAN v1.1 (https://github.com/mtap-research/PACMAN-charge/)
data_VALXAK_ASR_pacman
_symmetry_space_group_name_H-M   'P 1'
_cell_length_a   22.30510000
_cell_length_b   22.30510000
_cell_length_c   22.30510000
_cell_angle_alpha   90.00000000
_cell_angle_beta   90.00000000
_cell_angle_gamma   90.00000000
_symmetry_Int_Tables_number   1
_chemical_formula_structural   Mg3H9C24N3O13
_chemical_formula_sum   'Mg24 H72 C192 N24 O104'
_cell_volume   11097.17727720
_cell_formula_units_Z   8
loop_
 _symmetry_equiv_pos_site_id
 _symmetry_equiv_pos_as_xyz
  1  'x, y, z'
loop_
 _atom_site_type_symbol
 _atom_site_label
 _atom_site_symmetry_multiplicity
 _atom_site_fract_x
 _atom_site_fract_y
 _atom_site_fract_z
 _atom_site_occupancy
 _atom_site_charge
Mg  Mg1  1  0.17677000  0.24063000  0.69084000  1.0 1.4259646917
Mg  Mg2  1  0.82323000  0.75937000  0.69084000  1.0 1.4259646917
Mg  Mg3  1  0.82323000  0.24063000  0.30916000  1.0 1.4259646917
Mg  Mg4  1  0.17677000  0.75937000  0.30916000  1.0 1.4259646917
Mg  Mg5  1  0.69084000  0.17677000  0.24063000  1.0 1.4259646917
Mg  Mg6  1  0.69084000  0.82323000  0.75937000  1.0 1.4259646917
Mg  Mg7  1  0.30916000  0.82323000  0.24063000  1.0 1.4259646917
Mg  Mg8  1  0.30916000  0.17677000  0.75937000  1.0 1.4259646917
Mg  Mg9  1  0.24063000  0.69084000  0.17677000  1.0 1.4259646917
Mg  Mg10  1  0.75937000  0.69084000  0.82323000  1.0 1.4259646917
Mg  Mg11  1  0.24063000  0.30916000  0.82323000  1.0 1.4259646917
Mg  Mg12  1  0.75937000  0.30916000  0.17677000  1.0 1.4259646917
Mg  Mg13  1  0.74063000  0.67677000  0.19084000  1.0 1.4259646917
Mg  Mg14  1  0.25937000  0.32323000  0.19084000  1.0 1.4259646917
Mg  Mg15  1  0.74063000  0.32323000  0.80916000  1.0 1.4259646917
Mg  Mg16  1  0.25937000  0.67677000  0.80916000  1.0 1.4259646917
Mg  Mg17  1  0.67677000  0.19084000  0.74063000  1.0 1.4259646917
Mg  Mg18  1  0.32323000  0.19084000  0.25937000  1.0 1.4259646917
Mg  Mg19  1  0.32323000  0.80916000  0.74063000  1.0 1.4259646917
Mg  Mg20  1  0.67677000  0.80916000  0.25937000  1.0 1.4259646917
Mg  Mg21  1  0.19084000  0.74063000  0.67677000  1.0 1.4259646917
Mg  Mg22  1  0.19084000  0.25937000  0.32323000  1.0 1.4259646917
Mg  Mg23  1  0.80916000  0.74063000  0.32323000  1.0 1.4259646917
Mg  Mg24  1  0.80916000  0.25937000  0.67677000  1.0 1.4259646917
H  H1  1  0.25770000  0.21980000  0.50840000  1.0 0.1297234927
H  H2  1  0.74230000  0.78020000  0.50840000  1.0 0.1297234927
H  H3  1  0.74230000  0.21980000  0.49160000  1.0 0.1297234927
H  H4  1  0.25770000  0.78020000  0.49160000  1.0 0.1297234927
H  H5  1  0.50840000  0.25770000  0.21980000  1.0 0.1297234927
H  H6  1  0.50840000  0.74230000  0.78020000  1.0 0.1297234927
H  H7  1  0.49160000  0.74230000  0.21980000  1.0 0.1297234927
H  H8  1  0.49160000  0.25770000  0.78020000  1.0 0.1297234927
H  H9  1  0.21980000  0.50840000  0.25770000  1.0 0.1297234927
H  H10  1  0.78020000  0.50840000  0.74230000  1.0 0.1297234927
H  H11  1  0.21980000  0.49160000  0.74230000  1.0 0.1297234927
H  H12  1  0.78020000  0.49160000  0.25770000  1.0 0.1297234927
H  H13  1  0.71980000  0.75770000  0.00840000  1.0 0.1297234927
H  H14  1  0.28020000  0.24230000  0.00840000  1.0 0.1297234927
H  H15  1  0.71980000  0.24230000  0.99160000  1.0 0.1297234927
H  H16  1  0.28020000  0.75770000  0.99160000  1.0 0.1297234927
H  H17  1  0.75770000  0.00840000  0.71980000  1.0 0.1297234927
H  H18  1  0.24230000  0.00840000  0.28020000  1.0 0.1297234927
H  H19  1  0.24230000  0.99160000  0.71980000  1.0 0.1297234927
H  H20  1  0.75770000  0.99160000  0.28020000  1.0 0.1297234927
H  H21  1  0.00840000  0.71980000  0.75770000  1.0 0.1297234927
H  H22  1  0.00840000  0.28020000  0.24230000  1.0 0.1297234927
H  H23  1  0.99160000  0.71980000  0.24230000  1.0 0.1297234927
H  H24  1  0.99160000  0.28020000  0.75770000  1.0 0.1297234927
H  H25  1  0.40850000  0.20280000  0.60320000  1.0 0.1297234927
H  H26  1  0.59150000  0.79720000  0.60320000  1.0 0.1297234927
H  H27  1  0.59150000  0.20280000  0.39680000  1.0 0.1297234927
H  H28  1  0.40850000  0.79720000  0.39680000  1.0 0.1297234927
H  H29  1  0.60320000  0.40850000  0.20280000  1.0 0.1297234927
H  H30  1  0.60320000  0.59150000  0.79720000  1.0 0.1297234927
H  H31  1  0.39680000  0.59150000  0.20280000  1.0 0.1297234927
H  H32  1  0.39680000  0.40850000  0.79720000  1.0 0.1297234927
H  H33  1  0.20280000  0.60320000  0.40850000  1.0 0.1297234927
H  H34  1  0.79720000  0.60320000  0.59150000  1.0 0.1297234927
H  H35  1  0.20280000  0.39680000  0.59150000  1.0 0.1297234927
H  H36  1  0.79720000  0.39680000  0.40850000  1.0 0.1297234927
H  H37  1  0.70280000  0.90850000  0.10320000  1.0 0.1297234927
H  H38  1  0.29720000  0.09150000  0.10320000  1.0 0.1297234927
H  H39  1  0.70280000  0.09150000  0.89680000  1.0 0.1297234927
H  H40  1  0.29720000  0.90850000  0.89680000  1.0 0.1297234927
H  H41  1  0.90850000  0.10320000  0.70280000  1.0 0.1297234927
H  H42  1  0.09150000  0.10320000  0.29720000  1.0 0.1297234927
H  H43  1  0.09150000  0.89680000  0.70280000  1.0 0.1297234927
H  H44  1  0.90850000  0.89680000  0.29720000  1.0 0.1297234927
H  H45  1  0.10320000  0.70280000  0.90850000  1.0 0.1297234927
H  H46  1  0.10320000  0.29720000  0.09150000  1.0 0.1297234927
H  H47  1  0.89680000  0.70280000  0.09150000  1.0 0.1297234927
H  H48  1  0.89680000  0.29720000  0.90850000  1.0 0.1297234927
H  H49  1  0.41660000  0.21090000  0.42570000  1.0 0.1238940243
H  H50  1  0.58340000  0.78910000  0.42570000  1.0 0.1238940243
H  H51  1  0.58340000  0.21090000  0.57430000  1.0 0.1238940243
H  H52  1  0.41660000  0.78910000  0.57430000  1.0 0.1238940243
H  H53  1  0.42570000  0.41660000  0.21090000  1.0 0.1238940243
H  H54  1  0.42570000  0.58340000  0.78910000  1.0 0.1238940243
H  H55  1  0.57430000  0.58340000  0.21090000  1.0 0.1238940243
H  H56  1  0.57430000  0.41660000  0.78910000  1.0 0.1238940243
H  H57  1  0.21090000  0.42570000  0.41660000  1.0 0.1238940243
H  H58  1  0.78910000  0.42570000  0.58340000  1.0 0.1238940243
H  H59  1  0.21090000  0.57430000  0.58340000  1.0 0.1238940243
H  H60  1  0.78910000  0.57430000  0.41660000  1.0 0.1238940243
H  H61  1  0.71090000  0.91660000  0.92570000  1.0 0.1238940243
H  H62  1  0.28910000  0.08340000  0.92570000  1.0 0.1238940243
H  H63  1  0.71090000  0.08340000  0.07430000  1.0 0.1238940243
H  H64  1  0.28910000  0.91660000  0.07430000  1.0 0.1238940243
H  H65  1  0.91660000  0.92570000  0.71090000  1.0 0.1238940243
H  H66  1  0.08340000  0.92570000  0.28910000  1.0 0.1238940243
H  H67  1  0.08340000  0.07430000  0.71090000  1.0 0.1238940243
H  H68  1  0.91660000  0.07430000  0.28910000  1.0 0.1238940243
H  H69  1  0.92570000  0.71090000  0.91660000  1.0 0.1238940243
H  H70  1  0.92570000  0.28910000  0.08340000  1.0 0.1238940243
H  H71  1  0.07430000  0.71090000  0.08340000  1.0 0.1238940243
H  H72  1  0.07430000  0.28910000  0.91660000  1.0 0.1238940243
C  C1  1  0.33257000  0.21600000  0.45670000  1.0 0.0168617688
C  C2  1  0.66743000  0.78400000  0.45670000  1.0 0.0168617688
C  C3  1  0.66743000  0.21600000  0.54330000  1.0 0.0168617688
C  C4  1  0.33257000  0.78400000  0.54330000  1.0 0.0168617688
C  C5  1  0.45670000  0.33257000  0.21600000  1.0 0.0168617688
C  C6  1  0.45670000  0.66743000  0.78400000  1.0 0.0168617688
C  C7  1  0.54330000  0.66743000  0.21600000  1.0 0.0168617688
C  C8  1  0.54330000  0.33257000  0.78400000  1.0 0.0168617688
C  C9  1  0.21600000  0.45670000  0.33257000  1.0 0.0168617688
C  C10  1  0.78400000  0.45670000  0.66743000  1.0 0.0168617688
C  C11  1  0.21600000  0.54330000  0.66743000  1.0 0.0168617688
C  C12  1  0.78400000  0.54330000  0.33257000  1.0 0.0168617688
C  C13  1  0.71600000  0.83257000  0.95670000  1.0 0.0168617688
C  C14  1  0.28400000  0.16743000  0.95670000  1.0 0.0168617688
C  C15  1  0.71600000  0.16743000  0.04330000  1.0 0.0168617688
C  C16  1  0.28400000  0.83257000  0.04330000  1.0 0.0168617688
C  C17  1  0.83257000  0.95670000  0.71600000  1.0 0.0168617688
C  C18  1  0.16743000  0.95670000  0.28400000  1.0 0.0168617688
C  C19  1  0.16743000  0.04330000  0.71600000  1.0 0.0168617688
C  C20  1  0.83257000  0.04330000  0.28400000  1.0 0.0168617688
C  C21  1  0.95670000  0.71600000  0.83257000  1.0 0.0168617688
C  C22  1  0.95670000  0.28400000  0.16743000  1.0 0.0168617688
C  C23  1  0.04330000  0.71600000  0.16743000  1.0 0.0168617688
C  C24  1  0.04330000  0.28400000  0.83257000  1.0 0.0168617688
C  C25  1  0.29916000  0.21589000  0.51022000  1.0 -0.0873808068
C  C26  1  0.70084000  0.78411000  0.51022000  1.0 -0.0873808068
C  C27  1  0.70084000  0.21589000  0.48978000  1.0 -0.0873808068
C  C28  1  0.29916000  0.78411000  0.48978000  1.0 -0.0873808068
C  C29  1  0.51022000  0.29916000  0.21589000  1.0 -0.0873808068
C  C30  1  0.51022000  0.70084000  0.78411000  1.0 -0.0873808068
C  C31  1  0.48978000  0.70084000  0.21589000  1.0 -0.0873808068
C  C32  1  0.48978000  0.29916000  0.78411000  1.0 -0.0873808068
C  C33  1  0.21589000  0.51022000  0.29916000  1.0 -0.0873808068
C  C34  1  0.78411000  0.51022000  0.70084000  1.0 -0.0873808068
C  C35  1  0.21589000  0.48978000  0.70084000  1.0 -0.0873808068
C  C36  1  0.78411000  0.48978000  0.29916000  1.0 -0.0873808068
C  C37  1  0.71589000  0.79916000  0.01022000  1.0 -0.0873808068
C  C38  1  0.28411000  0.20084000  0.01022000  1.0 -0.0873808068
C  C39  1  0.71589000  0.20084000  0.98978000  1.0 -0.0873808068
C  C40  1  0.28411000  0.79916000  0.98978000  1.0 -0.0873808068
C  C41  1  0.79916000  0.01022000  0.71589000  1.0 -0.0873808068
C  C42  1  0.20084000  0.01022000  0.28411000  1.0 -0.0873808068
C  C43  1  0.20084000  0.98978000  0.71589000  1.0 -0.0873808068
C  C44  1  0.79916000  0.98978000  0.28411000  1.0 -0.0873808068
C  C45  1  0.01022000  0.71589000  0.79916000  1.0 -0.0873808068
C  C46  1  0.01022000  0.28411000  0.20084000  1.0 -0.0873808068
C  C47  1  0.98978000  0.71589000  0.20084000  1.0 -0.0873808068
C  C48  1  0.98978000  0.28411000  0.79916000  1.0 -0.0873808068
C  C49  1  0.32650000  0.21016000  0.56518000  1.0 -0.0094129012
C  C50  1  0.67350000  0.78984000  0.56518000  1.0 -0.0094129012
C  C51  1  0.67350000  0.21016000  0.43482000  1.0 -0.0094129012
C  C52  1  0.32650000  0.78984000  0.43482000  1.0 -0.0094129012
C  C53  1  0.56518000  0.32650000  0.21016000  1.0 -0.0094129012
C  C54  1  0.56518000  0.67350000  0.78984000  1.0 -0.0094129012
C  C55  1  0.43482000  0.67350000  0.21016000  1.0 -0.0094129012
C  C56  1  0.43482000  0.32650000  0.78984000  1.0 -0.0094129012
C  C57  1  0.21016000  0.56518000  0.32650000  1.0 -0.0094129012
C  C58  1  0.78984000  0.56518000  0.67350000  1.0 -0.0094129012
C  C59  1  0.21016000  0.43482000  0.67350000  1.0 -0.0094129012
C  C60  1  0.78984000  0.43482000  0.32650000  1.0 -0.0094129012
C  C61  1  0.71016000  0.82650000  0.06518000  1.0 -0.0094129012
C  C62  1  0.28984000  0.17350000  0.06518000  1.0 -0.0094129012
C  C63  1  0.71016000  0.17350000  0.93482000  1.0 -0.0094129012
C  C64  1  0.28984000  0.82650000  0.93482000  1.0 -0.0094129012
C  C65  1  0.82650000  0.06518000  0.71016000  1.0 -0.0094129012
C  C66  1  0.17350000  0.06518000  0.28984000  1.0 -0.0094129012
C  C67  1  0.17350000  0.93482000  0.71016000  1.0 -0.0094129012
C  C68  1  0.82650000  0.93482000  0.28984000  1.0 -0.0094129012
C  C69  1  0.06518000  0.71016000  0.82650000  1.0 -0.0094129012
C  C70  1  0.06518000  0.28984000  0.17350000  1.0 -0.0094129012
C  C71  1  0.93482000  0.71016000  0.17350000  1.0 -0.0094129012
C  C72  1  0.93482000  0.28984000  0.82650000  1.0 -0.0094129012
C  C73  1  0.38891000  0.20720000  0.56662000  1.0 -0.1401655566
C  C74  1  0.61109000  0.79280000  0.56662000  1.0 -0.1401655566
C  C75  1  0.61109000  0.20720000  0.43338000  1.0 -0.1401655566
C  C76  1  0.38891000  0.79280000  0.43338000  1.0 -0.1401655566
C  C77  1  0.56662000  0.38891000  0.20720000  1.0 -0.1401655566
C  C78  1  0.56662000  0.61109000  0.79280000  1.0 -0.1401655566
C  C79  1  0.43338000  0.61109000  0.20720000  1.0 -0.1401655566
C  C80  1  0.43338000  0.38891000  0.79280000  1.0 -0.1401655566
C  C81  1  0.20720000  0.56662000  0.38891000  1.0 -0.1401655566
C  C82  1  0.79280000  0.56662000  0.61109000  1.0 -0.1401655566
C  C83  1  0.20720000  0.43338000  0.61109000  1.0 -0.1401655566
C  C84  1  0.79280000  0.43338000  0.38891000  1.0 -0.1401655566
C  C85  1  0.70720000  0.88891000  0.06662000  1.0 -0.1401655566
C  C86  1  0.29280000  0.11109000  0.06662000  1.0 -0.1401655566
C  C87  1  0.70720000  0.11109000  0.93338000  1.0 -0.1401655566
C  C88  1  0.29280000  0.88891000  0.93338000  1.0 -0.1401655566
C  C89  1  0.88891000  0.06662000  0.70720000  1.0 -0.1401655566
C  C90  1  0.11109000  0.06662000  0.29280000  1.0 -0.1401655566
C  C91  1  0.11109000  0.93338000  0.70720000  1.0 -0.1401655566
C  C92  1  0.88891000  0.93338000  0.29280000  1.0 -0.1401655566
C  C93  1  0.06662000  0.70720000  0.88891000  1.0 -0.1401655566
C  C94  1  0.06662000  0.29280000  0.11109000  1.0 -0.1401655566
C  C95  1  0.93338000  0.70720000  0.11109000  1.0 -0.1401655566
C  C96  1  0.93338000  0.29280000  0.88891000  1.0 -0.1401655566
C  C97  1  0.42166000  0.21070000  0.51519000  1.0 0.1382518283
C  C98  1  0.57834000  0.78930000  0.51519000  1.0 0.1382518283
C  C99  1  0.57834000  0.21070000  0.48481000  1.0 0.1382518283
C  C100  1  0.42166000  0.78930000  0.48481000  1.0 0.1382518283
C  C101  1  0.51519000  0.42166000  0.21070000  1.0 0.1382518283
C  C102  1  0.51519000  0.57834000  0.78930000  1.0 0.1382518283
C  C103  1  0.48481000  0.57834000  0.21070000  1.0 0.1382518283
C  C104  1  0.48481000  0.42166000  0.78930000  1.0 0.1382518283
C  C105  1  0.21070000  0.51519000  0.42166000  1.0 0.1382518283
C  C106  1  0.78930000  0.51519000  0.57834000  1.0 0.1382518283
C  C107  1  0.21070000  0.48481000  0.57834000  1.0 0.1382518283
C  C108  1  0.78930000  0.48481000  0.42166000  1.0 0.1382518283
C  C109  1  0.71070000  0.92166000  0.01519000  1.0 0.1382518283
C  C110  1  0.28930000  0.07834000  0.01519000  1.0 0.1382518283
C  C111  1  0.71070000  0.07834000  0.98481000  1.0 0.1382518283
C  C112  1  0.28930000  0.92166000  0.98481000  1.0 0.1382518283
C  C113  1  0.92166000  0.01519000  0.71070000  1.0 0.1382518283
C  C114  1  0.07834000  0.01519000  0.28930000  1.0 0.1382518283
C  C115  1  0.07834000  0.98481000  0.71070000  1.0 0.1382518283
C  C116  1  0.92166000  0.98481000  0.28930000  1.0 0.1382518283
C  C117  1  0.01519000  0.71070000  0.92166000  1.0 0.1382518283
C  C118  1  0.01519000  0.28930000  0.07834000  1.0 0.1382518283
C  C119  1  0.98481000  0.71070000  0.07834000  1.0 0.1382518283
C  C120  1  0.98481000  0.28930000  0.92166000  1.0 0.1382518283
C  C121  1  0.39375000  0.21230000  0.46057000  1.0 -0.1479020699
C  C122  1  0.60625000  0.78770000  0.46057000  1.0 -0.1479020699
C  C123  1  0.60625000  0.21230000  0.53943000  1.0 -0.1479020699
C  C124  1  0.39375000  0.78770000  0.53943000  1.0 -0.1479020699
C  C125  1  0.46057000  0.39375000  0.21230000  1.0 -0.1479020699
C  C126  1  0.46057000  0.60625000  0.78770000  1.0 -0.1479020699
C  C127  1  0.53943000  0.60625000  0.21230000  1.0 -0.1479020699
C  C128  1  0.53943000  0.39375000  0.78770000  1.0 -0.1479020699
C  C129  1  0.21230000  0.46057000  0.39375000  1.0 -0.1479020699
C  C130  1  0.78770000  0.46057000  0.60625000  1.0 -0.1479020699
C  C131  1  0.21230000  0.53943000  0.60625000  1.0 -0.1479020699
C  C132  1  0.78770000  0.53943000  0.39375000  1.0 -0.1479020699
C  C133  1  0.71230000  0.89375000  0.96057000  1.0 -0.1479020699
C  C134  1  0.28770000  0.10625000  0.96057000  1.0 -0.1479020699
C  C135  1  0.71230000  0.10625000  0.03943000  1.0 -0.1479020699
C  C136  1  0.28770000  0.89375000  0.03943000  1.0 -0.1479020699
C  C137  1  0.89375000  0.96057000  0.71230000  1.0 -0.1479020699
C  C138  1  0.10625000  0.96057000  0.28770000  1.0 -0.1479020699
C  C139  1  0.10625000  0.03943000  0.71230000  1.0 -0.1479020699
C  C140  1  0.89375000  0.03943000  0.28770000  1.0 -0.1479020699
C  C141  1  0.96057000  0.71230000  0.89375000  1.0 -0.1479020699
C  C142  1  0.96057000  0.28770000  0.10625000  1.0 -0.1479020699
C  C143  1  0.03943000  0.71230000  0.10625000  1.0 -0.1479020699
C  C144  1  0.03943000  0.28770000  0.89375000  1.0 -0.1479020699
C  C145  1  0.29250000  0.20881000  0.62296000  1.0 0.601620675
C  C146  1  0.70750000  0.79119000  0.62296000  1.0 0.601620675
C  C147  1  0.70750000  0.20881000  0.37704000  1.0 0.601620675
C  C148  1  0.29250000  0.79119000  0.37704000  1.0 0.601620675
C  C149  1  0.62296000  0.29250000  0.20881000  1.0 0.601620675
C  C150  1  0.62296000  0.70750000  0.79119000  1.0 0.601620675
C  C151  1  0.37704000  0.70750000  0.20881000  1.0 0.601620675
C  C152  1  0.37704000  0.29250000  0.79119000  1.0 0.601620675
C  C153  1  0.20881000  0.62296000  0.29250000  1.0 0.601620675
C  C154  1  0.79119000  0.62296000  0.70750000  1.0 0.601620675
C  C155  1  0.20881000  0.37704000  0.70750000  1.0 0.601620675
C  C156  1  0.79119000  0.37704000  0.29250000  1.0 0.601620675
C  C157  1  0.70881000  0.79250000  0.12296000  1.0 0.601620675
C  C158  1  0.29119000  0.20750000  0.12296000  1.0 0.601620675
C  C159  1  0.70881000  0.20750000  0.87704000  1.0 0.601620675
C  C160  1  0.29119000  0.79250000  0.87704000  1.0 0.601620675
C  C161  1  0.79250000  0.12296000  0.70881000  1.0 0.601620675
C  C162  1  0.20750000  0.12296000  0.29119000  1.0 0.601620675
C  C163  1  0.20750000  0.87704000  0.70881000  1.0 0.601620675
C  C164  1  0.79250000  0.87704000  0.29119000  1.0 0.601620675
C  C165  1  0.12296000  0.70881000  0.79250000  1.0 0.601620675
C  C166  1  0.12296000  0.29119000  0.20750000  1.0 0.601620675
C  C167  1  0.87704000  0.70881000  0.20750000  1.0 0.601620675
C  C168  1  0.87704000  0.29119000  0.79250000  1.0 0.601620675
C  C169  1  0.30308000  0.22155000  0.39515000  1.0 0.601620675
C  C170  1  0.69692000  0.77845000  0.39515000  1.0 0.601620675
C  C171  1  0.69692000  0.22155000  0.60485000  1.0 0.601620675
C  C172  1  0.30308000  0.77845000  0.60485000  1.0 0.601620675
C  C173  1  0.39515000  0.30308000  0.22155000  1.0 0.601620675
C  C174  1  0.39515000  0.69692000  0.77845000  1.0 0.601620675
C  C175  1  0.60485000  0.69692000  0.22155000  1.0 0.601620675
C  C176  1  0.60485000  0.30308000  0.77845000  1.0 0.601620675
C  C177  1  0.22155000  0.39515000  0.30308000  1.0 0.601620675
C  C178  1  0.77845000  0.39515000  0.69692000  1.0 0.601620675
C  C179  1  0.22155000  0.60485000  0.69692000  1.0 0.601620675
C  C180  1  0.77845000  0.60485000  0.30308000  1.0 0.601620675
C  C181  1  0.72155000  0.80308000  0.89515000  1.0 0.601620675
C  C182  1  0.27845000  0.19692000  0.89515000  1.0 0.601620675
C  C183  1  0.72155000  0.19692000  0.10485000  1.0 0.601620675
C  C184  1  0.27845000  0.80308000  0.10485000  1.0 0.601620675
C  C185  1  0.80308000  0.89515000  0.72155000  1.0 0.601620675
C  C186  1  0.19692000  0.89515000  0.27845000  1.0 0.601620675
C  C187  1  0.19692000  0.10485000  0.72155000  1.0 0.601620675
C  C188  1  0.80308000  0.10485000  0.27845000  1.0 0.601620675
C  C189  1  0.89515000  0.72155000  0.80308000  1.0 0.601620675
C  C190  1  0.89515000  0.27845000  0.19692000  1.0 0.601620675
C  C191  1  0.10485000  0.72155000  0.19692000  1.0 0.601620675
C  C192  1  0.10485000  0.27845000  0.80308000  1.0 0.601620675
N  N1  1  0.48647000  0.20650000  0.52248000  1.0 -0.0873808068
N  N2  1  0.51353000  0.79350000  0.52248000  1.0 -0.0873808068
N  N3  1  0.51353000  0.20650000  0.47752000  1.0 -0.0873808068
N  N4  1  0.48647000  0.79350000  0.47752000  1.0 -0.0873808068
N  N5  1  0.52248000  0.48647000  0.20650000  1.0 -0.0873808068
N  N6  1  0.52248000  0.51353000  0.79350000  1.0 -0.0873808068
N  N7  1  0.47752000  0.51353000  0.20650000  1.0 -0.0873808068
N  N8  1  0.47752000  0.48647000  0.79350000  1.0 -0.0873808068
N  N9  1  0.20650000  0.52248000  0.48647000  1.0 -0.0873808068
N  N10  1  0.79350000  0.52248000  0.51353000  1.0 -0.0873808068
N  N11  1  0.20650000  0.47752000  0.51353000  1.0 -0.0873808068
N  N12  1  0.79350000  0.47752000  0.48647000  1.0 -0.0873808068
N  N13  1  0.70650000  0.98647000  0.02248000  1.0 -0.0873808068
N  N14  1  0.29350000  0.01353000  0.02248000  1.0 -0.0873808068
N  N15  1  0.70650000  0.01353000  0.97752000  1.0 -0.0873808068
N  N16  1  0.29350000  0.98647000  0.97752000  1.0 -0.0873808068
N  N17  1  0.98647000  0.02248000  0.70650000  1.0 -0.0873808068
N  N18  1  0.01353000  0.02248000  0.29350000  1.0 -0.0873808068
N  N19  1  0.01353000  0.97752000  0.70650000  1.0 -0.0873808068
N  N20  1  0.98647000  0.97752000  0.29350000  1.0 -0.0873808068
N  N21  1  0.02248000  0.70650000  0.98647000  1.0 -0.0873808068
N  N22  1  0.02248000  0.29350000  0.01353000  1.0 -0.0873808068
N  N23  1  0.97752000  0.70650000  0.01353000  1.0 -0.0873808068
N  N24  1  0.97752000  0.29350000  0.98647000  1.0 -0.0873808068
O  O1  1  0.23806000  0.23806000  0.76194000  1.0 -0.9491540756
O  O2  1  0.76194000  0.76194000  0.76194000  1.0 -0.9491540756
O  O3  1  0.76194000  0.23806000  0.23806000  1.0 -0.9491540756
O  O4  1  0.23806000  0.76194000  0.23806000  1.0 -0.9491540756
O  O5  1  0.73806000  0.73806000  0.26194000  1.0 -0.9491540756
O  O6  1  0.26194000  0.26194000  0.26194000  1.0 -0.9491540756
O  O7  1  0.73806000  0.26194000  0.73806000  1.0 -0.9491540756
O  O8  1  0.26194000  0.73806000  0.73806000  1.0 -0.9491540756
O  O9  1  0.25019000  0.23938000  0.39344000  1.0 -0.5911698904
O  O10  1  0.74981000  0.76062000  0.39344000  1.0 -0.5911698904
O  O11  1  0.74981000  0.23938000  0.60656000  1.0 -0.5911698904
O  O12  1  0.25019000  0.76062000  0.60656000  1.0 -0.5911698904
O  O13  1  0.39344000  0.25019000  0.23938000  1.0 -0.5911698904
O  O14  1  0.39344000  0.74981000  0.76062000  1.0 -0.5911698904
O  O15  1  0.60656000  0.74981000  0.23938000  1.0 -0.5911698904
O  O16  1  0.60656000  0.25019000  0.76062000  1.0 -0.5911698904
O  O17  1  0.23938000  0.39344000  0.25019000  1.0 -0.5911698904
O  O18  1  0.76062000  0.39344000  0.74981000  1.0 -0.5911698904
O  O19  1  0.23938000  0.60656000  0.74981000  1.0 -0.5911698904
O  O20  1  0.76062000  0.60656000  0.25019000  1.0 -0.5911698904
O  O21  1  0.73938000  0.75019000  0.89344000  1.0 -0.5911698904
O  O22  1  0.26062000  0.24981000  0.89344000  1.0 -0.5911698904
O  O23  1  0.73938000  0.24981000  0.10656000  1.0 -0.5911698904
O  O24  1  0.26062000  0.75019000  0.10656000  1.0 -0.5911698904
O  O25  1  0.75019000  0.89344000  0.73938000  1.0 -0.5911698904
O  O26  1  0.24981000  0.89344000  0.26062000  1.0 -0.5911698904
O  O27  1  0.24981000  0.10656000  0.73938000  1.0 -0.5911698904
O  O28  1  0.75019000  0.10656000  0.26062000  1.0 -0.5911698904
O  O29  1  0.89344000  0.73938000  0.75019000  1.0 -0.5911698904
O  O30  1  0.89344000  0.26062000  0.24981000  1.0 -0.5911698904
O  O31  1  0.10656000  0.73938000  0.24981000  1.0 -0.5911698904
O  O32  1  0.10656000  0.26062000  0.75019000  1.0 -0.5911698904
O  O33  1  0.33595000  0.20750000  0.35191000  1.0 -0.5814545419
O  O34  1  0.66405000  0.79250000  0.35191000  1.0 -0.5814545419
O  O35  1  0.66405000  0.20750000  0.64809000  1.0 -0.5814545419
O  O36  1  0.33595000  0.79250000  0.64809000  1.0 -0.5814545419
O  O37  1  0.35191000  0.33595000  0.20750000  1.0 -0.5814545419
O  O38  1  0.35191000  0.66405000  0.79250000  1.0 -0.5814545419
O  O39  1  0.64809000  0.66405000  0.20750000  1.0 -0.5814545419
O  O40  1  0.64809000  0.33595000  0.79250000  1.0 -0.5814545419
O  O41  1  0.20750000  0.35191000  0.33595000  1.0 -0.5814545419
O  O42  1  0.79250000  0.35191000  0.66405000  1.0 -0.5814545419
O  O43  1  0.20750000  0.64809000  0.66405000  1.0 -0.5814545419
O  O44  1  0.79250000  0.64809000  0.33595000  1.0 -0.5814545419
O  O45  1  0.70750000  0.83595000  0.85191000  1.0 -0.5814545419
O  O46  1  0.29250000  0.16405000  0.85191000  1.0 -0.5814545419
O  O47  1  0.70750000  0.16405000  0.14809000  1.0 -0.5814545419
O  O48  1  0.29250000  0.83595000  0.14809000  1.0 -0.5814545419
O  O49  1  0.83595000  0.85191000  0.70750000  1.0 -0.5814545419
O  O50  1  0.16405000  0.85191000  0.29250000  1.0 -0.5814545419
O  O51  1  0.16405000  0.14809000  0.70750000  1.0 -0.5814545419
O  O52  1  0.83595000  0.14809000  0.29250000  1.0 -0.5814545419
O  O53  1  0.85191000  0.70750000  0.83595000  1.0 -0.5814545419
O  O54  1  0.85191000  0.29250000  0.16405000  1.0 -0.5814545419
O  O55  1  0.14809000  0.70750000  0.16405000  1.0 -0.5814545419
O  O56  1  0.14809000  0.29250000  0.83595000  1.0 -0.5814545419
O  O57  1  0.32253000  0.19417000  0.66920000  1.0 -0.6154717322
O  O58  1  0.67747000  0.80583000  0.66920000  1.0 -0.6147750135
O  O59  1  0.67747000  0.19417000  0.33080000  1.0 -0.6147750135
O  O60  1  0.32253000  0.80583000  0.33080000  1.0 -0.6154717322
O  O61  1  0.66920000  0.32253000  0.19417000  1.0 -0.6147750135
O  O62  1  0.66920000  0.67747000  0.80583000  1.0 -0.6154717322
O  O63  1  0.33080000  0.67747000  0.19417000  1.0 -0.6154717322
O  O64  1  0.33080000  0.32253000  0.80583000  1.0 -0.6154717322
O  O65  1  0.19417000  0.66920000  0.32253000  1.0 -0.6154717322
O  O66  1  0.80583000  0.66920000  0.67747000  1.0 -0.6147750135
O  O67  1  0.19417000  0.33080000  0.67747000  1.0 -0.6154717322
O  O68  1  0.80583000  0.33080000  0.32253000  1.0 -0.6147750135
O  O69  1  0.69417000  0.82253000  0.16920000  1.0 -0.6147750135
O  O70  1  0.30583000  0.17747000  0.16920000  1.0 -0.6154717322
O  O71  1  0.69417000  0.17747000  0.83080000  1.0 -0.6154717322
O  O72  1  0.30583000  0.82253000  0.83080000  1.0 -0.6154717322
O  O73  1  0.82253000  0.16920000  0.69417000  1.0 -0.6154717322
O  O74  1  0.17747000  0.16920000  0.30583000  1.0 -0.6154717322
O  O75  1  0.17747000  0.83080000  0.69417000  1.0 -0.6154717322
O  O76  1  0.82253000  0.83080000  0.30583000  1.0 -0.6147750135
O  O77  1  0.16920000  0.69417000  0.82253000  1.0 -0.6154717322
O  O78  1  0.16920000  0.30583000  0.17747000  1.0 -0.6154717322
O  O79  1  0.83080000  0.69417000  0.17747000  1.0 -0.6147750135
O  O80  1  0.83080000  0.30583000  0.82253000  1.0 -0.6154717322
O  O81  1  0.23830000  0.22319000  0.62159000  1.0 -0.5911698904
O  O82  1  0.76170000  0.77681000  0.62159000  1.0 -0.5911698904
O  O83  1  0.76170000  0.22319000  0.37841000  1.0 -0.5911698904
O  O84  1  0.23830000  0.77681000  0.37841000  1.0 -0.5911698904
O  O85  1  0.62159000  0.23830000  0.22319000  1.0 -0.5911698904
O  O86  1  0.62159000  0.76170000  0.77681000  1.0 -0.5911698904
O  O87  1  0.37841000  0.76170000  0.22319000  1.0 -0.5911698904
O  O88  1  0.37841000  0.23830000  0.77681000  1.0 -0.5911698904
O  O89  1  0.22319000  0.62159000  0.23830000  1.0 -0.5911698904
O  O90  1  0.77681000  0.62159000  0.76170000  1.0 -0.5911698904
O  O91  1  0.22319000  0.37841000  0.76170000  1.0 -0.5911698904
O  O92  1  0.77681000  0.37841000  0.23830000  1.0 -0.5911698904
O  O93  1  0.72319000  0.73830000  0.12159000  1.0 -0.5911698904
O  O94  1  0.27681000  0.26170000  0.12159000  1.0 -0.5911698904
O  O95  1  0.72319000  0.26170000  0.87841000  1.0 -0.5911698904
O  O96  1  0.27681000  0.73830000  0.87841000  1.0 -0.5911698904
O  O97  1  0.73830000  0.12159000  0.72319000  1.0 -0.5911698904
O  O98  1  0.26170000  0.12159000  0.27681000  1.0 -0.5911698904
O  O99  1  0.26170000  0.87841000  0.72319000  1.0 -0.5911698904
O  O100  1  0.73830000  0.87841000  0.27681000  1.0 -0.5911698904
O  O101  1  0.12159000  0.72319000  0.73830000  1.0 -0.5911698904
O  O102  1  0.12159000  0.27681000  0.26170000  1.0 -0.5911698904
O  O103  1  0.87841000  0.72319000  0.26170000  1.0 -0.5911698904
O  O104  1  0.87841000  0.27681000  0.73830000  1.0 -0.5911698904
