# DDEC6 charges by PACMAN v1.1 (https://github.com/mtap-research/PACMAN-charge/)
data_VALXEO_ASR_pacman
_symmetry_space_group_name_H-M   'P 1'
_cell_length_a   22.47040000
_cell_length_b   22.47040000
_cell_length_c   22.47040000
_cell_angle_alpha   90.00000000
_cell_angle_beta   90.00000000
_cell_angle_gamma   90.00000000
_symmetry_Int_Tables_number   1
_chemical_formula_structural   Mn3H9C24N3O13
_chemical_formula_sum   'Mn24 H72 C192 N24 O104'
_cell_volume   11345.72911487
_cell_formula_units_Z   8
loop_
 _symmetry_equiv_pos_site_id
 _symmetry_equiv_pos_as_xyz
  1  'x, y, z'
loop_
 _atom_site_type_symbol
 _atom_site_label
 _atom_site_symmetry_multiplicity
 _atom_site_fract_x
 _atom_site_fract_y
 _atom_site_fract_z
 _atom_site_occupancy
 _atom_site_charge
Mn  Mn1  1  0.17635000  0.31040000  0.24086000  1.0 1.1374285276
Mn  Mn2  1  0.82365000  0.68960000  0.24086000  1.0 1.1374285276
Mn  Mn3  1  0.82365000  0.31040000  0.75914000  1.0 1.1374285276
Mn  Mn4  1  0.17635000  0.68960000  0.75914000  1.0 1.1374285276
Mn  Mn5  1  0.24086000  0.17635000  0.31040000  1.0 1.1374285276
Mn  Mn6  1  0.24086000  0.82365000  0.68960000  1.0 1.1374285276
Mn  Mn7  1  0.75914000  0.82365000  0.31040000  1.0 1.1374285276
Mn  Mn8  1  0.75914000  0.17635000  0.68960000  1.0 1.1374285276
Mn  Mn9  1  0.31040000  0.24086000  0.17635000  1.0 1.1374285276
Mn  Mn10  1  0.68960000  0.24086000  0.82365000  1.0 1.1374285276
Mn  Mn11  1  0.31040000  0.75914000  0.82365000  1.0 1.1374285276
Mn  Mn12  1  0.68960000  0.75914000  0.17635000  1.0 1.1374285276
Mn  Mn13  1  0.81040000  0.67635000  0.74086000  1.0 1.1374285276
Mn  Mn14  1  0.18960000  0.32365000  0.74086000  1.0 1.1374285276
Mn  Mn15  1  0.81040000  0.32365000  0.25914000  1.0 1.1374285276
Mn  Mn16  1  0.18960000  0.67635000  0.25914000  1.0 1.1374285276
Mn  Mn17  1  0.67635000  0.74086000  0.81040000  1.0 1.1374285276
Mn  Mn18  1  0.32365000  0.74086000  0.18960000  1.0 1.1374285276
Mn  Mn19  1  0.32365000  0.25914000  0.81040000  1.0 1.1374285276
Mn  Mn20  1  0.67635000  0.25914000  0.18960000  1.0 1.1374285276
Mn  Mn21  1  0.74086000  0.81040000  0.67635000  1.0 1.1374285276
Mn  Mn22  1  0.74086000  0.18960000  0.32365000  1.0 1.1374285276
Mn  Mn23  1  0.25914000  0.81040000  0.32365000  1.0 1.1374285276
Mn  Mn24  1  0.25914000  0.18960000  0.67635000  1.0 1.1374285276
H  H1  1  0.24070000  0.28120000  0.99290000  1.0 0.1307488776
H  H2  1  0.75930000  0.71880000  0.99290000  1.0 0.1307488776
H  H3  1  0.75930000  0.28120000  0.00710000  1.0 0.1307488776
H  H4  1  0.24070000  0.71880000  0.00710000  1.0 0.1307488776
H  H5  1  0.99290000  0.24070000  0.28120000  1.0 0.1307488776
H  H6  1  0.99290000  0.75930000  0.71880000  1.0 0.1307488776
H  H7  1  0.00710000  0.75930000  0.28120000  1.0 0.1307488776
H  H8  1  0.00710000  0.24070000  0.71880000  1.0 0.1307488776
H  H9  1  0.28120000  0.99290000  0.24070000  1.0 0.1307488776
H  H10  1  0.71880000  0.99290000  0.75930000  1.0 0.1307488776
H  H11  1  0.28120000  0.00710000  0.75930000  1.0 0.1307488776
H  H12  1  0.71880000  0.00710000  0.24070000  1.0 0.1307488776
H  H13  1  0.78120000  0.74070000  0.49290000  1.0 0.1307488776
H  H14  1  0.21880000  0.25930000  0.49290000  1.0 0.1307488776
H  H15  1  0.78120000  0.25930000  0.50710000  1.0 0.1307488776
H  H16  1  0.21880000  0.74070000  0.50710000  1.0 0.1307488776
H  H17  1  0.74070000  0.49290000  0.78120000  1.0 0.1307488776
H  H18  1  0.25930000  0.49290000  0.21880000  1.0 0.1307488776
H  H19  1  0.25930000  0.50710000  0.78120000  1.0 0.1307488776
H  H20  1  0.74070000  0.50710000  0.21880000  1.0 0.1307488776
H  H21  1  0.49290000  0.78120000  0.74070000  1.0 0.1307488776
H  H22  1  0.49290000  0.21880000  0.25930000  1.0 0.1307488776
H  H23  1  0.50710000  0.78120000  0.25930000  1.0 0.1307488776
H  H24  1  0.50710000  0.21880000  0.74070000  1.0 0.1307488776
H  H25  1  0.08350000  0.28160000  0.07410000  1.0 0.1307488776
H  H26  1  0.91650000  0.71840000  0.07410000  1.0 0.1307488776
H  H27  1  0.91650000  0.28160000  0.92590000  1.0 0.1307488776
H  H28  1  0.08350000  0.71840000  0.92590000  1.0 0.1307488776
H  H29  1  0.07410000  0.08350000  0.28160000  1.0 0.1307488776
H  H30  1  0.07410000  0.91650000  0.71840000  1.0 0.1307488776
H  H31  1  0.92590000  0.91650000  0.28160000  1.0 0.1307488776
H  H32  1  0.92590000  0.08350000  0.71840000  1.0 0.1307488776
H  H33  1  0.28160000  0.07410000  0.08350000  1.0 0.1307488776
H  H34  1  0.71840000  0.07410000  0.91650000  1.0 0.1307488776
H  H35  1  0.28160000  0.92590000  0.91650000  1.0 0.1307488776
H  H36  1  0.71840000  0.92590000  0.08350000  1.0 0.1307488776
H  H37  1  0.78160000  0.58350000  0.57410000  1.0 0.1307488776
H  H38  1  0.21840000  0.41650000  0.57410000  1.0 0.1307488776
H  H39  1  0.78160000  0.41650000  0.42590000  1.0 0.1307488776
H  H40  1  0.21840000  0.58350000  0.42590000  1.0 0.1307488776
H  H41  1  0.58350000  0.57410000  0.78160000  1.0 0.1307488776
H  H42  1  0.41650000  0.57410000  0.21840000  1.0 0.1307488776
H  H43  1  0.41650000  0.42590000  0.78160000  1.0 0.1307488776
H  H44  1  0.58350000  0.42590000  0.21840000  1.0 0.1307488776
H  H45  1  0.57410000  0.78160000  0.58350000  1.0 0.1307488776
H  H46  1  0.57410000  0.21840000  0.41650000  1.0 0.1307488776
H  H47  1  0.42590000  0.78160000  0.41650000  1.0 0.1307488776
H  H48  1  0.42590000  0.21840000  0.58350000  1.0 0.1307488776
H  H49  1  0.09150000  0.28880000  0.89610000  1.0 0.1307488776
H  H50  1  0.90850000  0.71120000  0.89610000  1.0 0.1307488776
H  H51  1  0.90850000  0.28880000  0.10390000  1.0 0.1307488776
H  H52  1  0.09150000  0.71120000  0.10390000  1.0 0.1307488776
H  H53  1  0.89610000  0.09150000  0.28880000  1.0 0.1307488776
H  H54  1  0.89610000  0.90850000  0.71120000  1.0 0.1307488776
H  H55  1  0.10390000  0.90850000  0.28880000  1.0 0.1307488776
H  H56  1  0.10390000  0.09150000  0.71120000  1.0 0.1307488776
H  H57  1  0.28880000  0.89610000  0.09150000  1.0 0.1307488776
H  H58  1  0.71120000  0.89610000  0.90850000  1.0 0.1307488776
H  H59  1  0.28880000  0.10390000  0.90850000  1.0 0.1307488776
H  H60  1  0.71120000  0.10390000  0.09150000  1.0 0.1307488776
H  H61  1  0.78880000  0.59150000  0.39610000  1.0 0.1307488776
H  H62  1  0.21120000  0.40850000  0.39610000  1.0 0.1307488776
H  H63  1  0.78880000  0.40850000  0.60390000  1.0 0.1307488776
H  H64  1  0.21120000  0.59150000  0.60390000  1.0 0.1307488776
H  H65  1  0.59150000  0.39610000  0.78880000  1.0 0.1307488776
H  H66  1  0.40850000  0.39610000  0.21120000  1.0 0.1307488776
H  H67  1  0.40850000  0.60390000  0.78880000  1.0 0.1307488776
H  H68  1  0.59150000  0.60390000  0.21120000  1.0 0.1307488776
H  H69  1  0.39610000  0.78880000  0.59150000  1.0 0.1307488776
H  H70  1  0.39610000  0.21120000  0.40850000  1.0 0.1307488776
H  H71  1  0.60390000  0.78880000  0.40850000  1.0 0.1307488776
H  H72  1  0.60390000  0.21120000  0.59150000  1.0 0.1307488776
C  C1  1  0.20605000  0.29090000  0.87830000  1.0 0.5796589857
C  C2  1  0.79395000  0.70910000  0.87830000  1.0 0.5796589857
C  C3  1  0.79395000  0.29090000  0.12170000  1.0 0.5796589857
C  C4  1  0.20605000  0.70910000  0.12170000  1.0 0.5796589857
C  C5  1  0.87830000  0.20605000  0.29090000  1.0 0.5796589857
C  C6  1  0.87830000  0.79395000  0.70910000  1.0 0.5796589857
C  C7  1  0.12170000  0.79395000  0.29090000  1.0 0.5796589857
C  C8  1  0.12170000  0.20605000  0.70910000  1.0 0.5796589857
C  C9  1  0.29090000  0.87830000  0.20605000  1.0 0.5796589857
C  C10  1  0.70910000  0.87830000  0.79395000  1.0 0.5796589857
C  C11  1  0.29090000  0.12170000  0.79395000  1.0 0.5796589857
C  C12  1  0.70910000  0.12170000  0.20605000  1.0 0.5796589857
C  C13  1  0.79090000  0.70605000  0.37830000  1.0 0.5796589857
C  C14  1  0.20910000  0.29395000  0.37830000  1.0 0.5796589857
C  C15  1  0.79090000  0.29395000  0.62170000  1.0 0.5796589857
C  C16  1  0.20910000  0.70605000  0.62170000  1.0 0.5796589857
C  C17  1  0.70605000  0.37830000  0.79090000  1.0 0.5796589857
C  C18  1  0.29395000  0.37830000  0.20910000  1.0 0.5796589857
C  C19  1  0.29395000  0.62170000  0.79090000  1.0 0.5796589857
C  C20  1  0.70605000  0.62170000  0.20910000  1.0 0.5796589857
C  C21  1  0.37830000  0.79090000  0.70605000  1.0 0.5796589857
C  C22  1  0.37830000  0.20910000  0.29395000  1.0 0.5796589857
C  C23  1  0.62170000  0.79090000  0.29395000  1.0 0.5796589857
C  C24  1  0.62170000  0.20910000  0.70605000  1.0 0.5796589857
C  C25  1  0.19578000  0.27895000  0.10461000  1.0 0.5796589857
C  C26  1  0.80422000  0.72105000  0.10461000  1.0 0.5796589857
C  C27  1  0.80422000  0.27895000  0.89539000  1.0 0.5796589857
C  C28  1  0.19578000  0.72105000  0.89539000  1.0 0.5796589857
C  C29  1  0.10461000  0.19578000  0.27895000  1.0 0.5796589857
C  C30  1  0.10461000  0.80422000  0.72105000  1.0 0.5796589857
C  C31  1  0.89539000  0.80422000  0.27895000  1.0 0.5796589857
C  C32  1  0.89539000  0.19578000  0.72105000  1.0 0.5796589857
C  C33  1  0.27895000  0.10461000  0.19578000  1.0 0.5796589857
C  C34  1  0.72105000  0.10461000  0.80422000  1.0 0.5796589857
C  C35  1  0.27895000  0.89539000  0.80422000  1.0 0.5796589857
C  C36  1  0.72105000  0.89539000  0.19578000  1.0 0.5796589857
C  C37  1  0.77895000  0.69578000  0.60461000  1.0 0.5796589857
C  C38  1  0.22105000  0.30422000  0.60461000  1.0 0.5796589857
C  C39  1  0.77895000  0.30422000  0.39539000  1.0 0.5796589857
C  C40  1  0.22105000  0.69578000  0.39539000  1.0 0.5796589857
C  C41  1  0.69578000  0.60461000  0.77895000  1.0 0.5796589857
C  C42  1  0.30422000  0.60461000  0.22105000  1.0 0.5796589857
C  C43  1  0.30422000  0.39539000  0.77895000  1.0 0.5796589857
C  C44  1  0.69578000  0.39539000  0.22105000  1.0 0.5796589857
C  C45  1  0.60461000  0.77895000  0.69578000  1.0 0.5796589857
C  C46  1  0.60461000  0.22105000  0.30422000  1.0 0.5796589857
C  C47  1  0.39539000  0.77895000  0.30422000  1.0 0.5796589857
C  C48  1  0.39539000  0.22105000  0.69578000  1.0 0.5796589857
C  C49  1  0.16608000  0.28110000  0.04265000  1.0 0.0094752403
C  C50  1  0.83392000  0.71890000  0.04265000  1.0 0.0094752403
C  C51  1  0.83392000  0.28110000  0.95735000  1.0 0.0094752403
C  C52  1  0.16608000  0.71890000  0.95735000  1.0 0.0094752403
C  C53  1  0.04265000  0.16608000  0.28110000  1.0 0.0094752403
C  C54  1  0.04265000  0.83392000  0.71890000  1.0 0.0094752403
C  C55  1  0.95735000  0.83392000  0.28110000  1.0 0.0094752403
C  C56  1  0.95735000  0.16608000  0.71890000  1.0 0.0094752403
C  C57  1  0.28110000  0.04265000  0.16608000  1.0 0.0094752403
C  C58  1  0.71890000  0.04265000  0.83392000  1.0 0.0094752403
C  C59  1  0.28110000  0.95735000  0.83392000  1.0 0.0094752403
C  C60  1  0.71890000  0.95735000  0.16608000  1.0 0.0094752403
C  C61  1  0.78110000  0.66608000  0.54265000  1.0 0.0094752403
C  C62  1  0.21890000  0.33392000  0.54265000  1.0 0.0094752403
C  C63  1  0.78110000  0.33392000  0.45735000  1.0 0.0094752403
C  C64  1  0.21890000  0.66608000  0.45735000  1.0 0.0094752403
C  C65  1  0.66608000  0.54265000  0.78110000  1.0 0.0094752403
C  C66  1  0.33392000  0.54265000  0.21890000  1.0 0.0094752403
C  C67  1  0.33392000  0.45735000  0.78110000  1.0 0.0094752403
C  C68  1  0.66608000  0.45735000  0.21890000  1.0 0.0094752403
C  C69  1  0.54265000  0.78110000  0.66608000  1.0 0.0094752403
C  C70  1  0.54265000  0.21890000  0.33392000  1.0 0.0094752403
C  C71  1  0.45735000  0.78110000  0.33392000  1.0 0.0094752403
C  C72  1  0.45735000  0.21890000  0.66608000  1.0 0.0094752403
C  C73  1  0.19937000  0.28291000  0.99068000  1.0 -0.091560398
C  C74  1  0.80063000  0.71709000  0.99068000  1.0 -0.091560398
C  C75  1  0.80063000  0.28291000  0.00932000  1.0 -0.091560398
C  C76  1  0.19937000  0.71709000  0.00932000  1.0 -0.091560398
C  C77  1  0.99068000  0.19937000  0.28291000  1.0 -0.091560398
C  C78  1  0.99068000  0.80063000  0.71709000  1.0 -0.091560398
C  C79  1  0.00932000  0.80063000  0.28291000  1.0 -0.091560398
C  C80  1  0.00932000  0.19937000  0.71709000  1.0 -0.091560398
C  C81  1  0.28291000  0.99068000  0.19937000  1.0 -0.091560398
C  C82  1  0.71709000  0.99068000  0.80063000  1.0 -0.091560398
C  C83  1  0.28291000  0.00932000  0.80063000  1.0 -0.091560398
C  C84  1  0.71709000  0.00932000  0.19937000  1.0 -0.091560398
C  C85  1  0.78291000  0.69937000  0.49068000  1.0 -0.091560398
C  C86  1  0.21709000  0.30063000  0.49068000  1.0 -0.091560398
C  C87  1  0.78291000  0.30063000  0.50932000  1.0 -0.091560398
C  C88  1  0.21709000  0.69937000  0.50932000  1.0 -0.091560398
C  C89  1  0.69937000  0.49068000  0.78291000  1.0 -0.091560398
C  C90  1  0.30063000  0.49068000  0.21709000  1.0 -0.091560398
C  C91  1  0.30063000  0.50932000  0.78291000  1.0 -0.091560398
C  C92  1  0.69937000  0.50932000  0.21709000  1.0 -0.091560398
C  C93  1  0.49068000  0.78291000  0.69937000  1.0 -0.091560398
C  C94  1  0.49068000  0.21709000  0.30063000  1.0 -0.091560398
C  C95  1  0.50932000  0.78291000  0.30063000  1.0 -0.091560398
C  C96  1  0.50932000  0.21709000  0.69937000  1.0 -0.091560398
C  C97  1  0.17226000  0.28722000  0.93568000  1.0 -0.0076559088
C  C98  1  0.82774000  0.71278000  0.93568000  1.0 -0.0076559088
C  C99  1  0.82774000  0.28722000  0.06432000  1.0 -0.0076559088
C  C100  1  0.17226000  0.71278000  0.06432000  1.0 -0.0076559088
C  C101  1  0.93568000  0.17226000  0.28722000  1.0 -0.0076559088
C  C102  1  0.93568000  0.82774000  0.71278000  1.0 -0.0076559088
C  C103  1  0.06432000  0.82774000  0.28722000  1.0 -0.0076559088
C  C104  1  0.06432000  0.17226000  0.71278000  1.0 -0.0076559088
C  C105  1  0.28722000  0.93568000  0.17226000  1.0 -0.0076559088
C  C106  1  0.71278000  0.93568000  0.82774000  1.0 -0.0076559088
C  C107  1  0.28722000  0.06432000  0.82774000  1.0 -0.0076559088
C  C108  1  0.71278000  0.06432000  0.17226000  1.0 -0.0076559088
C  C109  1  0.78722000  0.67226000  0.43568000  1.0 -0.0076559088
C  C110  1  0.21278000  0.32774000  0.43568000  1.0 -0.0076559088
C  C111  1  0.78722000  0.32774000  0.56432000  1.0 -0.0076559088
C  C112  1  0.21278000  0.67226000  0.56432000  1.0 -0.0076559088
C  C113  1  0.67226000  0.43568000  0.78722000  1.0 -0.0076559088
C  C114  1  0.32774000  0.43568000  0.21278000  1.0 -0.0076559088
C  C115  1  0.32774000  0.56432000  0.78722000  1.0 -0.0076559088
C  C116  1  0.67226000  0.56432000  0.21278000  1.0 -0.0076559088
C  C117  1  0.43568000  0.78722000  0.67226000  1.0 -0.0076559088
C  C118  1  0.43568000  0.21278000  0.32774000  1.0 -0.0076559088
C  C119  1  0.56432000  0.78722000  0.32774000  1.0 -0.0076559088
C  C120  1  0.56432000  0.21278000  0.67226000  1.0 -0.0076559088
C  C121  1  0.10583000  0.28210000  0.03929000  1.0 -0.1463929941
C  C122  1  0.89417000  0.71790000  0.03929000  1.0 -0.1463929941
C  C123  1  0.89417000  0.28210000  0.96071000  1.0 -0.1463929941
C  C124  1  0.10583000  0.71790000  0.96071000  1.0 -0.1463929941
C  C125  1  0.03929000  0.10583000  0.28210000  1.0 -0.1463929941
C  C126  1  0.03929000  0.89417000  0.71790000  1.0 -0.1463929941
C  C127  1  0.96071000  0.89417000  0.28210000  1.0 -0.1463929941
C  C128  1  0.96071000  0.10583000  0.71790000  1.0 -0.1463929941
C  C129  1  0.28210000  0.03929000  0.10583000  1.0 -0.1463929941
C  C130  1  0.71790000  0.03929000  0.89417000  1.0 -0.1463929941
C  C131  1  0.28210000  0.96071000  0.89417000  1.0 -0.1463929941
C  C132  1  0.71790000  0.96071000  0.10583000  1.0 -0.1463929941
C  C133  1  0.78210000  0.60583000  0.53929000  1.0 -0.1463929941
C  C134  1  0.21790000  0.39417000  0.53929000  1.0 -0.1463929941
C  C135  1  0.78210000  0.39417000  0.46071000  1.0 -0.1463929941
C  C136  1  0.21790000  0.60583000  0.46071000  1.0 -0.1463929941
C  C137  1  0.60583000  0.53929000  0.78210000  1.0 -0.1463929941
C  C138  1  0.39417000  0.53929000  0.21790000  1.0 -0.1463929941
C  C139  1  0.39417000  0.46071000  0.78210000  1.0 -0.1463929941
C  C140  1  0.60583000  0.46071000  0.21790000  1.0 -0.1463929941
C  C141  1  0.53929000  0.78210000  0.60583000  1.0 -0.1463929941
C  C142  1  0.53929000  0.21790000  0.39417000  1.0 -0.1463929941
C  C143  1  0.46071000  0.78210000  0.39417000  1.0 -0.1463929941
C  C144  1  0.46071000  0.21790000  0.60583000  1.0 -0.1463929941
C  C145  1  0.11052000  0.28690000  0.93278000  1.0 -0.1463929941
C  C146  1  0.88948000  0.71310000  0.93278000  1.0 -0.1463929941
C  C147  1  0.88948000  0.28690000  0.06722000  1.0 -0.1463929941
C  C148  1  0.11052000  0.71310000  0.06722000  1.0 -0.1463929941
C  C149  1  0.93278000  0.11052000  0.28690000  1.0 -0.1463929941
C  C150  1  0.93278000  0.88948000  0.71310000  1.0 -0.1463929941
C  C151  1  0.06722000  0.88948000  0.28690000  1.0 -0.1463929941
C  C152  1  0.06722000  0.11052000  0.71310000  1.0 -0.1463929941
C  C153  1  0.28690000  0.93278000  0.11052000  1.0 -0.1463929941
C  C154  1  0.71310000  0.93278000  0.88948000  1.0 -0.1463929941
C  C155  1  0.28690000  0.06722000  0.88948000  1.0 -0.1463929941
C  C156  1  0.71310000  0.06722000  0.11052000  1.0 -0.1463929941
C  C157  1  0.78690000  0.61052000  0.43278000  1.0 -0.1463929941
C  C158  1  0.21310000  0.38948000  0.43278000  1.0 -0.1463929941
C  C159  1  0.78690000  0.38948000  0.56722000  1.0 -0.1463929941
C  C160  1  0.21310000  0.61052000  0.56722000  1.0 -0.1463929941
C  C161  1  0.61052000  0.43278000  0.78690000  1.0 -0.1463929941
C  C162  1  0.38948000  0.43278000  0.21310000  1.0 -0.1463929941
C  C163  1  0.38948000  0.56722000  0.78690000  1.0 -0.1463929941
C  C164  1  0.61052000  0.56722000  0.21310000  1.0 -0.1463929941
C  C165  1  0.43278000  0.78690000  0.61052000  1.0 -0.1463929941
C  C166  1  0.43278000  0.21310000  0.38948000  1.0 -0.1463929941
C  C167  1  0.56722000  0.78690000  0.38948000  1.0 -0.1463929941
C  C168  1  0.56722000  0.21310000  0.61052000  1.0 -0.1463929941
C  C169  1  0.07702000  0.28380000  0.98504000  1.0 0.1499912005
C  C170  1  0.92298000  0.71620000  0.98504000  1.0 0.1499912005
C  C171  1  0.92298000  0.28380000  0.01496000  1.0 0.1499912005
C  C172  1  0.07702000  0.71620000  0.01496000  1.0 0.1499912005
C  C173  1  0.98504000  0.07702000  0.28380000  1.0 0.1499912005
C  C174  1  0.98504000  0.92298000  0.71620000  1.0 0.1499912005
C  C175  1  0.01496000  0.92298000  0.28380000  1.0 0.1499912005
C  C176  1  0.01496000  0.07702000  0.71620000  1.0 0.1499912005
C  C177  1  0.28380000  0.98504000  0.07702000  1.0 0.1499912005
C  C178  1  0.71620000  0.98504000  0.92298000  1.0 0.1499912005
C  C179  1  0.28380000  0.01496000  0.92298000  1.0 0.1499912005
C  C180  1  0.71620000  0.01496000  0.07702000  1.0 0.1499912005
C  C181  1  0.78380000  0.57702000  0.48504000  1.0 0.1499912005
C  C182  1  0.21620000  0.42298000  0.48504000  1.0 0.1499912005
C  C183  1  0.78380000  0.42298000  0.51496000  1.0 0.1499912005
C  C184  1  0.21620000  0.57702000  0.51496000  1.0 0.1499912005
C  C185  1  0.57702000  0.48504000  0.78380000  1.0 0.1499912005
C  C186  1  0.42298000  0.48504000  0.21620000  1.0 0.1499912005
C  C187  1  0.42298000  0.51496000  0.78380000  1.0 0.1499912005
C  C188  1  0.57702000  0.51496000  0.21620000  1.0 0.1499912005
C  C189  1  0.48504000  0.78380000  0.57702000  1.0 0.1499912005
C  C190  1  0.48504000  0.21620000  0.42298000  1.0 0.1499912005
C  C191  1  0.51496000  0.78380000  0.42298000  1.0 0.1499912005
C  C192  1  0.51496000  0.21620000  0.57702000  1.0 0.1499912005
N  N1  1  0.01373000  0.28290000  0.97732000  1.0 -0.1063130971
N  N2  1  0.98627000  0.71710000  0.97732000  1.0 -0.1063130971
N  N3  1  0.98627000  0.28290000  0.02268000  1.0 -0.1063130971
N  N4  1  0.01373000  0.71710000  0.02268000  1.0 -0.1063130971
N  N5  1  0.97732000  0.01373000  0.28290000  1.0 -0.1063130971
N  N6  1  0.97732000  0.98627000  0.71710000  1.0 -0.1063130971
N  N7  1  0.02268000  0.98627000  0.28290000  1.0 -0.1063130971
N  N8  1  0.02268000  0.01373000  0.71710000  1.0 -0.1063130971
N  N9  1  0.28290000  0.97732000  0.01373000  1.0 -0.1063130971
N  N10  1  0.71710000  0.97732000  0.98627000  1.0 -0.1063130971
N  N11  1  0.28290000  0.02268000  0.98627000  1.0 -0.1063130971
N  N12  1  0.71710000  0.02268000  0.01373000  1.0 -0.1063130971
N  N13  1  0.78290000  0.51373000  0.47732000  1.0 -0.1063130971
N  N14  1  0.21710000  0.48627000  0.47732000  1.0 -0.1063130971
N  N15  1  0.78290000  0.48627000  0.52268000  1.0 -0.1063130971
N  N16  1  0.21710000  0.51373000  0.52268000  1.0 -0.1063130971
N  N17  1  0.51373000  0.47732000  0.78290000  1.0 -0.1063130971
N  N18  1  0.48627000  0.47732000  0.21710000  1.0 -0.1063130971
N  N19  1  0.48627000  0.52268000  0.78290000  1.0 -0.1063130971
N  N20  1  0.51373000  0.52268000  0.21710000  1.0 -0.1063130971
N  N21  1  0.47732000  0.78290000  0.51373000  1.0 -0.1063130971
N  N22  1  0.47732000  0.21710000  0.48627000  1.0 -0.1063130971
N  N23  1  0.52268000  0.78290000  0.48627000  1.0 -0.1063130971
N  N24  1  0.52268000  0.21710000  0.51373000  1.0 -0.1063130971
O  O1  1  0.23817000  0.23817000  0.23817000  1.0 -0.813487939
O  O2  1  0.76183000  0.76183000  0.23817000  1.0 -0.813487939
O  O3  1  0.76183000  0.23817000  0.76183000  1.0 -0.813487939
O  O4  1  0.23817000  0.76183000  0.76183000  1.0 -0.813487939
O  O5  1  0.73817000  0.73817000  0.73817000  1.0 -0.813487939
O  O6  1  0.26183000  0.26183000  0.73817000  1.0 -0.813487939
O  O7  1  0.73817000  0.26183000  0.26183000  1.0 -0.813487939
O  O8  1  0.26183000  0.73817000  0.26183000  1.0 -0.813487939
O  O9  1  0.17509000  0.30077000  0.83191000  1.0 -0.5367518931
O  O10  1  0.82491000  0.69923000  0.83191000  1.0 -0.5367518931
O  O11  1  0.82491000  0.30077000  0.16809000  1.0 -0.5367518931
O  O12  1  0.17509000  0.69923000  0.16809000  1.0 -0.5367518931
O  O13  1  0.83191000  0.17509000  0.30077000  1.0 -0.5367518931
O  O14  1  0.83191000  0.82491000  0.69923000  1.0 -0.5367518931
O  O15  1  0.16809000  0.82491000  0.30077000  1.0 -0.5367518931
O  O16  1  0.16809000  0.17509000  0.69923000  1.0 -0.5367518931
O  O17  1  0.30077000  0.83191000  0.17509000  1.0 -0.5367518931
O  O18  1  0.69923000  0.83191000  0.82491000  1.0 -0.5367518931
O  O19  1  0.30077000  0.16809000  0.82491000  1.0 -0.5367518931
O  O20  1  0.69923000  0.16809000  0.17509000  1.0 -0.5367518931
O  O21  1  0.80077000  0.67509000  0.33191000  1.0 -0.5367518931
O  O22  1  0.19923000  0.32491000  0.33191000  1.0 -0.5367518931
O  O23  1  0.80077000  0.32491000  0.66809000  1.0 -0.5367518931
O  O24  1  0.19923000  0.67509000  0.66809000  1.0 -0.5367518931
O  O25  1  0.67509000  0.33191000  0.80077000  1.0 -0.5367518931
O  O26  1  0.32491000  0.33191000  0.19923000  1.0 -0.5367518931
O  O27  1  0.32491000  0.66809000  0.80077000  1.0 -0.5367518931
O  O28  1  0.67509000  0.66809000  0.19923000  1.0 -0.5367518931
O  O29  1  0.33191000  0.80077000  0.67509000  1.0 -0.5367518931
O  O30  1  0.33191000  0.19923000  0.32491000  1.0 -0.5367518931
O  O31  1  0.66809000  0.80077000  0.32491000  1.0 -0.5367518931
O  O32  1  0.66809000  0.19923000  0.67509000  1.0 -0.5367518931
O  O33  1  0.16200000  0.28884000  0.14726000  1.0 -0.51010345
O  O34  1  0.83800000  0.71116000  0.14726000  1.0 -0.51010345
O  O35  1  0.83800000  0.28884000  0.85274000  1.0 -0.51010345
O  O36  1  0.16200000  0.71116000  0.85274000  1.0 -0.51010345
O  O37  1  0.14726000  0.16200000  0.28884000  1.0 -0.51010345
O  O38  1  0.14726000  0.83800000  0.71116000  1.0 -0.51010345
O  O39  1  0.85274000  0.83800000  0.28884000  1.0 -0.51010345
O  O40  1  0.85274000  0.16200000  0.71116000  1.0 -0.51010345
O  O41  1  0.28884000  0.14726000  0.16200000  1.0 -0.51010345
O  O42  1  0.71116000  0.14726000  0.83800000  1.0 -0.51010345
O  O43  1  0.28884000  0.85274000  0.83800000  1.0 -0.51010345
O  O44  1  0.71116000  0.85274000  0.16200000  1.0 -0.51010345
O  O45  1  0.78884000  0.66200000  0.64726000  1.0 -0.51010345
O  O46  1  0.21116000  0.33800000  0.64726000  1.0 -0.51010345
O  O47  1  0.78884000  0.33800000  0.35274000  1.0 -0.51010345
O  O48  1  0.21116000  0.66200000  0.35274000  1.0 -0.51010345
O  O49  1  0.66200000  0.64726000  0.78884000  1.0 -0.51010345
O  O50  1  0.33800000  0.64726000  0.21116000  1.0 -0.51010345
O  O51  1  0.33800000  0.35274000  0.78884000  1.0 -0.51010345
O  O52  1  0.66200000  0.35274000  0.21116000  1.0 -0.51010345
O  O53  1  0.64726000  0.78884000  0.66200000  1.0 -0.51010345
O  O54  1  0.64726000  0.21116000  0.33800000  1.0 -0.51010345
O  O55  1  0.35274000  0.78884000  0.33800000  1.0 -0.51010345
O  O56  1  0.35274000  0.21116000  0.66200000  1.0 -0.51010345
O  O57  1  0.24985000  0.26695000  0.10513000  1.0 -0.51010345
O  O58  1  0.75015000  0.73305000  0.10513000  1.0 -0.51010345
O  O59  1  0.75015000  0.26695000  0.89487000  1.0 -0.51010345
O  O60  1  0.24985000  0.73305000  0.89487000  1.0 -0.51010345
O  O61  1  0.10513000  0.24985000  0.26695000  1.0 -0.51010345
O  O62  1  0.10513000  0.75015000  0.73305000  1.0 -0.51010345
O  O63  1  0.89487000  0.75015000  0.26695000  1.0 -0.51010345
O  O64  1  0.89487000  0.24985000  0.73305000  1.0 -0.51010345
O  O65  1  0.26695000  0.10513000  0.24985000  1.0 -0.51010345
O  O66  1  0.73305000  0.10513000  0.75015000  1.0 -0.51010345
O  O67  1  0.26695000  0.89487000  0.75015000  1.0 -0.51010345
O  O68  1  0.73305000  0.89487000  0.24985000  1.0 -0.51010345
O  O69  1  0.76695000  0.74985000  0.60513000  1.0 -0.51010345
O  O70  1  0.23305000  0.25015000  0.60513000  1.0 -0.51010345
O  O71  1  0.76695000  0.25015000  0.39487000  1.0 -0.51010345
O  O72  1  0.23305000  0.74985000  0.39487000  1.0 -0.51010345
O  O73  1  0.74985000  0.60513000  0.76695000  1.0 -0.51010345
O  O74  1  0.25015000  0.60513000  0.23305000  1.0 -0.51010345
O  O75  1  0.25015000  0.39487000  0.76695000  1.0 -0.51010345
O  O76  1  0.74985000  0.39487000  0.23305000  1.0 -0.51010345
O  O77  1  0.60513000  0.76695000  0.74985000  1.0 -0.51010345
O  O78  1  0.60513000  0.23305000  0.25015000  1.0 -0.51010345
O  O79  1  0.39487000  0.76695000  0.25015000  1.0 -0.51010345
O  O80  1  0.39487000  0.23305000  0.74985000  1.0 -0.51010345
O  O81  1  0.26109000  0.28213000  0.88058000  1.0 -0.5220227411
O  O82  1  0.73891000  0.71787000  0.88058000  1.0 -0.5220227411
O  O83  1  0.73891000  0.28213000  0.11942000  1.0 -0.5220227411
O  O84  1  0.26109000  0.71787000  0.11942000  1.0 -0.5220227411
O  O85  1  0.88058000  0.26109000  0.28213000  1.0 -0.5220227411
O  O86  1  0.88058000  0.73891000  0.71787000  1.0 -0.5220227411
O  O87  1  0.11942000  0.73891000  0.28213000  1.0 -0.5220227411
O  O88  1  0.11942000  0.26109000  0.71787000  1.0 -0.5220227411
O  O89  1  0.28213000  0.88058000  0.26109000  1.0 -0.5220227411
O  O90  1  0.71787000  0.88058000  0.73891000  1.0 -0.5220227411
O  O91  1  0.28213000  0.11942000  0.73891000  1.0 -0.5220227411
O  O92  1  0.71787000  0.11942000  0.26109000  1.0 -0.5220227411
O  O93  1  0.78213000  0.76109000  0.38058000  1.0 -0.5220227411
O  O94  1  0.21787000  0.23891000  0.38058000  1.0 -0.5220227411
O  O95  1  0.78213000  0.23891000  0.61942000  1.0 -0.5220227411
O  O96  1  0.21787000  0.76109000  0.61942000  1.0 -0.5220227411
O  O97  1  0.76109000  0.38058000  0.78213000  1.0 -0.5220227411
O  O98  1  0.23891000  0.38058000  0.21787000  1.0 -0.5220227411
O  O99  1  0.23891000  0.61942000  0.78213000  1.0 -0.5220227411
O  O100  1  0.76109000  0.61942000  0.21787000  1.0 -0.5220227411
O  O101  1  0.38058000  0.78213000  0.76109000  1.0 -0.5220227411
O  O102  1  0.38058000  0.21787000  0.23891000  1.0 -0.5220227411
O  O103  1  0.61942000  0.78213000  0.23891000  1.0 -0.5220227411
O  O104  1  0.61942000  0.21787000  0.76109000  1.0 -0.5220227411
