# DDEC6 charges by PACMAN v1.1 (https://github.com/mtap-research/PACMAN-charge/)
data_VALXIS_ASR_pacman
_symmetry_space_group_name_H-M   'P 1'
_cell_length_a   22.11520000
_cell_length_b   22.11520000
_cell_length_c   22.11520000
_cell_angle_alpha   90.00000000
_cell_angle_beta   90.00000000
_cell_angle_gamma   90.00000000
_symmetry_Int_Tables_number   1
_chemical_formula_structural   Ni3H9C24N3O13
_chemical_formula_sum   'Ni24 H72 C192 N24 O104'
_cell_volume   10816.14781746
_cell_formula_units_Z   8
loop_
 _symmetry_equiv_pos_site_id
 _symmetry_equiv_pos_as_xyz
  1  'x, y, z'
loop_
 _atom_site_type_symbol
 _atom_site_label
 _atom_site_symmetry_multiplicity
 _atom_site_fract_x
 _atom_site_fract_y
 _atom_site_fract_z
 _atom_site_occupancy
 _atom_site_charge
Ni  Ni1  1  0.23945000  0.30666000  0.17772000  1.0 1.0821215515
Ni  Ni2  1  0.76055000  0.69334000  0.17772000  1.0 1.0821215515
Ni  Ni3  1  0.76055000  0.30666000  0.82228000  1.0 1.0821215515
Ni  Ni4  1  0.23945000  0.69334000  0.82228000  1.0 1.0821215515
Ni  Ni5  1  0.17772000  0.23945000  0.30666000  1.0 1.0821215515
Ni  Ni6  1  0.17772000  0.76055000  0.69334000  1.0 1.0821215515
Ni  Ni7  1  0.82228000  0.76055000  0.30666000  1.0 1.0821215515
Ni  Ni8  1  0.82228000  0.23945000  0.69334000  1.0 1.0821215515
Ni  Ni9  1  0.30666000  0.17772000  0.23945000  1.0 1.0821215515
Ni  Ni10  1  0.69334000  0.17772000  0.76055000  1.0 1.0821215515
Ni  Ni11  1  0.30666000  0.82228000  0.76055000  1.0 1.0821215515
Ni  Ni12  1  0.69334000  0.82228000  0.23945000  1.0 1.0821215515
Ni  Ni13  1  0.80666000  0.73945000  0.67772000  1.0 1.0821215515
Ni  Ni14  1  0.19334000  0.26055000  0.67772000  1.0 1.0821215515
Ni  Ni15  1  0.80666000  0.26055000  0.32228000  1.0 1.0821215515
Ni  Ni16  1  0.19334000  0.73945000  0.32228000  1.0 1.0821215515
Ni  Ni17  1  0.73945000  0.67772000  0.80666000  1.0 1.0821215515
Ni  Ni18  1  0.26055000  0.67772000  0.19334000  1.0 1.0821215515
Ni  Ni19  1  0.26055000  0.32228000  0.80666000  1.0 1.0821215515
Ni  Ni20  1  0.73945000  0.32228000  0.19334000  1.0 1.0821215515
Ni  Ni21  1  0.67772000  0.80666000  0.73945000  1.0 1.0821215515
Ni  Ni22  1  0.67772000  0.19334000  0.26055000  1.0 1.0821215515
Ni  Ni23  1  0.32228000  0.80666000  0.26055000  1.0 1.0821215515
Ni  Ni24  1  0.32228000  0.19334000  0.73945000  1.0 1.0821215515
H  H1  1  0.19850000  0.39420000  0.40830000  1.0 0.1388476426
H  H2  1  0.80150000  0.60580000  0.40830000  1.0 0.1388476426
H  H3  1  0.80150000  0.39420000  0.59170000  1.0 0.1388476426
H  H4  1  0.19850000  0.60580000  0.59170000  1.0 0.1388476426
H  H5  1  0.40830000  0.19850000  0.39420000  1.0 0.1388476426
H  H6  1  0.40830000  0.80150000  0.60580000  1.0 0.1388476426
H  H7  1  0.59170000  0.80150000  0.39420000  1.0 0.1388476426
H  H8  1  0.59170000  0.19850000  0.60580000  1.0 0.1388476426
H  H9  1  0.39420000  0.40830000  0.19850000  1.0 0.1388476426
H  H10  1  0.60580000  0.40830000  0.80150000  1.0 0.1388476426
H  H11  1  0.39420000  0.59170000  0.80150000  1.0 0.1388476426
H  H12  1  0.60580000  0.59170000  0.19850000  1.0 0.1388476426
H  H13  1  0.89420000  0.69850000  0.90830000  1.0 0.1388476426
H  H14  1  0.10580000  0.30150000  0.90830000  1.0 0.1388476426
H  H15  1  0.89420000  0.30150000  0.09170000  1.0 0.1388476426
H  H16  1  0.10580000  0.69850000  0.09170000  1.0 0.1388476426
H  H17  1  0.69850000  0.90830000  0.89420000  1.0 0.1388476426
H  H18  1  0.30150000  0.90830000  0.10580000  1.0 0.1388476426
H  H19  1  0.30150000  0.09170000  0.89420000  1.0 0.1388476426
H  H20  1  0.69850000  0.09170000  0.10580000  1.0 0.1388476426
H  H21  1  0.90830000  0.89420000  0.69850000  1.0 0.1388476426
H  H22  1  0.90830000  0.10580000  0.30150000  1.0 0.1388476426
H  H23  1  0.09170000  0.89420000  0.30150000  1.0 0.1388476426
H  H24  1  0.09170000  0.10580000  0.69850000  1.0 0.1388476426
H  H25  1  0.21200000  0.57490000  0.41590000  1.0 0.1293737247
H  H26  1  0.78800000  0.42510000  0.41590000  1.0 0.1293737247
H  H27  1  0.78800000  0.57490000  0.58410000  1.0 0.1293737247
H  H28  1  0.21200000  0.42510000  0.58410000  1.0 0.1293737247
H  H29  1  0.41590000  0.21200000  0.57490000  1.0 0.1293737247
H  H30  1  0.41590000  0.78800000  0.42510000  1.0 0.1293737247
H  H31  1  0.58410000  0.78800000  0.57490000  1.0 0.1293737247
H  H32  1  0.58410000  0.21200000  0.42510000  1.0 0.1293737247
H  H33  1  0.57490000  0.41590000  0.21200000  1.0 0.1293737247
H  H34  1  0.42510000  0.41590000  0.78800000  1.0 0.1293737247
H  H35  1  0.57490000  0.58410000  0.78800000  1.0 0.1293737247
H  H36  1  0.42510000  0.58410000  0.21200000  1.0 0.1293737247
H  H37  1  0.07490000  0.71200000  0.91590000  1.0 0.1293737247
H  H38  1  0.92510000  0.28800000  0.91590000  1.0 0.1293737247
H  H39  1  0.07490000  0.28800000  0.08410000  1.0 0.1293737247
H  H40  1  0.92510000  0.71200000  0.08410000  1.0 0.1293737247
H  H41  1  0.71200000  0.91590000  0.07490000  1.0 0.1293737247
H  H42  1  0.28800000  0.91590000  0.92510000  1.0 0.1293737247
H  H43  1  0.28800000  0.08410000  0.07490000  1.0 0.1293737247
H  H44  1  0.71200000  0.08410000  0.92510000  1.0 0.1293737247
H  H45  1  0.91590000  0.07490000  0.71200000  1.0 0.1293737247
H  H46  1  0.91590000  0.92510000  0.28800000  1.0 0.1293737247
H  H47  1  0.08410000  0.07490000  0.28800000  1.0 0.1293737247
H  H48  1  0.08410000  0.92510000  0.71200000  1.0 0.1293737247
H  H49  1  0.22080000  0.49160000  0.25600000  1.0 0.1388476426
H  H50  1  0.77920000  0.50840000  0.25600000  1.0 0.1388476426
H  H51  1  0.77920000  0.49160000  0.74400000  1.0 0.1388476426
H  H52  1  0.22080000  0.50840000  0.74400000  1.0 0.1388476426
H  H53  1  0.25600000  0.22080000  0.49160000  1.0 0.1388476426
H  H54  1  0.25600000  0.77920000  0.50840000  1.0 0.1388476426
H  H55  1  0.74400000  0.77920000  0.49160000  1.0 0.1388476426
H  H56  1  0.74400000  0.22080000  0.50840000  1.0 0.1388476426
H  H57  1  0.49160000  0.25600000  0.22080000  1.0 0.1388476426
H  H58  1  0.50840000  0.25600000  0.77920000  1.0 0.1388476426
H  H59  1  0.49160000  0.74400000  0.77920000  1.0 0.1388476426
H  H60  1  0.50840000  0.74400000  0.22080000  1.0 0.1388476426
H  H61  1  0.99160000  0.72080000  0.75600000  1.0 0.1388476426
H  H62  1  0.00840000  0.27920000  0.75600000  1.0 0.1388476426
H  H63  1  0.99160000  0.27920000  0.24400000  1.0 0.1388476426
H  H64  1  0.00840000  0.72080000  0.24400000  1.0 0.1388476426
H  H65  1  0.72080000  0.75600000  0.99160000  1.0 0.1388476426
H  H66  1  0.27920000  0.75600000  0.00840000  1.0 0.1388476426
H  H67  1  0.27920000  0.24400000  0.99160000  1.0 0.1388476426
H  H68  1  0.72080000  0.24400000  0.00840000  1.0 0.1388476426
H  H69  1  0.75600000  0.99160000  0.72080000  1.0 0.1388476426
H  H70  1  0.75600000  0.00840000  0.27920000  1.0 0.1388476426
H  H71  1  0.24400000  0.99160000  0.27920000  1.0 0.1388476426
H  H72  1  0.24400000  0.00840000  0.72080000  1.0 0.1388476426
C  C1  1  0.22140000  0.60478000  0.30259000  1.0 0.5922330941
C  C2  1  0.77860000  0.39522000  0.30259000  1.0 0.5922330941
C  C3  1  0.77860000  0.60478000  0.69741000  1.0 0.5922330941
C  C4  1  0.22140000  0.39522000  0.69741000  1.0 0.5922330941
C  C5  1  0.30259000  0.22140000  0.60478000  1.0 0.5922330941
C  C6  1  0.30259000  0.77860000  0.39522000  1.0 0.5922330941
C  C7  1  0.69741000  0.77860000  0.60478000  1.0 0.5922330941
C  C8  1  0.69741000  0.22140000  0.39522000  1.0 0.5922330941
C  C9  1  0.60478000  0.30259000  0.22140000  1.0 0.5922330941
C  C10  1  0.39522000  0.30259000  0.77860000  1.0 0.5922330941
C  C11  1  0.60478000  0.69741000  0.77860000  1.0 0.5922330941
C  C12  1  0.39522000  0.69741000  0.22140000  1.0 0.5922330941
C  C13  1  0.10478000  0.72140000  0.80259000  1.0 0.5952138805
C  C14  1  0.89522000  0.27860000  0.80259000  1.0 0.5922330941
C  C15  1  0.10478000  0.27860000  0.19741000  1.0 0.5922330941
C  C16  1  0.89522000  0.72140000  0.19741000  1.0 0.5922330941
C  C17  1  0.72140000  0.80259000  0.10478000  1.0 0.5922330941
C  C18  1  0.27860000  0.80259000  0.89522000  1.0 0.5922330941
C  C19  1  0.27860000  0.19741000  0.10478000  1.0 0.5922330941
C  C20  1  0.72140000  0.19741000  0.89522000  1.0 0.5922330941
C  C21  1  0.80259000  0.10478000  0.72140000  1.0 0.5922330941
C  C22  1  0.80259000  0.89522000  0.27860000  1.0 0.5922330941
C  C23  1  0.19741000  0.10478000  0.27860000  1.0 0.5922330941
C  C24  1  0.19741000  0.89522000  0.72140000  1.0 0.5922330941
C  C25  1  0.20740000  0.37407000  0.29170000  1.0 0.5922330941
C  C26  1  0.79260000  0.62593000  0.29170000  1.0 0.5922330941
C  C27  1  0.79260000  0.37407000  0.70830000  1.0 0.5922330941
C  C28  1  0.20740000  0.62593000  0.70830000  1.0 0.5922330941
C  C29  1  0.29170000  0.20740000  0.37407000  1.0 0.5922330941
C  C30  1  0.29170000  0.79260000  0.62593000  1.0 0.5922330941
C  C31  1  0.70830000  0.79260000  0.37407000  1.0 0.5922330941
C  C32  1  0.70830000  0.20740000  0.62593000  1.0 0.5922330941
C  C33  1  0.37407000  0.29170000  0.20740000  1.0 0.5922330941
C  C34  1  0.62593000  0.29170000  0.79260000  1.0 0.5922330941
C  C35  1  0.37407000  0.70830000  0.79260000  1.0 0.5922330941
C  C36  1  0.62593000  0.70830000  0.20740000  1.0 0.5922330941
C  C37  1  0.87407000  0.70740000  0.79170000  1.0 0.5922330941
C  C38  1  0.12593000  0.29260000  0.79170000  1.0 0.5922330941
C  C39  1  0.87407000  0.29260000  0.20830000  1.0 0.5922330941
C  C40  1  0.12593000  0.70740000  0.20830000  1.0 0.5922330941
C  C41  1  0.70740000  0.79170000  0.87407000  1.0 0.5922330941
C  C42  1  0.29260000  0.79170000  0.12593000  1.0 0.5922330941
C  C43  1  0.29260000  0.20830000  0.87407000  1.0 0.5922330941
C  C44  1  0.70740000  0.20830000  0.12593000  1.0 0.5922330941
C  C45  1  0.79170000  0.87407000  0.70740000  1.0 0.5922330941
C  C46  1  0.79170000  0.12593000  0.29260000  1.0 0.5922330941
C  C47  1  0.20830000  0.87407000  0.29260000  1.0 0.5922330941
C  C48  1  0.20830000  0.12593000  0.70740000  1.0 0.5922330941
C  C49  1  0.20240000  0.43123000  0.38880000  1.0 -0.1563736519
C  C50  1  0.79760000  0.56877000  0.38880000  1.0 -0.1563736519
C  C51  1  0.79760000  0.43123000  0.61120000  1.0 -0.1563736519
C  C52  1  0.20240000  0.56877000  0.61120000  1.0 -0.1563736519
C  C53  1  0.38880000  0.20240000  0.43123000  1.0 -0.1563736519
C  C54  1  0.38880000  0.79760000  0.56877000  1.0 -0.1563736519
C  C55  1  0.61120000  0.79760000  0.43123000  1.0 -0.1563736519
C  C56  1  0.61120000  0.20240000  0.56877000  1.0 -0.1563736519
C  C57  1  0.43123000  0.38880000  0.20240000  1.0 -0.1563736519
C  C58  1  0.56877000  0.38880000  0.79760000  1.0 -0.1563736519
C  C59  1  0.43123000  0.61120000  0.79760000  1.0 -0.1563736519
C  C60  1  0.56877000  0.61120000  0.20240000  1.0 -0.1563736519
C  C61  1  0.93123000  0.70240000  0.88880000  1.0 -0.1563736519
C  C62  1  0.06877000  0.29760000  0.88880000  1.0 -0.1563736519
C  C63  1  0.93123000  0.29760000  0.11120000  1.0 -0.1563736519
C  C64  1  0.06877000  0.70240000  0.11120000  1.0 -0.1563736519
C  C65  1  0.70240000  0.88880000  0.93123000  1.0 -0.1563736519
C  C66  1  0.29760000  0.88880000  0.06877000  1.0 -0.1563736519
C  C67  1  0.29760000  0.11120000  0.93123000  1.0 -0.1563736519
C  C68  1  0.70240000  0.11120000  0.06877000  1.0 -0.1563736519
C  C69  1  0.88880000  0.93123000  0.70240000  1.0 -0.1563736519
C  C70  1  0.88880000  0.06877000  0.29760000  1.0 -0.1563736519
C  C71  1  0.11120000  0.93123000  0.29760000  1.0 -0.1563736519
C  C72  1  0.11120000  0.06877000  0.70240000  1.0 -0.1563736519
C  C73  1  0.21000000  0.53966000  0.39309000  1.0 -0.1508572545
C  C74  1  0.79000000  0.46034000  0.39309000  1.0 -0.1508572545
C  C75  1  0.79000000  0.53966000  0.60691000  1.0 -0.1508572545
C  C76  1  0.21000000  0.46034000  0.60691000  1.0 -0.1508572545
C  C77  1  0.39309000  0.21000000  0.53966000  1.0 -0.1508572545
C  C78  1  0.39309000  0.79000000  0.46034000  1.0 -0.1508572545
C  C79  1  0.60691000  0.79000000  0.53966000  1.0 -0.1508572545
C  C80  1  0.60691000  0.21000000  0.46034000  1.0 -0.1508572545
C  C81  1  0.53966000  0.39309000  0.21000000  1.0 -0.1508572545
C  C82  1  0.46034000  0.39309000  0.79000000  1.0 -0.1508572545
C  C83  1  0.53966000  0.60691000  0.79000000  1.0 -0.1508572545
C  C84  1  0.46034000  0.60691000  0.21000000  1.0 -0.1508572545
C  C85  1  0.03966000  0.71000000  0.89309000  1.0 -0.1508572545
C  C86  1  0.96034000  0.29000000  0.89309000  1.0 -0.1508572545
C  C87  1  0.03966000  0.29000000  0.10691000  1.0 -0.1508572545
C  C88  1  0.96034000  0.71000000  0.10691000  1.0 -0.1508572545
C  C89  1  0.71000000  0.89309000  0.03966000  1.0 -0.1508572545
C  C90  1  0.29000000  0.89309000  0.96034000  1.0 -0.1508572545
C  C91  1  0.29000000  0.10691000  0.03966000  1.0 -0.1508572545
C  C92  1  0.71000000  0.10691000  0.96034000  1.0 -0.1508572545
C  C93  1  0.89309000  0.03966000  0.71000000  1.0 -0.1508572545
C  C94  1  0.89309000  0.96034000  0.29000000  1.0 -0.1508572545
C  C95  1  0.10691000  0.03966000  0.29000000  1.0 -0.1508572545
C  C96  1  0.10691000  0.96034000  0.71000000  1.0 -0.1508572545
C  C97  1  0.20820000  0.43381000  0.32590000  1.0 0.0173852209
C  C98  1  0.79180000  0.56619000  0.32590000  1.0 0.0173852209
C  C99  1  0.79180000  0.43381000  0.67410000  1.0 0.0173852209
C  C100  1  0.20820000  0.56619000  0.67410000  1.0 0.0173852209
C  C101  1  0.32590000  0.20820000  0.43381000  1.0 0.0173852209
C  C102  1  0.32590000  0.79180000  0.56619000  1.0 0.0173852209
C  C103  1  0.67410000  0.79180000  0.43381000  1.0 0.0173852209
C  C104  1  0.67410000  0.20820000  0.56619000  1.0 0.0173852209
C  C105  1  0.43381000  0.32590000  0.20820000  1.0 0.0173852209
C  C106  1  0.56619000  0.32590000  0.79180000  1.0 0.0173852209
C  C107  1  0.43381000  0.67410000  0.79180000  1.0 0.0173852209
C  C108  1  0.56619000  0.67410000  0.20820000  1.0 0.0173852209
C  C109  1  0.93381000  0.70820000  0.82590000  1.0 0.0173852209
C  C110  1  0.06619000  0.29180000  0.82590000  1.0 0.0173852209
C  C111  1  0.93381000  0.29180000  0.17410000  1.0 0.0173852209
C  C112  1  0.06619000  0.70820000  0.17410000  1.0 0.0173852209
C  C113  1  0.70820000  0.82590000  0.93381000  1.0 0.0173852209
C  C114  1  0.29180000  0.82590000  0.06619000  1.0 0.0173852209
C  C115  1  0.29180000  0.17410000  0.93381000  1.0 0.0173852209
C  C116  1  0.70820000  0.17410000  0.06619000  1.0 0.0173852209
C  C117  1  0.82590000  0.93381000  0.70820000  1.0 0.0173852209
C  C118  1  0.82590000  0.06619000  0.29180000  1.0 0.0173852209
C  C119  1  0.17410000  0.93381000  0.29180000  1.0 0.0173852209
C  C120  1  0.17410000  0.06619000  0.70820000  1.0 0.0173852209
C  C121  1  0.20270000  0.48420000  0.42146000  1.0 0.1388476426
C  C122  1  0.79730000  0.51580000  0.42146000  1.0 0.1455723399
C  C123  1  0.79730000  0.48420000  0.57854000  1.0 0.1455723399
C  C124  1  0.20270000  0.51580000  0.57854000  1.0 0.1388476426
C  C125  1  0.42146000  0.20270000  0.48420000  1.0 0.1455723399
C  C126  1  0.42146000  0.79730000  0.51580000  1.0 0.1455723399
C  C127  1  0.57854000  0.79730000  0.48420000  1.0 0.1455723399
C  C128  1  0.57854000  0.20270000  0.51580000  1.0 0.1455723399
C  C129  1  0.48420000  0.42146000  0.20270000  1.0 0.1455723399
C  C130  1  0.51580000  0.42146000  0.79730000  1.0 0.1388476426
C  C131  1  0.48420000  0.57854000  0.79730000  1.0 0.1388476426
C  C132  1  0.51580000  0.57854000  0.20270000  1.0 0.1455723399
C  C133  1  0.98420000  0.70270000  0.92146000  1.0 0.1388476426
C  C134  1  0.01580000  0.29730000  0.92146000  1.0 0.1388476426
C  C135  1  0.98420000  0.29730000  0.07854000  1.0 0.1455723399
C  C136  1  0.01580000  0.70270000  0.07854000  1.0 0.1455723399
C  C137  1  0.70270000  0.92146000  0.98420000  1.0 0.1388476426
C  C138  1  0.29730000  0.92146000  0.01580000  1.0 0.1455723399
C  C139  1  0.29730000  0.07854000  0.98420000  1.0 0.1388476426
C  C140  1  0.70270000  0.07854000  0.01580000  1.0 0.1455723399
C  C141  1  0.92146000  0.98420000  0.70270000  1.0 0.1455723399
C  C142  1  0.92146000  0.01580000  0.29730000  1.0 0.1388476426
C  C143  1  0.07854000  0.98420000  0.29730000  1.0 0.1455723399
C  C144  1  0.07854000  0.01580000  0.70270000  1.0 0.1388476426
C  C145  1  0.21410000  0.54236000  0.33122000  1.0 0.0122361321
C  C146  1  0.78590000  0.45764000  0.33122000  1.0 0.0122361321
C  C147  1  0.78590000  0.54236000  0.66878000  1.0 0.0122361321
C  C148  1  0.21410000  0.45764000  0.66878000  1.0 0.0122361321
C  C149  1  0.33122000  0.21410000  0.54236000  1.0 0.0122361321
C  C150  1  0.33122000  0.78590000  0.45764000  1.0 0.0122361321
C  C151  1  0.66878000  0.78590000  0.54236000  1.0 0.0122361321
C  C152  1  0.66878000  0.21410000  0.45764000  1.0 0.0122361321
C  C153  1  0.54236000  0.33122000  0.21410000  1.0 0.0122361321
C  C154  1  0.45764000  0.33122000  0.78590000  1.0 0.0122361321
C  C155  1  0.54236000  0.66878000  0.78590000  1.0 0.0122361321
C  C156  1  0.45764000  0.66878000  0.21410000  1.0 0.0122361321
C  C157  1  0.04236000  0.71410000  0.83122000  1.0 0.0122361321
C  C158  1  0.95764000  0.28590000  0.83122000  1.0 0.0122361321
C  C159  1  0.04236000  0.28590000  0.16878000  1.0 0.0122361321
C  C160  1  0.95764000  0.71410000  0.16878000  1.0 0.0122361321
C  C161  1  0.71410000  0.83122000  0.04236000  1.0 0.0122361321
C  C162  1  0.28590000  0.83122000  0.95764000  1.0 0.0122361321
C  C163  1  0.28590000  0.16878000  0.04236000  1.0 0.0122361321
C  C164  1  0.71410000  0.16878000  0.95764000  1.0 0.0122361321
C  C165  1  0.83122000  0.04236000  0.71410000  1.0 0.0122361321
C  C166  1  0.83122000  0.95764000  0.28590000  1.0 0.0122361321
C  C167  1  0.16878000  0.04236000  0.28590000  1.0 0.0122361321
C  C168  1  0.16878000  0.95764000  0.71410000  1.0 0.0122361321
C  C169  1  0.21530000  0.48978000  0.29765000  1.0 -0.0964927651
C  C170  1  0.78470000  0.51022000  0.29765000  1.0 -0.0964927651
C  C171  1  0.78470000  0.48978000  0.70235000  1.0 -0.0964927651
C  C172  1  0.21530000  0.51022000  0.70235000  1.0 -0.0964927651
C  C173  1  0.29765000  0.21530000  0.48978000  1.0 -0.0964927651
C  C174  1  0.29765000  0.78470000  0.51022000  1.0 -0.0964927651
C  C175  1  0.70235000  0.78470000  0.48978000  1.0 -0.0964927651
C  C176  1  0.70235000  0.21530000  0.51022000  1.0 -0.0964927651
C  C177  1  0.48978000  0.29765000  0.21530000  1.0 -0.0964927651
C  C178  1  0.51022000  0.29765000  0.78470000  1.0 -0.0964927651
C  C179  1  0.48978000  0.70235000  0.78470000  1.0 -0.0964927651
C  C180  1  0.51022000  0.70235000  0.21530000  1.0 -0.0964927651
C  C181  1  0.98978000  0.71530000  0.79765000  1.0 -0.0964927651
C  C182  1  0.01022000  0.28470000  0.79765000  1.0 -0.0964927651
C  C183  1  0.98978000  0.28470000  0.20235000  1.0 -0.0964927651
C  C184  1  0.01022000  0.71530000  0.20235000  1.0 -0.0964927651
C  C185  1  0.71530000  0.79765000  0.98978000  1.0 -0.0964927651
C  C186  1  0.28470000  0.79765000  0.01022000  1.0 -0.0964927651
C  C187  1  0.28470000  0.20235000  0.98978000  1.0 -0.0964927651
C  C188  1  0.71530000  0.20235000  0.01022000  1.0 -0.0964927651
C  C189  1  0.79765000  0.98978000  0.71530000  1.0 -0.0964927651
C  C190  1  0.79765000  0.01022000  0.28470000  1.0 -0.0964927651
C  C191  1  0.20235000  0.98978000  0.28470000  1.0 -0.0964927651
C  C192  1  0.20235000  0.01022000  0.71530000  1.0 -0.0964927651
N  N1  1  0.20120000  0.47728000  0.48678000  1.0 -0.0772223058
N  N2  1  0.79880000  0.52272000  0.48678000  1.0 -0.0772223058
N  N3  1  0.79880000  0.47728000  0.51322000  1.0 -0.0772223058
N  N4  1  0.20120000  0.52272000  0.51322000  1.0 -0.0772223058
N  N5  1  0.48678000  0.20120000  0.47728000  1.0 -0.0772223058
N  N6  1  0.48678000  0.79880000  0.52272000  1.0 -0.0772223058
N  N7  1  0.51322000  0.79880000  0.47728000  1.0 -0.0772223058
N  N8  1  0.51322000  0.20120000  0.52272000  1.0 -0.0772223058
N  N9  1  0.47728000  0.48678000  0.20120000  1.0 -0.0772223058
N  N10  1  0.52272000  0.48678000  0.79880000  1.0 -0.0772223058
N  N11  1  0.47728000  0.51322000  0.79880000  1.0 -0.0772223058
N  N12  1  0.52272000  0.51322000  0.20120000  1.0 -0.0772223058
N  N13  1  0.97728000  0.70120000  0.98678000  1.0 -0.0772223058
N  N14  1  0.02272000  0.29880000  0.98678000  1.0 -0.0772223058
N  N15  1  0.97728000  0.29880000  0.01322000  1.0 -0.0772223058
N  N16  1  0.02272000  0.70120000  0.01322000  1.0 -0.0772223058
N  N17  1  0.70120000  0.98678000  0.97728000  1.0 -0.0772223058
N  N18  1  0.29880000  0.98678000  0.02272000  1.0 -0.0772223058
N  N19  1  0.29880000  0.01322000  0.97728000  1.0 -0.0772223058
N  N20  1  0.70120000  0.01322000  0.02272000  1.0 -0.0772223058
N  N21  1  0.98678000  0.97728000  0.70120000  1.0 -0.0772223058
N  N22  1  0.98678000  0.02272000  0.29880000  1.0 -0.0772223058
N  N23  1  0.01322000  0.97728000  0.29880000  1.0 -0.0772223058
N  N24  1  0.01322000  0.02272000  0.70120000  1.0 -0.0772223058
O  O1  1  0.23843000  0.23843000  0.23843000  1.0 -0.853462877
O  O2  1  0.76157000  0.76157000  0.23843000  1.0 -0.853462877
O  O3  1  0.76157000  0.23843000  0.76157000  1.0 -0.853462877
O  O4  1  0.23843000  0.76157000  0.76157000  1.0 -0.853462877
O  O5  1  0.73843000  0.73843000  0.73843000  1.0 -0.853462877
O  O6  1  0.26157000  0.26157000  0.73843000  1.0 -0.853462877
O  O7  1  0.73843000  0.26157000  0.26157000  1.0 -0.853462877
O  O8  1  0.26157000  0.73843000  0.26157000  1.0 -0.853462877
O  O9  1  0.19003000  0.32988000  0.32130000  1.0 -0.5215083369
O  O10  1  0.80997000  0.67012000  0.32130000  1.0 -0.5215083369
O  O11  1  0.80997000  0.32988000  0.67870000  1.0 -0.5215083369
O  O12  1  0.19003000  0.67012000  0.67870000  1.0 -0.5215083369
O  O13  1  0.32130000  0.19003000  0.32988000  1.0 -0.5215083369
O  O14  1  0.32130000  0.80997000  0.67012000  1.0 -0.5215083369
O  O15  1  0.67870000  0.80997000  0.32988000  1.0 -0.5215083369
O  O16  1  0.67870000  0.19003000  0.67012000  1.0 -0.5215083369
O  O17  1  0.32988000  0.32130000  0.19003000  1.0 -0.5215083369
O  O18  1  0.67012000  0.32130000  0.80997000  1.0 -0.5215083369
O  O19  1  0.32988000  0.67870000  0.80997000  1.0 -0.5215083369
O  O20  1  0.67012000  0.67870000  0.19003000  1.0 -0.5215083369
O  O21  1  0.82988000  0.69003000  0.82130000  1.0 -0.5215083369
O  O22  1  0.17012000  0.30997000  0.82130000  1.0 -0.5215083369
O  O23  1  0.82988000  0.30997000  0.17870000  1.0 -0.5215083369
O  O24  1  0.17012000  0.69003000  0.17870000  1.0 -0.5215083369
O  O25  1  0.69003000  0.82130000  0.82988000  1.0 -0.5215083369
O  O26  1  0.30997000  0.82130000  0.17012000  1.0 -0.5215083369
O  O27  1  0.30997000  0.17870000  0.82988000  1.0 -0.5215083369
O  O28  1  0.69003000  0.17870000  0.17012000  1.0 -0.5215083369
O  O29  1  0.82130000  0.82988000  0.69003000  1.0 -0.5215083369
O  O30  1  0.82130000  0.17012000  0.30997000  1.0 -0.5215083369
O  O31  1  0.17870000  0.82988000  0.30997000  1.0 -0.5215083369
O  O32  1  0.17870000  0.17012000  0.69003000  1.0 -0.5215083369
O  O33  1  0.20578000  0.64817000  0.33543000  1.0 -0.5215083369
O  O34  1  0.79422000  0.35183000  0.33543000  1.0 -0.5215083369
O  O35  1  0.79422000  0.64817000  0.66457000  1.0 -0.5215083369
O  O36  1  0.20578000  0.35183000  0.66457000  1.0 -0.5215083369
O  O37  1  0.33543000  0.20578000  0.64817000  1.0 -0.5215083369
O  O38  1  0.33543000  0.79422000  0.35183000  1.0 -0.5215083369
O  O39  1  0.66457000  0.79422000  0.64817000  1.0 -0.5215083369
O  O40  1  0.66457000  0.20578000  0.35183000  1.0 -0.5215083369
O  O41  1  0.64817000  0.33543000  0.20578000  1.0 -0.5215083369
O  O42  1  0.35183000  0.33543000  0.79422000  1.0 -0.5215083369
O  O43  1  0.64817000  0.66457000  0.79422000  1.0 -0.5215083369
O  O44  1  0.35183000  0.66457000  0.20578000  1.0 -0.5215083369
O  O45  1  0.14817000  0.70578000  0.83543000  1.0 -0.5215083369
O  O46  1  0.85183000  0.29422000  0.83543000  1.0 -0.5215083369
O  O47  1  0.14817000  0.29422000  0.16457000  1.0 -0.5215083369
O  O48  1  0.85183000  0.70578000  0.16457000  1.0 -0.5215083369
O  O49  1  0.70578000  0.83543000  0.14817000  1.0 -0.5215083369
O  O50  1  0.29422000  0.83543000  0.85183000  1.0 -0.5215083369
O  O51  1  0.29422000  0.16457000  0.14817000  1.0 -0.5215083369
O  O52  1  0.70578000  0.16457000  0.85183000  1.0 -0.5215083369
O  O53  1  0.83543000  0.14817000  0.70578000  1.0 -0.5215083369
O  O54  1  0.83543000  0.85183000  0.29422000  1.0 -0.5215083369
O  O55  1  0.16457000  0.14817000  0.29422000  1.0 -0.5215083369
O  O56  1  0.16457000  0.85183000  0.70578000  1.0 -0.5215083369
O  O57  1  0.24209000  0.60592000  0.25007000  1.0 -0.5260239736
O  O58  1  0.75791000  0.39408000  0.25007000  1.0 -0.5260239736
O  O59  1  0.75791000  0.60592000  0.74993000  1.0 -0.5260239736
O  O60  1  0.24209000  0.39408000  0.74993000  1.0 -0.5260239736
O  O61  1  0.25007000  0.24209000  0.60592000  1.0 -0.5260239736
O  O62  1  0.25007000  0.75791000  0.39408000  1.0 -0.5260239736
O  O63  1  0.74993000  0.75791000  0.60592000  1.0 -0.5260239736
O  O64  1  0.74993000  0.24209000  0.39408000  1.0 -0.5260239736
O  O65  1  0.60592000  0.25007000  0.24209000  1.0 -0.5260239736
O  O66  1  0.39408000  0.25007000  0.75791000  1.0 -0.5260239736
O  O67  1  0.60592000  0.74993000  0.75791000  1.0 -0.5260239736
O  O68  1  0.39408000  0.74993000  0.24209000  1.0 -0.5260239736
O  O69  1  0.10592000  0.74209000  0.75007000  1.0 -0.5260239736
O  O70  1  0.89408000  0.25791000  0.75007000  1.0 -0.5260239736
O  O71  1  0.10592000  0.25791000  0.24993000  1.0 -0.5260239736
O  O72  1  0.89408000  0.74209000  0.24993000  1.0 -0.5260239736
O  O73  1  0.74209000  0.75007000  0.10592000  1.0 -0.5260239736
O  O74  1  0.25791000  0.75007000  0.89408000  1.0 -0.5260239736
O  O75  1  0.25791000  0.24993000  0.10592000  1.0 -0.5260239736
O  O76  1  0.74209000  0.24993000  0.89408000  1.0 -0.5260239736
O  O77  1  0.75007000  0.10592000  0.74209000  1.0 -0.5260239736
O  O78  1  0.75007000  0.89408000  0.25791000  1.0 -0.5260239736
O  O79  1  0.24993000  0.10592000  0.25791000  1.0 -0.5260239736
O  O80  1  0.24993000  0.89408000  0.74209000  1.0 -0.5260239736
O  O81  1  0.22276000  0.37645000  0.23812000  1.0 -0.5116984344
O  O82  1  0.77724000  0.62355000  0.23812000  1.0 -0.5116984344
O  O83  1  0.77724000  0.37645000  0.76188000  1.0 -0.5116984344
O  O84  1  0.22276000  0.62355000  0.76188000  1.0 -0.5116984344
O  O85  1  0.23812000  0.22276000  0.37645000  1.0 -0.5116984344
O  O86  1  0.23812000  0.77724000  0.62355000  1.0 -0.5116984344
O  O87  1  0.76188000  0.77724000  0.37645000  1.0 -0.5116984344
O  O88  1  0.76188000  0.22276000  0.62355000  1.0 -0.5116984344
O  O89  1  0.37645000  0.23812000  0.22276000  1.0 -0.5116984344
O  O90  1  0.62355000  0.23812000  0.77724000  1.0 -0.5116984344
O  O91  1  0.37645000  0.76188000  0.77724000  1.0 -0.5116984344
O  O92  1  0.62355000  0.76188000  0.22276000  1.0 -0.5116984344
O  O93  1  0.87645000  0.72276000  0.73812000  1.0 -0.5116984344
O  O94  1  0.12355000  0.27724000  0.73812000  1.0 -0.5116984344
O  O95  1  0.87645000  0.27724000  0.26188000  1.0 -0.5116984344
O  O96  1  0.12355000  0.72276000  0.26188000  1.0 -0.5116984344
O  O97  1  0.72276000  0.73812000  0.87645000  1.0 -0.5116984344
O  O98  1  0.27724000  0.73812000  0.12355000  1.0 -0.5116984344
O  O99  1  0.27724000  0.26188000  0.87645000  1.0 -0.5116984344
O  O100  1  0.72276000  0.26188000  0.12355000  1.0 -0.5116984344
O  O101  1  0.73812000  0.87645000  0.72276000  1.0 -0.5116984344
O  O102  1  0.73812000  0.12355000  0.27724000  1.0 -0.5116984344
O  O103  1  0.26188000  0.87645000  0.27724000  1.0 -0.5116984344
O  O104  1  0.26188000  0.12355000  0.72276000  1.0 -0.5116984344
