# DDEC6 charges by PACMAN v1.1 (https://github.com/mtap-research/PACMAN-charge/)
data_VAMYIU_ASR_pacman
_symmetry_space_group_name_H-M   'P 1'
_cell_length_a   26.30000000
_cell_length_b   26.30000000
_cell_length_c   28.48000000
_cell_angle_alpha   90.00000000
_cell_angle_beta   90.00000000
_cell_angle_gamma   90.00000000
_symmetry_Int_Tables_number   1
_chemical_formula_structural   Cu4H56Pd4C85N9O20
_chemical_formula_sum   'Cu16 H224 Pd16 C340 N36 O80'
_cell_volume   19699.33120000
_cell_formula_units_Z   4
loop_
 _symmetry_equiv_pos_site_id
 _symmetry_equiv_pos_as_xyz
  1  'x, y, z'
loop_
 _atom_site_type_symbol
 _atom_site_label
 _atom_site_symmetry_multiplicity
 _atom_site_fract_x
 _atom_site_fract_y
 _atom_site_fract_z
 _atom_site_occupancy
 _atom_site_charge
Cu  Cu1  1  0.50000000  0.50000000  0.14295000  1.0 0.8555681864
Cu  Cu2  1  0.00000000  0.00000000  0.35705000  1.0 0.8555681864
Cu  Cu3  1  0.50000000  0.50000000  0.85705000  1.0 0.8464516097
Cu  Cu4  1  0.00000000  0.00000000  0.64295000  1.0 0.8555681864
Cu  Cu5  1  0.50000000  0.50000000  0.23582000  1.0 0.7531474093
Cu  Cu6  1  0.00000000  0.00000000  0.26418000  1.0 0.7559547882
Cu  Cu7  1  0.50000000  0.50000000  0.76418000  1.0 0.7559547882
Cu  Cu8  1  0.00000000  0.00000000  0.73582000  1.0 0.7531474093
Cu  Cu9  1  0.45521000  0.97736000  0.00000000  1.0 0.8464516097
Cu  Cu10  1  0.54479000  0.02264000  0.00000000  1.0 0.8464516097
Cu  Cu11  1  0.02264000  0.45521000  0.00000000  1.0 0.8464516097
Cu  Cu12  1  0.97736000  0.54479000  0.00000000  1.0 0.8464516097
Cu  Cu13  1  0.04479000  0.47736000  0.50000000  1.0 0.8464516097
Cu  Cu14  1  0.95521000  0.52264000  0.50000000  1.0 0.8464516097
Cu  Cu15  1  0.47736000  0.95521000  0.50000000  1.0 0.8464516097
Cu  Cu16  1  0.52264000  0.04479000  0.50000000  1.0 0.8464516097
H  H1  1  0.54880000  0.65110000  0.26090000  1.0 0.1288762665
H  H2  1  0.45120000  0.34890000  0.26090000  1.0 0.1288762665
H  H3  1  0.34890000  0.54880000  0.26090000  1.0 0.1288762665
H  H4  1  0.65110000  0.45120000  0.26090000  1.0 0.1288762665
H  H5  1  0.95120000  0.15110000  0.23910000  1.0 0.1288762665
H  H6  1  0.04880000  0.84890000  0.23910000  1.0 0.1288762665
H  H7  1  0.15110000  0.04880000  0.23910000  1.0 0.1288762665
H  H8  1  0.84890000  0.95120000  0.23910000  1.0 0.1288762665
H  H9  1  0.45120000  0.34890000  0.73910000  1.0 0.1288762665
H  H10  1  0.54880000  0.65110000  0.73910000  1.0 0.1288762665
H  H11  1  0.65110000  0.45120000  0.73910000  1.0 0.1288762665
H  H12  1  0.34890000  0.54880000  0.73910000  1.0 0.1288762665
H  H13  1  0.04880000  0.84890000  0.76090000  1.0 0.1288762665
H  H14  1  0.95120000  0.15110000  0.76090000  1.0 0.1288762665
H  H15  1  0.84890000  0.95120000  0.76090000  1.0 0.1288762665
H  H16  1  0.15110000  0.04880000  0.76090000  1.0 0.1288762665
H  H17  1  0.57870000  0.73530000  0.26300000  1.0 0.1183261148
H  H18  1  0.42130000  0.26470000  0.26300000  1.0 0.1183261148
H  H19  1  0.26470000  0.57870000  0.26300000  1.0 0.1183261148
H  H20  1  0.73530000  0.42130000  0.26300000  1.0 0.1183261148
H  H21  1  0.92130000  0.23530000  0.23700000  1.0 0.1183261148
H  H22  1  0.07870000  0.76470000  0.23700000  1.0 0.1183261148
H  H23  1  0.23530000  0.07870000  0.23700000  1.0 0.1183261148
H  H24  1  0.76470000  0.92130000  0.23700000  1.0 0.1183261148
H  H25  1  0.42130000  0.26470000  0.73700000  1.0 0.1183261148
H  H26  1  0.57870000  0.73530000  0.73700000  1.0 0.1183261148
H  H27  1  0.73530000  0.42130000  0.73700000  1.0 0.1183261148
H  H28  1  0.26470000  0.57870000  0.73700000  1.0 0.1183261148
H  H29  1  0.07870000  0.76470000  0.76300000  1.0 0.1183261148
H  H30  1  0.92130000  0.23530000  0.76300000  1.0 0.1183261148
H  H31  1  0.76470000  0.92130000  0.76300000  1.0 0.1183261148
H  H32  1  0.23530000  0.07870000  0.76300000  1.0 0.1183261148
H  H33  1  0.57940000  0.73880000  0.12330000  1.0 0.1183261148
H  H34  1  0.42060000  0.26120000  0.12330000  1.0 0.1183261148
H  H35  1  0.26120000  0.57940000  0.12330000  1.0 0.1183261148
H  H36  1  0.73880000  0.42060000  0.12330000  1.0 0.1183261148
H  H37  1  0.92060000  0.23880000  0.37670000  1.0 0.1183261148
H  H38  1  0.07940000  0.76120000  0.37670000  1.0 0.1183261148
H  H39  1  0.23880000  0.07940000  0.37670000  1.0 0.1183261148
H  H40  1  0.76120000  0.92060000  0.37670000  1.0 0.1183261148
H  H41  1  0.42060000  0.26120000  0.87670000  1.0 0.1183261148
H  H42  1  0.57940000  0.73880000  0.87670000  1.0 0.1183261148
H  H43  1  0.73880000  0.42060000  0.87670000  1.0 0.1183261148
H  H44  1  0.26120000  0.57940000  0.87670000  1.0 0.1183261148
H  H45  1  0.07940000  0.76120000  0.62330000  1.0 0.1183261148
H  H46  1  0.92060000  0.23880000  0.62330000  1.0 0.1183261148
H  H47  1  0.76120000  0.92060000  0.62330000  1.0 0.1183261148
H  H48  1  0.23880000  0.07940000  0.62330000  1.0 0.1183261148
H  H49  1  0.55020000  0.65680000  0.12030000  1.0 0.1183261148
H  H50  1  0.44980000  0.34320000  0.12030000  1.0 0.1183261148
H  H51  1  0.34320000  0.55020000  0.12030000  1.0 0.1183261148
H  H52  1  0.65680000  0.44980000  0.12030000  1.0 0.1183261148
H  H53  1  0.94980000  0.15680000  0.37970000  1.0 0.1183261148
H  H54  1  0.05020000  0.84320000  0.37970000  1.0 0.1183261148
H  H55  1  0.15680000  0.05020000  0.37970000  1.0 0.1183261148
H  H56  1  0.84320000  0.94980000  0.37970000  1.0 0.1183261148
H  H57  1  0.44980000  0.34320000  0.87970000  1.0 0.1183261148
H  H58  1  0.55020000  0.65680000  0.87970000  1.0 0.1183261148
H  H59  1  0.65680000  0.44980000  0.87970000  1.0 0.1183261148
H  H60  1  0.34320000  0.55020000  0.87970000  1.0 0.1183261148
H  H61  1  0.05020000  0.84320000  0.62030000  1.0 0.1183261148
H  H62  1  0.94980000  0.15680000  0.62030000  1.0 0.1183261148
H  H63  1  0.84320000  0.94980000  0.62030000  1.0 0.1183261148
H  H64  1  0.15680000  0.05020000  0.62030000  1.0 0.1183261148
H  H65  1  0.62200000  0.92730000  0.10050000  1.0 0.1141774962
H  H66  1  0.37800000  0.07270000  0.10050000  1.0 0.1141774962
H  H67  1  0.07270000  0.62200000  0.10050000  1.0 0.1141774962
H  H68  1  0.92730000  0.37800000  0.10050000  1.0 0.1141774962
H  H69  1  0.87800000  0.42730000  0.39950000  1.0 0.1141774962
H  H70  1  0.12200000  0.57270000  0.39950000  1.0 0.1141774962
H  H71  1  0.42730000  0.12200000  0.39950000  1.0 0.1141774962
H  H72  1  0.57270000  0.87800000  0.39950000  1.0 0.1141774962
H  H73  1  0.37800000  0.07270000  0.89950000  1.0 0.1141774962
H  H74  1  0.62200000  0.92730000  0.89950000  1.0 0.1141774962
H  H75  1  0.92730000  0.37800000  0.89950000  1.0 0.1141774962
H  H76  1  0.07270000  0.62200000  0.89950000  1.0 0.1141774962
H  H77  1  0.12200000  0.57270000  0.60050000  1.0 0.1141774962
H  H78  1  0.87800000  0.42730000  0.60050000  1.0 0.1141774962
H  H79  1  0.57270000  0.87800000  0.60050000  1.0 0.1141774962
H  H80  1  0.42730000  0.12200000  0.60050000  1.0 0.1141774962
H  H81  1  0.65210000  0.86780000  0.15340000  1.0 0.1183261148
H  H82  1  0.34790000  0.13220000  0.15340000  1.0 0.1183261148
H  H83  1  0.13220000  0.65210000  0.15340000  1.0 0.1183261148
H  H84  1  0.86780000  0.34790000  0.15340000  1.0 0.1183261148
H  H85  1  0.84790000  0.36780000  0.34660000  1.0 0.1183261148
H  H86  1  0.15210000  0.63220000  0.34660000  1.0 0.1183261148
H  H87  1  0.36780000  0.15210000  0.34660000  1.0 0.1183261148
H  H88  1  0.63220000  0.84790000  0.34660000  1.0 0.1183261148
H  H89  1  0.34790000  0.13220000  0.84660000  1.0 0.1183261148
H  H90  1  0.65210000  0.86780000  0.84660000  1.0 0.1183261148
H  H91  1  0.86780000  0.34790000  0.84660000  1.0 0.1183261148
H  H92  1  0.13220000  0.65210000  0.84660000  1.0 0.1183261148
H  H93  1  0.15210000  0.63220000  0.65340000  1.0 0.1183261148
H  H94  1  0.84790000  0.36780000  0.65340000  1.0 0.1183261148
H  H95  1  0.63220000  0.84790000  0.65340000  1.0 0.1183261148
H  H96  1  0.36780000  0.15210000  0.65340000  1.0 0.1183261148
H  H97  1  0.51090000  0.81180000  0.16580000  1.0 0.1183261148
H  H98  1  0.48910000  0.18820000  0.16580000  1.0 0.1183261148
H  H99  1  0.18820000  0.51090000  0.16580000  1.0 0.1183261148
H  H100  1  0.81180000  0.48910000  0.16580000  1.0 0.1183261148
H  H101  1  0.98910000  0.31180000  0.33420000  1.0 0.1183261148
H  H102  1  0.01090000  0.68820000  0.33420000  1.0 0.1183261148
H  H103  1  0.31180000  0.01090000  0.33420000  1.0 0.1183261148
H  H104  1  0.68820000  0.98910000  0.33420000  1.0 0.1183261148
H  H105  1  0.48910000  0.18820000  0.83420000  1.0 0.1183261148
H  H106  1  0.51090000  0.81180000  0.83420000  1.0 0.1183261148
H  H107  1  0.81180000  0.48910000  0.83420000  1.0 0.1183261148
H  H108  1  0.18820000  0.51090000  0.83420000  1.0 0.1183261148
H  H109  1  0.01090000  0.68820000  0.66580000  1.0 0.1183261148
H  H110  1  0.98910000  0.31180000  0.66580000  1.0 0.1183261148
H  H111  1  0.68820000  0.98910000  0.66580000  1.0 0.1183261148
H  H112  1  0.31180000  0.01090000  0.66580000  1.0 0.1183261148
H  H113  1  0.48260000  0.87010000  0.11290000  1.0 0.1183261148
H  H114  1  0.51740000  0.12990000  0.11290000  1.0 0.1183261148
H  H115  1  0.12990000  0.48260000  0.11290000  1.0 0.1183261148
H  H116  1  0.87010000  0.51740000  0.11290000  1.0 0.1183261148
H  H117  1  0.01740000  0.37010000  0.38710000  1.0 0.1183261148
H  H118  1  0.98260000  0.62990000  0.38710000  1.0 0.1183261148
H  H119  1  0.37010000  0.98260000  0.38710000  1.0 0.1183261148
H  H120  1  0.62990000  0.01740000  0.38710000  1.0 0.1183261148
H  H121  1  0.51740000  0.12990000  0.88710000  1.0 0.1183261148
H  H122  1  0.48260000  0.87010000  0.88710000  1.0 0.1183261148
H  H123  1  0.87010000  0.51740000  0.88710000  1.0 0.1183261148
H  H124  1  0.12990000  0.48260000  0.88710000  1.0 0.1183261148
H  H125  1  0.98260000  0.62990000  0.61290000  1.0 0.1183261148
H  H126  1  0.01740000  0.37010000  0.61290000  1.0 0.1183261148
H  H127  1  0.62990000  0.01740000  0.61290000  1.0 0.1183261148
H  H128  1  0.37010000  0.98260000  0.61290000  1.0 0.1183261148
H  H129  1  0.67960000  0.73600000  0.20550000  1.0 0.1183261148
H  H130  1  0.32040000  0.26400000  0.20550000  1.0 0.1183261148
H  H131  1  0.26400000  0.67960000  0.20550000  1.0 0.1183261148
H  H132  1  0.73600000  0.32040000  0.20550000  1.0 0.1183261148
H  H133  1  0.82040000  0.23600000  0.29450000  1.0 0.1183261148
H  H134  1  0.17960000  0.76400000  0.29450000  1.0 0.1183261148
H  H135  1  0.23600000  0.17960000  0.29450000  1.0 0.1183261148
H  H136  1  0.76400000  0.82040000  0.29450000  1.0 0.1183261148
H  H137  1  0.32040000  0.26400000  0.79450000  1.0 0.1183261148
H  H138  1  0.67960000  0.73600000  0.79450000  1.0 0.1183261148
H  H139  1  0.73600000  0.32040000  0.79450000  1.0 0.1183261148
H  H140  1  0.26400000  0.67960000  0.79450000  1.0 0.1183261148
H  H141  1  0.17960000  0.76400000  0.70550000  1.0 0.1183261148
H  H142  1  0.82040000  0.23600000  0.70550000  1.0 0.1183261148
H  H143  1  0.76400000  0.82040000  0.70550000  1.0 0.1183261148
H  H144  1  0.23600000  0.17960000  0.70550000  1.0 0.1183261148
H  H145  1  0.75290000  0.74710000  0.25000000  1.0 0.1008613756
H  H146  1  0.24710000  0.25290000  0.25000000  1.0 0.1008613756
H  H147  1  0.25290000  0.75290000  0.25000000  1.0 0.1008613756
H  H148  1  0.74710000  0.24710000  0.25000000  1.0 0.1008613756
H  H149  1  0.24710000  0.25290000  0.75000000  1.0 0.1008613756
H  H150  1  0.75290000  0.74710000  0.75000000  1.0 0.1008613756
H  H151  1  0.74710000  0.24710000  0.75000000  1.0 0.1008613756
H  H152  1  0.25290000  0.75290000  0.75000000  1.0 0.1008613756
H  H153  1  0.62880000  0.87120000  0.25000000  1.0 0.1288762665
H  H154  1  0.37120000  0.12880000  0.25000000  1.0 0.1288762665
H  H155  1  0.12880000  0.62880000  0.25000000  1.0 0.1288762665
H  H156  1  0.87120000  0.37120000  0.25000000  1.0 0.1288762665
H  H157  1  0.37120000  0.12880000  0.75000000  1.0 0.1288762665
H  H158  1  0.62880000  0.87120000  0.75000000  1.0 0.1288762665
H  H159  1  0.87120000  0.37120000  0.75000000  1.0 0.1288762665
H  H160  1  0.12880000  0.62880000  0.75000000  1.0 0.1288762665
H  H161  1  0.47680000  0.57100000  0.31790000  1.0 0.1008613756
H  H162  1  0.52320000  0.42900000  0.31790000  1.0 0.1008613756
H  H163  1  0.42900000  0.47680000  0.31790000  1.0 0.1008613756
H  H164  1  0.57100000  0.52320000  0.31790000  1.0 0.1008613756
H  H165  1  0.02320000  0.07100000  0.18210000  1.0 0.1008613756
H  H166  1  0.97680000  0.92900000  0.18210000  1.0 0.1008613756
H  H167  1  0.07100000  0.97680000  0.18210000  1.0 0.1008613756
H  H168  1  0.92900000  0.02320000  0.18210000  1.0 0.1008613756
H  H169  1  0.52320000  0.42900000  0.68210000  1.0 0.1008613756
H  H170  1  0.47680000  0.57100000  0.68210000  1.0 0.1008613756
H  H171  1  0.57100000  0.52320000  0.68210000  1.0 0.1008613756
H  H172  1  0.42900000  0.47680000  0.68210000  1.0 0.1008613756
H  H173  1  0.97680000  0.92900000  0.81790000  1.0 0.1008613756
H  H174  1  0.02320000  0.07100000  0.81790000  1.0 0.1008613756
H  H175  1  0.92900000  0.02320000  0.81790000  1.0 0.1008613756
H  H176  1  0.07100000  0.97680000  0.81790000  1.0 0.1008613756
H  H177  1  0.44900000  0.61580000  0.39070000  1.0 0.1288762665
H  H178  1  0.55100000  0.38420000  0.39070000  1.0 0.1288762665
H  H179  1  0.38420000  0.44900000  0.39070000  1.0 0.1288762665
H  H180  1  0.61580000  0.55100000  0.39070000  1.0 0.1288762665
H  H181  1  0.05100000  0.11580000  0.10930000  1.0 0.1288762665
H  H182  1  0.94900000  0.88420000  0.10930000  1.0 0.1288762665
H  H183  1  0.11580000  0.94900000  0.10930000  1.0 0.1288762665
H  H184  1  0.88420000  0.05100000  0.10930000  1.0 0.1288762665
H  H185  1  0.55100000  0.38420000  0.60930000  1.0 0.1288762665
H  H186  1  0.44900000  0.61580000  0.60930000  1.0 0.1288762665
H  H187  1  0.61580000  0.55100000  0.60930000  1.0 0.1288762665
H  H188  1  0.38420000  0.44900000  0.60930000  1.0 0.1288762665
H  H189  1  0.94900000  0.88420000  0.89070000  1.0 0.1288762665
H  H190  1  0.05100000  0.11580000  0.89070000  1.0 0.1288762665
H  H191  1  0.88420000  0.05100000  0.89070000  1.0 0.1288762665
H  H192  1  0.11580000  0.94900000  0.89070000  1.0 0.1288762665
H  H193  1  0.53700000  0.63980000  0.46270000  1.0 0.1398497849
H  H194  1  0.46300000  0.36020000  0.46270000  1.0 0.1398497849
H  H195  1  0.36020000  0.53700000  0.46270000  1.0 0.1398497849
H  H196  1  0.63980000  0.46300000  0.46270000  1.0 0.1398497849
H  H197  1  0.96300000  0.13980000  0.03730000  1.0 0.1398497849
H  H198  1  0.03700000  0.86020000  0.03730000  1.0 0.1398497849
H  H199  1  0.13980000  0.03700000  0.03730000  1.0 0.1398497849
H  H200  1  0.86020000  0.96300000  0.03730000  1.0 0.1398497849
H  H201  1  0.46300000  0.36020000  0.53730000  1.0 0.1398497849
H  H202  1  0.53700000  0.63980000  0.53730000  1.0 0.1398497849
H  H203  1  0.63980000  0.46300000  0.53730000  1.0 0.1398497849
H  H204  1  0.36020000  0.53700000  0.53730000  1.0 0.1398497849
H  H205  1  0.03700000  0.86020000  0.96270000  1.0 0.1398497849
H  H206  1  0.96300000  0.13980000  0.96270000  1.0 0.1398497849
H  H207  1  0.86020000  0.96300000  0.96270000  1.0 0.1398497849
H  H208  1  0.13980000  0.03700000  0.96270000  1.0 0.1398497849
H  H209  1  0.48470000  0.66830000  0.46270000  1.0 0.1008613756
H  H210  1  0.51530000  0.33170000  0.46270000  1.0 0.1008613756
H  H211  1  0.33170000  0.48470000  0.46270000  1.0 0.1008613756
H  H212  1  0.66830000  0.51530000  0.46270000  1.0 0.1008613756
H  H213  1  0.01530000  0.16830000  0.03730000  1.0 0.1008613756
H  H214  1  0.98470000  0.83170000  0.03730000  1.0 0.1008613756
H  H215  1  0.16830000  0.98470000  0.03730000  1.0 0.1008613756
H  H216  1  0.83170000  0.01530000  0.03730000  1.0 0.1008613756
H  H217  1  0.51530000  0.33170000  0.53730000  1.0 0.1008613756
H  H218  1  0.48470000  0.66830000  0.53730000  1.0 0.1008613756
H  H219  1  0.66830000  0.51530000  0.53730000  1.0 0.1008613756
H  H220  1  0.33170000  0.48470000  0.53730000  1.0 0.1008613756
H  H221  1  0.98470000  0.83170000  0.96270000  1.0 0.1008613756
H  H222  1  0.01530000  0.16830000  0.96270000  1.0 0.1008613756
H  H223  1  0.83170000  0.01530000  0.96270000  1.0 0.1008613756
H  H224  1  0.16830000  0.98470000  0.96270000  1.0 0.1008613756
Pd  Pd1  1  0.48370000  0.52859000  0.50170000  1.0 -0.1787109895
Pd  Pd2  1  0.51630000  0.47141000  0.50170000  1.0 -0.1787109895
Pd  Pd3  1  0.47141000  0.48370000  0.50170000  1.0 -0.1787109895
Pd  Pd4  1  0.52859000  0.51630000  0.50170000  1.0 -0.1787109895
Pd  Pd5  1  0.01630000  0.02859000  0.99830000  1.0 -0.1787109895
Pd  Pd6  1  0.98370000  0.97141000  0.99830000  1.0 -0.1787109895
Pd  Pd7  1  0.02859000  0.98370000  0.99830000  1.0 -0.1787109895
Pd  Pd8  1  0.97141000  0.01630000  0.99830000  1.0 -0.1787109895
Pd  Pd9  1  0.51630000  0.47141000  0.49830000  1.0 -0.1787109895
Pd  Pd10  1  0.48370000  0.52859000  0.49830000  1.0 -0.1787109895
Pd  Pd11  1  0.52859000  0.51630000  0.49830000  1.0 -0.1787109895
Pd  Pd12  1  0.47141000  0.48370000  0.49830000  1.0 -0.1787109895
Pd  Pd13  1  0.98370000  0.97141000  0.00170000  1.0 -0.1787109895
Pd  Pd14  1  0.01630000  0.02859000  0.00170000  1.0 -0.1787109895
Pd  Pd15  1  0.97141000  0.01630000  0.00170000  1.0 -0.1787109895
Pd  Pd16  1  0.02859000  0.98370000  0.00170000  1.0 -0.1787109895
C  C1  1  0.52803000  0.59182000  0.18905000  1.0 0.5680514956
C  C2  1  0.47197000  0.40818000  0.18905000  1.0 0.5680514956
C  C3  1  0.40818000  0.52803000  0.18905000  1.0 0.5680514956
C  C4  1  0.59182000  0.47197000  0.18905000  1.0 0.5680514956
C  C5  1  0.97197000  0.09182000  0.31095000  1.0 0.5680514956
C  C6  1  0.02803000  0.90818000  0.31095000  1.0 0.5680514956
C  C7  1  0.09182000  0.02803000  0.31095000  1.0 0.5680514956
C  C8  1  0.90818000  0.97197000  0.31095000  1.0 0.5680514956
C  C9  1  0.47197000  0.40818000  0.81095000  1.0 0.5680514956
C  C10  1  0.52803000  0.59182000  0.81095000  1.0 0.5680514956
C  C11  1  0.59182000  0.47197000  0.81095000  1.0 0.5680514956
C  C12  1  0.40818000  0.52803000  0.81095000  1.0 0.5680514956
C  C13  1  0.02803000  0.90818000  0.68905000  1.0 0.5680514956
C  C14  1  0.97197000  0.09182000  0.68905000  1.0 0.5680514956
C  C15  1  0.90818000  0.97197000  0.68905000  1.0 0.5680514956
C  C16  1  0.09182000  0.02803000  0.68905000  1.0 0.5680514956
C  C17  1  0.54618000  0.64591000  0.19060000  1.0 -0.048679119
C  C18  1  0.45382000  0.35409000  0.19060000  1.0 -0.048679119
C  C19  1  0.35409000  0.54618000  0.19060000  1.0 -0.048679119
C  C20  1  0.64591000  0.45382000  0.19060000  1.0 -0.048679119
C  C21  1  0.95382000  0.14591000  0.30940000  1.0 -0.048679119
C  C22  1  0.04618000  0.85409000  0.30940000  1.0 -0.048679119
C  C23  1  0.14591000  0.04618000  0.30940000  1.0 -0.048679119
C  C24  1  0.85409000  0.95382000  0.30940000  1.0 -0.048679119
C  C25  1  0.45382000  0.35409000  0.80940000  1.0 -0.048679119
C  C26  1  0.54618000  0.64591000  0.80940000  1.0 -0.048679119
C  C27  1  0.64591000  0.45382000  0.80940000  1.0 -0.048679119
C  C28  1  0.35409000  0.54618000  0.80940000  1.0 -0.048679119
C  C29  1  0.04618000  0.85409000  0.69060000  1.0 -0.048679119
C  C30  1  0.95382000  0.14591000  0.69060000  1.0 -0.048679119
C  C31  1  0.85409000  0.95382000  0.69060000  1.0 -0.048679119
C  C32  1  0.14591000  0.04618000  0.69060000  1.0 -0.048679119
C  C33  1  0.55476000  0.66870000  0.23310000  1.0 -0.0876905423
C  C34  1  0.44524000  0.33130000  0.23310000  1.0 -0.0876905423
C  C35  1  0.33130000  0.55476000  0.23310000  1.0 -0.0876905423
C  C36  1  0.66870000  0.44524000  0.23310000  1.0 -0.0876905423
C  C37  1  0.94524000  0.16870000  0.26690000  1.0 -0.0876905423
C  C38  1  0.05476000  0.83130000  0.26690000  1.0 -0.0876905423
C  C39  1  0.16870000  0.05476000  0.26690000  1.0 -0.0876905423
C  C40  1  0.83130000  0.94524000  0.26690000  1.0 -0.0876905423
C  C41  1  0.44524000  0.33130000  0.76690000  1.0 -0.0876905423
C  C42  1  0.55476000  0.66870000  0.76690000  1.0 -0.0876905423
C  C43  1  0.66870000  0.44524000  0.76690000  1.0 -0.0876905423
C  C44  1  0.33130000  0.55476000  0.76690000  1.0 -0.0876905423
C  C45  1  0.05476000  0.83130000  0.73310000  1.0 -0.0876905423
C  C46  1  0.94524000  0.16870000  0.73310000  1.0 -0.0876905423
C  C47  1  0.83130000  0.94524000  0.73310000  1.0 -0.0876905423
C  C48  1  0.16870000  0.05476000  0.73310000  1.0 -0.0876905423
C  C49  1  0.57289000  0.71947000  0.23432000  1.0 -0.1990940478
C  C50  1  0.42711000  0.28053000  0.23432000  1.0 -0.1990940478
C  C51  1  0.28053000  0.57289000  0.23432000  1.0 -0.1990940478
C  C52  1  0.71947000  0.42711000  0.23432000  1.0 -0.1990940478
C  C53  1  0.92711000  0.21947000  0.26568000  1.0 -0.1990940478
C  C54  1  0.07289000  0.78053000  0.26568000  1.0 -0.1990940478
C  C55  1  0.21947000  0.07289000  0.26568000  1.0 -0.1990940478
C  C56  1  0.78053000  0.92711000  0.26568000  1.0 -0.1990940478
C  C57  1  0.42711000  0.28053000  0.76568000  1.0 -0.1990940478
C  C58  1  0.57289000  0.71947000  0.76568000  1.0 -0.1990940478
C  C59  1  0.71947000  0.42711000  0.76568000  1.0 -0.1990940478
C  C60  1  0.28053000  0.57289000  0.76568000  1.0 -0.1990940478
C  C61  1  0.07289000  0.78053000  0.73432000  1.0 -0.1990940478
C  C62  1  0.92711000  0.21947000  0.73432000  1.0 -0.1990940478
C  C63  1  0.78053000  0.92711000  0.73432000  1.0 -0.1990940478
C  C64  1  0.21947000  0.07289000  0.73432000  1.0 -0.1990940478
C  C65  1  0.58187000  0.74504000  0.19373000  1.0 0.1480156403
C  C66  1  0.41813000  0.25496000  0.19373000  1.0 0.1480156403
C  C67  1  0.25496000  0.58187000  0.19373000  1.0 0.1480156403
C  C68  1  0.74504000  0.41813000  0.19373000  1.0 0.1480156403
C  C69  1  0.91813000  0.24504000  0.30627000  1.0 0.1480156403
C  C70  1  0.08187000  0.75496000  0.30627000  1.0 0.1480156403
C  C71  1  0.24504000  0.08187000  0.30627000  1.0 0.1480156403
C  C72  1  0.75496000  0.91813000  0.30627000  1.0 0.1480156403
C  C73  1  0.41813000  0.25496000  0.80627000  1.0 0.1480156403
C  C74  1  0.58187000  0.74504000  0.80627000  1.0 0.1480156403
C  C75  1  0.74504000  0.41813000  0.80627000  1.0 0.1480156403
C  C76  1  0.25496000  0.58187000  0.80627000  1.0 0.1480156403
C  C77  1  0.08187000  0.75496000  0.69373000  1.0 0.1480156403
C  C78  1  0.91813000  0.24504000  0.69373000  1.0 0.1480156403
C  C79  1  0.75496000  0.91813000  0.69373000  1.0 0.1480156403
C  C80  1  0.24504000  0.08187000  0.69373000  1.0 0.1480156403
C  C81  1  0.57321000  0.72122000  0.15106000  1.0 -0.1896631177
C  C82  1  0.42679000  0.27878000  0.15106000  1.0 -0.1896631177
C  C83  1  0.27878000  0.57321000  0.15106000  1.0 -0.1896631177
C  C84  1  0.72122000  0.42679000  0.15106000  1.0 -0.1896631177
C  C85  1  0.92679000  0.22122000  0.34894000  1.0 -0.1896631177
C  C86  1  0.07321000  0.77878000  0.34894000  1.0 -0.1896631177
C  C87  1  0.22122000  0.07321000  0.34894000  1.0 -0.1896631177
C  C88  1  0.77878000  0.92679000  0.34894000  1.0 -0.1896631177
C  C89  1  0.42679000  0.27878000  0.84894000  1.0 -0.1896631177
C  C90  1  0.57321000  0.72122000  0.84894000  1.0 -0.1896631177
C  C91  1  0.72122000  0.42679000  0.84894000  1.0 -0.1896631177
C  C92  1  0.27878000  0.57321000  0.84894000  1.0 -0.1896631177
C  C93  1  0.07321000  0.77878000  0.65106000  1.0 -0.1896631177
C  C94  1  0.92679000  0.22122000  0.65106000  1.0 -0.1896631177
C  C95  1  0.77878000  0.92679000  0.65106000  1.0 -0.1896631177
C  C96  1  0.22122000  0.07321000  0.65106000  1.0 -0.1896631177
C  C97  1  0.55570000  0.67235000  0.14921000  1.0 -0.0964668123
C  C98  1  0.44430000  0.32765000  0.14921000  1.0 -0.0964668123
C  C99  1  0.32765000  0.55570000  0.14921000  1.0 -0.0964668123
C  C100  1  0.67235000  0.44430000  0.14921000  1.0 -0.0964668123
C  C101  1  0.94430000  0.17235000  0.35079000  1.0 -0.0964668123
C  C102  1  0.05570000  0.82765000  0.35079000  1.0 -0.0964668123
C  C103  1  0.17235000  0.05570000  0.35079000  1.0 -0.0964668123
C  C104  1  0.82765000  0.94430000  0.35079000  1.0 -0.0964668123
C  C105  1  0.44430000  0.32765000  0.85079000  1.0 -0.0964668123
C  C106  1  0.55570000  0.67235000  0.85079000  1.0 -0.0964668123
C  C107  1  0.67235000  0.44430000  0.85079000  1.0 -0.0964668123
C  C108  1  0.32765000  0.55570000  0.85079000  1.0 -0.0964668123
C  C109  1  0.05570000  0.82765000  0.64921000  1.0 -0.0964668123
C  C110  1  0.94430000  0.17235000  0.64921000  1.0 -0.0964668123
C  C111  1  0.82765000  0.94430000  0.64921000  1.0 -0.0964668123
C  C112  1  0.17235000  0.05570000  0.64921000  1.0 -0.0964668123
C  C113  1  0.53200000  0.94014000  0.06189000  1.0 0.5680514956
C  C114  1  0.46800000  0.05986000  0.06189000  1.0 0.5680514956
C  C115  1  0.05986000  0.53200000  0.06189000  1.0 0.5680514956
C  C116  1  0.94014000  0.46800000  0.06189000  1.0 0.5680514956
C  C117  1  0.96800000  0.44014000  0.43811000  1.0 0.5680514956
C  C118  1  0.03200000  0.55986000  0.43811000  1.0 0.5680514956
C  C119  1  0.44014000  0.03200000  0.43811000  1.0 0.5680514956
C  C120  1  0.55986000  0.96800000  0.43811000  1.0 0.5680514956
C  C121  1  0.46800000  0.05986000  0.93811000  1.0 0.5680514956
C  C122  1  0.53200000  0.94014000  0.93811000  1.0 0.5680514956
C  C123  1  0.94014000  0.46800000  0.93811000  1.0 0.5680514956
C  C124  1  0.05986000  0.53200000  0.93811000  1.0 0.5680514956
C  C125  1  0.03200000  0.55986000  0.56189000  1.0 0.5680514956
C  C126  1  0.96800000  0.44014000  0.56189000  1.0 0.5680514956
C  C127  1  0.55986000  0.96800000  0.56189000  1.0 0.5680514956
C  C128  1  0.44014000  0.03200000  0.56189000  1.0 0.5680514956
C  C129  1  0.55014000  0.90327000  0.09903000  1.0 -0.0602674952
C  C130  1  0.44986000  0.09673000  0.09903000  1.0 -0.0602674952
C  C131  1  0.09673000  0.55014000  0.09903000  1.0 -0.0602674952
C  C132  1  0.90327000  0.44986000  0.09903000  1.0 -0.0602674952
C  C133  1  0.94986000  0.40327000  0.40097000  1.0 -0.0602674952
C  C134  1  0.05014000  0.59673000  0.40097000  1.0 -0.0602674952
C  C135  1  0.40327000  0.05014000  0.40097000  1.0 -0.0602674952
C  C136  1  0.59673000  0.94986000  0.40097000  1.0 -0.0602674952
C  C137  1  0.44986000  0.09673000  0.90097000  1.0 -0.0602674952
C  C138  1  0.55014000  0.90327000  0.90097000  1.0 -0.0602674952
C  C139  1  0.90327000  0.44986000  0.90097000  1.0 -0.0602674952
C  C140  1  0.09673000  0.55014000  0.90097000  1.0 -0.0602674952
C  C141  1  0.05014000  0.59673000  0.59903000  1.0 -0.0602674952
C  C142  1  0.94986000  0.40327000  0.59903000  1.0 -0.0602674952
C  C143  1  0.59673000  0.94986000  0.59903000  1.0 -0.0602674952
C  C144  1  0.40327000  0.05014000  0.59903000  1.0 -0.0602674952
C  C145  1  0.59984000  0.90329000  0.11290000  1.0 -0.0876905423
C  C146  1  0.40016000  0.09671000  0.11290000  1.0 -0.0876905423
C  C147  1  0.09671000  0.59984000  0.11290000  1.0 -0.0876905423
C  C148  1  0.90329000  0.40016000  0.11290000  1.0 -0.0876905423
C  C149  1  0.90016000  0.40329000  0.38710000  1.0 -0.0876905423
C  C150  1  0.09984000  0.59671000  0.38710000  1.0 -0.0876905423
C  C151  1  0.40329000  0.09984000  0.38710000  1.0 -0.0876905423
C  C152  1  0.59671000  0.90016000  0.38710000  1.0 -0.0876905423
C  C153  1  0.40016000  0.09671000  0.88710000  1.0 -0.0876905423
C  C154  1  0.59984000  0.90329000  0.88710000  1.0 -0.0876905423
C  C155  1  0.90329000  0.40016000  0.88710000  1.0 -0.0876905423
C  C156  1  0.09671000  0.59984000  0.88710000  1.0 -0.0876905423
C  C157  1  0.09984000  0.59671000  0.61290000  1.0 -0.0876905423
C  C158  1  0.90016000  0.40329000  0.61290000  1.0 -0.0876905423
C  C159  1  0.59671000  0.90016000  0.61290000  1.0 -0.0876905423
C  C160  1  0.40329000  0.09984000  0.61290000  1.0 -0.0876905423
C  C161  1  0.61788000  0.86804000  0.14523000  1.0 -0.2199859535
C  C162  1  0.38212000  0.13196000  0.14523000  1.0 -0.2199859535
C  C163  1  0.13196000  0.61788000  0.14523000  1.0 -0.2199859535
C  C164  1  0.86804000  0.38212000  0.14523000  1.0 -0.2199859535
C  C165  1  0.88212000  0.36804000  0.35477000  1.0 -0.2199859535
C  C166  1  0.11788000  0.63196000  0.35477000  1.0 -0.2199859535
C  C167  1  0.36804000  0.11788000  0.35477000  1.0 -0.2199859535
C  C168  1  0.63196000  0.88212000  0.35477000  1.0 -0.2199859535
C  C169  1  0.38212000  0.13196000  0.85477000  1.0 -0.2199859535
C  C170  1  0.61788000  0.86804000  0.85477000  1.0 -0.2199859535
C  C171  1  0.86804000  0.38212000  0.85477000  1.0 -0.2199859535
C  C172  1  0.13196000  0.61788000  0.85477000  1.0 -0.2199859535
C  C173  1  0.11788000  0.63196000  0.64523000  1.0 -0.2199859535
C  C174  1  0.88212000  0.36804000  0.64523000  1.0 -0.2199859535
C  C175  1  0.63196000  0.88212000  0.64523000  1.0 -0.2199859535
C  C176  1  0.36804000  0.11788000  0.64523000  1.0 -0.2199859535
C  C177  1  0.58475000  0.83325000  0.16536000  1.0 0.1709055463
C  C178  1  0.41525000  0.16675000  0.16536000  1.0 0.1709055463
C  C179  1  0.16675000  0.58475000  0.16536000  1.0 0.1709055463
C  C180  1  0.83325000  0.41525000  0.16536000  1.0 0.1709055463
C  C181  1  0.91525000  0.33325000  0.33464000  1.0 0.1709055463
C  C182  1  0.08475000  0.66675000  0.33464000  1.0 0.1709055463
C  C183  1  0.33325000  0.08475000  0.33464000  1.0 0.1709055463
C  C184  1  0.66675000  0.91525000  0.33464000  1.0 0.1709055463
C  C185  1  0.41525000  0.16675000  0.83464000  1.0 0.1709055463
C  C186  1  0.58475000  0.83325000  0.83464000  1.0 0.1709055463
C  C187  1  0.83325000  0.41525000  0.83464000  1.0 0.1709055463
C  C188  1  0.16675000  0.58475000  0.83464000  1.0 0.1709055463
C  C189  1  0.08475000  0.66675000  0.66536000  1.0 0.1709055463
C  C190  1  0.91525000  0.33325000  0.66536000  1.0 0.1709055463
C  C191  1  0.66675000  0.91525000  0.66536000  1.0 0.1709055463
C  C192  1  0.33325000  0.08475000  0.66536000  1.0 0.1709055463
C  C193  1  0.53370000  0.83466000  0.15248000  1.0 -0.1990940478
C  C194  1  0.46630000  0.16534000  0.15248000  1.0 -0.1990940478
C  C195  1  0.16534000  0.53370000  0.15248000  1.0 -0.1990940478
C  C196  1  0.83466000  0.46630000  0.15248000  1.0 -0.1990940478
C  C197  1  0.96630000  0.33466000  0.34752000  1.0 -0.1990940478
C  C198  1  0.03370000  0.66534000  0.34752000  1.0 -0.1990940478
C  C199  1  0.33466000  0.03370000  0.34752000  1.0 -0.1990940478
C  C200  1  0.66534000  0.96630000  0.34752000  1.0 -0.1990940478
C  C201  1  0.46630000  0.16534000  0.84752000  1.0 -0.1990940478
C  C202  1  0.53370000  0.83466000  0.84752000  1.0 -0.1990940478
C  C203  1  0.83466000  0.46630000  0.84752000  1.0 -0.1990940478
C  C204  1  0.16534000  0.53370000  0.84752000  1.0 -0.1990940478
C  C205  1  0.03370000  0.66534000  0.65248000  1.0 -0.1990940478
C  C206  1  0.96630000  0.33466000  0.65248000  1.0 -0.1990940478
C  C207  1  0.66534000  0.96630000  0.65248000  1.0 -0.1990940478
C  C208  1  0.33466000  0.03370000  0.65248000  1.0 -0.1990940478
C  C209  1  0.51691000  0.86919000  0.12053000  1.0 -0.0876905423
C  C210  1  0.48309000  0.13081000  0.12053000  1.0 -0.0876905423
C  C211  1  0.13081000  0.51691000  0.12053000  1.0 -0.0876905423
C  C212  1  0.86919000  0.48309000  0.12053000  1.0 -0.0876905423
C  C213  1  0.98309000  0.36919000  0.37947000  1.0 -0.0876905423
C  C214  1  0.01691000  0.63081000  0.37947000  1.0 -0.0876905423
C  C215  1  0.36919000  0.01691000  0.37947000  1.0 -0.0876905423
C  C216  1  0.63081000  0.98309000  0.37947000  1.0 -0.0876905423
C  C217  1  0.48309000  0.13081000  0.87947000  1.0 -0.0876905423
C  C218  1  0.51691000  0.86919000  0.87947000  1.0 -0.0876905423
C  C219  1  0.86919000  0.48309000  0.87947000  1.0 -0.0876905423
C  C220  1  0.13081000  0.51691000  0.87947000  1.0 -0.0876905423
C  C221  1  0.01691000  0.63081000  0.62053000  1.0 -0.0876905423
C  C222  1  0.98309000  0.36919000  0.62053000  1.0 -0.0876905423
C  C223  1  0.63081000  0.98309000  0.62053000  1.0 -0.0876905423
C  C224  1  0.36919000  0.01691000  0.62053000  1.0 -0.0876905423
C  C225  1  0.64768000  0.80270000  0.22314000  1.0 0.1607613309
C  C226  1  0.35232000  0.19730000  0.22314000  1.0 0.1607613309
C  C227  1  0.19730000  0.64768000  0.22314000  1.0 0.1607613309
C  C228  1  0.80270000  0.35232000  0.22314000  1.0 0.1607613309
C  C229  1  0.85232000  0.30270000  0.27686000  1.0 0.1607613309
C  C230  1  0.14768000  0.69730000  0.27686000  1.0 0.1607613309
C  C231  1  0.30270000  0.14768000  0.27686000  1.0 0.1607613309
C  C232  1  0.69730000  0.85232000  0.27686000  1.0 0.1607613309
C  C233  1  0.35232000  0.19730000  0.77686000  1.0 0.1607613309
C  C234  1  0.64768000  0.80270000  0.77686000  1.0 0.1607613309
C  C235  1  0.80270000  0.35232000  0.77686000  1.0 0.1607613309
C  C236  1  0.19730000  0.64768000  0.77686000  1.0 0.1607613309
C  C237  1  0.14768000  0.69730000  0.72314000  1.0 0.1607613309
C  C238  1  0.85232000  0.30270000  0.72314000  1.0 0.1607613309
C  C239  1  0.69730000  0.85232000  0.72314000  1.0 0.1607613309
C  C240  1  0.30270000  0.14768000  0.72314000  1.0 0.1607613309
C  C241  1  0.68409000  0.76544000  0.22320000  1.0 -0.2199859535
C  C242  1  0.31591000  0.23456000  0.22320000  1.0 -0.2199859535
C  C243  1  0.23456000  0.68409000  0.22320000  1.0 -0.2199859535
C  C244  1  0.76544000  0.31591000  0.22320000  1.0 -0.2199859535
C  C245  1  0.81591000  0.26544000  0.27680000  1.0 -0.2199859535
C  C246  1  0.18409000  0.73456000  0.27680000  1.0 -0.2199859535
C  C247  1  0.26544000  0.18409000  0.27680000  1.0 -0.2199859535
C  C248  1  0.73456000  0.81591000  0.27680000  1.0 -0.2199859535
C  C249  1  0.31591000  0.23456000  0.77680000  1.0 -0.2199859535
C  C250  1  0.68409000  0.76544000  0.77680000  1.0 -0.2199859535
C  C251  1  0.76544000  0.31591000  0.77680000  1.0 -0.2199859535
C  C252  1  0.23456000  0.68409000  0.77680000  1.0 -0.2199859535
C  C253  1  0.18409000  0.73456000  0.72320000  1.0 -0.2199859535
C  C254  1  0.81591000  0.26544000  0.72320000  1.0 -0.2199859535
C  C255  1  0.73456000  0.81591000  0.72320000  1.0 -0.2199859535
C  C256  1  0.26544000  0.18409000  0.72320000  1.0 -0.2199859535
C  C257  1  0.72790000  0.77210000  0.25000000  1.0 -0.0689729691
C  C258  1  0.27210000  0.22790000  0.25000000  1.0 -0.0689729691
C  C259  1  0.22790000  0.72790000  0.25000000  1.0 -0.0689729691
C  C260  1  0.77210000  0.27210000  0.25000000  1.0 -0.0689729691
C  C261  1  0.27210000  0.22790000  0.75000000  1.0 -0.0689729691
C  C262  1  0.72790000  0.77210000  0.75000000  1.0 -0.0689729691
C  C263  1  0.77210000  0.27210000  0.75000000  1.0 -0.0689729691
C  C264  1  0.22790000  0.72790000  0.75000000  1.0 -0.0689729691
C  C265  1  0.65383000  0.84617000  0.25000000  1.0 -0.2798594934
C  C266  1  0.34617000  0.15383000  0.25000000  1.0 -0.2798594934
C  C267  1  0.15383000  0.65383000  0.25000000  1.0 -0.2798594934
C  C268  1  0.84617000  0.34617000  0.25000000  1.0 -0.2798594934
C  C269  1  0.34617000  0.15383000  0.75000000  1.0 -0.2798594934
C  C270  1  0.65383000  0.84617000  0.75000000  1.0 -0.2798594934
C  C271  1  0.84617000  0.34617000  0.75000000  1.0 -0.2798594934
C  C272  1  0.15383000  0.65383000  0.75000000  1.0 -0.2798594934
C  C273  1  0.48620000  0.54190000  0.33420000  1.0 -0.0444498559
C  C274  1  0.51380000  0.45810000  0.33420000  1.0 -0.0444498559
C  C275  1  0.45810000  0.48620000  0.33420000  1.0 -0.0444498559
C  C276  1  0.54190000  0.51380000  0.33420000  1.0 -0.0444498559
C  C277  1  0.01380000  0.04190000  0.16580000  1.0 -0.0444498559
C  C278  1  0.98620000  0.95810000  0.16580000  1.0 -0.0444498559
C  C279  1  0.04190000  0.98620000  0.16580000  1.0 -0.0444498559
C  C280  1  0.95810000  0.01380000  0.16580000  1.0 -0.0444498559
C  C281  1  0.51380000  0.45810000  0.66580000  1.0 -0.0444498559
C  C282  1  0.48620000  0.54190000  0.66580000  1.0 -0.0444498559
C  C283  1  0.54190000  0.51380000  0.66580000  1.0 -0.0444498559
C  C284  1  0.45810000  0.48620000  0.66580000  1.0 -0.0444498559
C  C285  1  0.98620000  0.95810000  0.83420000  1.0 -0.0444498559
C  C286  1  0.01380000  0.04190000  0.83420000  1.0 -0.0444498559
C  C287  1  0.95810000  0.01380000  0.83420000  1.0 -0.0444498559
C  C288  1  0.04190000  0.98620000  0.83420000  1.0 -0.048679119
C  C289  1  0.50000000  0.50000000  0.40880000  1.0 0.2036098252
C  C290  1  0.00000000  0.00000000  0.09120000  1.0 0.2036098252
C  C291  1  0.50000000  0.50000000  0.59120000  1.0 0.2036098252
C  C292  1  0.00000000  0.00000000  0.90880000  1.0 0.2036098252
C  C293  1  0.46630000  0.59010000  0.40640000  1.0 0.0298863338
C  C294  1  0.53370000  0.40990000  0.40640000  1.0 0.0298863338
C  C295  1  0.40990000  0.46630000  0.40640000  1.0 0.0298863338
C  C296  1  0.59010000  0.53370000  0.40640000  1.0 0.0298863338
C  C297  1  0.03370000  0.09010000  0.09360000  1.0 0.0298863338
C  C298  1  0.96630000  0.90990000  0.09360000  1.0 0.0298863338
C  C299  1  0.09010000  0.96630000  0.09360000  1.0 0.0298863338
C  C300  1  0.90990000  0.03370000  0.09360000  1.0 0.0298863338
C  C301  1  0.53370000  0.40990000  0.59360000  1.0 0.0298863338
C  C302  1  0.46630000  0.59010000  0.59360000  1.0 0.0298863338
C  C303  1  0.59010000  0.53370000  0.59360000  1.0 0.0298863338
C  C304  1  0.40990000  0.46630000  0.59360000  1.0 0.0298863338
C  C305  1  0.96630000  0.90990000  0.90640000  1.0 0.0298863338
C  C306  1  0.03370000  0.09010000  0.90640000  1.0 0.0298863338
C  C307  1  0.90990000  0.03370000  0.90640000  1.0 0.0298863338
C  C308  1  0.09010000  0.96630000  0.90640000  1.0 0.0298863338
C  C309  1  0.48580000  0.54240000  0.38290000  1.0 -0.0689729691
C  C310  1  0.51420000  0.45760000  0.38290000  1.0 -0.0689729691
C  C311  1  0.45760000  0.48580000  0.38290000  1.0 -0.0689729691
C  C312  1  0.54240000  0.51420000  0.38290000  1.0 -0.0689729691
C  C313  1  0.01420000  0.04240000  0.11710000  1.0 -0.0689729691
C  C314  1  0.98580000  0.95760000  0.11710000  1.0 -0.0689729691
C  C315  1  0.04240000  0.98580000  0.11710000  1.0 -0.0689729691
C  C316  1  0.95760000  0.01420000  0.11710000  1.0 -0.0689729691
C  C317  1  0.51420000  0.45760000  0.61710000  1.0 -0.0689729691
C  C318  1  0.48580000  0.54240000  0.61710000  1.0 -0.0689729691
C  C319  1  0.54240000  0.51420000  0.61710000  1.0 -0.0689729691
C  C320  1  0.45760000  0.48580000  0.61710000  1.0 -0.0689729691
C  C321  1  0.98580000  0.95760000  0.88290000  1.0 -0.0689729691
C  C322  1  0.01420000  0.04240000  0.88290000  1.0 -0.0689729691
C  C323  1  0.95760000  0.01420000  0.88290000  1.0 -0.0689729691
C  C324  1  0.04240000  0.98580000  0.88290000  1.0 -0.0689729691
C  C325  1  0.50220000  0.63810000  0.47380000  1.0 -0.0876905423
C  C326  1  0.49780000  0.36190000  0.47380000  1.0 -0.0876905423
C  C327  1  0.36190000  0.50220000  0.47380000  1.0 -0.0876905423
C  C328  1  0.63810000  0.49780000  0.47380000  1.0 -0.0876905423
C  C329  1  0.99780000  0.13810000  0.02620000  1.0 -0.0876905423
C  C330  1  0.00220000  0.86190000  0.02620000  1.0 -0.0876905423
C  C331  1  0.13810000  0.00220000  0.02620000  1.0 -0.0876905423
C  C332  1  0.86190000  0.99780000  0.02620000  1.0 -0.0876905423
C  C333  1  0.49780000  0.36190000  0.52620000  1.0 -0.0876905423
C  C334  1  0.50220000  0.63810000  0.52620000  1.0 -0.0876905423
C  C335  1  0.63810000  0.49780000  0.52620000  1.0 -0.0876905423
C  C336  1  0.36190000  0.50220000  0.52620000  1.0 -0.0876905423
C  C337  1  0.00220000  0.86190000  0.97380000  1.0 -0.0876905423
C  C338  1  0.99780000  0.13810000  0.97380000  1.0 -0.0876905423
C  C339  1  0.86190000  0.99780000  0.97380000  1.0 -0.0876905423
C  C340  1  0.13810000  0.00220000  0.97380000  1.0 -0.0876905423
N  N1  1  0.60218000  0.79583000  0.19646000  1.0 -0.1896631177
N  N2  1  0.39782000  0.20417000  0.19646000  1.0 -0.1896631177
N  N3  1  0.20417000  0.60218000  0.19646000  1.0 -0.1896631177
N  N4  1  0.79583000  0.39782000  0.19646000  1.0 -0.1896631177
N  N5  1  0.89782000  0.29583000  0.30354000  1.0 -0.1896631177
N  N6  1  0.10218000  0.70417000  0.30354000  1.0 -0.1896631177
N  N7  1  0.29583000  0.10218000  0.30354000  1.0 -0.1896631177
N  N8  1  0.70417000  0.89782000  0.30354000  1.0 -0.1896631177
N  N9  1  0.39782000  0.20417000  0.80354000  1.0 -0.1896631177
N  N10  1  0.60218000  0.79583000  0.80354000  1.0 -0.1896631177
N  N11  1  0.79583000  0.39782000  0.80354000  1.0 -0.1896631177
N  N12  1  0.20417000  0.60218000  0.80354000  1.0 -0.1896631177
N  N13  1  0.10218000  0.70417000  0.69646000  1.0 -0.1787109895
N  N14  1  0.89782000  0.29583000  0.69646000  1.0 -0.1896631177
N  N15  1  0.70417000  0.89782000  0.69646000  1.0 -0.1787109895
N  N16  1  0.29583000  0.10218000  0.69646000  1.0 -0.1896631177
N  N17  1  0.50000000  0.50000000  0.31006000  1.0 -0.210703629
N  N18  1  0.00000000  0.00000000  0.18994000  1.0 -0.210703629
N  N19  1  0.50000000  0.50000000  0.68994000  1.0 -0.210703629
N  N20  1  0.00000000  0.00000000  0.81006000  1.0 -0.210703629
N  N21  1  0.47660000  0.59110000  0.45250000  1.0 0.0620442764
N  N22  1  0.52340000  0.40890000  0.45250000  1.0 0.0620442764
N  N23  1  0.40890000  0.47660000  0.45250000  1.0 0.0620442764
N  N24  1  0.59110000  0.52340000  0.45250000  1.0 0.0620442764
N  N25  1  0.02340000  0.09110000  0.04750000  1.0 0.0620442764
N  N26  1  0.97660000  0.90890000  0.04750000  1.0 0.0620442764
N  N27  1  0.09110000  0.97660000  0.04750000  1.0 0.0620442764
N  N28  1  0.90890000  0.02340000  0.04750000  1.0 0.0620442764
N  N29  1  0.52340000  0.40890000  0.54750000  1.0 0.0620442764
N  N30  1  0.47660000  0.59110000  0.54750000  1.0 0.0620442764
N  N31  1  0.59110000  0.52340000  0.54750000  1.0 0.0620442764
N  N32  1  0.40890000  0.47660000  0.54750000  1.0 0.0620442764
N  N33  1  0.97660000  0.90890000  0.95250000  1.0 0.0620442764
N  N34  1  0.02340000  0.09110000  0.95250000  1.0 0.0620442764
N  N35  1  0.90890000  0.02340000  0.95250000  1.0 0.0620442764
N  N36  1  0.09110000  0.97660000  0.95250000  1.0 0.0620442764
O  O1  1  0.52083000  0.57143000  0.14942000  1.0 -0.5214214266
O  O2  1  0.47917000  0.42857000  0.14942000  1.0 -0.5214214266
O  O3  1  0.42857000  0.52083000  0.14942000  1.0 -0.5214214266
O  O4  1  0.57143000  0.47917000  0.14942000  1.0 -0.5214214266
O  O5  1  0.97917000  0.07143000  0.35058000  1.0 -0.5214214266
O  O6  1  0.02083000  0.92857000  0.35058000  1.0 -0.5214214266
O  O7  1  0.07143000  0.02083000  0.35058000  1.0 -0.5214214266
O  O8  1  0.92857000  0.97917000  0.35058000  1.0 -0.5214214266
O  O9  1  0.47917000  0.42857000  0.85058000  1.0 -0.5214214266
O  O10  1  0.52083000  0.57143000  0.85058000  1.0 -0.5214214266
O  O11  1  0.57143000  0.47917000  0.85058000  1.0 -0.5214214266
O  O12  1  0.42857000  0.52083000  0.85058000  1.0 -0.5214214266
O  O13  1  0.02083000  0.92857000  0.64942000  1.0 -0.5214214266
O  O14  1  0.97917000  0.07143000  0.64942000  1.0 -0.5214214266
O  O15  1  0.92857000  0.97917000  0.64942000  1.0 -0.5214214266
O  O16  1  0.07143000  0.02083000  0.64942000  1.0 -0.5214214266
O  O17  1  0.52183000  0.57087000  0.22859000  1.0 -0.5214214266
O  O18  1  0.47817000  0.42913000  0.22859000  1.0 -0.5214214266
O  O19  1  0.42913000  0.52183000  0.22859000  1.0 -0.5214214266
O  O20  1  0.57087000  0.47817000  0.22859000  1.0 -0.5214214266
O  O21  1  0.97817000  0.07087000  0.27141000  1.0 -0.5214214266
O  O22  1  0.02183000  0.92913000  0.27141000  1.0 -0.5214214266
O  O23  1  0.07087000  0.02183000  0.27141000  1.0 -0.5214214266
O  O24  1  0.92913000  0.97817000  0.27141000  1.0 -0.5214214266
O  O25  1  0.47817000  0.42913000  0.77141000  1.0 -0.5214214266
O  O26  1  0.52183000  0.57087000  0.77141000  1.0 -0.5214214266
O  O27  1  0.57087000  0.47817000  0.77141000  1.0 -0.5214214266
O  O28  1  0.42913000  0.52183000  0.77141000  1.0 -0.5214214266
O  O29  1  0.02183000  0.92913000  0.72859000  1.0 -0.5214214266
O  O30  1  0.97817000  0.07087000  0.72859000  1.0 -0.5214214266
O  O31  1  0.92913000  0.97817000  0.72859000  1.0 -0.5214214266
O  O32  1  0.07087000  0.02183000  0.72859000  1.0 -0.5214214266
O  O33  1  0.48610000  0.93481000  0.04925000  1.0 -0.5442269243
O  O34  1  0.51390000  0.06519000  0.04925000  1.0 -0.5442269243
O  O35  1  0.06519000  0.48610000  0.04925000  1.0 -0.5442269243
O  O36  1  0.93481000  0.51390000  0.04925000  1.0 -0.5442269243
O  O37  1  0.01390000  0.43481000  0.45075000  1.0 -0.5442269243
O  O38  1  0.98610000  0.56519000  0.45075000  1.0 -0.5442269243
O  O39  1  0.43481000  0.98610000  0.45075000  1.0 -0.5442269243
O  O40  1  0.56519000  0.01390000  0.45075000  1.0 -0.5442269243
O  O41  1  0.51390000  0.06519000  0.95075000  1.0 -0.5442269243
O  O42  1  0.48610000  0.93481000  0.95075000  1.0 -0.5442269243
O  O43  1  0.93481000  0.51390000  0.95075000  1.0 -0.5442269243
O  O44  1  0.06519000  0.48610000  0.95075000  1.0 -0.5442269243
O  O45  1  0.98610000  0.56519000  0.54925000  1.0 -0.5442269243
O  O46  1  0.01390000  0.43481000  0.54925000  1.0 -0.5454191407
O  O47  1  0.56519000  0.01390000  0.54925000  1.0 -0.5442269243
O  O48  1  0.43481000  0.98610000  0.54925000  1.0 -0.5454191407
O  O49  1  0.56261000  0.97291000  0.04833000  1.0 -0.5214214266
O  O50  1  0.43739000  0.02709000  0.04833000  1.0 -0.5214214266
O  O51  1  0.02709000  0.56261000  0.04833000  1.0 -0.5214214266
O  O52  1  0.97291000  0.43739000  0.04833000  1.0 -0.5214214266
O  O53  1  0.93739000  0.47291000  0.45167000  1.0 -0.5214214266
O  O54  1  0.06261000  0.52709000  0.45167000  1.0 -0.5214214266
O  O55  1  0.47291000  0.06261000  0.45167000  1.0 -0.5214214266
O  O56  1  0.52709000  0.93739000  0.45167000  1.0 -0.5214214266
O  O57  1  0.43739000  0.02709000  0.95167000  1.0 -0.5214214266
O  O58  1  0.56261000  0.97291000  0.95167000  1.0 -0.5214214266
O  O59  1  0.97291000  0.43739000  0.95167000  1.0 -0.5214214266
O  O60  1  0.02709000  0.56261000  0.95167000  1.0 -0.5214214266
O  O61  1  0.06261000  0.52709000  0.54833000  1.0 -0.5214214266
O  O62  1  0.93739000  0.47291000  0.54833000  1.0 -0.5214214266
O  O63  1  0.52709000  0.93739000  0.54833000  1.0 -0.5214214266
O  O64  1  0.47291000  0.06261000  0.54833000  1.0 -0.5214214266
O  O65  1  0.52840000  0.49600000  0.45390000  1.0 0.1607613309
O  O66  1  0.47160000  0.50400000  0.45390000  1.0 0.1607613309
O  O67  1  0.50400000  0.52840000  0.45390000  1.0 0.1607613309
O  O68  1  0.49600000  0.47160000  0.45390000  1.0 0.1607613309
O  O69  1  0.97160000  0.99600000  0.04610000  1.0 0.1607613309
O  O70  1  0.02840000  0.00400000  0.04610000  1.0 0.1607613309
O  O71  1  0.99600000  0.02840000  0.04610000  1.0 0.1607613309
O  O72  1  0.00400000  0.97160000  0.04610000  1.0 0.1480156403
O  O73  1  0.47160000  0.50400000  0.54610000  1.0 0.1607613309
O  O74  1  0.52840000  0.49600000  0.54610000  1.0 0.1607613309
O  O75  1  0.49600000  0.47160000  0.54610000  1.0 0.1607613309
O  O76  1  0.50400000  0.52840000  0.54610000  1.0 0.1607613309
O  O77  1  0.02840000  0.00400000  0.95390000  1.0 0.1607613309
O  O78  1  0.97160000  0.99600000  0.95390000  1.0 0.1607613309
O  O79  1  0.00400000  0.97160000  0.95390000  1.0 0.1607613309
O  O80  1  0.99600000  0.02840000  0.95390000  1.0 0.1607613309
