# DDEC6 charges by PACMAN v1.1 (https://github.com/mtap-research/PACMAN-charge/)
data_VAMYEQ_ASR_pacman
_symmetry_space_group_name_H-M   'P 1'
_cell_length_a   26.34000000
_cell_length_b   26.34000000
_cell_length_c   28.37000000
_cell_angle_alpha   90.00000000
_cell_angle_beta   90.00000000
_cell_angle_gamma   90.00000000
_symmetry_Int_Tables_number   1
_chemical_formula_structural   Cu8H56C85N9O20
_chemical_formula_sum   'Cu32 H224 C340 N36 O80'
_cell_volume   19682.98117200
_cell_formula_units_Z   4
loop_
 _symmetry_equiv_pos_site_id
 _symmetry_equiv_pos_as_xyz
  1  'x, y, z'
loop_
 _atom_site_type_symbol
 _atom_site_label
 _atom_site_symmetry_multiplicity
 _atom_site_fract_x
 _atom_site_fract_y
 _atom_site_fract_z
 _atom_site_occupancy
 _atom_site_charge
Cu  Cu1  1  0.50000000  0.50000000  0.14266000  1.0 0.8438964551
Cu  Cu2  1  0.00000000  0.00000000  0.35734000  1.0 0.8438964551
Cu  Cu3  1  0.50000000  0.50000000  0.85734000  1.0 0.8438964551
Cu  Cu4  1  0.00000000  0.00000000  0.64266000  1.0 0.8438964551
Cu  Cu5  1  0.50000000  0.50000000  0.23598000  1.0 0.7532277023
Cu  Cu6  1  0.00000000  0.00000000  0.26402000  1.0 0.7532277023
Cu  Cu7  1  0.50000000  0.50000000  0.76402000  1.0 0.7532277023
Cu  Cu8  1  0.00000000  0.00000000  0.73598000  1.0 0.7532277023
Cu  Cu9  1  0.45549000  0.97732000  0.00000000  1.0 0.8522403454
Cu  Cu10  1  0.54451000  0.02268000  0.00000000  1.0 0.8522403454
Cu  Cu11  1  0.02268000  0.45549000  0.00000000  1.0 0.8522403454
Cu  Cu12  1  0.97732000  0.54451000  0.00000000  1.0 0.8522403454
Cu  Cu13  1  0.04451000  0.47732000  0.50000000  1.0 0.8522403454
Cu  Cu14  1  0.95549000  0.52268000  0.50000000  1.0 0.8522403454
Cu  Cu15  1  0.47732000  0.95549000  0.50000000  1.0 0.8522403454
Cu  Cu16  1  0.52268000  0.04451000  0.50000000  1.0 0.8522403454
Cu  Cu17  1  0.47940000  0.52860000  0.50080000  1.0 -0.087264428
Cu  Cu18  1  0.52060000  0.47140000  0.50080000  1.0 -0.087264428
Cu  Cu19  1  0.47140000  0.47940000  0.50080000  1.0 -0.087264428
Cu  Cu20  1  0.52860000  0.52060000  0.50080000  1.0 -0.087264428
Cu  Cu21  1  0.02060000  0.02860000  0.99920000  1.0 -0.087264428
Cu  Cu22  1  0.97940000  0.97140000  0.99920000  1.0 -0.087264428
Cu  Cu23  1  0.02860000  0.97940000  0.99920000  1.0 -0.087264428
Cu  Cu24  1  0.97140000  0.02060000  0.99920000  1.0 -0.087264428
Cu  Cu25  1  0.52060000  0.47140000  0.49920000  1.0 -0.087264428
Cu  Cu26  1  0.47940000  0.52860000  0.49920000  1.0 -0.087264428
Cu  Cu27  1  0.52860000  0.52060000  0.49920000  1.0 -0.087264428
Cu  Cu28  1  0.47140000  0.47940000  0.49920000  1.0 -0.087264428
Cu  Cu29  1  0.97940000  0.97140000  0.00080000  1.0 -0.087264428
Cu  Cu30  1  0.02060000  0.02860000  0.00080000  1.0 -0.087264428
Cu  Cu31  1  0.97140000  0.02060000  0.00080000  1.0 -0.087264428
Cu  Cu32  1  0.02860000  0.97940000  0.00080000  1.0 -0.087264428
H  H1  1  0.54920000  0.65150000  0.26070000  1.0 0.1283449924
H  H2  1  0.45080000  0.34850000  0.26070000  1.0 0.1283449924
H  H3  1  0.34850000  0.54920000  0.26070000  1.0 0.1283449924
H  H4  1  0.65150000  0.45080000  0.26070000  1.0 0.1283449924
H  H5  1  0.95080000  0.15150000  0.23930000  1.0 0.1283449924
H  H6  1  0.04920000  0.84850000  0.23930000  1.0 0.1283449924
H  H7  1  0.15150000  0.04920000  0.23930000  1.0 0.1283449924
H  H8  1  0.84850000  0.95080000  0.23930000  1.0 0.1283449924
H  H9  1  0.45080000  0.34850000  0.73930000  1.0 0.1283449924
H  H10  1  0.54920000  0.65150000  0.73930000  1.0 0.1283449924
H  H11  1  0.65150000  0.45080000  0.73930000  1.0 0.1283449924
H  H12  1  0.34850000  0.54920000  0.73930000  1.0 0.1283449924
H  H13  1  0.04920000  0.84850000  0.76070000  1.0 0.1283449924
H  H14  1  0.95080000  0.15150000  0.76070000  1.0 0.1283449924
H  H15  1  0.84850000  0.95080000  0.76070000  1.0 0.1283449924
H  H16  1  0.15150000  0.04920000  0.76070000  1.0 0.1283449924
H  H17  1  0.57980000  0.73400000  0.26340000  1.0 0.1209721491
H  H18  1  0.42020000  0.26600000  0.26340000  1.0 0.1209721491
H  H19  1  0.26600000  0.57980000  0.26340000  1.0 0.1209721491
H  H20  1  0.73400000  0.42020000  0.26340000  1.0 0.1209721491
H  H21  1  0.92020000  0.23400000  0.23660000  1.0 0.1209721491
H  H22  1  0.07980000  0.76600000  0.23660000  1.0 0.1209721491
H  H23  1  0.23400000  0.07980000  0.23660000  1.0 0.1209721491
H  H24  1  0.76600000  0.92020000  0.23660000  1.0 0.1209721491
H  H25  1  0.42020000  0.26600000  0.73660000  1.0 0.1209721491
H  H26  1  0.57980000  0.73400000  0.73660000  1.0 0.1209721491
H  H27  1  0.73400000  0.42020000  0.73660000  1.0 0.1209721491
H  H28  1  0.26600000  0.57980000  0.73660000  1.0 0.1209721491
H  H29  1  0.07980000  0.76600000  0.76340000  1.0 0.1209721491
H  H30  1  0.92020000  0.23400000  0.76340000  1.0 0.1209721491
H  H31  1  0.76600000  0.92020000  0.76340000  1.0 0.1209721491
H  H32  1  0.23400000  0.07980000  0.76340000  1.0 0.1209721491
H  H33  1  0.57990000  0.73830000  0.12270000  1.0 0.1283449924
H  H34  1  0.42010000  0.26170000  0.12270000  1.0 0.1283449924
H  H35  1  0.26170000  0.57990000  0.12270000  1.0 0.1283449924
H  H36  1  0.73830000  0.42010000  0.12270000  1.0 0.1283449924
H  H37  1  0.92010000  0.23830000  0.37730000  1.0 0.1283449924
H  H38  1  0.07990000  0.76170000  0.37730000  1.0 0.1283449924
H  H39  1  0.23830000  0.07990000  0.37730000  1.0 0.1283449924
H  H40  1  0.76170000  0.92010000  0.37730000  1.0 0.1283449924
H  H41  1  0.42010000  0.26170000  0.87730000  1.0 0.1283449924
H  H42  1  0.57990000  0.73830000  0.87730000  1.0 0.1283449924
H  H43  1  0.73830000  0.42010000  0.87730000  1.0 0.1283449924
H  H44  1  0.26170000  0.57990000  0.87730000  1.0 0.1283449924
H  H45  1  0.07990000  0.76170000  0.62270000  1.0 0.1283449924
H  H46  1  0.92010000  0.23830000  0.62270000  1.0 0.1283449924
H  H47  1  0.76170000  0.92010000  0.62270000  1.0 0.1283449924
H  H48  1  0.23830000  0.07990000  0.62270000  1.0 0.1283449924
H  H49  1  0.54900000  0.65750000  0.11990000  1.0 0.1209721491
H  H50  1  0.45100000  0.34250000  0.11990000  1.0 0.1209721491
H  H51  1  0.34250000  0.54900000  0.11990000  1.0 0.1209721491
H  H52  1  0.65750000  0.45100000  0.11990000  1.0 0.1209721491
H  H53  1  0.95100000  0.15750000  0.38010000  1.0 0.1209721491
H  H54  1  0.04900000  0.84250000  0.38010000  1.0 0.1209721491
H  H55  1  0.15750000  0.04900000  0.38010000  1.0 0.1209721491
H  H56  1  0.84250000  0.95100000  0.38010000  1.0 0.1209721491
H  H57  1  0.45100000  0.34250000  0.88010000  1.0 0.1209721491
H  H58  1  0.54900000  0.65750000  0.88010000  1.0 0.1209721491
H  H59  1  0.65750000  0.45100000  0.88010000  1.0 0.1209721491
H  H60  1  0.34250000  0.54900000  0.88010000  1.0 0.1209721491
H  H61  1  0.04900000  0.84250000  0.61990000  1.0 0.1209721491
H  H62  1  0.95100000  0.15750000  0.61990000  1.0 0.1209721491
H  H63  1  0.84250000  0.95100000  0.61990000  1.0 0.1209721491
H  H64  1  0.15750000  0.04900000  0.61990000  1.0 0.1209721491
H  H65  1  0.62140000  0.92730000  0.10000000  1.0 0.1209721491
H  H66  1  0.37860000  0.07270000  0.10000000  1.0 0.1209721491
H  H67  1  0.07270000  0.62140000  0.10000000  1.0 0.1209721491
H  H68  1  0.92730000  0.37860000  0.10000000  1.0 0.1209721491
H  H69  1  0.87860000  0.42730000  0.40000000  1.0 0.1209721491
H  H70  1  0.12140000  0.57270000  0.40000000  1.0 0.1209721491
H  H71  1  0.42730000  0.12140000  0.40000000  1.0 0.1209721491
H  H72  1  0.57270000  0.87860000  0.40000000  1.0 0.1209721491
H  H73  1  0.37860000  0.07270000  0.90000000  1.0 0.1209721491
H  H74  1  0.62140000  0.92730000  0.90000000  1.0 0.1209721491
H  H75  1  0.92730000  0.37860000  0.90000000  1.0 0.1209721491
H  H76  1  0.07270000  0.62140000  0.90000000  1.0 0.1209721491
H  H77  1  0.12140000  0.57270000  0.60000000  1.0 0.1209721491
H  H78  1  0.87860000  0.42730000  0.60000000  1.0 0.1209721491
H  H79  1  0.57270000  0.87860000  0.60000000  1.0 0.1209721491
H  H80  1  0.42730000  0.12140000  0.60000000  1.0 0.1209721491
H  H81  1  0.65330000  0.86680000  0.15250000  1.0 0.1209721491
H  H82  1  0.34670000  0.13320000  0.15250000  1.0 0.1209721491
H  H83  1  0.13320000  0.65330000  0.15250000  1.0 0.1209721491
H  H84  1  0.86680000  0.34670000  0.15250000  1.0 0.1209721491
H  H85  1  0.84670000  0.36680000  0.34750000  1.0 0.1209721491
H  H86  1  0.15330000  0.63320000  0.34750000  1.0 0.1209721491
H  H87  1  0.36680000  0.15330000  0.34750000  1.0 0.1209721491
H  H88  1  0.63320000  0.84670000  0.34750000  1.0 0.1209721491
H  H89  1  0.34670000  0.13320000  0.84750000  1.0 0.1209721491
H  H90  1  0.65330000  0.86680000  0.84750000  1.0 0.1209721491
H  H91  1  0.86680000  0.34670000  0.84750000  1.0 0.1209721491
H  H92  1  0.13320000  0.65330000  0.84750000  1.0 0.1209721491
H  H93  1  0.15330000  0.63320000  0.65250000  1.0 0.1209721491
H  H94  1  0.84670000  0.36680000  0.65250000  1.0 0.1209721491
H  H95  1  0.63320000  0.84670000  0.65250000  1.0 0.1209721491
H  H96  1  0.36680000  0.15330000  0.65250000  1.0 0.1209721491
H  H97  1  0.51260000  0.81080000  0.16570000  1.0 0.1209721491
H  H98  1  0.48740000  0.18920000  0.16570000  1.0 0.1209721491
H  H99  1  0.18920000  0.51260000  0.16570000  1.0 0.1209721491
H  H100  1  0.81080000  0.48740000  0.16570000  1.0 0.1209721491
H  H101  1  0.98740000  0.31080000  0.33430000  1.0 0.1209721491
H  H102  1  0.01260000  0.68920000  0.33430000  1.0 0.1209721491
H  H103  1  0.31080000  0.01260000  0.33430000  1.0 0.1209721491
H  H104  1  0.68920000  0.98740000  0.33430000  1.0 0.1209721491
H  H105  1  0.48740000  0.18920000  0.83430000  1.0 0.1209721491
H  H106  1  0.51260000  0.81080000  0.83430000  1.0 0.1209721491
H  H107  1  0.81080000  0.48740000  0.83430000  1.0 0.1209721491
H  H108  1  0.18920000  0.51260000  0.83430000  1.0 0.1209721491
H  H109  1  0.01260000  0.68920000  0.66570000  1.0 0.1209721491
H  H110  1  0.98740000  0.31080000  0.66570000  1.0 0.1209721491
H  H111  1  0.68920000  0.98740000  0.66570000  1.0 0.1209721491
H  H112  1  0.31080000  0.01260000  0.66570000  1.0 0.1209721491
H  H113  1  0.48270000  0.87000000  0.11340000  1.0 0.1209721491
H  H114  1  0.51730000  0.13000000  0.11340000  1.0 0.1209721491
H  H115  1  0.13000000  0.48270000  0.11340000  1.0 0.1209721491
H  H116  1  0.87000000  0.51730000  0.11340000  1.0 0.1209721491
H  H117  1  0.01730000  0.37000000  0.38660000  1.0 0.1209721491
H  H118  1  0.98270000  0.63000000  0.38660000  1.0 0.1209721491
H  H119  1  0.37000000  0.98270000  0.38660000  1.0 0.1209721491
H  H120  1  0.63000000  0.01730000  0.38660000  1.0 0.1209721491
H  H121  1  0.51730000  0.13000000  0.88660000  1.0 0.1209721491
H  H122  1  0.48270000  0.87000000  0.88660000  1.0 0.1209721491
H  H123  1  0.87000000  0.51730000  0.88660000  1.0 0.1209721491
H  H124  1  0.13000000  0.48270000  0.88660000  1.0 0.1209721491
H  H125  1  0.98270000  0.63000000  0.61340000  1.0 0.1209721491
H  H126  1  0.01730000  0.37000000  0.61340000  1.0 0.1209721491
H  H127  1  0.63000000  0.01730000  0.61340000  1.0 0.1209721491
H  H128  1  0.37000000  0.98270000  0.61340000  1.0 0.1209721491
H  H129  1  0.68070000  0.73590000  0.20560000  1.0 0.1283449924
H  H130  1  0.31930000  0.26410000  0.20560000  1.0 0.1283449924
H  H131  1  0.26410000  0.68070000  0.20560000  1.0 0.1283449924
H  H132  1  0.73590000  0.31930000  0.20560000  1.0 0.1283449924
H  H133  1  0.81930000  0.23590000  0.29440000  1.0 0.1283449924
H  H134  1  0.18070000  0.76410000  0.29440000  1.0 0.1283449924
H  H135  1  0.23590000  0.18070000  0.29440000  1.0 0.1283449924
H  H136  1  0.76410000  0.81930000  0.29440000  1.0 0.1283449924
H  H137  1  0.31930000  0.26410000  0.79440000  1.0 0.1283449924
H  H138  1  0.68070000  0.73590000  0.79440000  1.0 0.1283449924
H  H139  1  0.73590000  0.31930000  0.79440000  1.0 0.1283449924
H  H140  1  0.26410000  0.68070000  0.79440000  1.0 0.1283449924
H  H141  1  0.18070000  0.76410000  0.70560000  1.0 0.1283449924
H  H142  1  0.81930000  0.23590000  0.70560000  1.0 0.1283449924
H  H143  1  0.76410000  0.81930000  0.70560000  1.0 0.1283449924
H  H144  1  0.23590000  0.18070000  0.70560000  1.0 0.1283449924
H  H145  1  0.75200000  0.74800000  0.25000000  1.0 0.1028630687
H  H146  1  0.24800000  0.25200000  0.25000000  1.0 0.1028630687
H  H147  1  0.25200000  0.75200000  0.25000000  1.0 0.1028630687
H  H148  1  0.74800000  0.24800000  0.25000000  1.0 0.1028630687
H  H149  1  0.24800000  0.25200000  0.75000000  1.0 0.1028630687
H  H150  1  0.75200000  0.74800000  0.75000000  1.0 0.1028630687
H  H151  1  0.74800000  0.24800000  0.75000000  1.0 0.1028630687
H  H152  1  0.25200000  0.75200000  0.75000000  1.0 0.1028630687
H  H153  1  0.63000000  0.87000000  0.25000000  1.0 0.1379551319
H  H154  1  0.37000000  0.13000000  0.25000000  1.0 0.1379551319
H  H155  1  0.13000000  0.63000000  0.25000000  1.0 0.1379551319
H  H156  1  0.87000000  0.37000000  0.25000000  1.0 0.1379551319
H  H157  1  0.37000000  0.13000000  0.75000000  1.0 0.1379551319
H  H158  1  0.63000000  0.87000000  0.75000000  1.0 0.1379551319
H  H159  1  0.87000000  0.37000000  0.75000000  1.0 0.1379551319
H  H160  1  0.13000000  0.63000000  0.75000000  1.0 0.1379551319
H  H161  1  0.47070000  0.56510000  0.31990000  1.0 0.090475546
H  H162  1  0.52930000  0.43490000  0.31990000  1.0 0.090475546
H  H163  1  0.43490000  0.47070000  0.31990000  1.0 0.090475546
H  H164  1  0.56510000  0.52930000  0.31990000  1.0 0.090475546
H  H165  1  0.02930000  0.06510000  0.18010000  1.0 0.090475546
H  H166  1  0.97070000  0.93490000  0.18010000  1.0 0.090475546
H  H167  1  0.06510000  0.97070000  0.18010000  1.0 0.090475546
H  H168  1  0.93490000  0.02930000  0.18010000  1.0 0.090475546
H  H169  1  0.52930000  0.43490000  0.68010000  1.0 0.090475546
H  H170  1  0.47070000  0.56510000  0.68010000  1.0 0.090475546
H  H171  1  0.56510000  0.52930000  0.68010000  1.0 0.090475546
H  H172  1  0.43490000  0.47070000  0.68010000  1.0 0.090475546
H  H173  1  0.97070000  0.93490000  0.81990000  1.0 0.090475546
H  H174  1  0.02930000  0.06510000  0.81990000  1.0 0.090475546
H  H175  1  0.93490000  0.02930000  0.81990000  1.0 0.090475546
H  H176  1  0.06510000  0.97070000  0.81990000  1.0 0.090475546
H  H177  1  0.45140000  0.61710000  0.39210000  1.0 0.1209721491
H  H178  1  0.54860000  0.38290000  0.39210000  1.0 0.1209721491
H  H179  1  0.38290000  0.45140000  0.39210000  1.0 0.1209721491
H  H180  1  0.61710000  0.54860000  0.39210000  1.0 0.1209721491
H  H181  1  0.04860000  0.11710000  0.10790000  1.0 0.1209721491
H  H182  1  0.95140000  0.88290000  0.10790000  1.0 0.1209721491
H  H183  1  0.11710000  0.95140000  0.10790000  1.0 0.1209721491
H  H184  1  0.88290000  0.04860000  0.10790000  1.0 0.1209721491
H  H185  1  0.54860000  0.38290000  0.60790000  1.0 0.1209721491
H  H186  1  0.45140000  0.61710000  0.60790000  1.0 0.1209721491
H  H187  1  0.61710000  0.54860000  0.60790000  1.0 0.1209721491
H  H188  1  0.38290000  0.45140000  0.60790000  1.0 0.1209721491
H  H189  1  0.95140000  0.88290000  0.89210000  1.0 0.1209721491
H  H190  1  0.04860000  0.11710000  0.89210000  1.0 0.1209721491
H  H191  1  0.88290000  0.04860000  0.89210000  1.0 0.1209721491
H  H192  1  0.11710000  0.95140000  0.89210000  1.0 0.1209721491
H  H193  1  0.41970000  0.64160000  0.46340000  1.0 0.1075161822
H  H194  1  0.58030000  0.35840000  0.46340000  1.0 0.1075161822
H  H195  1  0.35840000  0.41970000  0.46340000  1.0 0.1075161822
H  H196  1  0.64160000  0.58030000  0.46340000  1.0 0.1075161822
H  H197  1  0.08030000  0.14160000  0.03660000  1.0 0.1075161822
H  H198  1  0.91970000  0.85840000  0.03660000  1.0 0.1075161822
H  H199  1  0.14160000  0.91970000  0.03660000  1.0 0.1075161822
H  H200  1  0.85840000  0.08030000  0.03660000  1.0 0.1075161822
H  H201  1  0.58030000  0.35840000  0.53660000  1.0 0.1075161822
H  H202  1  0.41970000  0.64160000  0.53660000  1.0 0.1075161822
H  H203  1  0.64160000  0.58030000  0.53660000  1.0 0.1075161822
H  H204  1  0.35840000  0.41970000  0.53660000  1.0 0.1075161822
H  H205  1  0.91970000  0.85840000  0.96340000  1.0 0.1075161822
H  H206  1  0.08030000  0.14160000  0.96340000  1.0 0.1075161822
H  H207  1  0.85840000  0.08030000  0.96340000  1.0 0.1075161822
H  H208  1  0.14160000  0.91970000  0.96340000  1.0 0.1075161822
H  H209  1  0.38950000  0.59030000  0.46340000  1.0 0.1283449924
H  H210  1  0.61050000  0.40970000  0.46340000  1.0 0.1283449924
H  H211  1  0.40970000  0.38950000  0.46340000  1.0 0.1283449924
H  H212  1  0.59030000  0.61050000  0.46340000  1.0 0.1283449924
H  H213  1  0.11050000  0.09030000  0.03660000  1.0 0.1283449924
H  H214  1  0.88950000  0.90970000  0.03660000  1.0 0.1283449924
H  H215  1  0.09030000  0.88950000  0.03660000  1.0 0.1283449924
H  H216  1  0.90970000  0.11050000  0.03660000  1.0 0.1283449924
H  H217  1  0.61050000  0.40970000  0.53660000  1.0 0.1283449924
H  H218  1  0.38950000  0.59030000  0.53660000  1.0 0.1283449924
H  H219  1  0.59030000  0.61050000  0.53660000  1.0 0.1283449924
H  H220  1  0.40970000  0.38950000  0.53660000  1.0 0.1283449924
H  H221  1  0.88950000  0.90970000  0.96340000  1.0 0.1283449924
H  H222  1  0.11050000  0.09030000  0.96340000  1.0 0.1283449924
H  H223  1  0.90970000  0.11050000  0.96340000  1.0 0.1283449924
H  H224  1  0.09030000  0.88950000  0.96340000  1.0 0.1283449924
C  C1  1  0.52840000  0.59143000  0.18873000  1.0 0.5716258055
C  C2  1  0.47160000  0.40857000  0.18873000  1.0 0.5716258055
C  C3  1  0.40857000  0.52840000  0.18873000  1.0 0.5716258055
C  C4  1  0.59143000  0.47160000  0.18873000  1.0 0.5716258055
C  C5  1  0.97160000  0.09143000  0.31127000  1.0 0.5716258055
C  C6  1  0.02840000  0.90857000  0.31127000  1.0 0.5716258055
C  C7  1  0.09143000  0.02840000  0.31127000  1.0 0.5716258055
C  C8  1  0.90857000  0.97160000  0.31127000  1.0 0.5716258055
C  C9  1  0.47160000  0.40857000  0.81127000  1.0 0.5716258055
C  C10  1  0.52840000  0.59143000  0.81127000  1.0 0.5716258055
C  C11  1  0.59143000  0.47160000  0.81127000  1.0 0.5716258055
C  C12  1  0.40857000  0.52840000  0.81127000  1.0 0.5716258055
C  C13  1  0.02840000  0.90857000  0.68873000  1.0 0.5716258055
C  C14  1  0.97160000  0.09143000  0.68873000  1.0 0.5716258055
C  C15  1  0.90857000  0.97160000  0.68873000  1.0 0.5716258055
C  C16  1  0.09143000  0.02840000  0.68873000  1.0 0.5716258055
C  C17  1  0.54650000  0.64551000  0.19034000  1.0 -0.0430956101
C  C18  1  0.45350000  0.35449000  0.19034000  1.0 -0.0430956101
C  C19  1  0.35449000  0.54650000  0.19034000  1.0 -0.0430956101
C  C20  1  0.64551000  0.45350000  0.19034000  1.0 -0.0430956101
C  C21  1  0.95350000  0.14551000  0.30966000  1.0 -0.0430956101
C  C22  1  0.04650000  0.85449000  0.30966000  1.0 -0.0430956101
C  C23  1  0.14551000  0.04650000  0.30966000  1.0 -0.0430956101
C  C24  1  0.85449000  0.95350000  0.30966000  1.0 -0.0430956101
C  C25  1  0.45350000  0.35449000  0.80966000  1.0 -0.0430956101
C  C26  1  0.54650000  0.64551000  0.80966000  1.0 -0.0430956101
C  C27  1  0.64551000  0.45350000  0.80966000  1.0 -0.0430956101
C  C28  1  0.35449000  0.54650000  0.80966000  1.0 -0.0430956101
C  C29  1  0.04650000  0.85449000  0.69034000  1.0 -0.0430956101
C  C30  1  0.95350000  0.14551000  0.69034000  1.0 -0.0430956101
C  C31  1  0.85449000  0.95350000  0.69034000  1.0 -0.0430956101
C  C32  1  0.14551000  0.04650000  0.69034000  1.0 -0.0430956101
C  C33  1  0.55543000  0.66893000  0.23277000  1.0 -0.087264428
C  C34  1  0.44457000  0.33107000  0.23277000  1.0 -0.087264428
C  C35  1  0.33107000  0.55543000  0.23277000  1.0 -0.087264428
C  C36  1  0.66893000  0.44457000  0.23277000  1.0 -0.087264428
C  C37  1  0.94457000  0.16893000  0.26723000  1.0 -0.087264428
C  C38  1  0.05543000  0.83107000  0.26723000  1.0 -0.087264428
C  C39  1  0.16893000  0.05543000  0.26723000  1.0 -0.087264428
C  C40  1  0.83107000  0.94457000  0.26723000  1.0 -0.087264428
C  C41  1  0.44457000  0.33107000  0.76723000  1.0 -0.087264428
C  C42  1  0.55543000  0.66893000  0.76723000  1.0 -0.087264428
C  C43  1  0.66893000  0.44457000  0.76723000  1.0 -0.087264428
C  C44  1  0.33107000  0.55543000  0.76723000  1.0 -0.087264428
C  C45  1  0.05543000  0.83107000  0.73277000  1.0 -0.087264428
C  C46  1  0.94457000  0.16893000  0.73277000  1.0 -0.087264428
C  C47  1  0.83107000  0.94457000  0.73277000  1.0 -0.087264428
C  C48  1  0.16893000  0.05543000  0.73277000  1.0 -0.087264428
C  C49  1  0.57375000  0.71855000  0.23446000  1.0 -0.1990671448
C  C50  1  0.42625000  0.28145000  0.23446000  1.0 -0.1990671448
C  C51  1  0.28145000  0.57375000  0.23446000  1.0 -0.1990671448
C  C52  1  0.71855000  0.42625000  0.23446000  1.0 -0.1990671448
C  C53  1  0.92625000  0.21855000  0.26554000  1.0 -0.1990671448
C  C54  1  0.07375000  0.78145000  0.26554000  1.0 -0.1990671448
C  C55  1  0.21855000  0.07375000  0.26554000  1.0 -0.1990671448
C  C56  1  0.78145000  0.92625000  0.26554000  1.0 -0.1990671448
C  C57  1  0.42625000  0.28145000  0.76554000  1.0 -0.1990671448
C  C58  1  0.57375000  0.71855000  0.76554000  1.0 -0.1990671448
C  C59  1  0.71855000  0.42625000  0.76554000  1.0 -0.1990671448
C  C60  1  0.28145000  0.57375000  0.76554000  1.0 -0.1990671448
C  C61  1  0.07375000  0.78145000  0.73446000  1.0 -0.1990671448
C  C62  1  0.92625000  0.21855000  0.73446000  1.0 -0.1990671448
C  C63  1  0.78145000  0.92625000  0.73446000  1.0 -0.1990671448
C  C64  1  0.21855000  0.07375000  0.73446000  1.0 -0.1990671448
C  C65  1  0.58293000  0.74470000  0.19315000  1.0 0.1544272315
C  C66  1  0.41707000  0.25530000  0.19315000  1.0 0.1544272315
C  C67  1  0.25530000  0.58293000  0.19315000  1.0 0.1544272315
C  C68  1  0.74470000  0.41707000  0.19315000  1.0 0.1544272315
C  C69  1  0.91707000  0.24470000  0.30685000  1.0 0.1544272315
C  C70  1  0.08293000  0.75530000  0.30685000  1.0 0.1544272315
C  C71  1  0.24470000  0.08293000  0.30685000  1.0 0.1544272315
C  C72  1  0.75530000  0.91707000  0.30685000  1.0 0.1566534867
C  C73  1  0.41707000  0.25530000  0.80685000  1.0 0.1544272315
C  C74  1  0.58293000  0.74470000  0.80685000  1.0 0.1566534867
C  C75  1  0.74470000  0.41707000  0.80685000  1.0 0.1566534867
C  C76  1  0.25530000  0.58293000  0.80685000  1.0 0.1544272315
C  C77  1  0.08293000  0.75530000  0.69315000  1.0 0.1544272315
C  C78  1  0.91707000  0.24470000  0.69315000  1.0 0.1566534867
C  C79  1  0.75530000  0.91707000  0.69315000  1.0 0.1566534867
C  C80  1  0.24470000  0.08293000  0.69315000  1.0 0.1544272315
C  C81  1  0.57363000  0.72100000  0.15067000  1.0 -0.1863322595
C  C82  1  0.42637000  0.27900000  0.15067000  1.0 -0.1863322595
C  C83  1  0.27900000  0.57363000  0.15067000  1.0 -0.1863322595
C  C84  1  0.72100000  0.42637000  0.15067000  1.0 -0.1863322595
C  C85  1  0.92637000  0.22100000  0.34933000  1.0 -0.1863322595
C  C86  1  0.07363000  0.77900000  0.34933000  1.0 -0.1863322595
C  C87  1  0.22100000  0.07363000  0.34933000  1.0 -0.1863322595
C  C88  1  0.77900000  0.92637000  0.34933000  1.0 -0.1863322595
C  C89  1  0.42637000  0.27900000  0.84933000  1.0 -0.1863322595
C  C90  1  0.57363000  0.72100000  0.84933000  1.0 -0.1863322595
C  C91  1  0.72100000  0.42637000  0.84933000  1.0 -0.1863322595
C  C92  1  0.27900000  0.57363000  0.84933000  1.0 -0.1863322595
C  C93  1  0.07363000  0.77900000  0.65067000  1.0 -0.1863322595
C  C94  1  0.92637000  0.22100000  0.65067000  1.0 -0.1863322595
C  C95  1  0.77900000  0.92637000  0.65067000  1.0 -0.1863322595
C  C96  1  0.22100000  0.07363000  0.65067000  1.0 -0.1863322595
C  C97  1  0.55544000  0.67257000  0.14893000  1.0 -0.087264428
C  C98  1  0.44456000  0.32743000  0.14893000  1.0 -0.087264428
C  C99  1  0.32743000  0.55544000  0.14893000  1.0 -0.087264428
C  C100  1  0.67257000  0.44456000  0.14893000  1.0 -0.087264428
C  C101  1  0.94456000  0.17257000  0.35107000  1.0 -0.087264428
C  C102  1  0.05544000  0.82743000  0.35107000  1.0 -0.087264428
C  C103  1  0.17257000  0.05544000  0.35107000  1.0 -0.087264428
C  C104  1  0.82743000  0.94456000  0.35107000  1.0 -0.087264428
C  C105  1  0.44456000  0.32743000  0.85107000  1.0 -0.087264428
C  C106  1  0.55544000  0.67257000  0.85107000  1.0 -0.087264428
C  C107  1  0.67257000  0.44456000  0.85107000  1.0 -0.087264428
C  C108  1  0.32743000  0.55544000  0.85107000  1.0 -0.087264428
C  C109  1  0.05544000  0.82743000  0.64893000  1.0 -0.087264428
C  C110  1  0.94456000  0.17257000  0.64893000  1.0 -0.087264428
C  C111  1  0.82743000  0.94456000  0.64893000  1.0 -0.087264428
C  C112  1  0.17257000  0.05544000  0.64893000  1.0 -0.087264428
C  C113  1  0.53120000  0.93967000  0.06229000  1.0 0.5716258055
C  C114  1  0.46880000  0.06033000  0.06229000  1.0 0.5716258055
C  C115  1  0.06033000  0.53120000  0.06229000  1.0 0.5716258055
C  C116  1  0.93967000  0.46880000  0.06229000  1.0 0.5716258055
C  C117  1  0.96880000  0.43967000  0.43771000  1.0 0.5716258055
C  C118  1  0.03120000  0.56033000  0.43771000  1.0 0.5716258055
C  C119  1  0.43967000  0.03120000  0.43771000  1.0 0.5716258055
C  C120  1  0.56033000  0.96880000  0.43771000  1.0 0.5716258055
C  C121  1  0.46880000  0.06033000  0.93771000  1.0 0.5716258055
C  C122  1  0.53120000  0.93967000  0.93771000  1.0 0.5716258055
C  C123  1  0.93967000  0.46880000  0.93771000  1.0 0.5716258055
C  C124  1  0.06033000  0.53120000  0.93771000  1.0 0.5716258055
C  C125  1  0.03120000  0.56033000  0.56229000  1.0 0.5716258055
C  C126  1  0.96880000  0.43967000  0.56229000  1.0 0.5716258055
C  C127  1  0.56033000  0.96880000  0.56229000  1.0 0.5716258055
C  C128  1  0.43967000  0.03120000  0.56229000  1.0 0.5716258055
C  C129  1  0.54997000  0.90358000  0.09963000  1.0 -0.0610556282
C  C130  1  0.45003000  0.09642000  0.09963000  1.0 -0.0610556282
C  C131  1  0.09642000  0.54997000  0.09963000  1.0 -0.0610556282
C  C132  1  0.90358000  0.45003000  0.09963000  1.0 -0.0610556282
C  C133  1  0.95003000  0.40358000  0.40037000  1.0 -0.0546536745
C  C134  1  0.04997000  0.59642000  0.40037000  1.0 -0.0610556282
C  C135  1  0.40358000  0.04997000  0.40037000  1.0 -0.0546536745
C  C136  1  0.59642000  0.95003000  0.40037000  1.0 -0.0546536745
C  C137  1  0.45003000  0.09642000  0.90037000  1.0 -0.0546536745
C  C138  1  0.54997000  0.90358000  0.90037000  1.0 -0.0546536745
C  C139  1  0.90358000  0.45003000  0.90037000  1.0 -0.0546536745
C  C140  1  0.09642000  0.54997000  0.90037000  1.0 -0.0546536745
C  C141  1  0.04997000  0.59642000  0.59963000  1.0 -0.0610556282
C  C142  1  0.95003000  0.40358000  0.59963000  1.0 -0.0546536745
C  C143  1  0.59642000  0.95003000  0.59963000  1.0 -0.0546536745
C  C144  1  0.40358000  0.04997000  0.59963000  1.0 -0.0610556282
C  C145  1  0.59960000  0.90317000  0.11266000  1.0 -0.0801775334
C  C146  1  0.40040000  0.09683000  0.11266000  1.0 -0.0801775334
C  C147  1  0.09683000  0.59960000  0.11266000  1.0 -0.0801775334
C  C148  1  0.90317000  0.40040000  0.11266000  1.0 -0.0801775334
C  C149  1  0.90040000  0.40317000  0.38734000  1.0 -0.0801775334
C  C150  1  0.09960000  0.59683000  0.38734000  1.0 -0.0801775334
C  C151  1  0.40317000  0.09960000  0.38734000  1.0 -0.0801775334
C  C152  1  0.59683000  0.90040000  0.38734000  1.0 -0.0801775334
C  C153  1  0.40040000  0.09683000  0.88734000  1.0 -0.0801775334
C  C154  1  0.59960000  0.90317000  0.88734000  1.0 -0.0801775334
C  C155  1  0.90317000  0.40040000  0.88734000  1.0 -0.0801775334
C  C156  1  0.09683000  0.59960000  0.88734000  1.0 -0.0801775334
C  C157  1  0.09960000  0.59683000  0.61266000  1.0 -0.0801775334
C  C158  1  0.90040000  0.40317000  0.61266000  1.0 -0.0801775334
C  C159  1  0.59683000  0.90040000  0.61266000  1.0 -0.0801775334
C  C160  1  0.40317000  0.09960000  0.61266000  1.0 -0.0801775334
C  C161  1  0.61897000  0.86715000  0.14481000  1.0 -0.2208082424
C  C162  1  0.38103000  0.13285000  0.14481000  1.0 -0.2208082424
C  C163  1  0.13285000  0.61897000  0.14481000  1.0 -0.2208082424
C  C164  1  0.86715000  0.38103000  0.14481000  1.0 -0.2208082424
C  C165  1  0.88103000  0.36715000  0.35519000  1.0 -0.2208082424
C  C166  1  0.11897000  0.63285000  0.35519000  1.0 -0.2208082424
C  C167  1  0.36715000  0.11897000  0.35519000  1.0 -0.2208082424
C  C168  1  0.63285000  0.88103000  0.35519000  1.0 -0.2208082424
C  C169  1  0.38103000  0.13285000  0.85519000  1.0 -0.2208082424
C  C170  1  0.61897000  0.86715000  0.85519000  1.0 -0.2208082424
C  C171  1  0.86715000  0.38103000  0.85519000  1.0 -0.2208082424
C  C172  1  0.13285000  0.61897000  0.85519000  1.0 -0.2208082424
C  C173  1  0.11897000  0.63285000  0.64481000  1.0 -0.2208082424
C  C174  1  0.88103000  0.36715000  0.64481000  1.0 -0.2208082424
C  C175  1  0.63285000  0.88103000  0.64481000  1.0 -0.2208082424
C  C176  1  0.36715000  0.11897000  0.64481000  1.0 -0.2208082424
C  C177  1  0.58552000  0.83199000  0.16478000  1.0 0.179748954
C  C178  1  0.41448000  0.16801000  0.16478000  1.0 0.179748954
C  C179  1  0.16801000  0.58552000  0.16478000  1.0 0.179748954
C  C180  1  0.83199000  0.41448000  0.16478000  1.0 0.179748954
C  C181  1  0.91448000  0.33199000  0.33522000  1.0 0.179748954
C  C182  1  0.08552000  0.66801000  0.33522000  1.0 0.179748954
C  C183  1  0.33199000  0.08552000  0.33522000  1.0 0.179748954
C  C184  1  0.66801000  0.91448000  0.33522000  1.0 0.179748954
C  C185  1  0.41448000  0.16801000  0.83522000  1.0 0.179748954
C  C186  1  0.58552000  0.83199000  0.83522000  1.0 0.179748954
C  C187  1  0.83199000  0.41448000  0.83522000  1.0 0.179748954
C  C188  1  0.16801000  0.58552000  0.83522000  1.0 0.179748954
C  C189  1  0.08552000  0.66801000  0.66478000  1.0 0.179748954
C  C190  1  0.91448000  0.33199000  0.66478000  1.0 0.179748954
C  C191  1  0.66801000  0.91448000  0.66478000  1.0 0.179748954
C  C192  1  0.33199000  0.08552000  0.66478000  1.0 0.179748954
C  C193  1  0.53515000  0.83391000  0.15240000  1.0 -0.1990671448
C  C194  1  0.46485000  0.16609000  0.15240000  1.0 -0.1990671448
C  C195  1  0.16609000  0.53515000  0.15240000  1.0 -0.1990671448
C  C196  1  0.83391000  0.46485000  0.15240000  1.0 -0.1990671448
C  C197  1  0.96485000  0.33391000  0.34760000  1.0 -0.1990671448
C  C198  1  0.03515000  0.66609000  0.34760000  1.0 -0.1990671448
C  C199  1  0.33391000  0.03515000  0.34760000  1.0 -0.1990671448
C  C200  1  0.66609000  0.96485000  0.34760000  1.0 -0.1990671448
C  C201  1  0.46485000  0.16609000  0.84760000  1.0 -0.1990671448
C  C202  1  0.53515000  0.83391000  0.84760000  1.0 -0.1990671448
C  C203  1  0.83391000  0.46485000  0.84760000  1.0 -0.1990671448
C  C204  1  0.16609000  0.53515000  0.84760000  1.0 -0.1990671448
C  C205  1  0.03515000  0.66609000  0.65240000  1.0 -0.1990671448
C  C206  1  0.96485000  0.33391000  0.65240000  1.0 -0.1990671448
C  C207  1  0.66609000  0.96485000  0.65240000  1.0 -0.1990671448
C  C208  1  0.33391000  0.03515000  0.65240000  1.0 -0.1990671448
C  C209  1  0.51715000  0.86922000  0.12069000  1.0 -0.087264428
C  C210  1  0.48285000  0.13078000  0.12069000  1.0 -0.087264428
C  C211  1  0.13078000  0.51715000  0.12069000  1.0 -0.087264428
C  C212  1  0.86922000  0.48285000  0.12069000  1.0 -0.087264428
C  C213  1  0.98285000  0.36922000  0.37931000  1.0 -0.087264428
C  C214  1  0.01715000  0.63078000  0.37931000  1.0 -0.087264428
C  C215  1  0.36922000  0.01715000  0.37931000  1.0 -0.087264428
C  C216  1  0.63078000  0.98285000  0.37931000  1.0 -0.087264428
C  C217  1  0.48285000  0.13078000  0.87931000  1.0 -0.087264428
C  C218  1  0.51715000  0.86922000  0.87931000  1.0 -0.087264428
C  C219  1  0.86922000  0.48285000  0.87931000  1.0 -0.087264428
C  C220  1  0.13078000  0.51715000  0.87931000  1.0 -0.087264428
C  C221  1  0.01715000  0.63078000  0.62069000  1.0 -0.087264428
C  C222  1  0.98285000  0.36922000  0.62069000  1.0 -0.087264428
C  C223  1  0.63078000  0.98285000  0.62069000  1.0 -0.087264428
C  C224  1  0.36922000  0.01715000  0.62069000  1.0 -0.087264428
C  C225  1  0.64854000  0.80192000  0.22307000  1.0 0.1566534867
C  C226  1  0.35146000  0.19808000  0.22307000  1.0 0.1566534867
C  C227  1  0.19808000  0.64854000  0.22307000  1.0 0.1566534867
C  C228  1  0.80192000  0.35146000  0.22307000  1.0 0.1566534867
C  C229  1  0.85146000  0.30192000  0.27693000  1.0 0.1566534867
C  C230  1  0.14854000  0.69808000  0.27693000  1.0 0.1566534867
C  C231  1  0.30192000  0.14854000  0.27693000  1.0 0.1566534867
C  C232  1  0.69808000  0.85146000  0.27693000  1.0 0.1566534867
C  C233  1  0.35146000  0.19808000  0.77693000  1.0 0.1566534867
C  C234  1  0.64854000  0.80192000  0.77693000  1.0 0.1566534867
C  C235  1  0.80192000  0.35146000  0.77693000  1.0 0.1566534867
C  C236  1  0.19808000  0.64854000  0.77693000  1.0 0.1566534867
C  C237  1  0.14854000  0.69808000  0.72307000  1.0 0.1566534867
C  C238  1  0.85146000  0.30192000  0.72307000  1.0 0.1566534867
C  C239  1  0.69808000  0.85146000  0.72307000  1.0 0.1566534867
C  C240  1  0.30192000  0.14854000  0.72307000  1.0 0.1566534867
C  C241  1  0.68470000  0.76540000  0.22320000  1.0 -0.1990671448
C  C242  1  0.31530000  0.23460000  0.22320000  1.0 -0.1990671448
C  C243  1  0.23460000  0.68470000  0.22320000  1.0 -0.1990671448
C  C244  1  0.76540000  0.31530000  0.22320000  1.0 -0.1990671448
C  C245  1  0.81530000  0.26540000  0.27680000  1.0 -0.1990671448
C  C246  1  0.18470000  0.73460000  0.27680000  1.0 -0.1990671448
C  C247  1  0.26540000  0.18470000  0.27680000  1.0 -0.1990671448
C  C248  1  0.73460000  0.81530000  0.27680000  1.0 -0.1990671448
C  C249  1  0.31530000  0.23460000  0.77680000  1.0 -0.1990671448
C  C250  1  0.68470000  0.76540000  0.77680000  1.0 -0.205764466
C  C251  1  0.76540000  0.31530000  0.77680000  1.0 -0.1990671448
C  C252  1  0.23460000  0.68470000  0.77680000  1.0 -0.205764466
C  C253  1  0.18470000  0.73460000  0.72320000  1.0 -0.205764466
C  C254  1  0.81530000  0.26540000  0.72320000  1.0 -0.1990671448
C  C255  1  0.73460000  0.81530000  0.72320000  1.0 -0.205764466
C  C256  1  0.26540000  0.18470000  0.72320000  1.0 -0.1990671448
C  C257  1  0.72700000  0.77300000  0.25000000  1.0 -0.0655292692
C  C258  1  0.27300000  0.22700000  0.25000000  1.0 -0.0655292692
C  C259  1  0.22700000  0.72700000  0.25000000  1.0 -0.0655292692
C  C260  1  0.77300000  0.27300000  0.25000000  1.0 -0.0655292692
C  C261  1  0.27300000  0.22700000  0.75000000  1.0 -0.0655292692
C  C262  1  0.72700000  0.77300000  0.75000000  1.0 -0.0610556282
C  C263  1  0.77300000  0.27300000  0.75000000  1.0 -0.0610556282
C  C264  1  0.22700000  0.72700000  0.75000000  1.0 -0.0610556282
C  C265  1  0.65498000  0.84502000  0.25000000  1.0 -0.258230065
C  C266  1  0.34502000  0.15498000  0.25000000  1.0 -0.258230065
C  C267  1  0.15498000  0.65498000  0.25000000  1.0 -0.258230065
C  C268  1  0.84502000  0.34502000  0.25000000  1.0 -0.258230065
C  C269  1  0.34502000  0.15498000  0.75000000  1.0 -0.258230065
C  C270  1  0.65498000  0.84502000  0.75000000  1.0 -0.258230065
C  C271  1  0.84502000  0.34502000  0.75000000  1.0 -0.258230065
C  C272  1  0.15498000  0.65498000  0.75000000  1.0 -0.258230065
C  C273  1  0.48320000  0.53730000  0.33640000  1.0 -0.0097865832
C  C274  1  0.51680000  0.46270000  0.33640000  1.0 -0.0097865832
C  C275  1  0.46270000  0.48320000  0.33640000  1.0 -0.0097865832
C  C276  1  0.53730000  0.51680000  0.33640000  1.0 -0.0097865832
C  C277  1  0.01680000  0.03730000  0.16360000  1.0 -0.0097865832
C  C278  1  0.98320000  0.96270000  0.16360000  1.0 -0.0097865832
C  C279  1  0.03730000  0.98320000  0.16360000  1.0 -0.0097865832
C  C280  1  0.96270000  0.01680000  0.16360000  1.0 -0.0097865832
C  C281  1  0.51680000  0.46270000  0.66360000  1.0 -0.0097865832
C  C282  1  0.48320000  0.53730000  0.66360000  1.0 -0.0097865832
C  C283  1  0.53730000  0.51680000  0.66360000  1.0 -0.0097865832
C  C284  1  0.46270000  0.48320000  0.66360000  1.0 -0.0097865832
C  C285  1  0.98320000  0.96270000  0.83640000  1.0 -0.0097865832
C  C286  1  0.01680000  0.03730000  0.83640000  1.0 -0.0097865832
C  C287  1  0.96270000  0.01680000  0.83640000  1.0 -0.0097865832
C  C288  1  0.03730000  0.98320000  0.83640000  1.0 -0.0097865832
C  C289  1  0.50000000  0.50000000  0.40730000  1.0 0.179748954
C  C290  1  0.00000000  0.00000000  0.09270000  1.0 0.179748954
C  C291  1  0.50000000  0.50000000  0.59270000  1.0 0.1745236134
C  C292  1  0.00000000  0.00000000  0.90730000  1.0 0.1745236134
C  C293  1  0.46270000  0.58760000  0.40670000  1.0 -0.0610556282
C  C294  1  0.53730000  0.41240000  0.40670000  1.0 -0.0610556282
C  C295  1  0.41240000  0.46270000  0.40670000  1.0 -0.0610556282
C  C296  1  0.58760000  0.53730000  0.40670000  1.0 -0.0610556282
C  C297  1  0.03730000  0.08760000  0.09330000  1.0 -0.0610556282
C  C298  1  0.96270000  0.91240000  0.09330000  1.0 -0.0610556282
C  C299  1  0.08760000  0.96270000  0.09330000  1.0 -0.0610556282
C  C300  1  0.91240000  0.03730000  0.09330000  1.0 -0.0610556282
C  C301  1  0.53730000  0.41240000  0.59330000  1.0 -0.0610556282
C  C302  1  0.46270000  0.58760000  0.59330000  1.0 -0.0610556282
C  C303  1  0.58760000  0.53730000  0.59330000  1.0 -0.0610556282
C  C304  1  0.41240000  0.46270000  0.59330000  1.0 -0.0610556282
C  C305  1  0.96270000  0.91240000  0.90670000  1.0 -0.0610556282
C  C306  1  0.03730000  0.08760000  0.90670000  1.0 -0.0610556282
C  C307  1  0.91240000  0.03730000  0.90670000  1.0 -0.0610556282
C  C308  1  0.08760000  0.96270000  0.90670000  1.0 -0.0610556282
C  C309  1  0.48130000  0.54120000  0.38240000  1.0 -0.0610556282
C  C310  1  0.51870000  0.45880000  0.38240000  1.0 -0.0610556282
C  C311  1  0.45880000  0.48130000  0.38240000  1.0 -0.0610556282
C  C312  1  0.54120000  0.51870000  0.38240000  1.0 -0.0610556282
C  C313  1  0.01870000  0.04120000  0.11760000  1.0 -0.0610556282
C  C314  1  0.98130000  0.95880000  0.11760000  1.0 -0.0610556282
C  C315  1  0.04120000  0.98130000  0.11760000  1.0 -0.0610556282
C  C316  1  0.95880000  0.01870000  0.11760000  1.0 -0.0610556282
C  C317  1  0.51870000  0.45880000  0.61760000  1.0 -0.0610556282
C  C318  1  0.48130000  0.54120000  0.61760000  1.0 -0.0610556282
C  C319  1  0.54120000  0.51870000  0.61760000  1.0 -0.0610556282
C  C320  1  0.45880000  0.48130000  0.61760000  1.0 -0.0610556282
C  C321  1  0.98130000  0.95880000  0.88240000  1.0 -0.0610556282
C  C322  1  0.01870000  0.04120000  0.88240000  1.0 -0.0610556282
C  C323  1  0.95880000  0.01870000  0.88240000  1.0 -0.0610556282
C  C324  1  0.04120000  0.98130000  0.88240000  1.0 -0.0610556282
C  C325  1  0.42030000  0.60670000  0.47440000  1.0 -0.1096172444
C  C326  1  0.57970000  0.39330000  0.47440000  1.0 -0.1096172444
C  C327  1  0.39330000  0.42030000  0.47440000  1.0 -0.1096172444
C  C328  1  0.60670000  0.57970000  0.47440000  1.0 -0.1096172444
C  C329  1  0.07970000  0.10670000  0.02560000  1.0 -0.1096172444
C  C330  1  0.92030000  0.89330000  0.02560000  1.0 -0.1096172444
C  C331  1  0.10670000  0.92030000  0.02560000  1.0 -0.1096172444
C  C332  1  0.89330000  0.07970000  0.02560000  1.0 -0.1096172444
C  C333  1  0.57970000  0.39330000  0.52560000  1.0 -0.1096172444
C  C334  1  0.42030000  0.60670000  0.52560000  1.0 -0.1096172444
C  C335  1  0.60670000  0.57970000  0.52560000  1.0 -0.1096172444
C  C336  1  0.39330000  0.42030000  0.52560000  1.0 -0.1096172444
C  C337  1  0.92030000  0.89330000  0.97440000  1.0 -0.1096172444
C  C338  1  0.07970000  0.10670000  0.97440000  1.0 -0.1096172444
C  C339  1  0.89330000  0.07970000  0.97440000  1.0 -0.1096172444
C  C340  1  0.10670000  0.92030000  0.97440000  1.0 -0.1096172444
N  N1  1  0.60294000  0.79529000  0.19585000  1.0 -0.1804963509
N  N2  1  0.39706000  0.20471000  0.19585000  1.0 -0.1804963509
N  N3  1  0.20471000  0.60294000  0.19585000  1.0 -0.1804963509
N  N4  1  0.79529000  0.39706000  0.19585000  1.0 -0.1804963509
N  N5  1  0.89706000  0.29529000  0.30415000  1.0 -0.1804963509
N  N6  1  0.10294000  0.70471000  0.30415000  1.0 -0.1804963509
N  N7  1  0.29529000  0.10294000  0.30415000  1.0 -0.1804963509
N  N8  1  0.70471000  0.89706000  0.30415000  1.0 -0.1804963509
N  N9  1  0.39706000  0.20471000  0.80415000  1.0 -0.1804963509
N  N10  1  0.60294000  0.79529000  0.80415000  1.0 -0.1804963509
N  N11  1  0.79529000  0.39706000  0.80415000  1.0 -0.1804963509
N  N12  1  0.20471000  0.60294000  0.80415000  1.0 -0.1804963509
N  N13  1  0.10294000  0.70471000  0.69585000  1.0 -0.1804963509
N  N14  1  0.89706000  0.29529000  0.69585000  1.0 -0.1804963509
N  N15  1  0.70471000  0.89706000  0.69585000  1.0 -0.1804963509
N  N16  1  0.29529000  0.10294000  0.69585000  1.0 -0.1804963509
N  N17  1  0.50000000  0.50000000  0.31069000  1.0 -0.1863322595
N  N18  1  0.00000000  0.00000000  0.18931000  1.0 -0.1863322595
N  N19  1  0.50000000  0.50000000  0.68931000  1.0 -0.1863322595
N  N20  1  0.00000000  0.00000000  0.81069000  1.0 -0.1863322595
N  N21  1  0.46490000  0.57940000  0.45330000  1.0 -0.0097865832
N  N22  1  0.53510000  0.42060000  0.45330000  1.0 -0.0097865832
N  N23  1  0.42060000  0.46490000  0.45330000  1.0 -0.0097865832
N  N24  1  0.57940000  0.53510000  0.45330000  1.0 -0.0097865832
N  N25  1  0.03510000  0.07940000  0.04670000  1.0 -0.015589057
N  N26  1  0.96490000  0.92060000  0.04670000  1.0 -0.0097865832
N  N27  1  0.07940000  0.96490000  0.04670000  1.0 -0.015589057
N  N28  1  0.92060000  0.03510000  0.04670000  1.0 -0.0097865832
N  N29  1  0.53510000  0.42060000  0.54670000  1.0 -0.0097865832
N  N30  1  0.46490000  0.57940000  0.54670000  1.0 -0.0097865832
N  N31  1  0.57940000  0.53510000  0.54670000  1.0 -0.0097865832
N  N32  1  0.42060000  0.46490000  0.54670000  1.0 -0.0097865832
N  N33  1  0.96490000  0.92060000  0.95330000  1.0 -0.0048521226
N  N34  1  0.03510000  0.07940000  0.95330000  1.0 -0.0097865832
N  N35  1  0.92060000  0.03510000  0.95330000  1.0 -0.0048521226
N  N36  1  0.07940000  0.96490000  0.95330000  1.0 -0.0097865832
O  O1  1  0.52152000  0.57135000  0.14947000  1.0 -0.5024648467
O  O2  1  0.47848000  0.42865000  0.14947000  1.0 -0.5024648467
O  O3  1  0.42865000  0.52152000  0.14947000  1.0 -0.5024648467
O  O4  1  0.57135000  0.47848000  0.14947000  1.0 -0.5024648467
O  O5  1  0.97848000  0.07135000  0.35053000  1.0 -0.5024648467
O  O6  1  0.02152000  0.92865000  0.35053000  1.0 -0.5024648467
O  O7  1  0.07135000  0.02152000  0.35053000  1.0 -0.5024648467
O  O8  1  0.92865000  0.97848000  0.35053000  1.0 -0.5024648467
O  O9  1  0.47848000  0.42865000  0.85053000  1.0 -0.5024648467
O  O10  1  0.52152000  0.57135000  0.85053000  1.0 -0.5024648467
O  O11  1  0.57135000  0.47848000  0.85053000  1.0 -0.5024648467
O  O12  1  0.42865000  0.52152000  0.85053000  1.0 -0.5024648467
O  O13  1  0.02152000  0.92865000  0.64947000  1.0 -0.5024648467
O  O14  1  0.97848000  0.07135000  0.64947000  1.0 -0.5024648467
O  O15  1  0.92865000  0.97848000  0.64947000  1.0 -0.5024648467
O  O16  1  0.07135000  0.02152000  0.64947000  1.0 -0.5024648467
O  O17  1  0.52233000  0.57039000  0.22843000  1.0 -0.5319089054
O  O18  1  0.47767000  0.42961000  0.22843000  1.0 -0.5319089054
O  O19  1  0.42961000  0.52233000  0.22843000  1.0 -0.5319089054
O  O20  1  0.57039000  0.47767000  0.22843000  1.0 -0.5319089054
O  O21  1  0.97767000  0.07039000  0.27157000  1.0 -0.5319089054
O  O22  1  0.02233000  0.92961000  0.27157000  1.0 -0.5319089054
O  O23  1  0.07039000  0.02233000  0.27157000  1.0 -0.5319089054
O  O24  1  0.92961000  0.97767000  0.27157000  1.0 -0.5319089054
O  O25  1  0.47767000  0.42961000  0.77157000  1.0 -0.5319089054
O  O26  1  0.52233000  0.57039000  0.77157000  1.0 -0.5319089054
O  O27  1  0.57039000  0.47767000  0.77157000  1.0 -0.5319089054
O  O28  1  0.42961000  0.52233000  0.77157000  1.0 -0.5319089054
O  O29  1  0.02233000  0.92961000  0.72843000  1.0 -0.5319089054
O  O30  1  0.97767000  0.07039000  0.72843000  1.0 -0.5319089054
O  O31  1  0.92961000  0.97767000  0.72843000  1.0 -0.5319089054
O  O32  1  0.07039000  0.02233000  0.72843000  1.0 -0.5319089054
O  O33  1  0.48609000  0.93455000  0.04862000  1.0 -0.5319089054
O  O34  1  0.51391000  0.06545000  0.04862000  1.0 -0.5319089054
O  O35  1  0.06545000  0.48609000  0.04862000  1.0 -0.5319089054
O  O36  1  0.93455000  0.51391000  0.04862000  1.0 -0.5319089054
O  O37  1  0.01391000  0.43455000  0.45138000  1.0 -0.5319089054
O  O38  1  0.98609000  0.56545000  0.45138000  1.0 -0.5319089054
O  O39  1  0.43455000  0.98609000  0.45138000  1.0 -0.5319089054
O  O40  1  0.56545000  0.01391000  0.45138000  1.0 -0.5319089054
O  O41  1  0.51391000  0.06545000  0.95138000  1.0 -0.5319089054
O  O42  1  0.48609000  0.93455000  0.95138000  1.0 -0.5319089054
O  O43  1  0.93455000  0.51391000  0.95138000  1.0 -0.5319089054
O  O44  1  0.06545000  0.48609000  0.95138000  1.0 -0.5319089054
O  O45  1  0.98609000  0.56545000  0.54862000  1.0 -0.5319089054
O  O46  1  0.01391000  0.43455000  0.54862000  1.0 -0.5319089054
O  O47  1  0.56545000  0.01391000  0.54862000  1.0 -0.5319089054
O  O48  1  0.43455000  0.98609000  0.54862000  1.0 -0.5319089054
O  O49  1  0.56303000  0.97282000  0.04868000  1.0 -0.5319089054
O  O50  1  0.43697000  0.02718000  0.04868000  1.0 -0.5319089054
O  O51  1  0.02718000  0.56303000  0.04868000  1.0 -0.5319089054
O  O52  1  0.97282000  0.43697000  0.04868000  1.0 -0.5319089054
O  O53  1  0.93697000  0.47282000  0.45132000  1.0 -0.5319089054
O  O54  1  0.06303000  0.52718000  0.45132000  1.0 -0.5319089054
O  O55  1  0.47282000  0.06303000  0.45132000  1.0 -0.5319089054
O  O56  1  0.52718000  0.93697000  0.45132000  1.0 -0.5319089054
O  O57  1  0.43697000  0.02718000  0.95132000  1.0 -0.5319089054
O  O58  1  0.56303000  0.97282000  0.95132000  1.0 -0.5319089054
O  O59  1  0.97282000  0.43697000  0.95132000  1.0 -0.5319089054
O  O60  1  0.02718000  0.56303000  0.95132000  1.0 -0.5319089054
O  O61  1  0.06303000  0.52718000  0.54868000  1.0 -0.5319089054
O  O62  1  0.93697000  0.47282000  0.54868000  1.0 -0.5319089054
O  O63  1  0.52718000  0.93697000  0.54868000  1.0 -0.5319089054
O  O64  1  0.47282000  0.06303000  0.54868000  1.0 -0.5319089054
O  O65  1  0.51700000  0.48600000  0.45560000  1.0 0.090475546
O  O66  1  0.48300000  0.51400000  0.45560000  1.0 0.090475546
O  O67  1  0.51400000  0.51700000  0.45560000  1.0 0.090475546
O  O68  1  0.48600000  0.48300000  0.45560000  1.0 0.090475546
O  O69  1  0.98300000  0.98600000  0.04440000  1.0 0.090475546
O  O70  1  0.01700000  0.01400000  0.04440000  1.0 0.090475546
O  O71  1  0.98600000  0.01700000  0.04440000  1.0 0.090475546
O  O72  1  0.01400000  0.98300000  0.04440000  1.0 0.090475546
O  O73  1  0.48300000  0.51400000  0.54440000  1.0 0.090475546
O  O74  1  0.51700000  0.48600000  0.54440000  1.0 0.090475546
O  O75  1  0.48600000  0.48300000  0.54440000  1.0 0.090475546
O  O76  1  0.51400000  0.51700000  0.54440000  1.0 0.090475546
O  O77  1  0.01700000  0.01400000  0.95560000  1.0 0.090475546
O  O78  1  0.98300000  0.98600000  0.95560000  1.0 0.090475546
O  O79  1  0.01400000  0.98300000  0.95560000  1.0 0.090475546
O  O80  1  0.98600000  0.01700000  0.95560000  1.0 0.090475546
