# DDEC6 charges by PACMAN v1.1 (https://github.com/mtap-research/PACMAN-charge/)
data_VAMYUG_ASR_pacman
_symmetry_space_group_name_H-M   'P 1'
_cell_length_a   26.38000000
_cell_length_b   26.38000000
_cell_length_c   28.24000000
_cell_angle_alpha   90.00000000
_cell_angle_beta   90.00000000
_cell_angle_gamma   90.00000000
_symmetry_Int_Tables_number   1
_chemical_formula_structural   Cu4Ni2H56C85N9O20
_chemical_formula_sum   'Cu16 Ni8 H224 C340 N36 O80'
_cell_volume   19652.34025600
_cell_formula_units_Z   4
loop_
 _symmetry_equiv_pos_site_id
 _symmetry_equiv_pos_as_xyz
  1  'x, y, z'
loop_
 _atom_site_type_symbol
 _atom_site_label
 _atom_site_symmetry_multiplicity
 _atom_site_fract_x
 _atom_site_fract_y
 _atom_site_fract_z
 _atom_site_occupancy
 _atom_site_charge
Cu  Cu1  1  0.00000000  0.50000000  0.89300000  1.0 0.8514501289
Cu  Cu2  1  0.50000000  0.00000000  0.10700000  1.0 0.8514501289
Cu  Cu3  1  0.00000000  0.50000000  0.60700000  1.0 0.8514501289
Cu  Cu4  1  0.50000000  0.00000000  0.39300000  1.0 0.8514501289
Cu  Cu5  1  0.00000000  0.50000000  0.98664000  1.0 0.7323538598
Cu  Cu6  1  0.50000000  0.00000000  0.01336000  1.0 0.7323538598
Cu  Cu7  1  0.00000000  0.50000000  0.51336000  1.0 0.7323538598
Cu  Cu8  1  0.50000000  0.00000000  0.48664000  1.0 0.7323538598
Cu  Cu9  1  0.95556000  0.97742000  0.75000000  1.0 0.8514501289
Cu  Cu10  1  0.04444000  0.02258000  0.75000000  1.0 0.8514501289
Cu  Cu11  1  0.52258000  0.45556000  0.75000000  1.0 0.8514501289
Cu  Cu12  1  0.47742000  0.54444000  0.75000000  1.0 0.8514501289
Cu  Cu13  1  0.54444000  0.47742000  0.25000000  1.0 0.8514501289
Cu  Cu14  1  0.45556000  0.52258000  0.25000000  1.0 0.8514501289
Cu  Cu15  1  0.97742000  0.95556000  0.25000000  1.0 0.8514501289
Cu  Cu16  1  0.02258000  0.04444000  0.25000000  1.0 0.8514501289
Ni  Ni1  1  0.98200000  0.53630000  0.25020000  1.0 0.2156833346
Ni  Ni2  1  0.01800000  0.46370000  0.25020000  1.0 0.2156833346
Ni  Ni3  1  0.96370000  0.48200000  0.25020000  1.0 0.2156833346
Ni  Ni4  1  0.03630000  0.51800000  0.25020000  1.0 0.2156833346
Ni  Ni5  1  0.51800000  0.03630000  0.74980000  1.0 0.2088985777
Ni  Ni6  1  0.48200000  0.96370000  0.74980000  1.0 0.2156833346
Ni  Ni7  1  0.53630000  0.98200000  0.74980000  1.0 0.2156833346
Ni  Ni8  1  0.46370000  0.01800000  0.74980000  1.0 0.2088985777
H  H1  1  0.04880000  0.65180000  0.01150000  1.0 0.1289047582
H  H2  1  0.95120000  0.34820000  0.01150000  1.0 0.1289047582
H  H3  1  0.84820000  0.54880000  0.01150000  1.0 0.1289047582
H  H4  1  0.15180000  0.45120000  0.01150000  1.0 0.1289047582
H  H5  1  0.45120000  0.15180000  0.98850000  1.0 0.1289047582
H  H6  1  0.54880000  0.84820000  0.98850000  1.0 0.1289047582
H  H7  1  0.65180000  0.04880000  0.98850000  1.0 0.1289047582
H  H8  1  0.34820000  0.95120000  0.98850000  1.0 0.1289047582
H  H9  1  0.95120000  0.34820000  0.48850000  1.0 0.1289047582
H  H10  1  0.04880000  0.65180000  0.48850000  1.0 0.1289047582
H  H11  1  0.15180000  0.45120000  0.48850000  1.0 0.1289047582
H  H12  1  0.84820000  0.54880000  0.48850000  1.0 0.1289047582
H  H13  1  0.54880000  0.84820000  0.51150000  1.0 0.1289047582
H  H14  1  0.45120000  0.15180000  0.51150000  1.0 0.1289047582
H  H15  1  0.34820000  0.95120000  0.51150000  1.0 0.1289047582
H  H16  1  0.65180000  0.04880000  0.51150000  1.0 0.1289047582
H  H17  1  0.08070000  0.73390000  0.01390000  1.0 0.1289047582
H  H18  1  0.91930000  0.26610000  0.01390000  1.0 0.1289047582
H  H19  1  0.76610000  0.58070000  0.01390000  1.0 0.1289047582
H  H20  1  0.23390000  0.41930000  0.01390000  1.0 0.1289047582
H  H21  1  0.41930000  0.23390000  0.98610000  1.0 0.1289047582
H  H22  1  0.58070000  0.76610000  0.98610000  1.0 0.1289047582
H  H23  1  0.73390000  0.08070000  0.98610000  1.0 0.1289047582
H  H24  1  0.26610000  0.91930000  0.98610000  1.0 0.1289047582
H  H25  1  0.91930000  0.26610000  0.48610000  1.0 0.1289047582
H  H26  1  0.08070000  0.73390000  0.48610000  1.0 0.1289047582
H  H27  1  0.23390000  0.41930000  0.48610000  1.0 0.1289047582
H  H28  1  0.76610000  0.58070000  0.48610000  1.0 0.1289047582
H  H29  1  0.58070000  0.76610000  0.51390000  1.0 0.1289047582
H  H30  1  0.41930000  0.23390000  0.51390000  1.0 0.1289047582
H  H31  1  0.26610000  0.91930000  0.51390000  1.0 0.1289047582
H  H32  1  0.73390000  0.08070000  0.51390000  1.0 0.1289047582
H  H33  1  0.07910000  0.73790000  0.87300000  1.0 0.1289047582
H  H34  1  0.92090000  0.26210000  0.87300000  1.0 0.1289047582
H  H35  1  0.76210000  0.57910000  0.87300000  1.0 0.1289047582
H  H36  1  0.23790000  0.42090000  0.87300000  1.0 0.1289047582
H  H37  1  0.42090000  0.23790000  0.12700000  1.0 0.1289047582
H  H38  1  0.57910000  0.76210000  0.12700000  1.0 0.1289047582
H  H39  1  0.73790000  0.07910000  0.12700000  1.0 0.1289047582
H  H40  1  0.26210000  0.92090000  0.12700000  1.0 0.1289047582
H  H41  1  0.92090000  0.26210000  0.62700000  1.0 0.1289047582
H  H42  1  0.07910000  0.73790000  0.62700000  1.0 0.1289047582
H  H43  1  0.23790000  0.42090000  0.62700000  1.0 0.1289047582
H  H44  1  0.76210000  0.57910000  0.62700000  1.0 0.1289047582
H  H45  1  0.57910000  0.76210000  0.37300000  1.0 0.1289047582
H  H46  1  0.42090000  0.23790000  0.37300000  1.0 0.1289047582
H  H47  1  0.26210000  0.92090000  0.37300000  1.0 0.1289047582
H  H48  1  0.73790000  0.07910000  0.37300000  1.0 0.1289047582
H  H49  1  0.04740000  0.65740000  0.87060000  1.0 0.1289047582
H  H50  1  0.95260000  0.34260000  0.87060000  1.0 0.1289047582
H  H51  1  0.84260000  0.54740000  0.87060000  1.0 0.1289047582
H  H52  1  0.15740000  0.45260000  0.87060000  1.0 0.1289047582
H  H53  1  0.45260000  0.15740000  0.12940000  1.0 0.1289047582
H  H54  1  0.54740000  0.84260000  0.12940000  1.0 0.1289047582
H  H55  1  0.65740000  0.04740000  0.12940000  1.0 0.1289047582
H  H56  1  0.34260000  0.95260000  0.12940000  1.0 0.1289047582
H  H57  1  0.95260000  0.34260000  0.62940000  1.0 0.1289047582
H  H58  1  0.04740000  0.65740000  0.62940000  1.0 0.1289047582
H  H59  1  0.15740000  0.45260000  0.62940000  1.0 0.1289047582
H  H60  1  0.84260000  0.54740000  0.62940000  1.0 0.1289047582
H  H61  1  0.54740000  0.84260000  0.37060000  1.0 0.1289047582
H  H62  1  0.45260000  0.15740000  0.37060000  1.0 0.1289047582
H  H63  1  0.34260000  0.95260000  0.37060000  1.0 0.1289047582
H  H64  1  0.65740000  0.04740000  0.37060000  1.0 0.1289047582
H  H65  1  0.12260000  0.92560000  0.84990000  1.0 0.1232817755
H  H66  1  0.87740000  0.07440000  0.84990000  1.0 0.1232817755
H  H67  1  0.57440000  0.62260000  0.84990000  1.0 0.1232817755
H  H68  1  0.42560000  0.37740000  0.84990000  1.0 0.1232817755
H  H69  1  0.37740000  0.42560000  0.15010000  1.0 0.1232817755
H  H70  1  0.62260000  0.57440000  0.15010000  1.0 0.1232817755
H  H71  1  0.92560000  0.12260000  0.15010000  1.0 0.1232817755
H  H72  1  0.07440000  0.87740000  0.15010000  1.0 0.1232817755
H  H73  1  0.87740000  0.07440000  0.65010000  1.0 0.1232817755
H  H74  1  0.12260000  0.92560000  0.65010000  1.0 0.1232817755
H  H75  1  0.42560000  0.37740000  0.65010000  1.0 0.1232817755
H  H76  1  0.57440000  0.62260000  0.65010000  1.0 0.1232817755
H  H77  1  0.62260000  0.57440000  0.34990000  1.0 0.1232817755
H  H78  1  0.37740000  0.42560000  0.34990000  1.0 0.1232817755
H  H79  1  0.07440000  0.87740000  0.34990000  1.0 0.1232817755
H  H80  1  0.92560000  0.12260000  0.34990000  1.0 0.1232817755
H  H81  1  0.15310000  0.86710000  0.90280000  1.0 0.1289047582
H  H82  1  0.84690000  0.13290000  0.90280000  1.0 0.1289047582
H  H83  1  0.63290000  0.65310000  0.90280000  1.0 0.1289047582
H  H84  1  0.36710000  0.34690000  0.90280000  1.0 0.1289047582
H  H85  1  0.34690000  0.36710000  0.09720000  1.0 0.1289047582
H  H86  1  0.65310000  0.63290000  0.09720000  1.0 0.1289047582
H  H87  1  0.86710000  0.15310000  0.09720000  1.0 0.1289047582
H  H88  1  0.13290000  0.84690000  0.09720000  1.0 0.1289047582
H  H89  1  0.84690000  0.13290000  0.59720000  1.0 0.1289047582
H  H90  1  0.15310000  0.86710000  0.59720000  1.0 0.1289047582
H  H91  1  0.36710000  0.34690000  0.59720000  1.0 0.1289047582
H  H92  1  0.63290000  0.65310000  0.59720000  1.0 0.1289047582
H  H93  1  0.65310000  0.63290000  0.40280000  1.0 0.1289047582
H  H94  1  0.34690000  0.36710000  0.40280000  1.0 0.1289047582
H  H95  1  0.13290000  0.84690000  0.40280000  1.0 0.1289047582
H  H96  1  0.86710000  0.15310000  0.40280000  1.0 0.1289047582
H  H97  1  0.01220000  0.81110000  0.91610000  1.0 0.1289047582
H  H98  1  0.98780000  0.18890000  0.91610000  1.0 0.1289047582
H  H99  1  0.68890000  0.51220000  0.91610000  1.0 0.1289047582
H  H100  1  0.31110000  0.48780000  0.91610000  1.0 0.1289047582
H  H101  1  0.48780000  0.31110000  0.08390000  1.0 0.1289047582
H  H102  1  0.51220000  0.68890000  0.08390000  1.0 0.1289047582
H  H103  1  0.81110000  0.01220000  0.08390000  1.0 0.1289047582
H  H104  1  0.18890000  0.98780000  0.08390000  1.0 0.1289047582
H  H105  1  0.98780000  0.18890000  0.58390000  1.0 0.1289047582
H  H106  1  0.01220000  0.81110000  0.58390000  1.0 0.1289047582
H  H107  1  0.31110000  0.48780000  0.58390000  1.0 0.1289047582
H  H108  1  0.68890000  0.51220000  0.58390000  1.0 0.1289047582
H  H109  1  0.51220000  0.68890000  0.41610000  1.0 0.1289047582
H  H110  1  0.48780000  0.31110000  0.41610000  1.0 0.1289047582
H  H111  1  0.18890000  0.98780000  0.41610000  1.0 0.1289047582
H  H112  1  0.81110000  0.01220000  0.41610000  1.0 0.1289047582
H  H113  1  0.98360000  0.86930000  0.86260000  1.0 0.1289047582
H  H114  1  0.01640000  0.13070000  0.86260000  1.0 0.1289047582
H  H115  1  0.63070000  0.48360000  0.86260000  1.0 0.1289047582
H  H116  1  0.36930000  0.51640000  0.86260000  1.0 0.1289047582
H  H117  1  0.51640000  0.36930000  0.13740000  1.0 0.1289047582
H  H118  1  0.48360000  0.63070000  0.13740000  1.0 0.1289047582
H  H119  1  0.86930000  0.98360000  0.13740000  1.0 0.1289047582
H  H120  1  0.13070000  0.01640000  0.13740000  1.0 0.1289047582
H  H121  1  0.01640000  0.13070000  0.63740000  1.0 0.1289047582
H  H122  1  0.98360000  0.86930000  0.63740000  1.0 0.1289047582
H  H123  1  0.36930000  0.51640000  0.63740000  1.0 0.1289047582
H  H124  1  0.63070000  0.48360000  0.63740000  1.0 0.1289047582
H  H125  1  0.48360000  0.63070000  0.36260000  1.0 0.1289047582
H  H126  1  0.51640000  0.36930000  0.36260000  1.0 0.1289047582
H  H127  1  0.13070000  0.01640000  0.36260000  1.0 0.1289047582
H  H128  1  0.86930000  0.98360000  0.36260000  1.0 0.1289047582
H  H129  1  0.18120000  0.73580000  0.95670000  1.0 0.1365232962
H  H130  1  0.81880000  0.26420000  0.95670000  1.0 0.1365232962
H  H131  1  0.76420000  0.68120000  0.95670000  1.0 0.1365232962
H  H132  1  0.23580000  0.31880000  0.95670000  1.0 0.1365232962
H  H133  1  0.31880000  0.23580000  0.04330000  1.0 0.1365232962
H  H134  1  0.68120000  0.76420000  0.04330000  1.0 0.1365232962
H  H135  1  0.73580000  0.18120000  0.04330000  1.0 0.1365232962
H  H136  1  0.26420000  0.81880000  0.04330000  1.0 0.1365232962
H  H137  1  0.81880000  0.26420000  0.54330000  1.0 0.1365232962
H  H138  1  0.18120000  0.73580000  0.54330000  1.0 0.1365232962
H  H139  1  0.23580000  0.31880000  0.54330000  1.0 0.1365232962
H  H140  1  0.76420000  0.68120000  0.54330000  1.0 0.1365232962
H  H141  1  0.68120000  0.76420000  0.45670000  1.0 0.1365232962
H  H142  1  0.31880000  0.23580000  0.45670000  1.0 0.1365232962
H  H143  1  0.26420000  0.81880000  0.45670000  1.0 0.1365232962
H  H144  1  0.73580000  0.18120000  0.45670000  1.0 0.1365232962
H  H145  1  0.25280000  0.74720000  0.00000000  1.0 0.1125860072
H  H146  1  0.74720000  0.25280000  0.00000000  1.0 0.1125860072
H  H147  1  0.75280000  0.75280000  0.00000000  1.0 0.1125860072
H  H148  1  0.24720000  0.24720000  0.00000000  1.0 0.1125860072
H  H149  1  0.74720000  0.25280000  0.50000000  1.0 0.1125860072
H  H150  1  0.25280000  0.74720000  0.50000000  1.0 0.1125860072
H  H151  1  0.24720000  0.24720000  0.50000000  1.0 0.1125860072
H  H152  1  0.75280000  0.75280000  0.50000000  1.0 0.1125860072
H  H153  1  0.13050000  0.86950000  0.00000000  1.0 0.146992826
H  H154  1  0.86950000  0.13050000  0.00000000  1.0 0.146992826
H  H155  1  0.63050000  0.63050000  0.00000000  1.0 0.146992826
H  H156  1  0.36950000  0.36950000  0.00000000  1.0 0.146992826
H  H157  1  0.86950000  0.13050000  0.50000000  1.0 0.146992826
H  H158  1  0.13050000  0.86950000  0.50000000  1.0 0.146992826
H  H159  1  0.36950000  0.36950000  0.50000000  1.0 0.146992826
H  H160  1  0.63050000  0.63050000  0.50000000  1.0 0.146992826
H  H161  1  0.97460000  0.56730000  0.06990000  1.0 0.1125860072
H  H162  1  0.02540000  0.43270000  0.06990000  1.0 0.1125860072
H  H163  1  0.93270000  0.47460000  0.06990000  1.0 0.1125860072
H  H164  1  0.06730000  0.52540000  0.06990000  1.0 0.1125860072
H  H165  1  0.52540000  0.06730000  0.93010000  1.0 0.1125860072
H  H166  1  0.47460000  0.93270000  0.93010000  1.0 0.1125860072
H  H167  1  0.56730000  0.97460000  0.93010000  1.0 0.1125860072
H  H168  1  0.43270000  0.02540000  0.93010000  1.0 0.1125860072
H  H169  1  0.02540000  0.43270000  0.43010000  1.0 0.1125860072
H  H170  1  0.97460000  0.56730000  0.43010000  1.0 0.1125860072
H  H171  1  0.06730000  0.52540000  0.43010000  1.0 0.1125860072
H  H172  1  0.93270000  0.47460000  0.43010000  1.0 0.1125860072
H  H173  1  0.47460000  0.93270000  0.56990000  1.0 0.1125860072
H  H174  1  0.52540000  0.06730000  0.56990000  1.0 0.1125860072
H  H175  1  0.43270000  0.02540000  0.56990000  1.0 0.1125860072
H  H176  1  0.56730000  0.97460000  0.56990000  1.0 0.1125860072
H  H177  1  0.96590000  0.62230000  0.14220000  1.0 0.1125860072
H  H178  1  0.03410000  0.37770000  0.14220000  1.0 0.1125860072
H  H179  1  0.87770000  0.46590000  0.14220000  1.0 0.1125860072
H  H180  1  0.12230000  0.53410000  0.14220000  1.0 0.1125860072
H  H181  1  0.53410000  0.12230000  0.85780000  1.0 0.1125860072
H  H182  1  0.46590000  0.87770000  0.85780000  1.0 0.1125860072
H  H183  1  0.62230000  0.96590000  0.85780000  1.0 0.1125860072
H  H184  1  0.37770000  0.03410000  0.85780000  1.0 0.1125860072
H  H185  1  0.03410000  0.37770000  0.35780000  1.0 0.1125860072
H  H186  1  0.96590000  0.62230000  0.35780000  1.0 0.1125860072
H  H187  1  0.12230000  0.53410000  0.35780000  1.0 0.1125860072
H  H188  1  0.87770000  0.46590000  0.35780000  1.0 0.1125860072
H  H189  1  0.46590000  0.87770000  0.64220000  1.0 0.1125860072
H  H190  1  0.53410000  0.12230000  0.64220000  1.0 0.1125860072
H  H191  1  0.37770000  0.03410000  0.64220000  1.0 0.1125860072
H  H192  1  0.62230000  0.96590000  0.64220000  1.0 0.1125860072
H  H193  1  0.95260000  0.66370000  0.21290000  1.0 0.1232817755
H  H194  1  0.04740000  0.33630000  0.21290000  1.0 0.1232817755
H  H195  1  0.83630000  0.45260000  0.21290000  1.0 0.1232817755
H  H196  1  0.16370000  0.54740000  0.21290000  1.0 0.1232817755
H  H197  1  0.54740000  0.16370000  0.78710000  1.0 0.1232817755
H  H198  1  0.45260000  0.83630000  0.78710000  1.0 0.1232817755
H  H199  1  0.66370000  0.95260000  0.78710000  1.0 0.1232817755
H  H200  1  0.33630000  0.04740000  0.78710000  1.0 0.1232817755
H  H201  1  0.04740000  0.33630000  0.28710000  1.0 0.1232817755
H  H202  1  0.95260000  0.66370000  0.28710000  1.0 0.1232817755
H  H203  1  0.16370000  0.54740000  0.28710000  1.0 0.1232817755
H  H204  1  0.83630000  0.45260000  0.28710000  1.0 0.1232817755
H  H205  1  0.45260000  0.83630000  0.71290000  1.0 0.1232817755
H  H206  1  0.54740000  0.16370000  0.71290000  1.0 0.1232817755
H  H207  1  0.33630000  0.04740000  0.71290000  1.0 0.1232817755
H  H208  1  0.66370000  0.95260000  0.71290000  1.0 0.1232817755
H  H209  1  0.90630000  0.62630000  0.21290000  1.0 0.1232817755
H  H210  1  0.09370000  0.37370000  0.21290000  1.0 0.1232817755
H  H211  1  0.87370000  0.40630000  0.21290000  1.0 0.1232817755
H  H212  1  0.12630000  0.59370000  0.21290000  1.0 0.1232817755
H  H213  1  0.59370000  0.12630000  0.78710000  1.0 0.1232817755
H  H214  1  0.40630000  0.87370000  0.78710000  1.0 0.1232817755
H  H215  1  0.62630000  0.90630000  0.78710000  1.0 0.1232817755
H  H216  1  0.37370000  0.09370000  0.78710000  1.0 0.1232817755
H  H217  1  0.09370000  0.37370000  0.28710000  1.0 0.1232817755
H  H218  1  0.90630000  0.62630000  0.28710000  1.0 0.1232817755
H  H219  1  0.12630000  0.59370000  0.28710000  1.0 0.1232817755
H  H220  1  0.87370000  0.40630000  0.28710000  1.0 0.1232817755
H  H221  1  0.40630000  0.87370000  0.71290000  1.0 0.1232817755
H  H222  1  0.59370000  0.12630000  0.71290000  1.0 0.1232817755
H  H223  1  0.37370000  0.09370000  0.71290000  1.0 0.1232817755
H  H224  1  0.62630000  0.90630000  0.71290000  1.0 0.1232817755
C  C1  1  0.02863000  0.59138000  0.93947000  1.0 0.5728183828
C  C2  1  0.97137000  0.40862000  0.93947000  1.0 0.5728183828
C  C3  1  0.90862000  0.52863000  0.93947000  1.0 0.5728183828
C  C4  1  0.09138000  0.47137000  0.93947000  1.0 0.5728183828
C  C5  1  0.47137000  0.09138000  0.06053000  1.0 0.5728183828
C  C6  1  0.52863000  0.90862000  0.06053000  1.0 0.5728183828
C  C7  1  0.59138000  0.02863000  0.06053000  1.0 0.5728183828
C  C8  1  0.40862000  0.97137000  0.06053000  1.0 0.5728183828
C  C9  1  0.97137000  0.40862000  0.56053000  1.0 0.5728183828
C  C10  1  0.02863000  0.59138000  0.56053000  1.0 0.5728183828
C  C11  1  0.09138000  0.47137000  0.56053000  1.0 0.5728183828
C  C12  1  0.90862000  0.52863000  0.56053000  1.0 0.5728183828
C  C13  1  0.52863000  0.90862000  0.43947000  1.0 0.5728183828
C  C14  1  0.47137000  0.09138000  0.43947000  1.0 0.5728183828
C  C15  1  0.40862000  0.97137000  0.43947000  1.0 0.5728183828
C  C16  1  0.59138000  0.02863000  0.43947000  1.0 0.5728183828
C  C17  1  0.04678000  0.64527000  0.94066000  1.0 -0.0399465271
C  C18  1  0.95322000  0.35473000  0.94066000  1.0 -0.0399465271
C  C19  1  0.85473000  0.54678000  0.94066000  1.0 -0.0399465271
C  C20  1  0.14527000  0.45322000  0.94066000  1.0 -0.0399465271
C  C21  1  0.45322000  0.14527000  0.05934000  1.0 -0.0399465271
C  C22  1  0.54678000  0.85473000  0.05934000  1.0 -0.0399465271
C  C23  1  0.64527000  0.04678000  0.05934000  1.0 -0.0399465271
C  C24  1  0.35473000  0.95322000  0.05934000  1.0 -0.0399465271
C  C25  1  0.95322000  0.35473000  0.55934000  1.0 -0.0399465271
C  C26  1  0.04678000  0.64527000  0.55934000  1.0 -0.0399465271
C  C27  1  0.14527000  0.45322000  0.55934000  1.0 -0.0399465271
C  C28  1  0.85473000  0.54678000  0.55934000  1.0 -0.0399465271
C  C29  1  0.54678000  0.85473000  0.44066000  1.0 -0.0399465271
C  C30  1  0.45322000  0.14527000  0.44066000  1.0 -0.0399465271
C  C31  1  0.35473000  0.95322000  0.44066000  1.0 -0.0399465271
C  C32  1  0.64527000  0.04678000  0.44066000  1.0 -0.0399465271
C  C33  1  0.05548000  0.66896000  0.98339000  1.0 -0.0840503898
C  C34  1  0.94452000  0.33104000  0.98339000  1.0 -0.0840503898
C  C35  1  0.83104000  0.55548000  0.98339000  1.0 -0.0840503898
C  C36  1  0.16896000  0.44452000  0.98339000  1.0 -0.0840503898
C  C37  1  0.44452000  0.16896000  0.01661000  1.0 -0.0840503898
C  C38  1  0.55548000  0.83104000  0.01661000  1.0 -0.0840503898
C  C39  1  0.66896000  0.05548000  0.01661000  1.0 -0.0840503898
C  C40  1  0.33104000  0.94452000  0.01661000  1.0 -0.0840503898
C  C41  1  0.94452000  0.33104000  0.51661000  1.0 -0.0840503898
C  C42  1  0.05548000  0.66896000  0.51661000  1.0 -0.0840503898
C  C43  1  0.16896000  0.44452000  0.51661000  1.0 -0.0840503898
C  C44  1  0.83104000  0.55548000  0.51661000  1.0 -0.0840503898
C  C45  1  0.55548000  0.83104000  0.48339000  1.0 -0.0840503898
C  C46  1  0.44452000  0.16896000  0.48339000  1.0 -0.0840503898
C  C47  1  0.33104000  0.94452000  0.48339000  1.0 -0.0840503898
C  C48  1  0.66896000  0.05548000  0.48339000  1.0 -0.0840503898
C  C49  1  0.07425000  0.71848000  0.98491000  1.0 -0.1885529187
C  C50  1  0.92575000  0.28152000  0.98491000  1.0 -0.1885529187
C  C51  1  0.78152000  0.57425000  0.98491000  1.0 -0.1885529187
C  C52  1  0.21848000  0.42575000  0.98491000  1.0 -0.1885529187
C  C53  1  0.42575000  0.21848000  0.01509000  1.0 -0.1885529187
C  C54  1  0.57425000  0.78152000  0.01509000  1.0 -0.1885529187
C  C55  1  0.71848000  0.07425000  0.01509000  1.0 -0.1885529187
C  C56  1  0.28152000  0.92575000  0.01509000  1.0 -0.1885529187
C  C57  1  0.92575000  0.28152000  0.51509000  1.0 -0.1885529187
C  C58  1  0.07425000  0.71848000  0.51509000  1.0 -0.1885529187
C  C59  1  0.21848000  0.42575000  0.51509000  1.0 -0.1885529187
C  C60  1  0.78152000  0.57425000  0.51509000  1.0 -0.1885529187
C  C61  1  0.57425000  0.78152000  0.48491000  1.0 -0.1885529187
C  C62  1  0.42575000  0.21848000  0.48491000  1.0 -0.1885529187
C  C63  1  0.28152000  0.92575000  0.48491000  1.0 -0.1885529187
C  C64  1  0.71848000  0.07425000  0.48491000  1.0 -0.1885529187
C  C65  1  0.08312000  0.74412000  0.94418000  1.0 0.1616013373
C  C66  1  0.91688000  0.25588000  0.94418000  1.0 0.1616013373
C  C67  1  0.75588000  0.58312000  0.94418000  1.0 0.1616013373
C  C68  1  0.24412000  0.41688000  0.94418000  1.0 0.1616013373
C  C69  1  0.41688000  0.24412000  0.05582000  1.0 0.1616013373
C  C70  1  0.58312000  0.75588000  0.05582000  1.0 0.1616013373
C  C71  1  0.74412000  0.08312000  0.05582000  1.0 0.1616013373
C  C72  1  0.25588000  0.91688000  0.05582000  1.0 0.1616013373
C  C73  1  0.91688000  0.25588000  0.55582000  1.0 0.1616013373
C  C74  1  0.08312000  0.74412000  0.55582000  1.0 0.1616013373
C  C75  1  0.24412000  0.41688000  0.55582000  1.0 0.1616013373
C  C76  1  0.75588000  0.58312000  0.55582000  1.0 0.1616013373
C  C77  1  0.58312000  0.75588000  0.44418000  1.0 0.1616013373
C  C78  1  0.41688000  0.24412000  0.44418000  1.0 0.1616013373
C  C79  1  0.25588000  0.91688000  0.44418000  1.0 0.1616013373
C  C80  1  0.74412000  0.08312000  0.44418000  1.0 0.1616013373
C  C81  1  0.07312000  0.72056000  0.90113000  1.0 -0.1794108714
C  C82  1  0.92688000  0.27944000  0.90113000  1.0 -0.1794108714
C  C83  1  0.77944000  0.57312000  0.90113000  1.0 -0.1794108714
C  C84  1  0.22056000  0.42688000  0.90113000  1.0 -0.1794108714
C  C85  1  0.42688000  0.22056000  0.09887000  1.0 -0.1794108714
C  C86  1  0.57312000  0.77944000  0.09887000  1.0 -0.1794108714
C  C87  1  0.72056000  0.07312000  0.09887000  1.0 -0.1794108714
C  C88  1  0.27944000  0.92688000  0.09887000  1.0 -0.1794108714
C  C89  1  0.92688000  0.27944000  0.59887000  1.0 -0.1794108714
C  C90  1  0.07312000  0.72056000  0.59887000  1.0 -0.1794108714
C  C91  1  0.22056000  0.42688000  0.59887000  1.0 -0.1794108714
C  C92  1  0.77944000  0.57312000  0.59887000  1.0 -0.1794108714
C  C93  1  0.57312000  0.77944000  0.40113000  1.0 -0.1794108714
C  C94  1  0.42688000  0.22056000  0.40113000  1.0 -0.1794108714
C  C95  1  0.27944000  0.92688000  0.40113000  1.0 -0.1794108714
C  C96  1  0.72056000  0.07312000  0.40113000  1.0 -0.1794108714
C  C97  1  0.05468000  0.67223000  0.89972000  1.0 -0.0840503898
C  C98  1  0.94532000  0.32777000  0.89972000  1.0 -0.0840503898
C  C99  1  0.82777000  0.55468000  0.89972000  1.0 -0.0840503898
C  C100  1  0.17223000  0.44532000  0.89972000  1.0 -0.0840503898
C  C101  1  0.44532000  0.17223000  0.10028000  1.0 -0.0840503898
C  C102  1  0.55468000  0.82777000  0.10028000  1.0 -0.0840503898
C  C103  1  0.67223000  0.05468000  0.10028000  1.0 -0.0840503898
C  C104  1  0.32777000  0.94532000  0.10028000  1.0 -0.0840503898
C  C105  1  0.94532000  0.32777000  0.60028000  1.0 -0.0840503898
C  C106  1  0.05468000  0.67223000  0.60028000  1.0 -0.0840503898
C  C107  1  0.17223000  0.44532000  0.60028000  1.0 -0.0840503898
C  C108  1  0.82777000  0.55468000  0.60028000  1.0 -0.0840503898
C  C109  1  0.55468000  0.82777000  0.39972000  1.0 -0.0840503898
C  C110  1  0.44532000  0.17223000  0.39972000  1.0 -0.0840503898
C  C111  1  0.32777000  0.94532000  0.39972000  1.0 -0.0840503898
C  C112  1  0.67223000  0.05468000  0.39972000  1.0 -0.0840503898
C  C113  1  0.03202000  0.93966000  0.81311000  1.0 0.5728183828
C  C114  1  0.96798000  0.06034000  0.81311000  1.0 0.5728183828
C  C115  1  0.56034000  0.53202000  0.81311000  1.0 0.5728183828
C  C116  1  0.43966000  0.46798000  0.81311000  1.0 0.5728183828
C  C117  1  0.46798000  0.43966000  0.18689000  1.0 0.5728183828
C  C118  1  0.53202000  0.56034000  0.18689000  1.0 0.5728183828
C  C119  1  0.93966000  0.03202000  0.18689000  1.0 0.5728183828
C  C120  1  0.06034000  0.96798000  0.18689000  1.0 0.5728183828
C  C121  1  0.96798000  0.06034000  0.68689000  1.0 0.5728183828
C  C122  1  0.03202000  0.93966000  0.68689000  1.0 0.5728183828
C  C123  1  0.43966000  0.46798000  0.68689000  1.0 0.5728183828
C  C124  1  0.56034000  0.53202000  0.68689000  1.0 0.5728183828
C  C125  1  0.53202000  0.56034000  0.31311000  1.0 0.5728183828
C  C126  1  0.46798000  0.43966000  0.31311000  1.0 0.5728183828
C  C127  1  0.06034000  0.96798000  0.31311000  1.0 0.5728183828
C  C128  1  0.93966000  0.03202000  0.31311000  1.0 0.5728183828
C  C129  1  0.05005000  0.90297000  0.84896000  1.0 -0.0695279922
C  C130  1  0.94995000  0.09703000  0.84896000  1.0 -0.0695279922
C  C131  1  0.59703000  0.55005000  0.84896000  1.0 -0.0695279922
C  C132  1  0.40297000  0.44995000  0.84896000  1.0 -0.0695279922
C  C133  1  0.44995000  0.40297000  0.15104000  1.0 -0.0695279922
C  C134  1  0.55005000  0.59703000  0.15104000  1.0 -0.0695279922
C  C135  1  0.90297000  0.05005000  0.15104000  1.0 -0.0695279922
C  C136  1  0.09703000  0.94995000  0.15104000  1.0 -0.0695279922
C  C137  1  0.94995000  0.09703000  0.65104000  1.0 -0.0695279922
C  C138  1  0.05005000  0.90297000  0.65104000  1.0 -0.0695279922
C  C139  1  0.40297000  0.44995000  0.65104000  1.0 -0.0695279922
C  C140  1  0.59703000  0.55005000  0.65104000  1.0 -0.0695279922
C  C141  1  0.55005000  0.59703000  0.34896000  1.0 -0.0695279922
C  C142  1  0.44995000  0.40297000  0.34896000  1.0 -0.0695279922
C  C143  1  0.09703000  0.94995000  0.34896000  1.0 -0.0695279922
C  C144  1  0.90297000  0.05005000  0.34896000  1.0 -0.0695279922
C  C145  1  0.10046000  0.90186000  0.86271000  1.0 -0.0695279922
C  C146  1  0.89954000  0.09814000  0.86271000  1.0 -0.0695279922
C  C147  1  0.59814000  0.60046000  0.86271000  1.0 -0.0695279922
C  C148  1  0.40186000  0.39954000  0.86271000  1.0 -0.0695279922
C  C149  1  0.39954000  0.40186000  0.13729000  1.0 -0.0695279922
C  C150  1  0.60046000  0.59814000  0.13729000  1.0 -0.0695279922
C  C151  1  0.90186000  0.10046000  0.13729000  1.0 -0.0695279922
C  C152  1  0.09814000  0.89954000  0.13729000  1.0 -0.0695279922
C  C153  1  0.89954000  0.09814000  0.63729000  1.0 -0.0695279922
C  C154  1  0.10046000  0.90186000  0.63729000  1.0 -0.0695279922
C  C155  1  0.40186000  0.39954000  0.63729000  1.0 -0.0695279922
C  C156  1  0.59814000  0.60046000  0.63729000  1.0 -0.0695279922
C  C157  1  0.60046000  0.59814000  0.36271000  1.0 -0.0695279922
C  C158  1  0.39954000  0.40186000  0.36271000  1.0 -0.0695279922
C  C159  1  0.09814000  0.89954000  0.36271000  1.0 -0.0695279922
C  C160  1  0.90186000  0.10046000  0.36271000  1.0 -0.0695279922
C  C161  1  0.11901000  0.86708000  0.89459000  1.0 -0.2102355276
C  C162  1  0.88099000  0.13292000  0.89459000  1.0 -0.2102355276
C  C163  1  0.63292000  0.61901000  0.89459000  1.0 -0.2102355276
C  C164  1  0.36708000  0.38099000  0.89459000  1.0 -0.2102355276
C  C165  1  0.38099000  0.36708000  0.10541000  1.0 -0.2102355276
C  C166  1  0.61901000  0.63292000  0.10541000  1.0 -0.2102355276
C  C167  1  0.86708000  0.11901000  0.10541000  1.0 -0.2102355276
C  C168  1  0.13292000  0.88099000  0.10541000  1.0 -0.2102355276
C  C169  1  0.88099000  0.13292000  0.60541000  1.0 -0.2102355276
C  C170  1  0.11901000  0.86708000  0.60541000  1.0 -0.2102355276
C  C171  1  0.36708000  0.38099000  0.60541000  1.0 -0.2102355276
C  C172  1  0.63292000  0.61901000  0.60541000  1.0 -0.2102355276
C  C173  1  0.61901000  0.63292000  0.39459000  1.0 -0.2102355276
C  C174  1  0.38099000  0.36708000  0.39459000  1.0 -0.2102355276
C  C175  1  0.13292000  0.88099000  0.39459000  1.0 -0.2102355276
C  C176  1  0.86708000  0.11901000  0.39459000  1.0 -0.2102355276
C  C177  1  0.08588000  0.83179000  0.91437000  1.0 0.1839206313
C  C178  1  0.91412000  0.16821000  0.91437000  1.0 0.1839206313
C  C179  1  0.66821000  0.58588000  0.91437000  1.0 0.1839206313
C  C180  1  0.33179000  0.41412000  0.91437000  1.0 0.1839206313
C  C181  1  0.41412000  0.33179000  0.08563000  1.0 0.1839206313
C  C182  1  0.58588000  0.66821000  0.08563000  1.0 0.1839206313
C  C183  1  0.83179000  0.08588000  0.08563000  1.0 0.1839206313
C  C184  1  0.16821000  0.91412000  0.08563000  1.0 0.1839206313
C  C185  1  0.91412000  0.16821000  0.58563000  1.0 0.1839206313
C  C186  1  0.08588000  0.83179000  0.58563000  1.0 0.1839206313
C  C187  1  0.33179000  0.41412000  0.58563000  1.0 0.1839206313
C  C188  1  0.66821000  0.58588000  0.58563000  1.0 0.1839206313
C  C189  1  0.58588000  0.66821000  0.41437000  1.0 0.1839206313
C  C190  1  0.41412000  0.33179000  0.41437000  1.0 0.1839206313
C  C191  1  0.16821000  0.91412000  0.41437000  1.0 0.1839206313
C  C192  1  0.83179000  0.08588000  0.41437000  1.0 0.1839206313
C  C193  1  0.03490000  0.83371000  0.90232000  1.0 -0.1885529187
C  C194  1  0.96510000  0.16629000  0.90232000  1.0 -0.1885529187
C  C195  1  0.66629000  0.53490000  0.90232000  1.0 -0.1885529187
C  C196  1  0.33371000  0.46510000  0.90232000  1.0 -0.1885529187
C  C197  1  0.46510000  0.33371000  0.09768000  1.0 -0.1885529187
C  C198  1  0.53490000  0.66629000  0.09768000  1.0 -0.1885529187
C  C199  1  0.83371000  0.03490000  0.09768000  1.0 -0.1885529187
C  C200  1  0.16629000  0.96510000  0.09768000  1.0 -0.1885529187
C  C201  1  0.96510000  0.16629000  0.59768000  1.0 -0.1885529187
C  C202  1  0.03490000  0.83371000  0.59768000  1.0 -0.1885529187
C  C203  1  0.33371000  0.46510000  0.59768000  1.0 -0.1885529187
C  C204  1  0.66629000  0.53490000  0.59768000  1.0 -0.1885529187
C  C205  1  0.53490000  0.66629000  0.40232000  1.0 -0.1885529187
C  C206  1  0.46510000  0.33371000  0.40232000  1.0 -0.1885529187
C  C207  1  0.16629000  0.96510000  0.40232000  1.0 -0.1885529187
C  C208  1  0.83371000  0.03490000  0.40232000  1.0 -0.1885529187
C  C209  1  0.01783000  0.86865000  0.87023000  1.0 -0.0695279922
C  C210  1  0.98217000  0.13135000  0.87023000  1.0 -0.0695279922
C  C211  1  0.63135000  0.51783000  0.87023000  1.0 -0.0695279922
C  C212  1  0.36865000  0.48217000  0.87023000  1.0 -0.0695279922
C  C213  1  0.48217000  0.36865000  0.12977000  1.0 -0.0695279922
C  C214  1  0.51783000  0.63135000  0.12977000  1.0 -0.0695279922
C  C215  1  0.86865000  0.01783000  0.12977000  1.0 -0.0695279922
C  C216  1  0.13135000  0.98217000  0.12977000  1.0 -0.0695279922
C  C217  1  0.98217000  0.13135000  0.62977000  1.0 -0.0695279922
C  C218  1  0.01783000  0.86865000  0.62977000  1.0 -0.0695279922
C  C219  1  0.36865000  0.48217000  0.62977000  1.0 -0.0695279922
C  C220  1  0.63135000  0.51783000  0.62977000  1.0 -0.0695279922
C  C221  1  0.51783000  0.63135000  0.37023000  1.0 -0.0695279922
C  C222  1  0.48217000  0.36865000  0.37023000  1.0 -0.0695279922
C  C223  1  0.13135000  0.98217000  0.37023000  1.0 -0.0695279922
C  C224  1  0.86865000  0.01783000  0.37023000  1.0 -0.0695279922
C  C225  1  0.14881000  0.80114000  0.97345000  1.0 0.1616013373
C  C226  1  0.85119000  0.19886000  0.97345000  1.0 0.1616013373
C  C227  1  0.69886000  0.64881000  0.97345000  1.0 0.1616013373
C  C228  1  0.30114000  0.35119000  0.97345000  1.0 0.1616013373
C  C229  1  0.35119000  0.30114000  0.02655000  1.0 0.1616013373
C  C230  1  0.64881000  0.69886000  0.02655000  1.0 0.1616013373
C  C231  1  0.80114000  0.14881000  0.02655000  1.0 0.1616013373
C  C232  1  0.19886000  0.85119000  0.02655000  1.0 0.1616013373
C  C233  1  0.85119000  0.19886000  0.52655000  1.0 0.1616013373
C  C234  1  0.14881000  0.80114000  0.52655000  1.0 0.1616013373
C  C235  1  0.30114000  0.35119000  0.52655000  1.0 0.1616013373
C  C236  1  0.69886000  0.64881000  0.52655000  1.0 0.1616013373
C  C237  1  0.64881000  0.69886000  0.47345000  1.0 0.1616013373
C  C238  1  0.35119000  0.30114000  0.47345000  1.0 0.1616013373
C  C239  1  0.19886000  0.85119000  0.47345000  1.0 0.1616013373
C  C240  1  0.80114000  0.14881000  0.47345000  1.0 0.1616013373
C  C241  1  0.18533000  0.76542000  0.97420000  1.0 -0.1990568385
C  C242  1  0.81467000  0.23458000  0.97420000  1.0 -0.1990568385
C  C243  1  0.73458000  0.68533000  0.97420000  1.0 -0.1990568385
C  C244  1  0.26542000  0.31467000  0.97420000  1.0 -0.1990568385
C  C245  1  0.31467000  0.26542000  0.02580000  1.0 -0.1990568385
C  C246  1  0.68533000  0.73458000  0.02580000  1.0 -0.1990568385
C  C247  1  0.76542000  0.18533000  0.02580000  1.0 -0.1990568385
C  C248  1  0.23458000  0.81467000  0.02580000  1.0 -0.1990568385
C  C249  1  0.81467000  0.23458000  0.52580000  1.0 -0.1990568385
C  C250  1  0.18533000  0.76542000  0.52580000  1.0 -0.1990568385
C  C251  1  0.26542000  0.31467000  0.52580000  1.0 -0.1990568385
C  C252  1  0.73458000  0.68533000  0.52580000  1.0 -0.1990568385
C  C253  1  0.68533000  0.73458000  0.47420000  1.0 -0.1990568385
C  C254  1  0.31467000  0.26542000  0.47420000  1.0 -0.1990568385
C  C255  1  0.23458000  0.81467000  0.47420000  1.0 -0.1990568385
C  C256  1  0.76542000  0.18533000  0.47420000  1.0 -0.1990568385
C  C257  1  0.22789000  0.77211000  0.00000000  1.0 -0.0590001222
C  C258  1  0.77211000  0.22789000  0.00000000  1.0 -0.0590001222
C  C259  1  0.72789000  0.72789000  0.00000000  1.0 -0.0590001222
C  C260  1  0.27211000  0.27211000  0.00000000  1.0 -0.0590001222
C  C261  1  0.77211000  0.22789000  0.50000000  1.0 -0.0590001222
C  C262  1  0.22789000  0.77211000  0.50000000  1.0 -0.0590001222
C  C263  1  0.27211000  0.27211000  0.50000000  1.0 -0.0590001222
C  C264  1  0.72789000  0.72789000  0.50000000  1.0 -0.0590001222
C  C265  1  0.15540000  0.84460000  0.00000000  1.0 -0.2535871591
C  C266  1  0.84460000  0.15540000  0.00000000  1.0 -0.2535871591
C  C267  1  0.65540000  0.65540000  0.00000000  1.0 -0.2535871591
C  C268  1  0.34460000  0.34460000  0.00000000  1.0 -0.2535871591
C  C269  1  0.84460000  0.15540000  0.50000000  1.0 -0.2557503644
C  C270  1  0.15540000  0.84460000  0.50000000  1.0 -0.2557503644
C  C271  1  0.34460000  0.34460000  0.50000000  1.0 -0.2557503644
C  C272  1  0.65540000  0.65540000  0.50000000  1.0 -0.2557503644
C  C273  1  0.98570000  0.53910000  0.08670000  1.0 -0.0082252741
C  C274  1  0.01430000  0.46090000  0.08670000  1.0 -0.0082252741
C  C275  1  0.96090000  0.48570000  0.08670000  1.0 -0.0082252741
C  C276  1  0.03910000  0.51430000  0.08670000  1.0 -0.0082252741
C  C277  1  0.51430000  0.03910000  0.91330000  1.0 -0.0082252741
C  C278  1  0.48570000  0.96090000  0.91330000  1.0 -0.0082252741
C  C279  1  0.53910000  0.98570000  0.91330000  1.0 -0.0082252741
C  C280  1  0.46090000  0.01430000  0.91330000  1.0 -0.0082252741
C  C281  1  0.01430000  0.46090000  0.41330000  1.0 -0.0082252741
C  C282  1  0.98570000  0.53910000  0.41330000  1.0 -0.0082252741
C  C283  1  0.03910000  0.51430000  0.41330000  1.0 -0.0082252741
C  C284  1  0.96090000  0.48570000  0.41330000  1.0 -0.0082252741
C  C285  1  0.48570000  0.96090000  0.58670000  1.0 -0.0082252741
C  C286  1  0.51430000  0.03910000  0.58670000  1.0 -0.0082252741
C  C287  1  0.46090000  0.01430000  0.58670000  1.0 -0.0082252741
C  C288  1  0.53910000  0.98570000  0.58670000  1.0 -0.0082252741
C  C289  1  0.00000000  0.50000000  0.15950000  1.0 0.2088985777
C  C290  1  0.50000000  0.00000000  0.84050000  1.0 0.2088985777
C  C291  1  0.00000000  0.50000000  0.34050000  1.0 0.2088985777
C  C292  1  0.50000000  0.00000000  0.65950000  1.0 0.2088985777
C  C293  1  0.97340000  0.59250000  0.15830000  1.0 -0.1214141486
C  C294  1  0.02660000  0.40750000  0.15830000  1.0 -0.1214141486
C  C295  1  0.90750000  0.47340000  0.15830000  1.0 -0.1214141486
C  C296  1  0.09250000  0.52660000  0.15830000  1.0 -0.1214141486
C  C297  1  0.52660000  0.09250000  0.84170000  1.0 -0.1214141486
C  C298  1  0.47340000  0.90750000  0.84170000  1.0 -0.1214141486
C  C299  1  0.59250000  0.97340000  0.84170000  1.0 -0.1214141486
C  C300  1  0.40750000  0.02660000  0.84170000  1.0 -0.1214141486
C  C301  1  0.02660000  0.40750000  0.34170000  1.0 -0.1214141486
C  C302  1  0.97340000  0.59250000  0.34170000  1.0 -0.1214141486
C  C303  1  0.09250000  0.52660000  0.34170000  1.0 -0.1214141486
C  C304  1  0.90750000  0.47340000  0.34170000  1.0 -0.1214141486
C  C305  1  0.47340000  0.90750000  0.65830000  1.0 -0.1214141486
C  C306  1  0.52660000  0.09250000  0.65830000  1.0 -0.1214141486
C  C307  1  0.40750000  0.02660000  0.65830000  1.0 -0.1214141486
C  C308  1  0.59250000  0.97340000  0.65830000  1.0 -0.1214141486
C  C309  1  0.98520000  0.54280000  0.13430000  1.0 -0.0952793573
C  C310  1  0.01480000  0.45720000  0.13430000  1.0 -0.0952793573
C  C311  1  0.95720000  0.48520000  0.13430000  1.0 -0.0952793573
C  C312  1  0.04280000  0.51480000  0.13430000  1.0 -0.0952793573
C  C313  1  0.51480000  0.04280000  0.86570000  1.0 -0.0945518975
C  C314  1  0.48520000  0.95720000  0.86570000  1.0 -0.0945518975
C  C315  1  0.54280000  0.98520000  0.86570000  1.0 -0.0945518975
C  C316  1  0.45720000  0.01480000  0.86570000  1.0 -0.0945518975
C  C317  1  0.01480000  0.45720000  0.36570000  1.0 -0.0945518975
C  C318  1  0.98520000  0.54280000  0.36570000  1.0 -0.0952793573
C  C319  1  0.04280000  0.51480000  0.36570000  1.0 -0.0945518975
C  C320  1  0.95720000  0.48520000  0.36570000  1.0 -0.0952793573
C  C321  1  0.48520000  0.95720000  0.63430000  1.0 -0.0945518975
C  C322  1  0.51480000  0.04280000  0.63430000  1.0 -0.0945518975
C  C323  1  0.45720000  0.01480000  0.63430000  1.0 -0.0945518975
C  C324  1  0.54280000  0.98520000  0.63430000  1.0 -0.0945518975
C  C325  1  0.94070000  0.63100000  0.22410000  1.0 -0.1402557399
C  C326  1  0.05930000  0.36900000  0.22410000  1.0 -0.1402557399
C  C327  1  0.86900000  0.44070000  0.22410000  1.0 -0.1402557399
C  C328  1  0.13100000  0.55930000  0.22410000  1.0 -0.1402557399
C  C329  1  0.55930000  0.13100000  0.77590000  1.0 -0.1402557399
C  C330  1  0.44070000  0.86900000  0.77590000  1.0 -0.1402557399
C  C331  1  0.63100000  0.94070000  0.77590000  1.0 -0.1402557399
C  C332  1  0.36900000  0.05930000  0.77590000  1.0 -0.1402557399
C  C333  1  0.05930000  0.36900000  0.27590000  1.0 -0.1402557399
C  C334  1  0.94070000  0.63100000  0.27590000  1.0 -0.1402557399
C  C335  1  0.13100000  0.55930000  0.27590000  1.0 -0.1402557399
C  C336  1  0.86900000  0.44070000  0.27590000  1.0 -0.1402557399
C  C337  1  0.44070000  0.86900000  0.72410000  1.0 -0.1402557399
C  C338  1  0.55930000  0.13100000  0.72410000  1.0 -0.1402557399
C  C339  1  0.36900000  0.05930000  0.72410000  1.0 -0.1402557399
C  C340  1  0.63100000  0.94070000  0.72410000  1.0 -0.1402557399
N  N1  1  0.10364000  0.79418000  0.94573000  1.0 -0.1794108714
N  N2  1  0.89636000  0.20582000  0.94573000  1.0 -0.1794108714
N  N3  1  0.70582000  0.60364000  0.94573000  1.0 -0.1794108714
N  N4  1  0.29418000  0.39636000  0.94573000  1.0 -0.1794108714
N  N5  1  0.39636000  0.29418000  0.05427000  1.0 -0.1794108714
N  N6  1  0.60364000  0.70582000  0.05427000  1.0 -0.1794108714
N  N7  1  0.79418000  0.10364000  0.05427000  1.0 -0.1794108714
N  N8  1  0.20582000  0.89636000  0.05427000  1.0 -0.1794108714
N  N9  1  0.89636000  0.20582000  0.55427000  1.0 -0.1794108714
N  N10  1  0.10364000  0.79418000  0.55427000  1.0 -0.1794108714
N  N11  1  0.29418000  0.39636000  0.55427000  1.0 -0.1794108714
N  N12  1  0.70582000  0.60364000  0.55427000  1.0 -0.1794108714
N  N13  1  0.60364000  0.70582000  0.44573000  1.0 -0.1794108714
N  N14  1  0.39636000  0.29418000  0.44573000  1.0 -0.1794108714
N  N15  1  0.20582000  0.89636000  0.44573000  1.0 -0.1794108714
N  N16  1  0.79418000  0.10364000  0.44573000  1.0 -0.1794108714
N  N17  1  0.00000000  0.50000000  0.06181000  1.0 -0.1402557399
N  N18  1  0.50000000  0.00000000  0.93819000  1.0 -0.1402557399
N  N19  1  0.00000000  0.50000000  0.43819000  1.0 -0.1402557399
N  N20  1  0.50000000  0.00000000  0.56181000  1.0 -0.1402557399
N  N21  1  0.97490000  0.58870000  0.20330000  1.0 -0.2226675393
N  N22  1  0.02510000  0.41130000  0.20330000  1.0 -0.2226675393
N  N23  1  0.91130000  0.47490000  0.20330000  1.0 -0.2226675393
N  N24  1  0.08870000  0.52510000  0.20330000  1.0 -0.2226675393
N  N25  1  0.52510000  0.08870000  0.79670000  1.0 -0.2226675393
N  N26  1  0.47490000  0.91130000  0.79670000  1.0 -0.2226675393
N  N27  1  0.58870000  0.97490000  0.79670000  1.0 -0.2226675393
N  N28  1  0.41130000  0.02510000  0.79670000  1.0 -0.2226675393
N  N29  1  0.02510000  0.41130000  0.29670000  1.0 -0.2226675393
N  N30  1  0.97490000  0.58870000  0.29670000  1.0 -0.2226675393
N  N31  1  0.08870000  0.52510000  0.29670000  1.0 -0.2226675393
N  N32  1  0.91130000  0.47490000  0.29670000  1.0 -0.2226675393
N  N33  1  0.47490000  0.91130000  0.70330000  1.0 -0.2226675393
N  N34  1  0.52510000  0.08870000  0.70330000  1.0 -0.2226675393
N  N35  1  0.41130000  0.02510000  0.70330000  1.0 -0.2226675393
N  N36  1  0.58870000  0.97490000  0.70330000  1.0 -0.2226675393
O  O1  1  0.02127000  0.57122000  0.89991000  1.0 -0.497491232
O  O2  1  0.97873000  0.42878000  0.89991000  1.0 -0.497491232
O  O3  1  0.92878000  0.52127000  0.89991000  1.0 -0.497491232
O  O4  1  0.07122000  0.47873000  0.89991000  1.0 -0.497491232
O  O5  1  0.47873000  0.07122000  0.10009000  1.0 -0.497491232
O  O6  1  0.52127000  0.92878000  0.10009000  1.0 -0.497491232
O  O7  1  0.57122000  0.02127000  0.10009000  1.0 -0.497491232
O  O8  1  0.42878000  0.97873000  0.10009000  1.0 -0.497491232
O  O9  1  0.97873000  0.42878000  0.60009000  1.0 -0.497491232
O  O10  1  0.02127000  0.57122000  0.60009000  1.0 -0.497491232
O  O11  1  0.07122000  0.47873000  0.60009000  1.0 -0.497491232
O  O12  1  0.92878000  0.52127000  0.60009000  1.0 -0.497491232
O  O13  1  0.52127000  0.92878000  0.39991000  1.0 -0.497491232
O  O14  1  0.47873000  0.07122000  0.39991000  1.0 -0.497491232
O  O15  1  0.42878000  0.97873000  0.39991000  1.0 -0.497491232
O  O16  1  0.57122000  0.02127000  0.39991000  1.0 -0.497491232
O  O17  1  0.02254000  0.57046000  0.97902000  1.0 -0.5270285968
O  O18  1  0.97746000  0.42954000  0.97902000  1.0 -0.5270285968
O  O19  1  0.92954000  0.52254000  0.97902000  1.0 -0.5270285968
O  O20  1  0.07046000  0.47746000  0.97902000  1.0 -0.5270285968
O  O21  1  0.47746000  0.07046000  0.02098000  1.0 -0.5270285968
O  O22  1  0.52254000  0.92954000  0.02098000  1.0 -0.5270285968
O  O23  1  0.57046000  0.02254000  0.02098000  1.0 -0.5270285968
O  O24  1  0.42954000  0.97746000  0.02098000  1.0 -0.5270285968
O  O25  1  0.97746000  0.42954000  0.52098000  1.0 -0.5270285968
O  O26  1  0.02254000  0.57046000  0.52098000  1.0 -0.5270285968
O  O27  1  0.07046000  0.47746000  0.52098000  1.0 -0.5270285968
O  O28  1  0.92954000  0.52254000  0.52098000  1.0 -0.5270285968
O  O29  1  0.52254000  0.92954000  0.47902000  1.0 -0.5270285968
O  O30  1  0.47746000  0.07046000  0.47902000  1.0 -0.5270285968
O  O31  1  0.42954000  0.97746000  0.47902000  1.0 -0.5270285968
O  O32  1  0.57046000  0.02254000  0.47902000  1.0 -0.5270285968
O  O33  1  0.98696000  0.93478000  0.79943000  1.0 -0.5185495977
O  O34  1  0.01304000  0.06522000  0.79943000  1.0 -0.5185495977
O  O35  1  0.56522000  0.48696000  0.79943000  1.0 -0.5185495977
O  O36  1  0.43478000  0.51304000  0.79943000  1.0 -0.5185495977
O  O37  1  0.51304000  0.43478000  0.20057000  1.0 -0.5185495977
O  O38  1  0.48696000  0.56522000  0.20057000  1.0 -0.5185495977
O  O39  1  0.93478000  0.98696000  0.20057000  1.0 -0.5185495977
O  O40  1  0.06522000  0.01304000  0.20057000  1.0 -0.5185495977
O  O41  1  0.01304000  0.06522000  0.70057000  1.0 -0.5185495977
O  O42  1  0.98696000  0.93478000  0.70057000  1.0 -0.5185495977
O  O43  1  0.43478000  0.51304000  0.70057000  1.0 -0.5185495977
O  O44  1  0.56522000  0.48696000  0.70057000  1.0 -0.5185495977
O  O45  1  0.48696000  0.56522000  0.29943000  1.0 -0.5185495977
O  O46  1  0.51304000  0.43478000  0.29943000  1.0 -0.5185495977
O  O47  1  0.06522000  0.01304000  0.29943000  1.0 -0.5185495977
O  O48  1  0.93478000  0.98696000  0.29943000  1.0 -0.5185495977
O  O49  1  0.06271000  0.97266000  0.79869000  1.0 -0.5143766765
O  O50  1  0.93729000  0.02734000  0.79869000  1.0 -0.5143766765
O  O51  1  0.52734000  0.56271000  0.79869000  1.0 -0.5143766765
O  O52  1  0.47266000  0.43729000  0.79869000  1.0 -0.5143766765
O  O53  1  0.43729000  0.47266000  0.20131000  1.0 -0.5143766765
O  O54  1  0.56271000  0.52734000  0.20131000  1.0 -0.5143766765
O  O55  1  0.97266000  0.06271000  0.20131000  1.0 -0.5143766765
O  O56  1  0.02734000  0.93729000  0.20131000  1.0 -0.5143766765
O  O57  1  0.93729000  0.02734000  0.70131000  1.0 -0.5143766765
O  O58  1  0.06271000  0.97266000  0.70131000  1.0 -0.5143766765
O  O59  1  0.47266000  0.43729000  0.70131000  1.0 -0.5143766765
O  O60  1  0.52734000  0.56271000  0.70131000  1.0 -0.5143766765
O  O61  1  0.56271000  0.52734000  0.29869000  1.0 -0.5143766765
O  O62  1  0.43729000  0.47266000  0.29869000  1.0 -0.5143766765
O  O63  1  0.02734000  0.93729000  0.29869000  1.0 -0.5143766765
O  O64  1  0.97266000  0.06271000  0.29869000  1.0 -0.5143766765
O  O65  1  0.01450000  0.51480000  0.20650000  1.0 0.0015917452
O  O66  1  0.98550000  0.48520000  0.20650000  1.0 0.0015917452
O  O67  1  0.98520000  0.51450000  0.20650000  1.0 0.0015917452
O  O68  1  0.01480000  0.48550000  0.20650000  1.0 0.0015917452
O  O69  1  0.48550000  0.01480000  0.79350000  1.0 0.0015917452
O  O70  1  0.51450000  0.98520000  0.79350000  1.0 0.0015917452
O  O71  1  0.51480000  0.01450000  0.79350000  1.0 0.0015917452
O  O72  1  0.48520000  0.98550000  0.79350000  1.0 0.0015917452
O  O73  1  0.98550000  0.48520000  0.29350000  1.0 0.0015917452
O  O74  1  0.01450000  0.51480000  0.29350000  1.0 -0.0001487866
O  O75  1  0.01480000  0.48550000  0.29350000  1.0 -0.0001487866
O  O76  1  0.98520000  0.51450000  0.29350000  1.0 0.0015917452
O  O77  1  0.51450000  0.98520000  0.70650000  1.0 0.0015917452
O  O78  1  0.48550000  0.01480000  0.70650000  1.0 -0.0001487866
O  O79  1  0.48520000  0.98550000  0.70650000  1.0 0.0015917452
O  O80  1  0.51480000  0.01450000  0.70650000  1.0 0.0015917452
