# DDEC6 charges by PACMAN v1.1 (https://github.com/mtap-research/PACMAN-charge/)
data_VANNIK_ASR_pacman
_symmetry_space_group_name_H-M   'P 1'
_cell_length_a   27.79430000
_cell_length_b   27.79430000
_cell_length_c   27.79430000
_cell_angle_alpha   109.47100000
_cell_angle_beta   109.47100000
_cell_angle_gamma   109.47100000
_symmetry_Int_Tables_number   1
_chemical_formula_structural   U4H48(C29O8)3
_chemical_formula_sum   'U8 H96 C174 O48'
_cell_volume   16529.08752076
_cell_formula_units_Z   2
loop_
 _symmetry_equiv_pos_site_id
 _symmetry_equiv_pos_as_xyz
  1  'x, y, z'
loop_
 _atom_site_type_symbol
 _atom_site_label
 _atom_site_symmetry_multiplicity
 _atom_site_fract_x
 _atom_site_fract_y
 _atom_site_fract_z
 _atom_site_occupancy
 _atom_site_charge
U  U1  1  0.00000000  0.41510000  0.50000000  1.0 2.0293843511
U  U2  1  0.41510000  0.50000000  0.00000000  1.0 2.0293843511
U  U3  1  0.08490000  0.08490000  0.08490000  1.0 2.0293843511
U  U4  1  0.50000000  0.00000000  0.41510000  1.0 2.0293843511
U  U5  1  0.91510000  0.50000000  0.00000000  1.0 2.0293843511
U  U6  1  0.00000000  0.91510000  0.50000000  1.0 2.0245682277
U  U7  1  0.58490000  0.58490000  0.58490000  1.0 2.0293843511
U  U8  1  0.50000000  0.00000000  0.91510000  1.0 2.0293843511
H  H1  1  0.98250000  0.32350000  0.21860000  1.0 0.1209680796
H  H2  1  0.60490000  0.76390000  0.28140000  1.0 0.1209680796
H  H3  1  0.89510000  0.17650000  0.15900000  1.0 0.1209680796
H  H4  1  0.51750000  0.73610000  0.34100000  1.0 0.1209680796
H  H5  1  0.21860000  0.98250000  0.32350000  1.0 0.1209680796
H  H6  1  0.28140000  0.60490000  0.76390000  1.0 0.1209680796
H  H7  1  0.15900000  0.89510000  0.17650000  1.0 0.1209680796
H  H8  1  0.34100000  0.51750000  0.73610000  1.0 0.1209680796
H  H9  1  0.32350000  0.21860000  0.98250000  1.0 0.1209680796
H  H10  1  0.76390000  0.28140000  0.60490000  1.0 0.1209680796
H  H11  1  0.17650000  0.15900000  0.89510000  1.0 0.1209680796
H  H12  1  0.73610000  0.34100000  0.51750000  1.0 0.1209680796
H  H13  1  0.82350000  0.48250000  0.71860000  1.0 0.1209680796
H  H14  1  0.26390000  0.10490000  0.78140000  1.0 0.1209680796
H  H15  1  0.67650000  0.39510000  0.65900000  1.0 0.1209680796
H  H16  1  0.23610000  0.01750000  0.84100000  1.0 0.1209680796
H  H17  1  0.48250000  0.71860000  0.82350000  1.0 0.1209680796
H  H18  1  0.10490000  0.78140000  0.26390000  1.0 0.1209680796
H  H19  1  0.39510000  0.65900000  0.67650000  1.0 0.1209680796
H  H20  1  0.01750000  0.84100000  0.23610000  1.0 0.1209680796
H  H21  1  0.71860000  0.82350000  0.48250000  1.0 0.1209680796
H  H22  1  0.78140000  0.26390000  0.10490000  1.0 0.1209680796
H  H23  1  0.65900000  0.67650000  0.39510000  1.0 0.1209680796
H  H24  1  0.84100000  0.23610000  0.01750000  1.0 0.1209680796
H  H25  1  0.01660000  0.36510000  0.31830000  1.0 0.1271175993
H  H26  1  0.54680000  0.69830000  0.18170000  1.0 0.1271175993
H  H27  1  0.95320000  0.13490000  0.15150000  1.0 0.1271175993
H  H28  1  0.48340000  0.80170000  0.34850000  1.0 0.1271175993
H  H29  1  0.31830000  0.01660000  0.36510000  1.0 0.1271175993
H  H30  1  0.18170000  0.54680000  0.69830000  1.0 0.1271175993
H  H31  1  0.15150000  0.95320000  0.13490000  1.0 0.1271175993
H  H32  1  0.34850000  0.48340000  0.80170000  1.0 0.1271175993
H  H33  1  0.36510000  0.31830000  0.01660000  1.0 0.1271175993
H  H34  1  0.69830000  0.18170000  0.54680000  1.0 0.1271175993
H  H35  1  0.13490000  0.15150000  0.95320000  1.0 0.1271175993
H  H36  1  0.80170000  0.34850000  0.48340000  1.0 0.1271175993
H  H37  1  0.86510000  0.51660000  0.81830000  1.0 0.1271175993
H  H38  1  0.19830000  0.04680000  0.68170000  1.0 0.1271175993
H  H39  1  0.63490000  0.45320000  0.65150000  1.0 0.1271175993
H  H40  1  0.30170000  0.98340000  0.84850000  1.0 0.1271175993
H  H41  1  0.51660000  0.81830000  0.86510000  1.0 0.1271175993
H  H42  1  0.04680000  0.68170000  0.19830000  1.0 0.1271175993
H  H43  1  0.45320000  0.65150000  0.63490000  1.0 0.1271175993
H  H44  1  0.98340000  0.84850000  0.30170000  1.0 0.1271175993
H  H45  1  0.81830000  0.86510000  0.51660000  1.0 0.1271175993
H  H46  1  0.68170000  0.19830000  0.04680000  1.0 0.1271175993
H  H47  1  0.65150000  0.63490000  0.45320000  1.0 0.1271175993
H  H48  1  0.84850000  0.30170000  0.98340000  1.0 0.1271175993
H  H49  1  0.85080000  0.28650000  0.28510000  1.0 0.1209680796
H  H50  1  0.50140000  0.56570000  0.21490000  1.0 0.1209680796
H  H51  1  0.99860000  0.21350000  0.06430000  1.0 0.1209680796
H  H52  1  0.64920000  0.93430000  0.43570000  1.0 0.1209680796
H  H53  1  0.28510000  0.85080000  0.28650000  1.0 0.1209680796
H  H54  1  0.21490000  0.50140000  0.56570000  1.0 0.1209680796
H  H55  1  0.06430000  0.99860000  0.21350000  1.0 0.1209680796
H  H56  1  0.43570000  0.64920000  0.93430000  1.0 0.1209680796
H  H57  1  0.28650000  0.28510000  0.85080000  1.0 0.1209680796
H  H58  1  0.56570000  0.21490000  0.50140000  1.0 0.1209680796
H  H59  1  0.21350000  0.06430000  0.99860000  1.0 0.1209680796
H  H60  1  0.93430000  0.43570000  0.64920000  1.0 0.1209680796
H  H61  1  0.78650000  0.35080000  0.78510000  1.0 0.1209680796
H  H62  1  0.06570000  0.00140000  0.71490000  1.0 0.1209680796
H  H63  1  0.71350000  0.49860000  0.56430000  1.0 0.1209680796
H  H64  1  0.43430000  0.14920000  0.93570000  1.0 0.1209680796
H  H65  1  0.35080000  0.78510000  0.78650000  1.0 0.1209680796
H  H66  1  0.00140000  0.71490000  0.06570000  1.0 0.1209680796
H  H67  1  0.49860000  0.56430000  0.71350000  1.0 0.1209680796
H  H68  1  0.14920000  0.93570000  0.43430000  1.0 0.1209680796
H  H69  1  0.78510000  0.78650000  0.35080000  1.0 0.1209680796
H  H70  1  0.71490000  0.06570000  0.00140000  1.0 0.1209680796
H  H71  1  0.56430000  0.71350000  0.49860000  1.0 0.1209680796
H  H72  1  0.93570000  0.43430000  0.14920000  1.0 0.1209680796
H  H73  1  0.81570000  0.24770000  0.18680000  1.0 0.1209680796
H  H74  1  0.56090000  0.62890000  0.31320000  1.0 0.1209680796
H  H75  1  0.93910000  0.25230000  0.06800000  1.0 0.1209680796
H  H76  1  0.68430000  0.87110000  0.43200000  1.0 0.1209680796
H  H77  1  0.18680000  0.81570000  0.24770000  1.0 0.1209680796
H  H78  1  0.31320000  0.56090000  0.62890000  1.0 0.1209680796
H  H79  1  0.06800000  0.93910000  0.25230000  1.0 0.1209680796
H  H80  1  0.43200000  0.68430000  0.87110000  1.0 0.1209680796
H  H81  1  0.24770000  0.18680000  0.81570000  1.0 0.1209680796
H  H82  1  0.62890000  0.31320000  0.56090000  1.0 0.1209680796
H  H83  1  0.25230000  0.06800000  0.93910000  1.0 0.1209680796
H  H84  1  0.87110000  0.43200000  0.68430000  1.0 0.1209680796
H  H85  1  0.74770000  0.31570000  0.68680000  1.0 0.1209680796
H  H86  1  0.12890000  0.06090000  0.81320000  1.0 0.1209680796
H  H87  1  0.75230000  0.43910000  0.56800000  1.0 0.1209680796
H  H88  1  0.37110000  0.18430000  0.93200000  1.0 0.1209680796
H  H89  1  0.31570000  0.68680000  0.74770000  1.0 0.1209680796
H  H90  1  0.06090000  0.81320000  0.12890000  1.0 0.1209680796
H  H91  1  0.43910000  0.56800000  0.75230000  1.0 0.1209680796
H  H92  1  0.18430000  0.93200000  0.37110000  1.0 0.1209680796
H  H93  1  0.68680000  0.74770000  0.31570000  1.0 0.1209680796
H  H94  1  0.81320000  0.12890000  0.06090000  1.0 0.1209680796
H  H95  1  0.56800000  0.75230000  0.43910000  1.0 0.1209680796
H  H96  1  0.93200000  0.37110000  0.18430000  1.0 0.1209680796
C  C1  1  0.87500000  0.25000000  0.12500000  1.0 -0.0035554914
C  C2  1  0.62500000  0.75000000  0.37500000  1.0 -0.0035554914
C  C3  1  0.12500000  0.87500000  0.25000000  1.0 -0.0035554914
C  C4  1  0.37500000  0.62500000  0.75000000  1.0 -0.0035554914
C  C5  1  0.25000000  0.12500000  0.87500000  1.0 -0.0035554914
C  C6  1  0.75000000  0.37500000  0.62500000  1.0 -0.0035554914
C  C7  1  0.89566000  0.27850000  0.19236000  1.0 0.048170492
C  C8  1  0.58614000  0.70330000  0.30764000  1.0 0.048170492
C  C9  1  0.91386000  0.22150000  0.11716000  1.0 0.048170492
C  C10  1  0.60434000  0.79670000  0.38284000  1.0 0.048170492
C  C11  1  0.19236000  0.89566000  0.27850000  1.0 0.048170492
C  C12  1  0.30764000  0.58614000  0.70330000  1.0 0.048170492
C  C13  1  0.11716000  0.91386000  0.22150000  1.0 0.048170492
C  C14  1  0.38284000  0.60434000  0.79670000  1.0 0.048170492
C  C15  1  0.27850000  0.19236000  0.89566000  1.0 0.048170492
C  C16  1  0.70330000  0.30764000  0.58614000  1.0 0.048170492
C  C17  1  0.22150000  0.11716000  0.91386000  1.0 0.048170492
C  C18  1  0.79670000  0.38284000  0.60434000  1.0 0.048170492
C  C19  1  0.77850000  0.39566000  0.69236000  1.0 0.048170492
C  C20  1  0.20330000  0.08614000  0.80764000  1.0 0.048170492
C  C21  1  0.72150000  0.41386000  0.61716000  1.0 0.048170492
C  C22  1  0.29670000  0.10434000  0.88284000  1.0 0.048170492
C  C23  1  0.39566000  0.69236000  0.77850000  1.0 0.048170492
C  C24  1  0.08614000  0.80764000  0.20330000  1.0 0.048170492
C  C25  1  0.41386000  0.61716000  0.72150000  1.0 0.048170492
C  C26  1  0.10434000  0.88284000  0.29670000  1.0 0.048170492
C  C27  1  0.69236000  0.77850000  0.39566000  1.0 0.048170492
C  C28  1  0.80764000  0.20330000  0.08614000  1.0 0.048170492
C  C29  1  0.61716000  0.72150000  0.41386000  1.0 0.048170492
C  C30  1  0.88284000  0.29670000  0.10434000  1.0 0.048170492
C  C31  1  0.95540000  0.31580000  0.23240000  1.0 -0.1676313725
C  C32  1  0.58340000  0.72300000  0.26760000  1.0 -0.1676313725
C  C33  1  0.91660000  0.18420000  0.13960000  1.0 -0.1676313725
C  C34  1  0.54460000  0.77700000  0.36040000  1.0 -0.1676313725
C  C35  1  0.23240000  0.95540000  0.31580000  1.0 -0.1676313725
C  C36  1  0.26760000  0.58340000  0.72300000  1.0 -0.1676313725
C  C37  1  0.13960000  0.91660000  0.18420000  1.0 -0.1676313725
C  C38  1  0.36040000  0.54460000  0.77700000  1.0 -0.1676313725
C  C39  1  0.31580000  0.23240000  0.95540000  1.0 -0.1676313725
C  C40  1  0.72300000  0.26760000  0.58340000  1.0 -0.1676313725
C  C41  1  0.18420000  0.13960000  0.91660000  1.0 -0.1676313725
C  C42  1  0.77700000  0.36040000  0.54460000  1.0 -0.1676313725
C  C43  1  0.81580000  0.45540000  0.73240000  1.0 -0.1676313725
C  C44  1  0.22300000  0.08340000  0.76760000  1.0 -0.1676313725
C  C45  1  0.68420000  0.41660000  0.63960000  1.0 -0.1676313725
C  C46  1  0.27700000  0.04460000  0.86040000  1.0 -0.1676313725
C  C47  1  0.45540000  0.73240000  0.81580000  1.0 -0.1676313725
C  C48  1  0.08340000  0.76760000  0.22300000  1.0 -0.1676313725
C  C49  1  0.41660000  0.63960000  0.68420000  1.0 -0.1676313725
C  C50  1  0.04460000  0.86040000  0.27700000  1.0 -0.1676313725
C  C51  1  0.73240000  0.81580000  0.45540000  1.0 -0.1676313725
C  C52  1  0.76760000  0.22300000  0.08340000  1.0 -0.1676313725
C  C53  1  0.63960000  0.68420000  0.41660000  1.0 -0.1676313725
C  C54  1  0.86040000  0.27700000  0.04460000  1.0 -0.1676313725
C  C55  1  0.93620000  0.33333333  0.31250000  1.0 -0.0035554914
C  C56  1  0.52080000  0.62370000  0.18750000  1.0 -0.0053739641
C  C57  1  0.97920000  0.16670000  0.10290000  1.0 -0.0035554914
C  C58  1  0.56380000  0.87630000  0.39710000  1.0 -0.0053739641
C  C59  1  0.31250000  0.93620000  0.33333333  1.0 -0.0053739641
C  C60  1  0.18750000  0.52080000  0.62370000  1.0 -0.0053739641
C  C61  1  0.10290000  0.97920000  0.16670000  1.0 -0.0053739641
C  C62  1  0.39710000  0.56380000  0.87630000  1.0 -0.0035554914
C  C63  1  0.33333333  0.31250000  0.93620000  1.0 -0.0035554914
C  C64  1  0.62370000  0.18750000  0.52080000  1.0 -0.0035554914
C  C65  1  0.16670000  0.10290000  0.97920000  1.0 -0.0053739641
C  C66  1  0.87630000  0.39710000  0.56380000  1.0 -0.0035554914
C  C67  1  0.83330000  0.43620000  0.81250000  1.0 -0.0035554914
C  C68  1  0.12370000  0.02080000  0.68750000  1.0 -0.0053739641
C  C69  1  0.66666667  0.47920000  0.60290000  1.0 -0.0035554914
C  C70  1  0.37630000  0.06380000  0.89710000  1.0 -0.0035554914
C  C71  1  0.43620000  0.81250000  0.83330000  1.0 -0.0035554914
C  C72  1  0.02080000  0.68750000  0.12370000  1.0 -0.0053739641
C  C73  1  0.47920000  0.60290000  0.66666667  1.0 -0.0053739641
C  C74  1  0.06380000  0.89710000  0.37630000  1.0 -0.0053739641
C  C75  1  0.81250000  0.83330000  0.43620000  1.0 -0.0035554914
C  C76  1  0.68750000  0.12370000  0.02080000  1.0 -0.0053739641
C  C77  1  0.60290000  0.66666667  0.47920000  1.0 -0.0053739641
C  C78  1  0.89710000  0.37630000  0.06380000  1.0 -0.0035554914
C  C79  1  0.97540000  0.34150000  0.29130000  1.0 -0.0950199611
C  C80  1  0.55020000  0.68410000  0.20870000  1.0 -0.0950199611
C  C81  1  0.94980000  0.15850000  0.13390000  1.0 -0.0950199611
C  C82  1  0.52460000  0.81590000  0.36610000  1.0 -0.0950199611
C  C83  1  0.29130000  0.97540000  0.34150000  1.0 -0.0890746462
C  C84  1  0.20870000  0.55020000  0.68410000  1.0 -0.0950199611
C  C85  1  0.13390000  0.94980000  0.15850000  1.0 -0.0950199611
C  C86  1  0.36610000  0.52460000  0.81590000  1.0 -0.0950199611
C  C87  1  0.34150000  0.29130000  0.97540000  1.0 -0.0950199611
C  C88  1  0.68410000  0.20870000  0.55020000  1.0 -0.0950199611
C  C89  1  0.15850000  0.13390000  0.94980000  1.0 -0.0950199611
C  C90  1  0.81590000  0.36610000  0.52460000  1.0 -0.0950199611
C  C91  1  0.84150000  0.47540000  0.79130000  1.0 -0.0950199611
C  C92  1  0.18410000  0.05020000  0.70870000  1.0 -0.0950199611
C  C93  1  0.65850000  0.44980000  0.63390000  1.0 -0.0950199611
C  C94  1  0.31590000  0.02460000  0.86610000  1.0 -0.0950199611
C  C95  1  0.47540000  0.79130000  0.84150000  1.0 -0.0950199611
C  C96  1  0.05020000  0.70870000  0.18410000  1.0 -0.0950199611
C  C97  1  0.44980000  0.63390000  0.65850000  1.0 -0.0950199611
C  C98  1  0.02460000  0.86610000  0.31590000  1.0 -0.0890746462
C  C99  1  0.79130000  0.84150000  0.47540000  1.0 -0.0950199611
C  C100  1  0.70870000  0.18410000  0.05020000  1.0 -0.0950199611
C  C101  1  0.63390000  0.65850000  0.44980000  1.0 -0.0950199611
C  C102  1  0.86610000  0.31590000  0.02460000  1.0 -0.0890746462
C  C103  1  0.87800000  0.29560000  0.27160000  1.0 -0.0890746462
C  C104  1  0.52400000  0.60640000  0.22840000  1.0 -0.0890746462
C  C105  1  0.97600000  0.20440000  0.08240000  1.0 -0.0890746462
C  C106  1  0.62200000  0.89360000  0.41760000  1.0 -0.0890746462
C  C107  1  0.27160000  0.87800000  0.29560000  1.0 -0.0890746462
C  C108  1  0.22840000  0.52400000  0.60640000  1.0 -0.0890746462
C  C109  1  0.08240000  0.97600000  0.20440000  1.0 -0.0890746462
C  C110  1  0.41760000  0.62200000  0.89360000  1.0 -0.0890746462
C  C111  1  0.29560000  0.27160000  0.87800000  1.0 -0.0890746462
C  C112  1  0.60640000  0.22840000  0.52400000  1.0 -0.0890746462
C  C113  1  0.20440000  0.08240000  0.97600000  1.0 -0.0890746462
C  C114  1  0.89360000  0.41760000  0.62200000  1.0 -0.0890746462
C  C115  1  0.79560000  0.37800000  0.77160000  1.0 -0.0890746462
C  C116  1  0.10640000  0.02400000  0.72840000  1.0 -0.0890746462
C  C117  1  0.70440000  0.47600000  0.58240000  1.0 -0.0890746462
C  C118  1  0.39360000  0.12200000  0.91760000  1.0 -0.0890746462
C  C119  1  0.37800000  0.77160000  0.79560000  1.0 -0.0890746462
C  C120  1  0.02400000  0.72840000  0.10640000  1.0 -0.0890746462
C  C121  1  0.47600000  0.58240000  0.70440000  1.0 -0.0890746462
C  C122  1  0.12200000  0.91760000  0.39360000  1.0 -0.0890746462
C  C123  1  0.77160000  0.79560000  0.37800000  1.0 -0.0890746462
C  C124  1  0.72840000  0.10640000  0.02400000  1.0 -0.0890746462
C  C125  1  0.58240000  0.70440000  0.47600000  1.0 -0.0890746462
C  C126  1  0.91760000  0.39360000  0.12200000  1.0 -0.0890746462
C  C127  1  0.95880000  0.36260000  0.37960000  1.0 0.5131038554
C  C128  1  0.48300000  0.57920000  0.12040000  1.0 0.5131038554
C  C129  1  0.01700000  0.13740000  0.09620000  1.0 0.5131038554
C  C130  1  0.54120000  0.92080000  0.40380000  1.0 0.5131038554
C  C131  1  0.37960000  0.95880000  0.36260000  1.0 0.5131038554
C  C132  1  0.12040000  0.48300000  0.57920000  1.0 0.5131038554
C  C133  1  0.09620000  0.01700000  0.13740000  1.0 0.5131038554
C  C134  1  0.40380000  0.54120000  0.92080000  1.0 0.5131038554
C  C135  1  0.36260000  0.37960000  0.95880000  1.0 0.5131038554
C  C136  1  0.57920000  0.12040000  0.48300000  1.0 0.5131038554
C  C137  1  0.13740000  0.09620000  0.01700000  1.0 0.5131038554
C  C138  1  0.92080000  0.40380000  0.54120000  1.0 0.5131038554
C  C139  1  0.86260000  0.45880000  0.87960000  1.0 0.5131038554
C  C140  1  0.07920000  0.98300000  0.62040000  1.0 0.5131038554
C  C141  1  0.63740000  0.51700000  0.59620000  1.0 0.5131038554
C  C142  1  0.42080000  0.04120000  0.90380000  1.0 0.5131038554
C  C143  1  0.45880000  0.87960000  0.86260000  1.0 0.5131038554
C  C144  1  0.98300000  0.62040000  0.07920000  1.0 0.5131038554
C  C145  1  0.51700000  0.59620000  0.63740000  1.0 0.5131038554
C  C146  1  0.04120000  0.90380000  0.42080000  1.0 0.5131038554
C  C147  1  0.87960000  0.86260000  0.45880000  1.0 0.5131038554
C  C148  1  0.62040000  0.07920000  0.98300000  1.0 0.5131038554
C  C149  1  0.59620000  0.63740000  0.51700000  1.0 0.5131038554
C  C150  1  0.90380000  0.42080000  0.04120000  1.0 0.5131038554
C  C151  1  0.85710000  0.27070000  0.21340000  1.0 -0.1676313725
C  C152  1  0.55730000  0.64370000  0.28660000  1.0 -0.1676313725
C  C153  1  0.94270000  0.22930000  0.08640000  1.0 -0.1676313725
C  C154  1  0.64290000  0.85630000  0.41360000  1.0 -0.1676313725
C  C155  1  0.21340000  0.85710000  0.27070000  1.0 -0.1676313725
C  C156  1  0.28660000  0.55730000  0.64370000  1.0 -0.1676313725
C  C157  1  0.08640000  0.94270000  0.22930000  1.0 -0.1676313725
C  C158  1  0.41360000  0.64290000  0.85630000  1.0 -0.1676313725
C  C159  1  0.27070000  0.21340000  0.85710000  1.0 -0.1676313725
C  C160  1  0.64370000  0.28660000  0.55730000  1.0 -0.1676313725
C  C161  1  0.22930000  0.08640000  0.94270000  1.0 -0.1676313725
C  C162  1  0.85630000  0.41360000  0.64290000  1.0 -0.1676313725
C  C163  1  0.77070000  0.35710000  0.71340000  1.0 -0.1676313725
C  C164  1  0.14370000  0.05730000  0.78660000  1.0 -0.1676313725
C  C165  1  0.72930000  0.44270000  0.58640000  1.0 -0.1676313725
C  C166  1  0.35630000  0.14290000  0.91360000  1.0 -0.1676313725
C  C167  1  0.35710000  0.71340000  0.77070000  1.0 -0.1676313725
C  C168  1  0.05730000  0.78660000  0.14370000  1.0 -0.1676313725
C  C169  1  0.44270000  0.58640000  0.72930000  1.0 -0.1676313725
C  C170  1  0.14290000  0.91360000  0.35630000  1.0 -0.1676313725
C  C171  1  0.71340000  0.77070000  0.35710000  1.0 -0.1676313725
C  C172  1  0.78660000  0.14370000  0.05730000  1.0 -0.1676313725
C  C173  1  0.58640000  0.72930000  0.44270000  1.0 -0.1676313725
C  C174  1  0.91360000  0.35630000  0.14290000  1.0 -0.1676313725
O  O1  1  0.01370000  0.39270000  0.41400000  1.0 -0.6155103765
O  O2  1  0.47870000  0.59970000  0.08600000  1.0 -0.6155103765
O  O3  1  0.02130000  0.10730000  0.12100000  1.0 -0.6155103765
O  O4  1  0.48630000  0.90030000  0.37900000  1.0 -0.6155103765
O  O5  1  0.41400000  0.01370000  0.39270000  1.0 -0.6155103765
O  O6  1  0.08600000  0.47870000  0.59970000  1.0 -0.6145516954
O  O7  1  0.12100000  0.02130000  0.10730000  1.0 -0.6155103765
O  O8  1  0.37900000  0.48630000  0.90030000  1.0 -0.6155103765
O  O9  1  0.39270000  0.41400000  0.01370000  1.0 -0.6155103765
O  O10  1  0.59970000  0.08600000  0.47870000  1.0 -0.6155103765
O  O11  1  0.10730000  0.12100000  0.02130000  1.0 -0.6155103765
O  O12  1  0.90030000  0.37900000  0.48630000  1.0 -0.6155103765
O  O13  1  0.89270000  0.51370000  0.91400000  1.0 -0.6155103765
O  O14  1  0.09970000  0.97870000  0.58600000  1.0 -0.6145516954
O  O15  1  0.60730000  0.52130000  0.62100000  1.0 -0.6155103765
O  O16  1  0.40030000  0.98630000  0.87900000  1.0 -0.6155103765
O  O17  1  0.51370000  0.91400000  0.89270000  1.0 -0.6155103765
O  O18  1  0.97870000  0.58600000  0.09970000  1.0 -0.6155103765
O  O19  1  0.52130000  0.62100000  0.60730000  1.0 -0.6155103765
O  O20  1  0.98630000  0.87900000  0.40030000  1.0 -0.6145516954
O  O21  1  0.91400000  0.89270000  0.51370000  1.0 -0.6155103765
O  O22  1  0.58600000  0.09970000  0.97870000  1.0 -0.6155103765
O  O23  1  0.62100000  0.60730000  0.52130000  1.0 -0.6155103765
O  O24  1  0.87900000  0.40030000  0.98630000  1.0 -0.6155103765
O  O25  1  0.92239000  0.35469000  0.39512000  1.0 -0.5881986342
O  O26  1  0.45957000  0.52727000  0.10488000  1.0 -0.5881986342
O  O27  1  0.04043000  0.14531000  0.06770000  1.0 -0.5881986342
O  O28  1  0.57761000  0.97273000  0.43230000  1.0 -0.5881986342
O  O29  1  0.39512000  0.92239000  0.35469000  1.0 -0.5881986342
O  O30  1  0.10488000  0.45957000  0.52727000  1.0 -0.5881986342
O  O31  1  0.06770000  0.04043000  0.14531000  1.0 -0.5881986342
O  O32  1  0.43230000  0.57761000  0.97273000  1.0 -0.5881986342
O  O33  1  0.35469000  0.39512000  0.92239000  1.0 -0.5881986342
O  O34  1  0.52727000  0.10488000  0.45957000  1.0 -0.5881986342
O  O35  1  0.14531000  0.06770000  0.04043000  1.0 -0.5881986342
O  O36  1  0.97273000  0.43230000  0.57761000  1.0 -0.5881986342
O  O37  1  0.85469000  0.42239000  0.89512000  1.0 -0.5881986342
O  O38  1  0.02727000  0.95957000  0.60488000  1.0 -0.5881986342
O  O39  1  0.64531000  0.54043000  0.56770000  1.0 -0.5881986342
O  O40  1  0.47273000  0.07761000  0.93230000  1.0 -0.5881986342
O  O41  1  0.42239000  0.89512000  0.85469000  1.0 -0.5881986342
O  O42  1  0.95957000  0.60488000  0.02727000  1.0 -0.5881986342
O  O43  1  0.54043000  0.56770000  0.64531000  1.0 -0.5881986342
O  O44  1  0.07761000  0.93230000  0.47273000  1.0 -0.5881986342
O  O45  1  0.89512000  0.85469000  0.42239000  1.0 -0.5881986342
O  O46  1  0.60488000  0.02727000  0.95957000  1.0 -0.5881986342
O  O47  1  0.56770000  0.64531000  0.54043000  1.0 -0.5881986342
O  O48  1  0.93230000  0.47273000  0.07761000  1.0 -0.5881986342
