# DDEC6 charges by PACMAN v1.1 (https://github.com/mtap-research/PACMAN-charge/)
data_VANXUD03_FSR_pacman
_symmetry_space_group_name_H-M   'P 1'
_cell_length_a   10.39110000
_cell_length_b   10.39110000
_cell_length_c   8.93410000
_cell_angle_alpha   90.00000000
_cell_angle_beta   90.00000000
_cell_angle_gamma   90.00000000
_symmetry_Int_Tables_number   1
_chemical_formula_structural   CoPO4
_chemical_formula_sum   'Co8 P8 O32'
_cell_volume   964.65908308
_cell_formula_units_Z   8
loop_
 _symmetry_equiv_pos_site_id
 _symmetry_equiv_pos_as_xyz
  1  'x, y, z'
loop_
 _atom_site_type_symbol
 _atom_site_label
 _atom_site_symmetry_multiplicity
 _atom_site_fract_x
 _atom_site_fract_y
 _atom_site_fract_z
 _atom_site_occupancy
 _atom_site_charge
Co  Co1  1  0.37843000  0.13965000  0.90941000  1.0 1.2781913566
Co  Co2  1  0.63965000  0.12157000  0.40941000  1.0 1.2781913566
Co  Co3  1  0.36035000  0.87843000  0.40941000  1.0 1.2781913566
Co  Co4  1  0.62157000  0.86035000  0.90941000  1.0 1.2781913566
Co  Co5  1  0.12157000  0.36035000  0.59059000  1.0 1.2781913566
Co  Co6  1  0.86035000  0.37843000  0.09059000  1.0 1.2781913566
Co  Co7  1  0.13965000  0.62157000  0.09059000  1.0 1.2781913566
Co  Co8  1  0.87843000  0.63965000  0.59059000  1.0 1.2781913566
P  P1  1  0.35919000  0.15671000  0.54744000  1.0 1.4762077965
P  P2  1  0.65671000  0.14081000  0.04744000  1.0 1.472360261
P  P3  1  0.34329000  0.85919000  0.04744000  1.0 1.472360261
P  P4  1  0.64081000  0.84329000  0.54744000  1.0 1.472360261
P  P5  1  0.14081000  0.34329000  0.95256000  1.0 1.4762077965
P  P6  1  0.84329000  0.35919000  0.45256000  1.0 1.472360261
P  P7  1  0.15671000  0.64081000  0.45256000  1.0 1.4762077965
P  P8  1  0.85919000  0.65671000  0.95256000  1.0 1.472360261
O  O1  1  0.41050000  0.18690000  0.70310000  1.0 -0.7242302758
O  O2  1  0.68690000  0.08950000  0.20310000  1.0 -0.7242302758
O  O3  1  0.31310000  0.91050000  0.20310000  1.0 -0.7242302758
O  O4  1  0.58950000  0.81310000  0.70310000  1.0 -0.7242302758
O  O5  1  0.08950000  0.31310000  0.79690000  1.0 -0.7242302758
O  O6  1  0.81310000  0.41050000  0.29690000  1.0 -0.7242302758
O  O7  1  0.18690000  0.58950000  0.29690000  1.0 -0.7242302758
O  O8  1  0.91050000  0.68690000  0.79690000  1.0 -0.7242302758
O  O9  1  0.30670000  0.02150000  0.53870000  1.0 -0.6892194276
O  O10  1  0.52150000  0.19330000  0.03870000  1.0 -0.6892194276
O  O11  1  0.47850000  0.80670000  0.03870000  1.0 -0.6892194276
O  O12  1  0.69330000  0.97850000  0.53870000  1.0 -0.6892194276
O  O13  1  0.19330000  0.47850000  0.96130000  1.0 -0.6892194276
O  O14  1  0.97850000  0.30670000  0.46130000  1.0 -0.6892194276
O  O15  1  0.02150000  0.69330000  0.46130000  1.0 -0.6892194276
O  O16  1  0.80670000  0.52150000  0.96130000  1.0 -0.6892194276
O  O17  1  0.25340000  0.25080000  0.50210000  1.0 -0.6493253125
O  O18  1  0.75080000  0.24660000  0.00210000  1.0 -0.6493253125
O  O19  1  0.24920000  0.75340000  0.00210000  1.0 -0.6493253125
O  O20  1  0.74660000  0.74920000  0.50210000  1.0 -0.6493253125
O  O21  1  0.24660000  0.24920000  0.99790000  1.0 -0.6493253125
O  O22  1  0.74920000  0.25340000  0.49790000  1.0 -0.6493253125
O  O23  1  0.25080000  0.74660000  0.49790000  1.0 -0.6493253125
O  O24  1  0.75340000  0.75080000  0.99790000  1.0 -0.6493253125
O  O25  1  0.46480000  0.17560000  0.43120000  1.0 -0.6892194276
O  O26  1  0.67560000  0.03520000  0.93120000  1.0 -0.6892194276
O  O27  1  0.32440000  0.96480000  0.93120000  1.0 -0.6892194276
O  O28  1  0.53520000  0.82440000  0.43120000  1.0 -0.6892194276
O  O29  1  0.03520000  0.32440000  0.06880000  1.0 -0.6892194276
O  O30  1  0.82440000  0.46480000  0.56880000  1.0 -0.6892194276
O  O31  1  0.17560000  0.53520000  0.56880000  1.0 -0.6892194276
O  O32  1  0.96480000  0.67560000  0.06880000  1.0 -0.6892194276
