# DDEC6 charges by PACMAN v1.1 (https://github.com/mtap-research/PACMAN-charge/)
data_VASQUF_ASR_pacman
_symmetry_space_group_name_H-M   'P 1'
_cell_length_a   18.02140000
_cell_length_b   24.62370000
_cell_length_c   34.71320000
_cell_angle_alpha   90.00000000
_cell_angle_beta   90.00000000
_cell_angle_gamma   90.00000000
_symmetry_Int_Tables_number   1
_chemical_formula_structural   GdH30IrC46(NO)4
_chemical_formula_sum   'Gd8 H240 Ir8 C368 N32 O32'
_cell_volume   15404.10563397
_cell_formula_units_Z   8
loop_
 _symmetry_equiv_pos_site_id
 _symmetry_equiv_pos_as_xyz
  1  'x, y, z'
loop_
 _atom_site_type_symbol
 _atom_site_label
 _atom_site_symmetry_multiplicity
 _atom_site_fract_x
 _atom_site_fract_y
 _atom_site_fract_z
 _atom_site_occupancy
 _atom_site_charge
Gd  Gd1  1  0.91679000  0.05351000  0.02393000  1.0 2.0037595288
Gd  Gd2  1  0.58321000  0.44649000  0.52393000  1.0 2.0053706026
Gd  Gd3  1  0.08321000  0.94649000  0.97607000  1.0 2.0053706026
Gd  Gd4  1  0.41679000  0.55351000  0.47607000  1.0 2.0053706026
Gd  Gd5  1  0.91679000  0.94649000  0.47607000  1.0 2.0053706026
Gd  Gd6  1  0.58321000  0.55351000  0.97607000  1.0 2.0053706026
Gd  Gd7  1  0.08321000  0.05351000  0.52393000  1.0 2.0053706026
Gd  Gd8  1  0.41679000  0.44649000  0.02393000  1.0 2.0037595288
H  H1  1  0.14041000  0.14774000  0.20509000  1.0 0.1007267398
H  H2  1  0.25678000  0.28892000  0.33782000  1.0 0.1007267398
H  H3  1  0.48988000  0.31991000  0.44626000  1.0 0.1093553304
H  H4  1  0.42578000  0.17505000  0.28232000  1.0 0.1190276752
H  H5  1  0.45987000  0.22894000  0.33318000  1.0 0.1093553304
H  H6  1  0.45883000  0.25603000  0.39768000  1.0 0.1007267398
H  H7  1  0.23533000  0.01075000  0.08062000  1.0 0.1190276752
H  H8  1  0.38670000  0.14030000  0.22625000  1.0 0.1190276752
H  H9  1  0.34998000  0.42544000  0.40321000  1.0 0.1190276752
H  H10  1  0.31557000  0.36649000  0.35581000  1.0 0.1093553304
H  H11  1  0.33844000  0.10057000  0.17222000  1.0 0.1093553304
H  H12  1  0.87501000  0.19275000  0.21090000  1.0 0.1093553304
H  H13  1  0.28748000  0.05807000  0.13078000  1.0 0.1007267398
H  H14  1  0.18918000  0.10961000  0.30082000  1.0 0.1007267398
H  H15  1  0.09798000  0.12807000  0.15297000  1.0 0.1093553304
H  H16  1  0.02175000  0.15014000  0.29452000  1.0 0.1007267398
H  H17  1  0.06914000  0.40043000  0.35055000  1.0 0.1190276752
H  H18  1  0.90422000  0.13909000  0.26515000  1.0 0.1190276752
H  H19  1  0.09765000  0.34487000  0.29134000  1.0 0.1093553304
H  H20  1  0.06512000  0.35296000  0.40654000  1.0 0.1093553304
H  H21  1  0.09193000  0.26613000  0.41336000  1.0 0.1190276752
H  H22  1  0.94702000  0.25953000  0.19120000  1.0 0.1190276752
H  H23  1  0.17165000  0.04928000  0.34887000  1.0 0.1190276752
H  H24  1  0.05475000  0.08744000  0.09645000  1.0 0.1093553304
H  H25  1  0.23960000  0.38188000  0.20146000  1.0 0.1093553304
H  H26  1  0.14384000  0.08111000  0.40745000  1.0 0.1190276752
H  H27  1  0.03558000  0.32585000  0.17563000  1.0 0.1093553304
H  H28  1  0.13104000  0.38623000  0.16455000  1.0 0.1007267398
H  H29  1  0.24623000  0.31630000  0.24976000  1.0 0.1093553304
H  H30  1  0.11707000  0.17576000  0.41647000  1.0 0.1190276752
H  H31  1  0.35959000  0.35226000  0.70509000  1.0 0.1007267398
H  H32  1  0.24322000  0.21108000  0.83782000  1.0 0.1007267398
H  H33  1  0.01012000  0.18009000  0.94626000  1.0 0.1093553304
H  H34  1  0.07422000  0.32495000  0.78232000  1.0 0.1190276752
H  H35  1  0.04013000  0.27106000  0.83318000  1.0 0.1093553304
H  H36  1  0.04117000  0.24397000  0.89768000  1.0 0.1007267398
H  H37  1  0.26467000  0.48925000  0.58062000  1.0 0.1190276752
H  H38  1  0.11330000  0.35970000  0.72625000  1.0 0.1190276752
H  H39  1  0.15002000  0.07456000  0.90321000  1.0 0.1190276752
H  H40  1  0.18443000  0.13351000  0.85581000  1.0 0.1093553304
H  H41  1  0.16156000  0.39943000  0.67222000  1.0 0.1093553304
H  H42  1  0.62499000  0.30725000  0.71090000  1.0 0.1093553304
H  H43  1  0.21252000  0.44193000  0.63078000  1.0 0.1007267398
H  H44  1  0.31082000  0.39039000  0.80082000  1.0 0.1007267398
H  H45  1  0.40202000  0.37193000  0.65297000  1.0 0.1093553304
H  H46  1  0.47825000  0.34986000  0.79452000  1.0 0.1007267398
H  H47  1  0.43086000  0.09957000  0.85055000  1.0 0.1190276752
H  H48  1  0.59578000  0.36091000  0.76515000  1.0 0.1190276752
H  H49  1  0.40235000  0.15513000  0.79134000  1.0 0.1093553304
H  H50  1  0.43488000  0.14704000  0.90654000  1.0 0.1093553304
H  H51  1  0.40807000  0.23387000  0.91336000  1.0 0.1190276752
H  H52  1  0.55298000  0.24047000  0.69120000  1.0 0.1190276752
H  H53  1  0.32835000  0.45072000  0.84887000  1.0 0.1190276752
H  H54  1  0.44525000  0.41256000  0.59645000  1.0 0.1093553304
H  H55  1  0.26040000  0.11812000  0.70146000  1.0 0.1093553304
H  H56  1  0.35616000  0.41889000  0.90745000  1.0 0.1190276752
H  H57  1  0.46442000  0.17415000  0.67563000  1.0 0.1093553304
H  H58  1  0.36896000  0.11377000  0.66455000  1.0 0.1007267398
H  H59  1  0.25377000  0.18370000  0.74976000  1.0 0.1093553304
H  H60  1  0.38293000  0.32424000  0.91647000  1.0 0.1190276752
H  H61  1  0.85959000  0.85226000  0.79491000  1.0 0.1007267398
H  H62  1  0.74322000  0.71108000  0.66218000  1.0 0.1007267398
H  H63  1  0.51012000  0.68009000  0.55374000  1.0 0.1093553304
H  H64  1  0.57422000  0.82495000  0.71768000  1.0 0.1190276752
H  H65  1  0.54013000  0.77106000  0.66682000  1.0 0.1093553304
H  H66  1  0.54117000  0.74397000  0.60232000  1.0 0.1007267398
H  H67  1  0.76467000  0.98925000  0.91938000  1.0 0.1190276752
H  H68  1  0.61330000  0.85970000  0.77375000  1.0 0.1190276752
H  H69  1  0.65002000  0.57456000  0.59679000  1.0 0.1190276752
H  H70  1  0.68443000  0.63351000  0.64419000  1.0 0.1093553304
H  H71  1  0.66156000  0.89943000  0.82778000  1.0 0.1093553304
H  H72  1  0.12499000  0.80725000  0.78910000  1.0 0.1093553304
H  H73  1  0.71252000  0.94193000  0.86922000  1.0 0.1007267398
H  H74  1  0.81082000  0.89039000  0.69918000  1.0 0.1007267398
H  H75  1  0.90202000  0.87193000  0.84703000  1.0 0.1093553304
H  H76  1  0.97825000  0.84986000  0.70548000  1.0 0.1007267398
H  H77  1  0.93086000  0.59957000  0.64945000  1.0 0.1190276752
H  H78  1  0.09578000  0.86091000  0.73485000  1.0 0.1190276752
H  H79  1  0.90235000  0.65513000  0.70866000  1.0 0.1093553304
H  H80  1  0.93488000  0.64704000  0.59346000  1.0 0.1093553304
H  H81  1  0.90807000  0.73387000  0.58664000  1.0 0.1190276752
H  H82  1  0.05298000  0.74047000  0.80880000  1.0 0.1190276752
H  H83  1  0.82835000  0.95072000  0.65113000  1.0 0.1190276752
H  H84  1  0.94525000  0.91256000  0.90355000  1.0 0.1093553304
H  H85  1  0.76040000  0.61812000  0.79854000  1.0 0.1093553304
H  H86  1  0.85616000  0.91889000  0.59255000  1.0 0.1190276752
H  H87  1  0.96442000  0.67415000  0.82437000  1.0 0.1093553304
H  H88  1  0.86896000  0.61377000  0.83545000  1.0 0.1093553304
H  H89  1  0.75377000  0.68370000  0.75024000  1.0 0.1093553304
H  H90  1  0.88293000  0.82424000  0.58353000  1.0 0.1190276752
H  H91  1  0.64041000  0.64774000  0.29491000  1.0 0.1007267398
H  H92  1  0.75678000  0.78892000  0.16218000  1.0 0.1007267398
H  H93  1  0.98988000  0.81991000  0.05374000  1.0 0.1093553304
H  H94  1  0.92578000  0.67505000  0.21768000  1.0 0.1190276752
H  H95  1  0.95987000  0.72894000  0.16682000  1.0 0.1093553304
H  H96  1  0.95883000  0.75603000  0.10232000  1.0 0.1007267398
H  H97  1  0.73533000  0.51075000  0.41938000  1.0 0.1190276752
H  H98  1  0.88670000  0.64030000  0.27375000  1.0 0.1190276752
H  H99  1  0.84998000  0.92544000  0.09679000  1.0 0.1190276752
H  H100  1  0.81557000  0.86649000  0.14419000  1.0 0.1093553304
H  H101  1  0.83844000  0.60057000  0.32778000  1.0 0.1093553304
H  H102  1  0.37501000  0.69275000  0.28910000  1.0 0.1093553304
H  H103  1  0.78748000  0.55807000  0.36922000  1.0 0.1007267398
H  H104  1  0.68918000  0.60961000  0.19918000  1.0 0.1007267398
H  H105  1  0.59798000  0.62807000  0.34703000  1.0 0.1093553304
H  H106  1  0.52175000  0.65014000  0.20548000  1.0 0.1007267398
H  H107  1  0.56914000  0.90043000  0.14945000  1.0 0.1190276752
H  H108  1  0.40422000  0.63909000  0.23485000  1.0 0.1190276752
H  H109  1  0.59765000  0.84487000  0.20866000  1.0 0.1093553304
H  H110  1  0.56512000  0.85296000  0.09346000  1.0 0.1093553304
H  H111  1  0.59193000  0.76613000  0.08664000  1.0 0.1190276752
H  H112  1  0.44702000  0.75953000  0.30880000  1.0 0.1190276752
H  H113  1  0.67165000  0.54928000  0.15113000  1.0 0.1190276752
H  H114  1  0.55475000  0.58744000  0.40355000  1.0 0.1093553304
H  H115  1  0.73960000  0.88188000  0.29854000  1.0 0.1093553304
H  H116  1  0.64384000  0.58111000  0.09255000  1.0 0.1190276752
H  H117  1  0.53558000  0.82585000  0.32437000  1.0 0.1093553304
H  H118  1  0.63104000  0.88623000  0.33545000  1.0 0.1093553304
H  H119  1  0.74623000  0.81630000  0.25024000  1.0 0.1093553304
H  H120  1  0.61707000  0.67576000  0.08353000  1.0 0.1190276752
H  H121  1  0.14041000  0.85226000  0.29491000  1.0 0.1007267398
H  H122  1  0.25678000  0.71108000  0.16218000  1.0 0.1007267398
H  H123  1  0.48988000  0.68009000  0.05374000  1.0 0.1093553304
H  H124  1  0.42578000  0.82495000  0.21768000  1.0 0.1190276752
H  H125  1  0.45987000  0.77106000  0.16682000  1.0 0.1093553304
H  H126  1  0.45883000  0.74397000  0.10232000  1.0 0.1007267398
H  H127  1  0.23533000  0.98925000  0.41938000  1.0 0.1190276752
H  H128  1  0.38670000  0.85970000  0.27375000  1.0 0.1190276752
H  H129  1  0.34998000  0.57456000  0.09679000  1.0 0.1190276752
H  H130  1  0.31557000  0.63351000  0.14419000  1.0 0.1093553304
H  H131  1  0.33844000  0.89943000  0.32778000  1.0 0.1093553304
H  H132  1  0.87501000  0.80725000  0.28910000  1.0 0.1093553304
H  H133  1  0.28748000  0.94193000  0.36922000  1.0 0.1007267398
H  H134  1  0.18918000  0.89039000  0.19918000  1.0 0.1007267398
H  H135  1  0.09798000  0.87193000  0.34703000  1.0 0.1093553304
H  H136  1  0.02175000  0.84986000  0.20548000  1.0 0.1007267398
H  H137  1  0.06914000  0.59957000  0.14945000  1.0 0.1190276752
H  H138  1  0.90422000  0.86091000  0.23485000  1.0 0.1190276752
H  H139  1  0.09765000  0.65513000  0.20866000  1.0 0.1093553304
H  H140  1  0.06512000  0.64704000  0.09346000  1.0 0.1093553304
H  H141  1  0.09193000  0.73387000  0.08664000  1.0 0.1190276752
H  H142  1  0.94702000  0.74047000  0.30880000  1.0 0.1190276752
H  H143  1  0.17165000  0.95072000  0.15113000  1.0 0.1190276752
H  H144  1  0.05475000  0.91256000  0.40355000  1.0 0.1093553304
H  H145  1  0.23960000  0.61812000  0.29854000  1.0 0.1093553304
H  H146  1  0.14384000  0.91889000  0.09255000  1.0 0.1190276752
H  H147  1  0.03558000  0.67415000  0.32437000  1.0 0.1093553304
H  H148  1  0.13104000  0.61377000  0.33545000  1.0 0.1093553304
H  H149  1  0.24623000  0.68370000  0.25024000  1.0 0.1093553304
H  H150  1  0.11707000  0.82424000  0.08353000  1.0 0.1190276752
H  H151  1  0.35959000  0.64774000  0.79491000  1.0 0.1007267398
H  H152  1  0.24322000  0.78892000  0.66218000  1.0 0.1007267398
H  H153  1  0.01012000  0.81991000  0.55374000  1.0 0.1093553304
H  H154  1  0.07422000  0.67505000  0.71768000  1.0 0.1190276752
H  H155  1  0.04013000  0.72894000  0.66682000  1.0 0.1093553304
H  H156  1  0.04117000  0.75603000  0.60232000  1.0 0.1007267398
H  H157  1  0.26467000  0.51075000  0.91938000  1.0 0.1190276752
H  H158  1  0.11330000  0.64030000  0.77375000  1.0 0.1190276752
H  H159  1  0.15002000  0.92544000  0.59679000  1.0 0.1190276752
H  H160  1  0.18443000  0.86649000  0.64419000  1.0 0.1093553304
H  H161  1  0.16156000  0.60057000  0.82778000  1.0 0.1093553304
H  H162  1  0.62499000  0.69275000  0.78910000  1.0 0.1093553304
H  H163  1  0.21252000  0.55807000  0.86922000  1.0 0.1007267398
H  H164  1  0.31082000  0.60961000  0.69918000  1.0 0.1007267398
H  H165  1  0.40202000  0.62807000  0.84703000  1.0 0.1093553304
H  H166  1  0.47825000  0.65014000  0.70548000  1.0 0.1007267398
H  H167  1  0.43086000  0.90043000  0.64945000  1.0 0.1190276752
H  H168  1  0.59578000  0.63909000  0.73485000  1.0 0.1190276752
H  H169  1  0.40235000  0.84487000  0.70866000  1.0 0.1093553304
H  H170  1  0.43488000  0.85296000  0.59346000  1.0 0.1093553304
H  H171  1  0.40807000  0.76613000  0.58664000  1.0 0.1190276752
H  H172  1  0.55298000  0.75953000  0.80880000  1.0 0.1190276752
H  H173  1  0.32835000  0.54928000  0.65113000  1.0 0.1190276752
H  H174  1  0.44525000  0.58744000  0.90355000  1.0 0.1093553304
H  H175  1  0.26040000  0.88188000  0.79854000  1.0 0.1093553304
H  H176  1  0.35616000  0.58111000  0.59255000  1.0 0.1190276752
H  H177  1  0.46442000  0.82585000  0.82437000  1.0 0.1093553304
H  H178  1  0.36896000  0.88623000  0.83545000  1.0 0.1093553304
H  H179  1  0.25377000  0.81630000  0.75024000  1.0 0.1093553304
H  H180  1  0.38293000  0.67576000  0.58353000  1.0 0.1190276752
H  H181  1  0.85959000  0.14774000  0.70509000  1.0 0.1007267398
H  H182  1  0.74322000  0.28892000  0.83782000  1.0 0.1007267398
H  H183  1  0.51012000  0.31991000  0.94626000  1.0 0.1093553304
H  H184  1  0.57422000  0.17505000  0.78232000  1.0 0.1190276752
H  H185  1  0.54013000  0.22894000  0.83318000  1.0 0.1093553304
H  H186  1  0.54117000  0.25603000  0.89768000  1.0 0.1007267398
H  H187  1  0.76467000  0.01075000  0.58062000  1.0 0.1190276752
H  H188  1  0.61330000  0.14030000  0.72625000  1.0 0.1190276752
H  H189  1  0.65002000  0.42544000  0.90321000  1.0 0.1190276752
H  H190  1  0.68443000  0.36649000  0.85581000  1.0 0.1093553304
H  H191  1  0.66156000  0.10057000  0.67222000  1.0 0.1093553304
H  H192  1  0.12499000  0.19275000  0.71090000  1.0 0.1093553304
H  H193  1  0.71252000  0.05807000  0.63078000  1.0 0.1007267398
H  H194  1  0.81082000  0.10961000  0.80082000  1.0 0.1007267398
H  H195  1  0.90202000  0.12807000  0.65297000  1.0 0.1093553304
H  H196  1  0.97825000  0.15014000  0.79452000  1.0 0.1007267398
H  H197  1  0.93086000  0.40043000  0.85055000  1.0 0.1190276752
H  H198  1  0.09578000  0.13909000  0.76515000  1.0 0.1190276752
H  H199  1  0.90235000  0.34487000  0.79134000  1.0 0.1093553304
H  H200  1  0.93488000  0.35296000  0.90654000  1.0 0.1093553304
H  H201  1  0.90807000  0.26613000  0.91336000  1.0 0.1190276752
H  H202  1  0.05298000  0.25953000  0.69120000  1.0 0.1190276752
H  H203  1  0.82835000  0.04928000  0.84887000  1.0 0.1190276752
H  H204  1  0.94525000  0.08744000  0.59645000  1.0 0.1093553304
H  H205  1  0.76040000  0.38188000  0.70146000  1.0 0.1093553304
H  H206  1  0.85616000  0.08111000  0.90745000  1.0 0.1190276752
H  H207  1  0.96442000  0.32585000  0.67563000  1.0 0.1093553304
H  H208  1  0.86896000  0.38623000  0.66455000  1.0 0.1007267398
H  H209  1  0.75377000  0.31630000  0.74976000  1.0 0.1093553304
H  H210  1  0.88293000  0.17576000  0.91647000  1.0 0.1190276752
H  H211  1  0.64041000  0.35226000  0.20509000  1.0 0.1007267398
H  H212  1  0.75678000  0.21108000  0.33782000  1.0 0.1007267398
H  H213  1  0.98988000  0.18009000  0.44626000  1.0 0.1093553304
H  H214  1  0.92578000  0.32495000  0.28232000  1.0 0.1190276752
H  H215  1  0.95987000  0.27106000  0.33318000  1.0 0.1093553304
H  H216  1  0.95883000  0.24397000  0.39768000  1.0 0.1007267398
H  H217  1  0.73533000  0.48925000  0.08062000  1.0 0.1093553304
H  H218  1  0.88670000  0.35970000  0.22625000  1.0 0.1190276752
H  H219  1  0.84998000  0.07456000  0.40321000  1.0 0.1190276752
H  H220  1  0.81557000  0.13351000  0.35581000  1.0 0.1093553304
H  H221  1  0.83844000  0.39943000  0.17222000  1.0 0.1093553304
H  H222  1  0.37501000  0.30725000  0.21090000  1.0 0.1093553304
H  H223  1  0.78748000  0.44193000  0.13078000  1.0 0.1007267398
H  H224  1  0.68918000  0.39039000  0.30082000  1.0 0.1007267398
H  H225  1  0.59798000  0.37193000  0.15297000  1.0 0.1093553304
H  H226  1  0.52175000  0.34986000  0.29452000  1.0 0.1007267398
H  H227  1  0.56914000  0.09957000  0.35055000  1.0 0.1190276752
H  H228  1  0.40422000  0.36091000  0.26515000  1.0 0.1190276752
H  H229  1  0.59765000  0.15513000  0.29134000  1.0 0.1093553304
H  H230  1  0.56512000  0.14704000  0.40654000  1.0 0.1093553304
H  H231  1  0.59193000  0.23387000  0.41336000  1.0 0.1190276752
H  H232  1  0.44702000  0.24047000  0.19120000  1.0 0.1190276752
H  H233  1  0.67165000  0.45072000  0.34887000  1.0 0.1190276752
H  H234  1  0.55475000  0.41256000  0.09645000  1.0 0.1093553304
H  H235  1  0.73960000  0.11812000  0.20146000  1.0 0.1093553304
H  H236  1  0.64384000  0.41889000  0.40745000  1.0 0.1190276752
H  H237  1  0.53558000  0.17415000  0.17563000  1.0 0.1093553304
H  H238  1  0.63104000  0.11377000  0.16455000  1.0 0.1007267398
H  H239  1  0.74623000  0.18370000  0.24976000  1.0 0.1093553304
H  H240  1  0.61707000  0.32424000  0.41647000  1.0 0.1190276752
Ir  Ir1  1  0.15755000  0.22599000  0.27917000  1.0 0.6095614762
Ir  Ir2  1  0.34245000  0.27401000  0.77917000  1.0 0.6095614762
Ir  Ir3  1  0.84245000  0.77401000  0.72083000  1.0 0.6095614762
Ir  Ir4  1  0.65755000  0.72599000  0.22083000  1.0 0.6095614762
Ir  Ir5  1  0.15755000  0.77401000  0.22083000  1.0 0.6095614762
Ir  Ir6  1  0.34245000  0.72599000  0.72083000  1.0 0.6095614762
Ir  Ir7  1  0.84245000  0.22599000  0.77917000  1.0 0.6095614762
Ir  Ir8  1  0.65755000  0.27401000  0.27917000  1.0 0.6095614762
C  C1  1  0.19150000  0.14800000  0.20880000  1.0 -0.0802458792
C  C2  1  0.36280000  0.26720000  0.34060000  1.0 0.0182882588
C  C3  1  0.19780000  0.09540000  0.14890000  1.0 0.0609554009
C  C4  1  0.11680000  0.27560000  0.31950000  1.0 -0.1943837895
C  C5  1  0.32010000  0.20270000  0.27910000  1.0 0.1336606102
C  C6  1  0.38200000  0.30480000  0.37250000  1.0 0.0708991767
C  C7  1  0.23360000  0.12090000  0.18270000  1.0 0.0287259811
C  C8  1  0.29200000  0.26660000  0.32630000  1.0 -0.0591030045
C  C9  1  0.45500000  0.32900000  0.42760000  1.0 -0.1110373367
C  C10  1  0.42390000  0.37880000  0.42840000  1.0 -0.0374362447
C  C11  1  0.13630000  0.04340000  0.08400000  1.0 -0.0374362447
C  C12  1  0.39190000  0.19900000  0.29320000  1.0 -0.1722648923
C  C13  1  0.29230000  0.17240000  0.24570000  1.0 0.1190276752
C  C14  1  0.41180000  0.23130000  0.32360000  1.0 -0.1110373367
C  C15  1  0.10540000  0.01560000  0.04880000  1.0 0.6180316837
C  C16  1  0.03110000  0.24170000  0.22710000  1.0 0.1093553304
C  C17  1  0.43600000  0.28990000  0.39870000  1.0 -0.1722648923
C  C18  1  0.11020000  0.25540000  0.35710000  1.0 -0.0019082721
C  C19  1  0.20630000  0.03520000  0.09440000  1.0 -0.1215465904
C  C20  1  0.44910000  0.41990000  0.45790000  1.0 0.6496905939
C  C21  1  0.33620000  0.14330000  0.22110000  1.0 -0.1972399447
C  C22  1  0.37210000  0.39140000  0.40220000  1.0 -0.1007659409
C  C23  1  0.35080000  0.35610000  0.37390000  1.0 -0.1801188196
C  C24  1  0.30740000  0.11870000  0.18930000  1.0 -0.1110373367
C  C25  1  0.91990000  0.19860000  0.22340000  1.0 -0.0866562749
C  C26  1  0.23720000  0.06270000  0.12570000  1.0 -0.1801188196
C  C27  1  0.16750000  0.12280000  0.32330000  1.0 0.0526072809
C  C28  1  0.12840000  0.10510000  0.13870000  1.0 -0.1801188196
C  C29  1  0.00770000  0.17140000  0.27360000  1.0 0.0025464642
C  C30  1  0.07910000  0.36340000  0.35150000  1.0 -0.1215465904
C  C31  1  0.93780000  0.16470000  0.25600000  1.0 -0.1801188196
C  C32  1  0.09850000  0.32900000  0.31570000  1.0 -0.1460234976
C  C33  1  0.07820000  0.33400000  0.38440000  1.0 -0.1110373367
C  C34  1  0.09310000  0.28260000  0.38930000  1.0 -0.1434479362
C  C35  1  0.96240000  0.23640000  0.21080000  1.0 -0.1636519718
C  C36  1  0.16280000  0.08610000  0.35280000  1.0 -0.1801188196
C  C37  1  0.08660000  0.28190000  0.21740000  1.0 -0.0019082721
C  C38  1  0.13090000  0.19420000  0.35820000  1.0 0.0609554009
C  C39  1  0.10230000  0.07820000  0.10450000  1.0 -0.1110373367
C  C40  1  0.20080000  0.35760000  0.20540000  1.0 -0.1303375863
C  C41  1  0.14540000  0.10470000  0.38660000  1.0 -0.0591030045
C  C42  1  0.07920000  0.32310000  0.18980000  1.0 -0.1722648923
C  C43  1  0.13610000  0.35990000  0.18350000  1.0 -0.1007659409
C  C44  1  0.15420000  0.27990000  0.23920000  1.0 -0.1110373367
C  C45  1  0.20480000  0.31680000  0.23380000  1.0 -0.1303375863
C  C46  1  0.12860000  0.16150000  0.39240000  1.0 -0.1972399447
C  C47  1  0.30850000  0.35200000  0.70880000  1.0 -0.0802458792
C  C48  1  0.13720000  0.23280000  0.84060000  1.0 0.0182882588
C  C49  1  0.30220000  0.40460000  0.64890000  1.0 0.0609554009
C  C50  1  0.38320000  0.22440000  0.81950000  1.0 -0.1972399447
C  C51  1  0.17990000  0.29730000  0.77910000  1.0 0.1336606102
C  C52  1  0.11800000  0.19520000  0.87250000  1.0 0.0708991767
C  C53  1  0.26640000  0.37910000  0.68270000  1.0 0.0287259811
C  C54  1  0.20800000  0.23340000  0.82630000  1.0 -0.0538367546
C  C55  1  0.04500000  0.17100000  0.92760000  1.0 -0.1110373367
C  C56  1  0.07610000  0.12120000  0.92840000  1.0 -0.0374362447
C  C57  1  0.36370000  0.45660000  0.58400000  1.0 -0.0374362447
C  C58  1  0.10810000  0.30100000  0.79320000  1.0 -0.1722648923
C  C59  1  0.20770000  0.32760000  0.74570000  1.0 0.1190276752
C  C60  1  0.08820000  0.26870000  0.82360000  1.0 -0.1110373367
C  C61  1  0.39460000  0.48440000  0.54880000  1.0 0.6180316837
C  C62  1  0.46890000  0.25830000  0.72710000  1.0 0.1093553304
C  C63  1  0.06400000  0.21010000  0.89870000  1.0 -0.1722648923
C  C64  1  0.38980000  0.24460000  0.85710000  1.0 -0.0019082721
C  C65  1  0.29370000  0.46480000  0.59440000  1.0 -0.1215465904
C  C66  1  0.05090000  0.08010000  0.95790000  1.0 0.6496905939
C  C67  1  0.16380000  0.35670000  0.72110000  1.0 -0.1972399447
C  C68  1  0.12790000  0.10860000  0.90220000  1.0 -0.1007659409
C  C69  1  0.14920000  0.14390000  0.87390000  1.0 -0.1801188196
C  C70  1  0.19260000  0.38130000  0.68930000  1.0 -0.1110373367
C  C71  1  0.58010000  0.30140000  0.72340000  1.0 -0.0866562749
C  C72  1  0.26280000  0.43730000  0.62570000  1.0 -0.1801188196
C  C73  1  0.33250000  0.37720000  0.82330000  1.0 0.0526072809
C  C74  1  0.37160000  0.39490000  0.63870000  1.0 -0.1801188196
C  C75  1  0.49230000  0.32860000  0.77360000  1.0 0.0025464642
C  C76  1  0.42090000  0.13660000  0.85150000  1.0 -0.1215465904
C  C77  1  0.56220000  0.33530000  0.75600000  1.0 -0.1801188196
C  C78  1  0.40150000  0.17100000  0.81570000  1.0 -0.1460234976
C  C79  1  0.42180000  0.16600000  0.88440000  1.0 -0.1110373367
C  C80  1  0.40690000  0.21740000  0.88930000  1.0 -0.1434479362
C  C81  1  0.53760000  0.26360000  0.71080000  1.0 -0.1636519718
C  C82  1  0.33720000  0.41390000  0.85280000  1.0 -0.1801188196
C  C83  1  0.41340000  0.21810000  0.71740000  1.0 -0.0059910227
C  C84  1  0.36910000  0.30580000  0.85820000  1.0 0.0609554009
C  C85  1  0.39770000  0.42180000  0.60450000  1.0 -0.1110373367
C  C86  1  0.29920000  0.14240000  0.70540000  1.0 -0.1303375863
C  C87  1  0.35460000  0.39530000  0.88660000  1.0 -0.0651176466
C  C88  1  0.42080000  0.17690000  0.68980000  1.0 -0.1722648923
C  C89  1  0.36390000  0.14010000  0.68350000  1.0 -0.1007659409
C  C90  1  0.34580000  0.22010000  0.73920000  1.0 -0.1110373367
C  C91  1  0.29520000  0.18320000  0.73380000  1.0 -0.1303375863
C  C92  1  0.37140000  0.33850000  0.89240000  1.0 -0.1972399447
C  C93  1  0.80850000  0.85200000  0.79120000  1.0 -0.0802458792
C  C94  1  0.63720000  0.73280000  0.65940000  1.0 0.0182882588
C  C95  1  0.80220000  0.90460000  0.85110000  1.0 0.0609554009
C  C96  1  0.88320000  0.72440000  0.68050000  1.0 -0.1943837895
C  C97  1  0.67990000  0.79730000  0.72090000  1.0 0.1336606102
C  C98  1  0.61800000  0.69520000  0.62750000  1.0 0.0708991767
C  C99  1  0.76640000  0.87910000  0.81730000  1.0 0.0287259811
C  C100  1  0.70800000  0.73340000  0.67370000  1.0 -0.0538367546
C  C101  1  0.54500000  0.67100000  0.57240000  1.0 -0.1110373367
C  C102  1  0.57610000  0.62120000  0.57160000  1.0 -0.0374362447
C  C103  1  0.86370000  0.95660000  0.91600000  1.0 -0.0374362447
C  C104  1  0.60810000  0.80100000  0.70680000  1.0 -0.1722648923
C  C105  1  0.70770000  0.82760000  0.75430000  1.0 0.1190276752
C  C106  1  0.58820000  0.76870000  0.67640000  1.0 -0.1110373367
C  C107  1  0.89460000  0.98440000  0.95120000  1.0 0.6180316837
C  C108  1  0.96890000  0.75830000  0.77290000  1.0 0.1093553304
C  C109  1  0.56400000  0.71010000  0.60130000  1.0 -0.1722648923
C  C110  1  0.88980000  0.74460000  0.64290000  1.0 -0.0019082721
C  C111  1  0.79370000  0.96480000  0.90560000  1.0 -0.1215465904
C  C112  1  0.55090000  0.58010000  0.54210000  1.0 0.6496905939
C  C113  1  0.66380000  0.85670000  0.77890000  1.0 -0.1972399447
C  C114  1  0.62790000  0.60860000  0.59780000  1.0 -0.1007659409
C  C115  1  0.64920000  0.64390000  0.62610000  1.0 -0.1801188196
C  C116  1  0.69260000  0.88130000  0.81070000  1.0 -0.1110373367
C  C117  1  0.08010000  0.80140000  0.77660000  1.0 -0.0866562749
C  C118  1  0.76280000  0.93730000  0.87430000  1.0 -0.1722648923
C  C119  1  0.83250000  0.87720000  0.67670000  1.0 0.0526072809
C  C120  1  0.87160000  0.89490000  0.86130000  1.0 -0.1801188196
C  C121  1  0.99230000  0.82860000  0.72640000  1.0 0.0025464642
C  C122  1  0.92090000  0.63660000  0.64850000  1.0 -0.1215465904
C  C123  1  0.06220000  0.83530000  0.74400000  1.0 -0.1801188196
C  C124  1  0.90150000  0.67100000  0.68430000  1.0 -0.1460234976
C  C125  1  0.92180000  0.66600000  0.61560000  1.0 -0.1110373367
C  C126  1  0.90690000  0.71740000  0.61070000  1.0 -0.1434479362
C  C127  1  0.03760000  0.76360000  0.78920000  1.0 -0.1636519718
C  C128  1  0.83720000  0.91390000  0.64720000  1.0 -0.1801188196
C  C129  1  0.91340000  0.71810000  0.78260000  1.0 -0.0059910227
C  C130  1  0.86910000  0.80580000  0.64180000  1.0 0.0526072809
C  C131  1  0.89770000  0.92180000  0.89550000  1.0 -0.1110373367
C  C132  1  0.79920000  0.64240000  0.79460000  1.0 -0.1303375863
C  C133  1  0.85460000  0.89530000  0.61340000  1.0 -0.0651176466
C  C134  1  0.92080000  0.67690000  0.81020000  1.0 -0.1722648923
C  C135  1  0.86390000  0.64010000  0.81650000  1.0 -0.1007659409
C  C136  1  0.84580000  0.72010000  0.76080000  1.0 -0.1110373367
C  C137  1  0.79520000  0.68320000  0.76620000  1.0 -0.1303375863
C  C138  1  0.87140000  0.83850000  0.60760000  1.0 -0.1972399447
C  C139  1  0.69150000  0.64800000  0.29120000  1.0 -0.0802458792
C  C140  1  0.86280000  0.76720000  0.15940000  1.0 0.0182882588
C  C141  1  0.69780000  0.59540000  0.35110000  1.0 0.0609554009
C  C142  1  0.61680000  0.77560000  0.18050000  1.0 -0.1972399447
C  C143  1  0.82010000  0.70270000  0.22090000  1.0 0.1336606102
C  C144  1  0.88200000  0.80480000  0.12750000  1.0 0.0708991767
C  C145  1  0.73360000  0.62090000  0.31730000  1.0 0.0287259811
C  C146  1  0.79200000  0.76660000  0.17370000  1.0 -0.0591030045
C  C147  1  0.95500000  0.82900000  0.07240000  1.0 -0.1110373367
C  C148  1  0.92390000  0.87880000  0.07160000  1.0 -0.0374362447
C  C149  1  0.63630000  0.54340000  0.41600000  1.0 -0.0374362447
C  C150  1  0.89190000  0.69900000  0.20680000  1.0 -0.1722648923
C  C151  1  0.79230000  0.67240000  0.25430000  1.0 0.1190276752
C  C152  1  0.91180000  0.73130000  0.17640000  1.0 -0.1110373367
C  C153  1  0.60540000  0.51560000  0.45120000  1.0 0.6180316837
C  C154  1  0.53110000  0.74170000  0.27290000  1.0 0.1093553304
C  C155  1  0.93600000  0.78990000  0.10130000  1.0 -0.1722648923
C  C156  1  0.61020000  0.75540000  0.14290000  1.0 -0.0019082721
C  C157  1  0.70630000  0.53520000  0.40560000  1.0 -0.1215465904
C  C158  1  0.94910000  0.91990000  0.04210000  1.0 0.6496905939
C  C159  1  0.83620000  0.64330000  0.27890000  1.0 -0.1972399447
C  C160  1  0.87210000  0.89140000  0.09780000  1.0 -0.1007659409
C  C161  1  0.85080000  0.85610000  0.12610000  1.0 -0.1801188196
C  C162  1  0.80740000  0.61870000  0.31070000  1.0 -0.1110373367
C  C163  1  0.41990000  0.69860000  0.27660000  1.0 -0.0866562749
C  C164  1  0.73720000  0.56270000  0.37430000  1.0 -0.1722648923
C  C165  1  0.66750000  0.62280000  0.17670000  1.0 0.0526072809
C  C166  1  0.62840000  0.60510000  0.36130000  1.0 -0.1801188196
C  C167  1  0.50770000  0.67140000  0.22640000  1.0 -0.0019082721
C  C168  1  0.57910000  0.86340000  0.14850000  1.0 -0.1215465904
C  C169  1  0.43780000  0.66470000  0.24400000  1.0 -0.1801188196
C  C170  1  0.59850000  0.82900000  0.18430000  1.0 -0.1460234976
C  C171  1  0.57820000  0.83400000  0.11560000  1.0 -0.1110373367
C  C172  1  0.59310000  0.78260000  0.11070000  1.0 -0.1434479362
C  C173  1  0.46240000  0.73640000  0.28920000  1.0 -0.1636519718
C  C174  1  0.66280000  0.58610000  0.14720000  1.0 -0.1801188196
C  C175  1  0.58660000  0.78190000  0.28260000  1.0 -0.0059910227
C  C176  1  0.63090000  0.69420000  0.14180000  1.0 0.0609554009
C  C177  1  0.60230000  0.57820000  0.39550000  1.0 -0.1110373367
C  C178  1  0.70080000  0.85760000  0.29460000  1.0 -0.1303375863
C  C179  1  0.64540000  0.60470000  0.11340000  1.0 -0.0651176466
C  C180  1  0.57920000  0.82310000  0.31020000  1.0 -0.1722648923
C  C181  1  0.63610000  0.85990000  0.31650000  1.0 -0.1007659409
C  C182  1  0.65420000  0.77990000  0.26080000  1.0 -0.1110373367
C  C183  1  0.70480000  0.81680000  0.26620000  1.0 -0.1303375863
C  C184  1  0.62860000  0.66150000  0.10760000  1.0 -0.1972399447
C  C185  1  0.19150000  0.85200000  0.29120000  1.0 -0.0802458792
C  C186  1  0.36280000  0.73280000  0.15940000  1.0 0.0182882588
C  C187  1  0.19780000  0.90460000  0.35110000  1.0 0.0609554009
C  C188  1  0.11680000  0.72440000  0.18050000  1.0 -0.1972399447
C  C189  1  0.32010000  0.79730000  0.22090000  1.0 0.1336606102
C  C190  1  0.38200000  0.69520000  0.12750000  1.0 0.0708991767
C  C191  1  0.23360000  0.87910000  0.31730000  1.0 0.0287259811
C  C192  1  0.29200000  0.73340000  0.17370000  1.0 -0.0591030045
C  C193  1  0.45500000  0.67100000  0.07240000  1.0 -0.1110373367
C  C194  1  0.42390000  0.62120000  0.07160000  1.0 -0.0374362447
C  C195  1  0.13630000  0.95660000  0.41600000  1.0 -0.0374362447
C  C196  1  0.39190000  0.80100000  0.20680000  1.0 -0.1722648923
C  C197  1  0.29230000  0.82760000  0.25430000  1.0 0.1190276752
C  C198  1  0.41180000  0.76870000  0.17640000  1.0 -0.1110373367
C  C199  1  0.10540000  0.98440000  0.45120000  1.0 0.6180316837
C  C200  1  0.03110000  0.75830000  0.27290000  1.0 0.1093553304
C  C201  1  0.43600000  0.71010000  0.10130000  1.0 -0.1722648923
C  C202  1  0.11020000  0.74460000  0.14290000  1.0 -0.0019082721
C  C203  1  0.20630000  0.96480000  0.40560000  1.0 -0.1215465904
C  C204  1  0.44910000  0.58010000  0.04210000  1.0 0.6496905939
C  C205  1  0.33620000  0.85670000  0.27890000  1.0 -0.1972399447
C  C206  1  0.37210000  0.60860000  0.09780000  1.0 -0.1007659409
C  C207  1  0.35080000  0.64390000  0.12610000  1.0 -0.1801188196
C  C208  1  0.30740000  0.88130000  0.31070000  1.0 -0.1110373367
C  C209  1  0.91990000  0.80140000  0.27660000  1.0 -0.0866562749
C  C210  1  0.23720000  0.93730000  0.37430000  1.0 -0.1801188196
C  C211  1  0.16750000  0.87720000  0.17670000  1.0 0.0526072809
C  C212  1  0.12840000  0.89490000  0.36130000  1.0 -0.1801188196
C  C213  1  0.00770000  0.82860000  0.22640000  1.0 -0.0019082721
C  C214  1  0.07910000  0.63660000  0.14850000  1.0 -0.1215465904
C  C215  1  0.93780000  0.83530000  0.24400000  1.0 -0.1801188196
C  C216  1  0.09850000  0.67100000  0.18430000  1.0 -0.1460234976
C  C217  1  0.07820000  0.66600000  0.11560000  1.0 -0.1110373367
C  C218  1  0.09310000  0.71740000  0.11070000  1.0 -0.1434479362
C  C219  1  0.96240000  0.76360000  0.28920000  1.0 -0.1636519718
C  C220  1  0.16280000  0.91390000  0.14720000  1.0 -0.1801188196
C  C221  1  0.08660000  0.71810000  0.28260000  1.0 -0.0059910227
C  C222  1  0.13090000  0.80580000  0.14180000  1.0 0.0609554009
C  C223  1  0.10230000  0.92180000  0.39550000  1.0 -0.1110373367
C  C224  1  0.20080000  0.64240000  0.29460000  1.0 -0.1303375863
C  C225  1  0.14540000  0.89530000  0.11340000  1.0 -0.0651176466
C  C226  1  0.07920000  0.67690000  0.31020000  1.0 -0.1722648923
C  C227  1  0.13610000  0.64010000  0.31650000  1.0 -0.1007659409
C  C228  1  0.15420000  0.72010000  0.26080000  1.0 -0.1110373367
C  C229  1  0.20480000  0.68320000  0.26620000  1.0 -0.1303375863
C  C230  1  0.12860000  0.83850000  0.10760000  1.0 -0.1972399447
C  C231  1  0.30850000  0.64800000  0.79120000  1.0 -0.0802458792
C  C232  1  0.13720000  0.76720000  0.65940000  1.0 0.0182882588
C  C233  1  0.30220000  0.59540000  0.85110000  1.0 0.0609554009
C  C234  1  0.38320000  0.77560000  0.68050000  1.0 -0.1972399447
C  C235  1  0.17990000  0.70270000  0.72090000  1.0 0.1336606102
C  C236  1  0.11800000  0.80480000  0.62750000  1.0 0.0708991767
C  C237  1  0.26640000  0.62090000  0.81730000  1.0 0.0287259811
C  C238  1  0.20800000  0.76660000  0.67370000  1.0 -0.0538367546
C  C239  1  0.04500000  0.82900000  0.57240000  1.0 -0.1110373367
C  C240  1  0.07610000  0.87880000  0.57160000  1.0 -0.0374362447
C  C241  1  0.36370000  0.54340000  0.91600000  1.0 -0.0374362447
C  C242  1  0.10810000  0.69900000  0.70680000  1.0 -0.1722648923
C  C243  1  0.20770000  0.67240000  0.75430000  1.0 0.1190276752
C  C244  1  0.08820000  0.73130000  0.67640000  1.0 -0.1110373367
C  C245  1  0.39460000  0.51560000  0.95120000  1.0 0.6180316837
C  C246  1  0.46890000  0.74170000  0.77290000  1.0 0.1093553304
C  C247  1  0.06400000  0.78990000  0.60130000  1.0 -0.1722648923
C  C248  1  0.38980000  0.75540000  0.64290000  1.0 -0.0019082721
C  C249  1  0.29370000  0.53520000  0.90560000  1.0 -0.1215465904
C  C250  1  0.05090000  0.91990000  0.54210000  1.0 0.6496905939
C  C251  1  0.16380000  0.64330000  0.77890000  1.0 -0.1972399447
C  C252  1  0.12790000  0.89140000  0.59780000  1.0 -0.1007659409
C  C253  1  0.14920000  0.85610000  0.62610000  1.0 -0.1801188196
C  C254  1  0.19260000  0.61870000  0.81070000  1.0 -0.1110373367
C  C255  1  0.58010000  0.69860000  0.77660000  1.0 -0.0866562749
C  C256  1  0.26280000  0.56270000  0.87430000  1.0 -0.1722648923
C  C257  1  0.33250000  0.62280000  0.67670000  1.0 0.0526072809
C  C258  1  0.37160000  0.60510000  0.86130000  1.0 -0.1801188196
C  C259  1  0.49230000  0.67140000  0.72640000  1.0 -0.0019082721
C  C260  1  0.42090000  0.86340000  0.64850000  1.0 -0.1215465904
C  C261  1  0.56220000  0.66470000  0.74400000  1.0 -0.1801188196
C  C262  1  0.40150000  0.82900000  0.68430000  1.0 -0.1460234976
C  C263  1  0.42180000  0.83400000  0.61560000  1.0 -0.1110373367
C  C264  1  0.40690000  0.78260000  0.61070000  1.0 -0.1434479362
C  C265  1  0.53760000  0.73640000  0.78920000  1.0 -0.1636519718
C  C266  1  0.33720000  0.58610000  0.64720000  1.0 -0.1801188196
C  C267  1  0.41340000  0.78190000  0.78260000  1.0 -0.0059910227
C  C268  1  0.36910000  0.69420000  0.64180000  1.0 0.0526072809
C  C269  1  0.39770000  0.57820000  0.89550000  1.0 -0.1110373367
C  C270  1  0.29920000  0.85760000  0.79460000  1.0 -0.1303375863
C  C271  1  0.35460000  0.60470000  0.61340000  1.0 -0.0651176466
C  C272  1  0.42080000  0.82310000  0.81020000  1.0 -0.1722648923
C  C273  1  0.36390000  0.85990000  0.81650000  1.0 -0.1007659409
C  C274  1  0.34580000  0.77990000  0.76080000  1.0 -0.1110373367
C  C275  1  0.29520000  0.81680000  0.76620000  1.0 -0.1303375863
C  C276  1  0.37140000  0.66150000  0.60760000  1.0 -0.1972399447
C  C277  1  0.80850000  0.14800000  0.70880000  1.0 -0.0802458792
C  C278  1  0.63720000  0.26720000  0.84060000  1.0 0.0182882588
C  C279  1  0.80220000  0.09540000  0.64890000  1.0 0.0609554009
C  C280  1  0.88320000  0.27560000  0.81950000  1.0 -0.1972399447
C  C281  1  0.67990000  0.20270000  0.77910000  1.0 0.1336606102
C  C282  1  0.61800000  0.30480000  0.87250000  1.0 0.0708991767
C  C283  1  0.76640000  0.12090000  0.68270000  1.0 0.0287259811
C  C284  1  0.70800000  0.26660000  0.82630000  1.0 -0.0538367546
C  C285  1  0.54500000  0.32900000  0.92760000  1.0 -0.1110373367
C  C286  1  0.57610000  0.37880000  0.92840000  1.0 -0.0374362447
C  C287  1  0.86370000  0.04340000  0.58400000  1.0 -0.0374362447
C  C288  1  0.60810000  0.19900000  0.79320000  1.0 -0.1722648923
C  C289  1  0.70770000  0.17240000  0.74570000  1.0 0.1190276752
C  C290  1  0.58820000  0.23130000  0.82360000  1.0 -0.1110373367
C  C291  1  0.89460000  0.01560000  0.54880000  1.0 0.6180316837
C  C292  1  0.96890000  0.24170000  0.72710000  1.0 0.1190276752
C  C293  1  0.56400000  0.28990000  0.89870000  1.0 -0.1722648923
C  C294  1  0.88980000  0.25540000  0.85710000  1.0 -0.0019082721
C  C295  1  0.79370000  0.03520000  0.59440000  1.0 -0.1215465904
C  C296  1  0.55090000  0.41990000  0.95790000  1.0 0.6496905939
C  C297  1  0.66380000  0.14330000  0.72110000  1.0 -0.1972399447
C  C298  1  0.62790000  0.39140000  0.90220000  1.0 -0.1007659409
C  C299  1  0.64920000  0.35610000  0.87390000  1.0 -0.1801188196
C  C300  1  0.69260000  0.11870000  0.68930000  1.0 -0.1110373367
C  C301  1  0.08010000  0.19860000  0.72340000  1.0 -0.0866562749
C  C302  1  0.76280000  0.06270000  0.62570000  1.0 -0.1801188196
C  C303  1  0.83250000  0.12280000  0.82330000  1.0 0.0526072809
C  C304  1  0.87160000  0.10510000  0.63870000  1.0 -0.1801188196
C  C305  1  0.99230000  0.17140000  0.77360000  1.0 0.0025464642
C  C306  1  0.92090000  0.36340000  0.85150000  1.0 -0.1215465904
C  C307  1  0.06220000  0.16470000  0.75600000  1.0 -0.1801188196
C  C308  1  0.90150000  0.32900000  0.81570000  1.0 -0.1460234976
C  C309  1  0.92180000  0.33400000  0.88440000  1.0 -0.1110373367
C  C310  1  0.90690000  0.28260000  0.88930000  1.0 -0.1434479362
C  C311  1  0.03760000  0.23640000  0.71080000  1.0 -0.1636519718
C  C312  1  0.83720000  0.08610000  0.85280000  1.0 -0.1801188196
C  C313  1  0.91340000  0.28190000  0.71740000  1.0 -0.0019082721
C  C314  1  0.86910000  0.19420000  0.85820000  1.0 0.0609554009
C  C315  1  0.89770000  0.07820000  0.60450000  1.0 -0.1110373367
C  C316  1  0.79920000  0.35760000  0.70540000  1.0 -0.1303375863
C  C317  1  0.85460000  0.10470000  0.88660000  1.0 -0.0651176466
C  C318  1  0.92080000  0.32310000  0.68980000  1.0 -0.1722648923
C  C319  1  0.86390000  0.35990000  0.68350000  1.0 -0.1007659409
C  C320  1  0.84580000  0.27990000  0.73920000  1.0 -0.1110373367
C  C321  1  0.79520000  0.31680000  0.73380000  1.0 -0.1303375863
C  C322  1  0.87140000  0.16150000  0.89240000  1.0 -0.1972399447
C  C323  1  0.69150000  0.35200000  0.20880000  1.0 -0.0802458792
C  C324  1  0.86280000  0.23280000  0.34060000  1.0 0.0182882588
C  C325  1  0.69780000  0.40460000  0.14890000  1.0 0.0609554009
C  C326  1  0.61680000  0.22440000  0.31950000  1.0 -0.1943837895
C  C327  1  0.82010000  0.29730000  0.27910000  1.0 0.1336606102
C  C328  1  0.88200000  0.19520000  0.37250000  1.0 0.0708991767
C  C329  1  0.73360000  0.37910000  0.18270000  1.0 0.0287259811
C  C330  1  0.79200000  0.23340000  0.32630000  1.0 -0.0538367546
C  C331  1  0.95500000  0.17100000  0.42760000  1.0 -0.1110373367
C  C332  1  0.92390000  0.12120000  0.42840000  1.0 -0.0374362447
C  C333  1  0.63630000  0.45660000  0.08400000  1.0 -0.0374362447
C  C334  1  0.89190000  0.30100000  0.29320000  1.0 -0.1722648923
C  C335  1  0.79230000  0.32760000  0.24570000  1.0 0.1190276752
C  C336  1  0.91180000  0.26870000  0.32360000  1.0 -0.1110373367
C  C337  1  0.60540000  0.48440000  0.04880000  1.0 0.6180316837
C  C338  1  0.53110000  0.25830000  0.22710000  1.0 0.1093553304
C  C339  1  0.93600000  0.21010000  0.39870000  1.0 -0.1722648923
C  C340  1  0.61020000  0.24460000  0.35710000  1.0 -0.0019082721
C  C341  1  0.70630000  0.46480000  0.09440000  1.0 -0.1215465904
C  C342  1  0.94910000  0.08010000  0.45790000  1.0 0.6496905939
C  C343  1  0.83620000  0.35670000  0.22110000  1.0 -0.1972399447
C  C344  1  0.87210000  0.10860000  0.40220000  1.0 -0.1007659409
C  C345  1  0.85080000  0.14390000  0.37390000  1.0 -0.1801188196
C  C346  1  0.80740000  0.38130000  0.18930000  1.0 -0.1110373367
C  C347  1  0.41990000  0.30140000  0.22340000  1.0 -0.0866562749
C  C348  1  0.73720000  0.43730000  0.12570000  1.0 -0.1722648923
C  C349  1  0.66750000  0.37720000  0.32330000  1.0 0.0526072809
C  C350  1  0.62840000  0.39490000  0.13870000  1.0 -0.1801188196
C  C351  1  0.50770000  0.32860000  0.27360000  1.0 0.0025464642
C  C352  1  0.57910000  0.13660000  0.35150000  1.0 -0.1215465904
C  C353  1  0.43780000  0.33530000  0.25600000  1.0 -0.1801188196
C  C354  1  0.59850000  0.17100000  0.31570000  1.0 -0.1460234976
C  C355  1  0.57820000  0.16600000  0.38440000  1.0 -0.1110373367
C  C356  1  0.59310000  0.21740000  0.38930000  1.0 -0.1434479362
C  C357  1  0.46240000  0.26360000  0.21080000  1.0 -0.1636519718
C  C358  1  0.66280000  0.41390000  0.35280000  1.0 -0.1801188196
C  C359  1  0.58660000  0.21810000  0.21740000  1.0 -0.0059910227
C  C360  1  0.63090000  0.30580000  0.35820000  1.0 0.0609554009
C  C361  1  0.60230000  0.42180000  0.10450000  1.0 -0.1110373367
C  C362  1  0.70080000  0.14240000  0.20540000  1.0 -0.1303375863
C  C363  1  0.64540000  0.39530000  0.38660000  1.0 -0.0591030045
C  C364  1  0.57920000  0.17690000  0.18980000  1.0 -0.1722648923
C  C365  1  0.63610000  0.14010000  0.18350000  1.0 -0.1007659409
C  C366  1  0.65420000  0.22010000  0.23920000  1.0 -0.1110373367
C  C367  1  0.70480000  0.18320000  0.23380000  1.0 -0.1303375863
C  C368  1  0.62860000  0.33850000  0.39240000  1.0 -0.1972399447
N  N1  1  0.27040000  0.23510000  0.29610000  1.0 -0.2505103412
N  N2  1  0.21820000  0.17610000  0.24070000  1.0 -0.2628192562
N  N3  1  0.05420000  0.21020000  0.25890000  1.0 -0.2628192562
N  N4  1  0.14800000  0.16940000  0.32180000  1.0 -0.1801188196
N  N5  1  0.22960000  0.26490000  0.79610000  1.0 -0.2505103412
N  N6  1  0.28180000  0.32390000  0.74070000  1.0 -0.2657815262
N  N7  1  0.44580000  0.28980000  0.75890000  1.0 -0.2628192562
N  N8  1  0.35200000  0.33060000  0.82180000  1.0 -0.1801188196
N  N9  1  0.72960000  0.76490000  0.70390000  1.0 -0.2505103412
N  N10  1  0.78180000  0.82390000  0.75930000  1.0 -0.2628192562
N  N11  1  0.94580000  0.78980000  0.74110000  1.0 -0.2628192562
N  N12  1  0.85200000  0.83060000  0.67820000  1.0 -0.1722648923
N  N13  1  0.77040000  0.73510000  0.20390000  1.0 -0.2505103412
N  N14  1  0.71820000  0.67610000  0.25930000  1.0 -0.2628192562
N  N15  1  0.55420000  0.71020000  0.24110000  1.0 -0.2628192562
N  N16  1  0.64800000  0.66940000  0.17820000  1.0 -0.1722648923
N  N17  1  0.27040000  0.76490000  0.20390000  1.0 -0.2505103412
N  N18  1  0.21820000  0.82390000  0.25930000  1.0 -0.2628192562
N  N19  1  0.05420000  0.78980000  0.24110000  1.0 -0.2628192562
N  N20  1  0.14800000  0.83060000  0.17820000  1.0 -0.1722648923
N  N21  1  0.22960000  0.73510000  0.70390000  1.0 -0.2505103412
N  N22  1  0.28180000  0.67610000  0.75930000  1.0 -0.2628192562
N  N23  1  0.44580000  0.71020000  0.74110000  1.0 -0.2628192562
N  N24  1  0.35200000  0.66940000  0.67820000  1.0 -0.1722648923
N  N25  1  0.72960000  0.23510000  0.79610000  1.0 -0.2505103412
N  N26  1  0.78180000  0.17610000  0.74070000  1.0 -0.2657815262
N  N27  1  0.94580000  0.21020000  0.75890000  1.0 -0.2628192562
N  N28  1  0.85200000  0.16940000  0.82180000  1.0 -0.1801188196
N  N29  1  0.77040000  0.26490000  0.29610000  1.0 -0.2505103412
N  N30  1  0.71820000  0.32390000  0.24070000  1.0 -0.2628192562
N  N31  1  0.55420000  0.28980000  0.25890000  1.0 -0.2628192562
N  N32  1  0.64800000  0.33060000  0.32180000  1.0 -0.1801188196
O  O1  1  0.40780000  0.46180000  0.46070000  1.0 -0.7027616544
O  O2  1  0.13980000  0.98380000  0.03080000  1.0 -0.5562032505
O  O3  1  0.50660000  0.40820000  0.47600000  1.0 -0.664268647
O  O4  1  0.03530000  0.02720000  0.04150000  1.0 -0.7929221733
O  O5  1  0.09220000  0.03820000  0.96070000  1.0 -0.7027616544
O  O6  1  0.36020000  0.51620000  0.53080000  1.0 -0.5562032505
O  O7  1  0.99340000  0.09180000  0.97600000  1.0 -0.664268647
O  O8  1  0.46470000  0.47280000  0.54150000  1.0 -0.7929221733
O  O9  1  0.59220000  0.53820000  0.53930000  1.0 -0.7027616544
O  O10  1  0.86020000  0.01620000  0.96920000  1.0 -0.5562032505
O  O11  1  0.49340000  0.59180000  0.52400000  1.0 -0.6650914295
O  O12  1  0.96470000  0.97280000  0.95850000  1.0 -0.7929221733
O  O13  1  0.90780000  0.96180000  0.03930000  1.0 -0.7027616544
O  O14  1  0.63980000  0.48380000  0.46920000  1.0 -0.5562032505
O  O15  1  0.00660000  0.90820000  0.02400000  1.0 -0.6650914295
O  O16  1  0.53530000  0.52720000  0.45850000  1.0 -0.7929221733
O  O17  1  0.40780000  0.53820000  0.03930000  1.0 -0.7027616544
O  O18  1  0.13980000  0.01620000  0.46920000  1.0 -0.5562032505
O  O19  1  0.50660000  0.59180000  0.02400000  1.0 -0.664268647
O  O20  1  0.03530000  0.97280000  0.45850000  1.0 -0.7929221733
O  O21  1  0.09220000  0.96180000  0.53930000  1.0 -0.7027616544
O  O22  1  0.36020000  0.48380000  0.96920000  1.0 -0.5562032505
O  O23  1  0.99340000  0.90820000  0.52400000  1.0 -0.6650914295
O  O24  1  0.46470000  0.52720000  0.95850000  1.0 -0.7929221733
O  O25  1  0.59220000  0.46180000  0.96070000  1.0 -0.7027616544
O  O26  1  0.86020000  0.98380000  0.53080000  1.0 -0.5562032505
O  O27  1  0.49340000  0.40820000  0.97600000  1.0 -0.6650914295
O  O28  1  0.96470000  0.02720000  0.54150000  1.0 -0.7929221733
O  O29  1  0.90780000  0.03820000  0.46070000  1.0 -0.7027616544
O  O30  1  0.63980000  0.51620000  0.03080000  1.0 -0.5562032505
O  O31  1  0.00660000  0.09180000  0.47600000  1.0 -0.664268647
O  O32  1  0.53530000  0.47280000  0.04150000  1.0 -0.7929221733
