# DDEC6 charges by PACMAN v1.1 (https://github.com/mtap-research/PACMAN-charge/)
data_VASQOZ_ASR_pacman
_symmetry_space_group_name_H-M   'P 1'
_cell_length_a   17.96220000
_cell_length_b   24.40370000
_cell_length_c   34.82210000
_cell_angle_alpha   90.00000000
_cell_angle_beta   90.00000000
_cell_angle_gamma   90.00000000
_symmetry_Int_Tables_number   1
_chemical_formula_structural   DyH30IrC46(NO)4
_chemical_formula_sum   'Dy8 H240 Ir8 C368 N32 O32'
_cell_volume   15264.06348237
_cell_formula_units_Z   8
loop_
 _symmetry_equiv_pos_site_id
 _symmetry_equiv_pos_as_xyz
  1  'x, y, z'
loop_
 _atom_site_type_symbol
 _atom_site_label
 _atom_site_symmetry_multiplicity
 _atom_site_fract_x
 _atom_site_fract_y
 _atom_site_fract_z
 _atom_site_occupancy
 _atom_site_charge
Dy  Dy1  1  0.91565000  0.94652000  0.47698000  1.0 2.0585549012
Dy  Dy2  1  0.58435000  0.55348000  0.97698000  1.0 2.0585549012
Dy  Dy3  1  0.08435000  0.05348000  0.52302000  1.0 2.0585549012
Dy  Dy4  1  0.41565000  0.44652000  0.02302000  1.0 2.0585549012
Dy  Dy5  1  0.91565000  0.05348000  0.02302000  1.0 2.0585549012
Dy  Dy6  1  0.58435000  0.44652000  0.52302000  1.0 2.0585549012
Dy  Dy7  1  0.08435000  0.94652000  0.97698000  1.0 2.0585549012
Dy  Dy8  1  0.41565000  0.55348000  0.47698000  1.0 2.0585549012
H  H1  1  0.25308000  0.81851000  0.75227000  1.0 0.1001230254
H  H2  1  0.25980000  0.88610000  0.80009000  1.0 0.1094570154
H  H3  1  0.37232000  0.89269000  0.83333000  1.0 0.1001230254
H  H4  1  0.46147000  0.82524000  0.82816000  1.0 0.1094570154
H  H5  1  0.55897000  0.75796000  0.80882000  1.0 0.1192640873
H  H6  1  0.62926000  0.68587000  0.78756000  1.0 0.1094570154
H  H7  1  0.59523000  0.63480000  0.73575000  1.0 0.1192640873
H  H8  1  0.48217000  0.65025000  0.70478000  1.0 0.1001230254
H  H9  1  0.31439000  0.60664000  0.70097000  1.0 0.1001230254
H  H10  1  0.33264000  0.54603000  0.64978000  1.0 0.1192640873
H  H11  1  0.37048000  0.58305000  0.59189000  1.0 0.1192640873
H  H12  1  0.38058000  0.67703000  0.58434000  1.0 0.1192640873
H  H13  1  0.40906000  0.76970000  0.58594000  1.0 0.1094570154
H  H14  1  0.43968000  0.85844000  0.59300000  1.0 0.1094570154
H  H15  1  0.43109000  0.90148000  0.65190000  1.0 0.1094570154
H  H16  1  0.40372000  0.84838000  0.70639000  1.0 0.1094570154
H  H17  1  0.45413000  0.57947000  0.89861000  1.0 0.1094570154
H  H18  1  0.40253000  0.62827000  0.84502000  1.0 0.1094570154
H  H19  1  0.21339000  0.55811000  0.86856000  1.0 0.1001230254
H  H20  1  0.26572000  0.51201000  0.92109000  1.0 0.1192640873
H  H21  1  0.36338000  0.64844000  0.79304000  1.0 0.1001230254
H  H22  1  0.11402000  0.64072000  0.77253000  1.0 0.1192640873
H  H23  1  0.16196000  0.60453000  0.82764000  1.0 0.1094570154
H  H24  1  0.24651000  0.78750000  0.66037000  1.0 0.1001230254
H  H25  1  0.04256000  0.72758000  0.66594000  1.0 0.1094570154
H  H26  1  0.07674000  0.67276000  0.71655000  1.0 0.1192640873
H  H27  1  0.17750000  0.86691000  0.64684000  1.0 0.1094570154
H  H28  1  0.15312000  0.92845000  0.59482000  1.0 0.1192640873
H  H29  1  0.01082000  0.81644000  0.55285000  1.0 0.1094570154
H  H30  1  0.04517000  0.75597000  0.60237000  1.0 0.1001230254
H  H31  1  0.24692000  0.68149000  0.25227000  1.0 0.1001230254
H  H32  1  0.24020000  0.61390000  0.30009000  1.0 0.1094570154
H  H33  1  0.12768000  0.60731000  0.33333333  1.0 0.1001230254
H  H34  1  0.03853000  0.67476000  0.32816000  1.0 0.1094570154
H  H35  1  0.94103000  0.74204000  0.30882000  1.0 0.1192640873
H  H36  1  0.87074000  0.81413000  0.28756000  1.0 0.1094570154
H  H37  1  0.90477000  0.86520000  0.23575000  1.0 0.1192640873
H  H38  1  0.01783000  0.84975000  0.20478000  1.0 0.1001230254
H  H39  1  0.18561000  0.89336000  0.20097000  1.0 0.1001230254
H  H40  1  0.16736000  0.95397000  0.14978000  1.0 0.1192640873
H  H41  1  0.12952000  0.91695000  0.09189000  1.0 0.1192640873
H  H42  1  0.11942000  0.82297000  0.08434000  1.0 0.1192640873
H  H43  1  0.09094000  0.73030000  0.08594000  1.0 0.1094570154
H  H44  1  0.06032000  0.64156000  0.09300000  1.0 0.1094570154
H  H45  1  0.06891000  0.59852000  0.15190000  1.0 0.1094570154
H  H46  1  0.09628000  0.65162000  0.20639000  1.0 0.1094570154
H  H47  1  0.04587000  0.92053000  0.39861000  1.0 0.1094570154
H  H48  1  0.09747000  0.87173000  0.34502000  1.0 0.1094570154
H  H49  1  0.28661000  0.94189000  0.36856000  1.0 0.1001230254
H  H50  1  0.23428000  0.98799000  0.42109000  1.0 0.1192640873
H  H51  1  0.13662000  0.85156000  0.29304000  1.0 0.1001230254
H  H52  1  0.38598000  0.85928000  0.27253000  1.0 0.1192640873
H  H53  1  0.33804000  0.89547000  0.32764000  1.0 0.1094570154
H  H54  1  0.25349000  0.71250000  0.16037000  1.0 0.1001230254
H  H55  1  0.45744000  0.77242000  0.16594000  1.0 0.1094570154
H  H56  1  0.42326000  0.82724000  0.21655000  1.0 0.1192640873
H  H57  1  0.32250000  0.63309000  0.14684000  1.0 0.1094570154
H  H58  1  0.34688000  0.57155000  0.09482000  1.0 0.1192640873
H  H59  1  0.48918000  0.68356000  0.05285000  1.0 0.1094570154
H  H60  1  0.45483000  0.74403000  0.10237000  1.0 0.1001230254
H  H61  1  0.74692000  0.18149000  0.24773000  1.0 0.1001230254
H  H62  1  0.74020000  0.11390000  0.19991000  1.0 0.1094570154
H  H63  1  0.62768000  0.10731000  0.16667000  1.0 0.1001230254
H  H64  1  0.53853000  0.17476000  0.17184000  1.0 0.1094570154
H  H65  1  0.44103000  0.24204000  0.19118000  1.0 0.1192640873
H  H66  1  0.37074000  0.31413000  0.21244000  1.0 0.1094570154
H  H67  1  0.40477000  0.36520000  0.26425000  1.0 0.1192640873
H  H68  1  0.51783000  0.34975000  0.29522000  1.0 0.1001230254
H  H69  1  0.68561000  0.39336000  0.29903000  1.0 0.1001230254
H  H70  1  0.66736000  0.45397000  0.35022000  1.0 0.1192640873
H  H71  1  0.62952000  0.41695000  0.40811000  1.0 0.1192640873
H  H72  1  0.61942000  0.32297000  0.41566000  1.0 0.1192640873
H  H73  1  0.59094000  0.23030000  0.41406000  1.0 0.1094570154
H  H74  1  0.56032000  0.14156000  0.40700000  1.0 0.1094570154
H  H75  1  0.56891000  0.09852000  0.34810000  1.0 0.1094570154
H  H76  1  0.59628000  0.15162000  0.29361000  1.0 0.1094570154
H  H77  1  0.54587000  0.42053000  0.10139000  1.0 0.1094570154
H  H78  1  0.59747000  0.37173000  0.15498000  1.0 0.1094570154
H  H79  1  0.78661000  0.44189000  0.13144000  1.0 0.1001230254
H  H80  1  0.73428000  0.48799000  0.07891000  1.0 0.1192640873
H  H81  1  0.63662000  0.35156000  0.20696000  1.0 0.1001230254
H  H82  1  0.88598000  0.35928000  0.22747000  1.0 0.1192640873
H  H83  1  0.83804000  0.39547000  0.17236000  1.0 0.1094570154
H  H84  1  0.75349000  0.21250000  0.33963000  1.0 0.1001230254
H  H85  1  0.95744000  0.27242000  0.33406000  1.0 0.1094570154
H  H86  1  0.92326000  0.32724000  0.28345000  1.0 0.1192640873
H  H87  1  0.82250000  0.13309000  0.35316000  1.0 0.1094570154
H  H88  1  0.84688000  0.07155000  0.40518000  1.0 0.1192640873
H  H89  1  0.98918000  0.18356000  0.44715000  1.0 0.1094570154
H  H90  1  0.95483000  0.24403000  0.39763000  1.0 0.1001230254
H  H91  1  0.75308000  0.31851000  0.74773000  1.0 0.1001230254
H  H92  1  0.75980000  0.38610000  0.69991000  1.0 0.1094570154
H  H93  1  0.87232000  0.39269000  0.66666667  1.0 0.1001230254
H  H94  1  0.96147000  0.32524000  0.67184000  1.0 0.1094570154
H  H95  1  0.05897000  0.25796000  0.69118000  1.0 0.1192640873
H  H96  1  0.12926000  0.18587000  0.71244000  1.0 0.1094570154
H  H97  1  0.09523000  0.13480000  0.76425000  1.0 0.1192640873
H  H98  1  0.98217000  0.15025000  0.79522000  1.0 0.1001230254
H  H99  1  0.81439000  0.10664000  0.79903000  1.0 0.1001230254
H  H100  1  0.83264000  0.04603000  0.85022000  1.0 0.1192640873
H  H101  1  0.87048000  0.08305000  0.90811000  1.0 0.1192640873
H  H102  1  0.88058000  0.17703000  0.91566000  1.0 0.1192640873
H  H103  1  0.90906000  0.26970000  0.91406000  1.0 0.1094570154
H  H104  1  0.93968000  0.35844000  0.90700000  1.0 0.1001230254
H  H105  1  0.93109000  0.40148000  0.84810000  1.0 0.1094570154
H  H106  1  0.90372000  0.34838000  0.79361000  1.0 0.1094570154
H  H107  1  0.95413000  0.07947000  0.60139000  1.0 0.1094570154
H  H108  1  0.90253000  0.12827000  0.65498000  1.0 0.1094570154
H  H109  1  0.71339000  0.05811000  0.63144000  1.0 0.1001230254
H  H110  1  0.76572000  0.01201000  0.57891000  1.0 0.1192640873
H  H111  1  0.86338000  0.14844000  0.70696000  1.0 0.1001230254
H  H112  1  0.61402000  0.14072000  0.72747000  1.0 0.1192640873
H  H113  1  0.66196000  0.10453000  0.67236000  1.0 0.1094570154
H  H114  1  0.74651000  0.28750000  0.83963000  1.0 0.1001230254
H  H115  1  0.54256000  0.22758000  0.83406000  1.0 0.1094570154
H  H116  1  0.57674000  0.17276000  0.78345000  1.0 0.1192640873
H  H117  1  0.67750000  0.36691000  0.85316000  1.0 0.1094570154
H  H118  1  0.65312000  0.42845000  0.90518000  1.0 0.1192640873
H  H119  1  0.51082000  0.31644000  0.94715000  1.0 0.1094570154
H  H120  1  0.54517000  0.25597000  0.89763000  1.0 0.1001230254
H  H121  1  0.25308000  0.18149000  0.74773000  1.0 0.1001230254
H  H122  1  0.25980000  0.11390000  0.69991000  1.0 0.1094570154
H  H123  1  0.37232000  0.10731000  0.66666667  1.0 0.1001230254
H  H124  1  0.46147000  0.17476000  0.67184000  1.0 0.1094570154
H  H125  1  0.55897000  0.24204000  0.69118000  1.0 0.1192640873
H  H126  1  0.62926000  0.31413000  0.71244000  1.0 0.1094570154
H  H127  1  0.59523000  0.36520000  0.76425000  1.0 0.1192640873
H  H128  1  0.48217000  0.34975000  0.79522000  1.0 0.1001230254
H  H129  1  0.31439000  0.39336000  0.79903000  1.0 0.1001230254
H  H130  1  0.33264000  0.45397000  0.85022000  1.0 0.1192640873
H  H131  1  0.37048000  0.41695000  0.90811000  1.0 0.1192640873
H  H132  1  0.38058000  0.32297000  0.91566000  1.0 0.1192640873
H  H133  1  0.40906000  0.23030000  0.91406000  1.0 0.1094570154
H  H134  1  0.43968000  0.14156000  0.90700000  1.0 0.1094570154
H  H135  1  0.43109000  0.09852000  0.84810000  1.0 0.1094570154
H  H136  1  0.40372000  0.15162000  0.79361000  1.0 0.1094570154
H  H137  1  0.45413000  0.42053000  0.60139000  1.0 0.1094570154
H  H138  1  0.40253000  0.37173000  0.65498000  1.0 0.1094570154
H  H139  1  0.21339000  0.44189000  0.63144000  1.0 0.1001230254
H  H140  1  0.26572000  0.48799000  0.57891000  1.0 0.1192640873
H  H141  1  0.36338000  0.35156000  0.70696000  1.0 0.1001230254
H  H142  1  0.11402000  0.35928000  0.72747000  1.0 0.1192640873
H  H143  1  0.16196000  0.39547000  0.67236000  1.0 0.1094570154
H  H144  1  0.24651000  0.21250000  0.83963000  1.0 0.1001230254
H  H145  1  0.04256000  0.27242000  0.83406000  1.0 0.1094570154
H  H146  1  0.07674000  0.32724000  0.78345000  1.0 0.1192640873
H  H147  1  0.17750000  0.13309000  0.85316000  1.0 0.1094570154
H  H148  1  0.15312000  0.07155000  0.90518000  1.0 0.1192640873
H  H149  1  0.01082000  0.18356000  0.94715000  1.0 0.1094570154
H  H150  1  0.04517000  0.24403000  0.89763000  1.0 0.1001230254
H  H151  1  0.24692000  0.31851000  0.24773000  1.0 0.1001230254
H  H152  1  0.24020000  0.38610000  0.19991000  1.0 0.1094570154
H  H153  1  0.12768000  0.39269000  0.16667000  1.0 0.1001230254
H  H154  1  0.03853000  0.32524000  0.17184000  1.0 0.1094570154
H  H155  1  0.94103000  0.25796000  0.19118000  1.0 0.1192640873
H  H156  1  0.87074000  0.18587000  0.21244000  1.0 0.1094570154
H  H157  1  0.90477000  0.13480000  0.26425000  1.0 0.1192640873
H  H158  1  0.01783000  0.15025000  0.29522000  1.0 0.1001230254
H  H159  1  0.18561000  0.10664000  0.29903000  1.0 0.1001230254
H  H160  1  0.16736000  0.04603000  0.35022000  1.0 0.1192640873
H  H161  1  0.12952000  0.08305000  0.40811000  1.0 0.1192640873
H  H162  1  0.11942000  0.17703000  0.41566000  1.0 0.1192640873
H  H163  1  0.09094000  0.26970000  0.41406000  1.0 0.1094570154
H  H164  1  0.06032000  0.35844000  0.40700000  1.0 0.1001230254
H  H165  1  0.06891000  0.40148000  0.34810000  1.0 0.1192640873
H  H166  1  0.09628000  0.34838000  0.29361000  1.0 0.1094570154
H  H167  1  0.04587000  0.07947000  0.10139000  1.0 0.1094570154
H  H168  1  0.09747000  0.12827000  0.15498000  1.0 0.1094570154
H  H169  1  0.28661000  0.05811000  0.13144000  1.0 0.1001230254
H  H170  1  0.23428000  0.01201000  0.07891000  1.0 0.1192640873
H  H171  1  0.13662000  0.14844000  0.20696000  1.0 0.1001230254
H  H172  1  0.38598000  0.14072000  0.22747000  1.0 0.1192640873
H  H173  1  0.33804000  0.10453000  0.17236000  1.0 0.1094570154
H  H174  1  0.25349000  0.28750000  0.33963000  1.0 0.1001230254
H  H175  1  0.45744000  0.22758000  0.33406000  1.0 0.1094570154
H  H176  1  0.42326000  0.17276000  0.28345000  1.0 0.1192640873
H  H177  1  0.32250000  0.36691000  0.35316000  1.0 0.1094570154
H  H178  1  0.34688000  0.42845000  0.40518000  1.0 0.1192640873
H  H179  1  0.48918000  0.31644000  0.44715000  1.0 0.1094570154
H  H180  1  0.45483000  0.25597000  0.39763000  1.0 0.1001230254
H  H181  1  0.74692000  0.81851000  0.25227000  1.0 0.1001230254
H  H182  1  0.74020000  0.88610000  0.30009000  1.0 0.1094570154
H  H183  1  0.62768000  0.89269000  0.33333333  1.0 0.1001230254
H  H184  1  0.53853000  0.82524000  0.32816000  1.0 0.1094570154
H  H185  1  0.44103000  0.75796000  0.30882000  1.0 0.1192640873
H  H186  1  0.37074000  0.68587000  0.28756000  1.0 0.1094570154
H  H187  1  0.40477000  0.63480000  0.23575000  1.0 0.1192640873
H  H188  1  0.51783000  0.65025000  0.20478000  1.0 0.1001230254
H  H189  1  0.68561000  0.60664000  0.20097000  1.0 0.1001230254
H  H190  1  0.66736000  0.54603000  0.14978000  1.0 0.1192640873
H  H191  1  0.62952000  0.58305000  0.09189000  1.0 0.1192640873
H  H192  1  0.61942000  0.67703000  0.08434000  1.0 0.1192640873
H  H193  1  0.59094000  0.76970000  0.08594000  1.0 0.1094570154
H  H194  1  0.56032000  0.85844000  0.09300000  1.0 0.1094570154
H  H195  1  0.56891000  0.90148000  0.15190000  1.0 0.1094570154
H  H196  1  0.59628000  0.84838000  0.20639000  1.0 0.1094570154
H  H197  1  0.54587000  0.57947000  0.39861000  1.0 0.1094570154
H  H198  1  0.59747000  0.62827000  0.34502000  1.0 0.1094570154
H  H199  1  0.78661000  0.55811000  0.36856000  1.0 0.1001230254
H  H200  1  0.73428000  0.51201000  0.42109000  1.0 0.1192640873
H  H201  1  0.63662000  0.64844000  0.29304000  1.0 0.1001230254
H  H202  1  0.88598000  0.64072000  0.27253000  1.0 0.1192640873
H  H203  1  0.83804000  0.60453000  0.32764000  1.0 0.1094570154
H  H204  1  0.75349000  0.78750000  0.16037000  1.0 0.1001230254
H  H205  1  0.95744000  0.72758000  0.16594000  1.0 0.1094570154
H  H206  1  0.92326000  0.67276000  0.21655000  1.0 0.1192640873
H  H207  1  0.82250000  0.86691000  0.14684000  1.0 0.1094570154
H  H208  1  0.84688000  0.92845000  0.09482000  1.0 0.1192640873
H  H209  1  0.98918000  0.81644000  0.05285000  1.0 0.1094570154
H  H210  1  0.95483000  0.75597000  0.10237000  1.0 0.1001230254
H  H211  1  0.75308000  0.68149000  0.75227000  1.0 0.1001230254
H  H212  1  0.75980000  0.61390000  0.80009000  1.0 0.1094570154
H  H213  1  0.87232000  0.60731000  0.83333000  1.0 0.1001230254
H  H214  1  0.96147000  0.67476000  0.82816000  1.0 0.1094570154
H  H215  1  0.05897000  0.74204000  0.80882000  1.0 0.1192640873
H  H216  1  0.12926000  0.81413000  0.78756000  1.0 0.1094570154
H  H217  1  0.09523000  0.86520000  0.73575000  1.0 0.1192640873
H  H218  1  0.98217000  0.84975000  0.70478000  1.0 0.1001230254
H  H219  1  0.81439000  0.89336000  0.70097000  1.0 0.1001230254
H  H220  1  0.83264000  0.95397000  0.64978000  1.0 0.1192640873
H  H221  1  0.87048000  0.91695000  0.59189000  1.0 0.1192640873
H  H222  1  0.88058000  0.82297000  0.58434000  1.0 0.1192640873
H  H223  1  0.90906000  0.73030000  0.58594000  1.0 0.1094570154
H  H224  1  0.93968000  0.64156000  0.59300000  1.0 0.1094570154
H  H225  1  0.93109000  0.59852000  0.65190000  1.0 0.1094570154
H  H226  1  0.90372000  0.65162000  0.70639000  1.0 0.1094570154
H  H227  1  0.95413000  0.92053000  0.89861000  1.0 0.1094570154
H  H228  1  0.90253000  0.87173000  0.84502000  1.0 0.1094570154
H  H229  1  0.71339000  0.94189000  0.86856000  1.0 0.1001230254
H  H230  1  0.76572000  0.98799000  0.92109000  1.0 0.1192640873
H  H231  1  0.86338000  0.85156000  0.79304000  1.0 0.1001230254
H  H232  1  0.61402000  0.85928000  0.77253000  1.0 0.1192640873
H  H233  1  0.66196000  0.89547000  0.82764000  1.0 0.1094570154
H  H234  1  0.74651000  0.71250000  0.66037000  1.0 0.1001230254
H  H235  1  0.54256000  0.77242000  0.66594000  1.0 0.1094570154
H  H236  1  0.57674000  0.82724000  0.71655000  1.0 0.1192640873
H  H237  1  0.67750000  0.63309000  0.64684000  1.0 0.1094570154
H  H238  1  0.65312000  0.57155000  0.59482000  1.0 0.1192640873
H  H239  1  0.51082000  0.68356000  0.55285000  1.0 0.1094570154
H  H240  1  0.54517000  0.74403000  0.60237000  1.0 0.1001230254
Ir  Ir1  1  0.34462000  0.72680000  0.72041000  1.0 0.5915714438
Ir  Ir2  1  0.15538000  0.77320000  0.22041000  1.0 0.5915714438
Ir  Ir3  1  0.65538000  0.27320000  0.27959000  1.0 0.5915714438
Ir  Ir4  1  0.84462000  0.22680000  0.77959000  1.0 0.5950956777
Ir  Ir5  1  0.34462000  0.27320000  0.77959000  1.0 0.5915714438
Ir  Ir6  1  0.15538000  0.22680000  0.27959000  1.0 0.5950956777
Ir  Ir7  1  0.65538000  0.72680000  0.22041000  1.0 0.5915714438
Ir  Ir8  1  0.84462000  0.77320000  0.72041000  1.0 0.5915714438
C  C1  1  0.38590000  0.77740000  0.67900000  1.0 -0.1913185311
C  C2  1  0.34810000  0.78300000  0.75990000  1.0 -0.1480561258
C  C3  1  0.29590000  0.82010000  0.76720000  1.0 -0.1433554511
C  C4  1  0.29900000  0.86200000  0.79570000  1.0 -0.1321190591
C  C5  1  0.36490000  0.86410000  0.81610000  1.0 -0.1103930041
C  C6  1  0.42060000  0.82490000  0.81180000  1.0 -0.1692955999
C  C7  1  0.41560000  0.78510000  0.78300000  1.0 -0.0021082757
C  C8  1  0.47150000  0.74380000  0.77290000  1.0 0.1363107994
C  C9  1  0.54170000  0.73550000  0.78920000  1.0 -0.1996572601
C  C10  1  0.58430000  0.69360000  0.77540000  1.0 -0.0842526123
C  C11  1  0.56360000  0.66230000  0.74450000  1.0 -0.1692955999
C  C12  1  0.49600000  0.67110000  0.72600000  1.0 -0.0214825656
C  C13  1  0.33490000  0.61980000  0.67830000  1.0 0.0662285317
C  C14  1  0.34180000  0.58340000  0.64720000  1.0 -0.1784533862
C  C15  1  0.36260000  0.60590000  0.61290000  1.0 -0.0492315693
C  C16  1  0.37250000  0.66200000  0.60850000  1.0 -0.1784533862
C  C17  1  0.37000000  0.69500000  0.64070000  1.0 0.1192640873
C  C18  1  0.39090000  0.75460000  0.64260000  1.0 0.0115076904
C  C19  1  0.40880000  0.78570000  0.61020000  1.0 -0.1618166134
C  C20  1  0.42530000  0.83830000  0.61440000  1.0 -0.100772205
C  C21  1  0.42180000  0.86410000  0.64960000  1.0 -0.1103930041
C  C22  1  0.40360000  0.83210000  0.68220000  1.0 -0.1480561258
C  C23  1  0.39950000  0.51790000  0.95120000  1.0 0.6388609991
C  C24  1  0.36460000  0.54530000  0.91610000  1.0 -0.0214825656
C  C25  1  0.40360000  0.57560000  0.89340000  1.0 -0.1103930041
C  C26  1  0.37320000  0.60470000  0.85960000  1.0 -0.1784533862
C  C27  1  0.30360000  0.59590000  0.85110000  1.0 0.0600282116
C  C28  1  0.26360000  0.56330000  0.87410000  1.0 -0.1784533862
C  C29  1  0.29460000  0.53600000  0.90670000  1.0 -0.1189196401
C  C30  1  0.27040000  0.62320000  0.81710000  1.0 0.0199809051
C  C31  1  0.31190000  0.64920000  0.79030000  1.0 -0.0417908885
C  C32  1  0.21020000  0.67320000  0.75260000  1.0 0.1192640873
C  C33  1  0.16450000  0.64430000  0.77780000  1.0 -0.1913185311
C  C34  1  0.19340000  0.62150000  0.81000000  1.0 -0.1103930041
C  C35  1  0.18120000  0.70510000  0.72030000  1.0 0.1363107994
C  C36  1  0.21050000  0.76650000  0.67270000  1.0 -0.0492315693
C  C37  1  0.13850000  0.76860000  0.65880000  1.0 0.0199809051
C  C38  1  0.09050000  0.73080000  0.67580000  1.0 -0.1189196401
C  C39  1  0.10960000  0.69810000  0.70610000  1.0 -0.1784533862
C  C40  1  0.11830000  0.80400000  0.62680000  1.0 0.0662285317
C  C41  1  0.14660000  0.85600000  0.62680000  1.0 -0.1996572601
C  C42  1  0.12970000  0.89460000  0.59660000  1.0 -0.100772205
C  C43  1  0.07630000  0.87770000  0.57030000  1.0 -0.0305384221
C  C44  1  0.04550000  0.82700000  0.57130000  1.0 -0.100772205
C  C45  1  0.06730000  0.79040000  0.60100000  1.0 -0.1692955999
C  C46  1  0.04930000  0.92010000  0.54100000  1.0 0.650780952
C  C47  1  0.11410000  0.72260000  0.17900000  1.0 -0.1913185311
C  C48  1  0.15190000  0.71700000  0.25990000  1.0 -0.1480561258
C  C49  1  0.20410000  0.67990000  0.26720000  1.0 -0.1433554511
C  C50  1  0.20100000  0.63800000  0.29570000  1.0 -0.1321190591
C  C51  1  0.13510000  0.63590000  0.31610000  1.0 -0.1103930041
C  C52  1  0.07940000  0.67510000  0.31180000  1.0 -0.1692955999
C  C53  1  0.08440000  0.71490000  0.28300000  1.0 -0.0021082757
C  C54  1  0.02850000  0.75620000  0.27290000  1.0 0.1363107994
C  C55  1  0.95830000  0.76450000  0.28920000  1.0 -0.1996572601
C  C56  1  0.91570000  0.80640000  0.27540000  1.0 -0.0842526123
C  C57  1  0.93640000  0.83770000  0.24450000  1.0 -0.1692955999
C  C58  1  0.00400000  0.82890000  0.22600000  1.0 -0.0214825656
C  C59  1  0.16510000  0.88020000  0.17830000  1.0 0.0662285317
C  C60  1  0.15820000  0.91660000  0.14720000  1.0 -0.1784533862
C  C61  1  0.13740000  0.89410000  0.11290000  1.0 -0.0492315693
C  C62  1  0.12750000  0.83800000  0.10850000  1.0 -0.1784533862
C  C63  1  0.13000000  0.80500000  0.14070000  1.0 0.1192640873
C  C64  1  0.10910000  0.74540000  0.14260000  1.0 0.0115076904
C  C65  1  0.09120000  0.71430000  0.11020000  1.0 -0.1618166134
C  C66  1  0.07470000  0.66170000  0.11440000  1.0 -0.100772205
C  C67  1  0.07820000  0.63590000  0.14960000  1.0 -0.1103930041
C  C68  1  0.09640000  0.66790000  0.18220000  1.0 -0.1480561258
C  C69  1  0.10050000  0.98210000  0.45120000  1.0 0.6388609991
C  C70  1  0.13540000  0.95470000  0.41610000  1.0 -0.0305384221
C  C71  1  0.09640000  0.92440000  0.39340000  1.0 -0.1103930041
C  C72  1  0.12680000  0.89530000  0.35960000  1.0 -0.1784533862
C  C73  1  0.19640000  0.90410000  0.35110000  1.0 0.0600282116
C  C74  1  0.23640000  0.93670000  0.37410000  1.0 -0.1784533862
C  C75  1  0.20540000  0.96400000  0.40670000  1.0 -0.1189196401
C  C76  1  0.22960000  0.87680000  0.31710000  1.0 0.0199809051
C  C77  1  0.18810000  0.85080000  0.29030000  1.0 -0.0417908885
C  C78  1  0.28980000  0.82680000  0.25260000  1.0 0.1192640873
C  C79  1  0.33550000  0.85570000  0.27780000  1.0 -0.1913185311
C  C80  1  0.30660000  0.87850000  0.31000000  1.0 -0.1103930041
C  C81  1  0.31880000  0.79490000  0.22030000  1.0 0.1363107994
C  C82  1  0.28950000  0.73350000  0.17270000  1.0 -0.055831404
C  C83  1  0.36150000  0.73140000  0.15880000  1.0 0.0199809051
C  C84  1  0.40950000  0.76920000  0.17580000  1.0 -0.1189196401
C  C85  1  0.39040000  0.80190000  0.20610000  1.0 -0.1784533862
C  C86  1  0.38170000  0.69600000  0.12680000  1.0 0.0662285317
C  C87  1  0.35340000  0.64400000  0.12680000  1.0 -0.1996572601
C  C88  1  0.37030000  0.60540000  0.09660000  1.0 -0.100772205
C  C89  1  0.42370000  0.62230000  0.07030000  1.0 -0.0305384221
C  C90  1  0.45450000  0.67300000  0.07130000  1.0 -0.100772205
C  C91  1  0.43270000  0.70960000  0.10100000  1.0 -0.1692955999
C  C92  1  0.45070000  0.57990000  0.04100000  1.0 0.650780952
C  C93  1  0.61410000  0.22260000  0.32100000  1.0 -0.1913185311
C  C94  1  0.65190000  0.21700000  0.24010000  1.0 -0.1480561258
C  C95  1  0.70410000  0.17990000  0.23280000  1.0 -0.1433554511
C  C96  1  0.70100000  0.13800000  0.20430000  1.0 -0.1321190591
C  C97  1  0.63510000  0.13590000  0.18390000  1.0 -0.1103930041
C  C98  1  0.57940000  0.17510000  0.18820000  1.0 -0.1692955999
C  C99  1  0.58440000  0.21490000  0.21700000  1.0 -0.0021082757
C  C100  1  0.52850000  0.25620000  0.22710000  1.0 0.1363107994
C  C101  1  0.45830000  0.26450000  0.21080000  1.0 -0.1996572601
C  C102  1  0.41570000  0.30640000  0.22460000  1.0 -0.0842526123
C  C103  1  0.43640000  0.33770000  0.25550000  1.0 -0.1692955999
C  C104  1  0.50400000  0.32890000  0.27400000  1.0 -0.0214825656
C  C105  1  0.66510000  0.38020000  0.32170000  1.0 0.0662285317
C  C106  1  0.65820000  0.41660000  0.35280000  1.0 -0.1784533862
C  C107  1  0.63740000  0.39410000  0.38710000  1.0 -0.0492315693
C  C108  1  0.62750000  0.33800000  0.39150000  1.0 -0.1784533862
C  C109  1  0.63000000  0.30500000  0.35930000  1.0 0.1192640873
C  C110  1  0.60910000  0.24540000  0.35740000  1.0 0.0115076904
C  C111  1  0.59120000  0.21430000  0.38980000  1.0 -0.1618166134
C  C112  1  0.57470000  0.16170000  0.38560000  1.0 -0.100772205
C  C113  1  0.57820000  0.13590000  0.35040000  1.0 -0.1103930041
C  C114  1  0.59640000  0.16790000  0.31780000  1.0 -0.1480561258
C  C115  1  0.60050000  0.48210000  0.04880000  1.0 0.6388609991
C  C116  1  0.63540000  0.45470000  0.08390000  1.0 -0.0305384221
C  C117  1  0.59640000  0.42440000  0.10660000  1.0 -0.1103930041
C  C118  1  0.62680000  0.39530000  0.14040000  1.0 -0.1784533862
C  C119  1  0.69640000  0.40410000  0.14890000  1.0 0.0600282116
C  C120  1  0.73640000  0.43670000  0.12590000  1.0 -0.1784533862
C  C121  1  0.70540000  0.46400000  0.09330000  1.0 -0.1189196401
C  C122  1  0.72960000  0.37680000  0.18290000  1.0 0.0199809051
C  C123  1  0.68810000  0.35080000  0.20970000  1.0 -0.0417908885
C  C124  1  0.78980000  0.32680000  0.24740000  1.0 0.1192640873
C  C125  1  0.83550000  0.35570000  0.22220000  1.0 -0.1913185311
C  C126  1  0.80660000  0.37850000  0.19000000  1.0 -0.1103930041
C  C127  1  0.81880000  0.29490000  0.27970000  1.0 0.1363107994
C  C128  1  0.78950000  0.23350000  0.32730000  1.0 -0.0492315693
C  C129  1  0.86150000  0.23140000  0.34120000  1.0 0.0199809051
C  C130  1  0.90950000  0.26920000  0.32420000  1.0 -0.1103930041
C  C131  1  0.89040000  0.30190000  0.29390000  1.0 -0.1784533862
C  C132  1  0.88170000  0.19600000  0.37320000  1.0 0.0662285317
C  C133  1  0.85340000  0.14400000  0.37320000  1.0 -0.1996572601
C  C134  1  0.87030000  0.10540000  0.40340000  1.0 -0.100772205
C  C135  1  0.92370000  0.12230000  0.42970000  1.0 -0.0305384221
C  C136  1  0.95450000  0.17300000  0.42870000  1.0 -0.100772205
C  C137  1  0.93270000  0.20960000  0.39900000  1.0 -0.1692955999
C  C138  1  0.95070000  0.07990000  0.45900000  1.0 0.650780952
C  C139  1  0.88590000  0.27740000  0.82100000  1.0 -0.1913185311
C  C140  1  0.84810000  0.28300000  0.74010000  1.0 -0.1480561258
C  C141  1  0.79590000  0.32010000  0.73280000  1.0 -0.1433554511
C  C142  1  0.79900000  0.36200000  0.70430000  1.0 -0.1321190591
C  C143  1  0.86490000  0.36410000  0.68390000  1.0 -0.1103930041
C  C144  1  0.92060000  0.32490000  0.68820000  1.0 -0.1692955999
C  C145  1  0.91560000  0.28510000  0.71700000  1.0 -0.0021082757
C  C146  1  0.97150000  0.24380000  0.72710000  1.0 0.1363107994
C  C147  1  0.04170000  0.23550000  0.71080000  1.0 -0.1996572601
C  C148  1  0.08430000  0.19360000  0.72460000  1.0 -0.0842526123
C  C149  1  0.06360000  0.16230000  0.75550000  1.0 -0.1692955999
C  C150  1  0.99600000  0.17110000  0.77400000  1.0 -0.0214825656
C  C151  1  0.83490000  0.11980000  0.82170000  1.0 0.0662285317
C  C152  1  0.84180000  0.08340000  0.85280000  1.0 -0.1784533862
C  C153  1  0.86260000  0.10590000  0.88710000  1.0 -0.0492315693
C  C154  1  0.87250000  0.16200000  0.89150000  1.0 -0.1784533862
C  C155  1  0.87000000  0.19500000  0.85930000  1.0 0.1192640873
C  C156  1  0.89090000  0.25460000  0.85740000  1.0 0.0115076904
C  C157  1  0.90880000  0.28570000  0.88980000  1.0 -0.1618166134
C  C158  1  0.92530000  0.33830000  0.88560000  1.0 -0.100772205
C  C159  1  0.92180000  0.36410000  0.85040000  1.0 -0.1103930041
C  C160  1  0.90360000  0.33210000  0.81780000  1.0 -0.1480561258
C  C161  1  0.89950000  0.01790000  0.54880000  1.0 0.6388609991
C  C162  1  0.86460000  0.04530000  0.58390000  1.0 -0.0214825656
C  C163  1  0.90360000  0.07560000  0.60660000  1.0 -0.1103930041
C  C164  1  0.87320000  0.10470000  0.64040000  1.0 -0.1784533862
C  C165  1  0.80360000  0.09590000  0.64890000  1.0 0.0600282116
C  C166  1  0.76360000  0.06330000  0.62590000  1.0 -0.1784533862
C  C167  1  0.79460000  0.03600000  0.59330000  1.0 -0.1189196401
C  C168  1  0.77040000  0.12320000  0.68290000  1.0 0.0199809051
C  C169  1  0.81190000  0.14920000  0.70970000  1.0 -0.0417908885
C  C170  1  0.71020000  0.17320000  0.74740000  1.0 0.1192640873
C  C171  1  0.66450000  0.14430000  0.72220000  1.0 -0.1913185311
C  C172  1  0.69340000  0.12150000  0.69000000  1.0 -0.1103930041
C  C173  1  0.68120000  0.20510000  0.77970000  1.0 0.1363107994
C  C174  1  0.71050000  0.26650000  0.82730000  1.0 -0.0492315693
C  C175  1  0.63850000  0.26860000  0.84120000  1.0 0.0199809051
C  C176  1  0.59050000  0.23080000  0.82420000  1.0 -0.1189196401
C  C177  1  0.60960000  0.19810000  0.79390000  1.0 -0.1784533862
C  C178  1  0.61830000  0.30400000  0.87320000  1.0 0.0662285317
C  C179  1  0.64660000  0.35600000  0.87320000  1.0 -0.1996572601
C  C180  1  0.62970000  0.39460000  0.90340000  1.0 -0.100772205
C  C181  1  0.57630000  0.37770000  0.92970000  1.0 -0.0305384221
C  C182  1  0.54550000  0.32700000  0.92870000  1.0 -0.100772205
C  C183  1  0.56730000  0.29040000  0.89900000  1.0 -0.1692955999
C  C184  1  0.54930000  0.42010000  0.95900000  1.0 0.650780952
C  C185  1  0.38590000  0.22260000  0.82100000  1.0 -0.1913185311
C  C186  1  0.34810000  0.21700000  0.74010000  1.0 -0.1480561258
C  C187  1  0.29590000  0.17990000  0.73280000  1.0 -0.1433554511
C  C188  1  0.29900000  0.13800000  0.70430000  1.0 -0.1321190591
C  C189  1  0.36490000  0.13590000  0.68390000  1.0 -0.1103930041
C  C190  1  0.42060000  0.17510000  0.68820000  1.0 -0.1692955999
C  C191  1  0.41560000  0.21490000  0.71700000  1.0 -0.0021082757
C  C192  1  0.47150000  0.25620000  0.72710000  1.0 0.1363107994
C  C193  1  0.54170000  0.26450000  0.71080000  1.0 -0.1996572601
C  C194  1  0.58430000  0.30640000  0.72460000  1.0 -0.0842526123
C  C195  1  0.56360000  0.33770000  0.75550000  1.0 -0.1692955999
C  C196  1  0.49600000  0.32890000  0.77400000  1.0 -0.0214825656
C  C197  1  0.33490000  0.38020000  0.82170000  1.0 0.0662285317
C  C198  1  0.34180000  0.41660000  0.85280000  1.0 -0.1784533862
C  C199  1  0.36260000  0.39410000  0.88710000  1.0 -0.0492315693
C  C200  1  0.37250000  0.33800000  0.89150000  1.0 -0.1784533862
C  C201  1  0.37000000  0.30500000  0.85930000  1.0 0.1192640873
C  C202  1  0.39090000  0.24540000  0.85740000  1.0 0.0115076904
C  C203  1  0.40880000  0.21430000  0.88980000  1.0 -0.1618166134
C  C204  1  0.42530000  0.16170000  0.88560000  1.0 -0.100772205
C  C205  1  0.42180000  0.13590000  0.85040000  1.0 -0.1103930041
C  C206  1  0.40360000  0.16790000  0.81780000  1.0 -0.1480561258
C  C207  1  0.39950000  0.48210000  0.54880000  1.0 0.6388609991
C  C208  1  0.36460000  0.45470000  0.58390000  1.0 -0.0305384221
C  C209  1  0.40360000  0.42440000  0.60660000  1.0 -0.1103930041
C  C210  1  0.37320000  0.39530000  0.64040000  1.0 -0.1784533862
C  C211  1  0.30360000  0.40410000  0.64890000  1.0 0.0600282116
C  C212  1  0.26360000  0.43670000  0.62590000  1.0 -0.1784533862
C  C213  1  0.29460000  0.46400000  0.59330000  1.0 -0.1189196401
C  C214  1  0.27040000  0.37680000  0.68290000  1.0 0.0199809051
C  C215  1  0.31190000  0.35080000  0.70970000  1.0 -0.0417908885
C  C216  1  0.21020000  0.32680000  0.74740000  1.0 0.1192640873
C  C217  1  0.16450000  0.35570000  0.72220000  1.0 -0.1913185311
C  C218  1  0.19340000  0.37850000  0.69000000  1.0 -0.1103930041
C  C219  1  0.18120000  0.29490000  0.77970000  1.0 0.1363107994
C  C220  1  0.21050000  0.23350000  0.82730000  1.0 -0.0492315693
C  C221  1  0.13850000  0.23140000  0.84120000  1.0 0.0199809051
C  C222  1  0.09050000  0.26920000  0.82420000  1.0 -0.1103930041
C  C223  1  0.10960000  0.30190000  0.79390000  1.0 -0.1784533862
C  C224  1  0.11830000  0.19600000  0.87320000  1.0 0.0662285317
C  C225  1  0.14660000  0.14400000  0.87320000  1.0 -0.1996572601
C  C226  1  0.12970000  0.10540000  0.90340000  1.0 -0.100772205
C  C227  1  0.07630000  0.12230000  0.92970000  1.0 -0.0305384221
C  C228  1  0.04550000  0.17300000  0.92870000  1.0 -0.100772205
C  C229  1  0.06730000  0.20960000  0.89900000  1.0 -0.1692955999
C  C230  1  0.04930000  0.07990000  0.95900000  1.0 0.650780952
C  C231  1  0.11410000  0.27740000  0.32100000  1.0 -0.1913185311
C  C232  1  0.15190000  0.28300000  0.24010000  1.0 -0.1480561258
C  C233  1  0.20410000  0.32010000  0.23280000  1.0 -0.1433554511
C  C234  1  0.20100000  0.36200000  0.20430000  1.0 -0.1321190591
C  C235  1  0.13510000  0.36410000  0.18390000  1.0 -0.1103930041
C  C236  1  0.07940000  0.32490000  0.18820000  1.0 -0.1692955999
C  C237  1  0.08440000  0.28510000  0.21700000  1.0 -0.0021082757
C  C238  1  0.02850000  0.24380000  0.22710000  1.0 0.1363107994
C  C239  1  0.95830000  0.23550000  0.21080000  1.0 -0.1996572601
C  C240  1  0.91570000  0.19360000  0.22460000  1.0 -0.0842526123
C  C241  1  0.93640000  0.16230000  0.25550000  1.0 -0.1692955999
C  C242  1  0.00400000  0.17110000  0.27400000  1.0 -0.0214825656
C  C243  1  0.16510000  0.11980000  0.32170000  1.0 0.0662285317
C  C244  1  0.15820000  0.08340000  0.35280000  1.0 -0.1784533862
C  C245  1  0.13740000  0.10590000  0.38710000  1.0 -0.0492315693
C  C246  1  0.12750000  0.16200000  0.39150000  1.0 -0.1784533862
C  C247  1  0.13000000  0.19500000  0.35930000  1.0 0.1192640873
C  C248  1  0.10910000  0.25460000  0.35740000  1.0 0.0115076904
C  C249  1  0.09120000  0.28570000  0.38980000  1.0 -0.1618166134
C  C250  1  0.07470000  0.33830000  0.38560000  1.0 -0.100772205
C  C251  1  0.07820000  0.36410000  0.35040000  1.0 -0.1103930041
C  C252  1  0.09640000  0.33210000  0.31780000  1.0 -0.1480561258
C  C253  1  0.10050000  0.01790000  0.04880000  1.0 0.6388609991
C  C254  1  0.13540000  0.04530000  0.08390000  1.0 -0.0305384221
C  C255  1  0.09640000  0.07560000  0.10660000  1.0 -0.1103930041
C  C256  1  0.12680000  0.10470000  0.14040000  1.0 -0.1784533862
C  C257  1  0.19640000  0.09590000  0.14890000  1.0 0.0600282116
C  C258  1  0.23640000  0.06330000  0.12590000  1.0 -0.1784533862
C  C259  1  0.20540000  0.03600000  0.09330000  1.0 -0.1189196401
C  C260  1  0.22960000  0.12320000  0.18290000  1.0 0.0199809051
C  C261  1  0.18810000  0.14920000  0.20970000  1.0 -0.0417908885
C  C262  1  0.28980000  0.17320000  0.24740000  1.0 0.1192640873
C  C263  1  0.33550000  0.14430000  0.22220000  1.0 -0.1913185311
C  C264  1  0.30660000  0.12150000  0.19000000  1.0 -0.1103930041
C  C265  1  0.31880000  0.20510000  0.27970000  1.0 0.1363107994
C  C266  1  0.28950000  0.26650000  0.32730000  1.0 -0.055831404
C  C267  1  0.36150000  0.26860000  0.34120000  1.0 0.0199809051
C  C268  1  0.40950000  0.23080000  0.32420000  1.0 -0.1189196401
C  C269  1  0.39040000  0.19810000  0.29390000  1.0 -0.1784533862
C  C270  1  0.38170000  0.30400000  0.37320000  1.0 0.0662285317
C  C271  1  0.35340000  0.35600000  0.37320000  1.0 -0.1996572601
C  C272  1  0.37030000  0.39460000  0.40340000  1.0 -0.100772205
C  C273  1  0.42370000  0.37770000  0.42970000  1.0 -0.0305384221
C  C274  1  0.45450000  0.32700000  0.42870000  1.0 -0.100772205
C  C275  1  0.43270000  0.29040000  0.39900000  1.0 -0.1692955999
C  C276  1  0.45070000  0.42010000  0.45900000  1.0 0.650780952
C  C277  1  0.61410000  0.77740000  0.17900000  1.0 -0.1913185311
C  C278  1  0.65190000  0.78300000  0.25990000  1.0 -0.1480561258
C  C279  1  0.70410000  0.82010000  0.26720000  1.0 -0.1433554511
C  C280  1  0.70100000  0.86200000  0.29570000  1.0 -0.1321190591
C  C281  1  0.63510000  0.86410000  0.31610000  1.0 -0.1103930041
C  C282  1  0.57940000  0.82490000  0.31180000  1.0 -0.1692955999
C  C283  1  0.58440000  0.78510000  0.28300000  1.0 -0.0021082757
C  C284  1  0.52850000  0.74380000  0.27290000  1.0 0.1363107994
C  C285  1  0.45830000  0.73550000  0.28920000  1.0 -0.1996572601
C  C286  1  0.41570000  0.69360000  0.27540000  1.0 -0.0842526123
C  C287  1  0.43640000  0.66230000  0.24450000  1.0 -0.1692955999
C  C288  1  0.50400000  0.67110000  0.22600000  1.0 -0.0214825656
C  C289  1  0.66510000  0.61980000  0.17830000  1.0 0.0662285317
C  C290  1  0.65820000  0.58340000  0.14720000  1.0 -0.1784533862
C  C291  1  0.63740000  0.60590000  0.11290000  1.0 -0.0492315693
C  C292  1  0.62750000  0.66200000  0.10850000  1.0 -0.1784533862
C  C293  1  0.63000000  0.69500000  0.14070000  1.0 0.1192640873
C  C294  1  0.60910000  0.75460000  0.14260000  1.0 0.0115076904
C  C295  1  0.59120000  0.78570000  0.11020000  1.0 -0.1618166134
C  C296  1  0.57470000  0.83830000  0.11440000  1.0 -0.100772205
C  C297  1  0.57820000  0.86410000  0.14960000  1.0 -0.1103930041
C  C298  1  0.59640000  0.83210000  0.18220000  1.0 -0.1480561258
C  C299  1  0.60050000  0.51790000  0.45120000  1.0 0.6388609991
C  C300  1  0.63540000  0.54530000  0.41610000  1.0 -0.0214825656
C  C301  1  0.59640000  0.57560000  0.39340000  1.0 -0.1103930041
C  C302  1  0.62680000  0.60470000  0.35960000  1.0 -0.1784533862
C  C303  1  0.69640000  0.59590000  0.35110000  1.0 0.0600282116
C  C304  1  0.73640000  0.56330000  0.37410000  1.0 -0.1784533862
C  C305  1  0.70540000  0.53600000  0.40670000  1.0 -0.1189196401
C  C306  1  0.72960000  0.62320000  0.31710000  1.0 0.0199809051
C  C307  1  0.68810000  0.64920000  0.29030000  1.0 -0.0417908885
C  C308  1  0.78980000  0.67320000  0.25260000  1.0 0.1192640873
C  C309  1  0.83550000  0.64430000  0.27780000  1.0 -0.1913185311
C  C310  1  0.80660000  0.62150000  0.31000000  1.0 -0.1103930041
C  C311  1  0.81880000  0.70510000  0.22030000  1.0 0.1363107994
C  C312  1  0.78950000  0.76650000  0.17270000  1.0 -0.0492315693
C  C313  1  0.86150000  0.76860000  0.15880000  1.0 0.0199809051
C  C314  1  0.90950000  0.73080000  0.17580000  1.0 -0.1189196401
C  C315  1  0.89040000  0.69810000  0.20610000  1.0 -0.1784533862
C  C316  1  0.88170000  0.80400000  0.12680000  1.0 0.0662285317
C  C317  1  0.85340000  0.85600000  0.12680000  1.0 -0.1996572601
C  C318  1  0.87030000  0.89460000  0.09660000  1.0 -0.100772205
C  C319  1  0.92370000  0.87770000  0.07030000  1.0 -0.0305384221
C  C320  1  0.95450000  0.82700000  0.07130000  1.0 -0.100772205
C  C321  1  0.93270000  0.79040000  0.10100000  1.0 -0.1692955999
C  C322  1  0.95070000  0.92010000  0.04100000  1.0 0.650780952
C  C323  1  0.88590000  0.72260000  0.67900000  1.0 -0.1913185311
C  C324  1  0.84810000  0.71700000  0.75990000  1.0 -0.1480561258
C  C325  1  0.79590000  0.67990000  0.76720000  1.0 -0.1433554511
C  C326  1  0.79900000  0.63800000  0.79570000  1.0 -0.1321190591
C  C327  1  0.86490000  0.63590000  0.81610000  1.0 -0.1103930041
C  C328  1  0.92060000  0.67510000  0.81180000  1.0 -0.1692955999
C  C329  1  0.91560000  0.71490000  0.78300000  1.0 -0.0021082757
C  C330  1  0.97150000  0.75620000  0.77290000  1.0 0.1363107994
C  C331  1  0.04170000  0.76450000  0.78920000  1.0 -0.1996572601
C  C332  1  0.08430000  0.80640000  0.77540000  1.0 -0.0842526123
C  C333  1  0.06360000  0.83770000  0.74450000  1.0 -0.1692955999
C  C334  1  0.99600000  0.82890000  0.72600000  1.0 -0.0214825656
C  C335  1  0.83490000  0.88020000  0.67830000  1.0 0.0662285317
C  C336  1  0.84180000  0.91660000  0.64720000  1.0 -0.1784533862
C  C337  1  0.86260000  0.89410000  0.61290000  1.0 -0.0492315693
C  C338  1  0.87250000  0.83800000  0.60850000  1.0 -0.1784533862
C  C339  1  0.87000000  0.80500000  0.64070000  1.0 0.1192640873
C  C340  1  0.89090000  0.74540000  0.64260000  1.0 0.0115076904
C  C341  1  0.90880000  0.71430000  0.61020000  1.0 -0.1618166134
C  C342  1  0.92530000  0.66170000  0.61440000  1.0 -0.100772205
C  C343  1  0.92180000  0.63590000  0.64960000  1.0 -0.1103930041
C  C344  1  0.90360000  0.66790000  0.68220000  1.0 -0.1480561258
C  C345  1  0.89950000  0.98210000  0.95120000  1.0 0.6388609991
C  C346  1  0.86460000  0.95470000  0.91610000  1.0 -0.0214825656
C  C347  1  0.90360000  0.92440000  0.89340000  1.0 -0.1103930041
C  C348  1  0.87320000  0.89530000  0.85960000  1.0 -0.1784533862
C  C349  1  0.80360000  0.90410000  0.85110000  1.0 0.0600282116
C  C350  1  0.76360000  0.93670000  0.87410000  1.0 -0.1784533862
C  C351  1  0.79460000  0.96400000  0.90670000  1.0 -0.1189196401
C  C352  1  0.77040000  0.87680000  0.81710000  1.0 0.0199809051
C  C353  1  0.81190000  0.85080000  0.79030000  1.0 -0.0417908885
C  C354  1  0.71020000  0.82680000  0.75260000  1.0 0.1192640873
C  C355  1  0.66450000  0.85570000  0.77780000  1.0 -0.1913185311
C  C356  1  0.69340000  0.87850000  0.81000000  1.0 -0.1103930041
C  C357  1  0.68120000  0.79490000  0.72030000  1.0 0.1363107994
C  C358  1  0.71050000  0.73350000  0.67270000  1.0 -0.0492315693
C  C359  1  0.63850000  0.73140000  0.65880000  1.0 0.0199809051
C  C360  1  0.59050000  0.76920000  0.67580000  1.0 -0.1189196401
C  C361  1  0.60960000  0.80190000  0.70610000  1.0 -0.1784533862
C  C362  1  0.61830000  0.69600000  0.62680000  1.0 0.0662285317
C  C363  1  0.64660000  0.64400000  0.62680000  1.0 -0.1996572601
C  C364  1  0.62970000  0.60540000  0.59660000  1.0 -0.100772205
C  C365  1  0.57630000  0.62230000  0.57030000  1.0 -0.0305384221
C  C366  1  0.54550000  0.67300000  0.57130000  1.0 -0.100772205
C  C367  1  0.56730000  0.70960000  0.60100000  1.0 -0.1692955999
C  C368  1  0.54930000  0.57990000  0.54100000  1.0 0.650780952
N  N1  1  0.44940000  0.71240000  0.74040000  1.0 -0.2755510822
N  N2  1  0.23200000  0.73550000  0.70320000  1.0 -0.2378053946
N  N3  1  0.28320000  0.67630000  0.75983000  1.0 -0.2378053946
N  N4  1  0.35520000  0.67030000  0.67710000  1.0 -0.2348393067
N  N5  1  0.05060000  0.78760000  0.24040000  1.0 -0.2735298141
N  N6  1  0.26800000  0.76450000  0.20320000  1.0 -0.2378053946
N  N7  1  0.21680000  0.82370000  0.25983000  1.0 -0.2378053946
N  N8  1  0.14480000  0.82970000  0.17710000  1.0 -0.2378053946
N  N9  1  0.55060000  0.28760000  0.25960000  1.0 -0.2755510822
N  N10  1  0.76800000  0.26450000  0.29680000  1.0 -0.2378053946
N  N11  1  0.71680000  0.32370000  0.24017000  1.0 -0.2378053946
N  N12  1  0.64480000  0.32970000  0.32290000  1.0 -0.2348393067
N  N13  1  0.94940000  0.21240000  0.75960000  1.0 -0.2735298141
N  N14  1  0.73200000  0.23550000  0.79680000  1.0 -0.2378053946
N  N15  1  0.78320000  0.17630000  0.74017000  1.0 -0.2378053946
N  N16  1  0.85520000  0.17030000  0.82290000  1.0 -0.2378053946
N  N17  1  0.44940000  0.28760000  0.75960000  1.0 -0.2755510822
N  N18  1  0.23200000  0.26450000  0.79680000  1.0 -0.2378053946
N  N19  1  0.28320000  0.32370000  0.74017000  1.0 -0.2378053946
N  N20  1  0.35520000  0.32970000  0.82290000  1.0 -0.2348393067
N  N21  1  0.05060000  0.21240000  0.25960000  1.0 -0.2735298141
N  N22  1  0.26800000  0.23550000  0.29680000  1.0 -0.2378053946
N  N23  1  0.21680000  0.17630000  0.24017000  1.0 -0.2378053946
N  N24  1  0.14480000  0.17030000  0.32290000  1.0 -0.2348393067
N  N25  1  0.55060000  0.71240000  0.24040000  1.0 -0.2755510822
N  N26  1  0.76800000  0.73550000  0.20320000  1.0 -0.2378053946
N  N27  1  0.71680000  0.67630000  0.25983000  1.0 -0.2378053946
N  N28  1  0.64480000  0.67030000  0.17710000  1.0 -0.2348393067
N  N29  1  0.94940000  0.78760000  0.74040000  1.0 -0.2735298141
N  N30  1  0.73200000  0.76450000  0.70320000  1.0 -0.2378053946
N  N31  1  0.78320000  0.82370000  0.75983000  1.0 -0.2378053946
N  N32  1  0.85520000  0.82970000  0.67710000  1.0 -0.2378053946
O  O1  1  0.36280000  0.48450000  0.96882000  1.0 -0.6246571904
O  O2  1  0.46580000  0.53100000  0.95791000  1.0 -0.7372315541
O  O3  1  0.99080000  0.90760000  0.52360000  1.0 -0.6933126017
O  O4  1  0.09160000  0.96270000  0.53830000  1.0 -0.7481867388
O  O5  1  0.13720000  0.01550000  0.46882000  1.0 -0.6263472244
O  O6  1  0.03420000  0.96900000  0.45791000  1.0 -0.7372315541
O  O7  1  0.50920000  0.59240000  0.02360000  1.0 -0.6933126017
O  O8  1  0.40840000  0.53730000  0.03830000  1.0 -0.7481867388
O  O9  1  0.63720000  0.51550000  0.03118000  1.0 -0.6263472244
O  O10  1  0.53420000  0.46900000  0.04209000  1.0 -0.7372315541
O  O11  1  0.00920000  0.09240000  0.47640000  1.0 -0.6933126017
O  O12  1  0.90840000  0.03730000  0.46170000  1.0 -0.7481867388
O  O13  1  0.86280000  0.98450000  0.53118000  1.0 -0.6246571904
O  O14  1  0.96580000  0.03100000  0.54209000  1.0 -0.7372315541
O  O15  1  0.49080000  0.40760000  0.97640000  1.0 -0.6933126017
O  O16  1  0.59160000  0.46270000  0.96170000  1.0 -0.7481867388
O  O17  1  0.36280000  0.51550000  0.53118000  1.0 -0.6263472244
O  O18  1  0.46580000  0.46900000  0.54209000  1.0 -0.7372315541
O  O19  1  0.99080000  0.09240000  0.97640000  1.0 -0.6933126017
O  O20  1  0.09160000  0.03730000  0.96170000  1.0 -0.7481867388
O  O21  1  0.13720000  0.98450000  0.03118000  1.0 -0.6263472244
O  O22  1  0.03420000  0.03100000  0.04209000  1.0 -0.7372315541
O  O23  1  0.50920000  0.40760000  0.47640000  1.0 -0.6933126017
O  O24  1  0.40840000  0.46270000  0.46170000  1.0 -0.7481867388
O  O25  1  0.63720000  0.48450000  0.46882000  1.0 -0.6246571904
O  O26  1  0.53420000  0.53100000  0.45791000  1.0 -0.7372315541
O  O27  1  0.00920000  0.90760000  0.02360000  1.0 -0.6933126017
O  O28  1  0.90840000  0.96270000  0.03830000  1.0 -0.7481867388
O  O29  1  0.86280000  0.01550000  0.96882000  1.0 -0.6263472244
O  O30  1  0.96580000  0.96900000  0.95791000  1.0 -0.7372315541
O  O31  1  0.49080000  0.59240000  0.52360000  1.0 -0.6933126017
O  O32  1  0.59160000  0.53730000  0.53830000  1.0 -0.7481867388
