# DDEC6 charges by PACMAN v1.1 (https://github.com/mtap-research/PACMAN-charge/)
data_VAXHOR_ASR_pacman
_symmetry_space_group_name_H-M   'P 1'
_cell_length_a   6.85200000
_cell_length_b   9.56400000
_cell_length_c   18.26330000
_cell_angle_alpha   90.00000000
_cell_angle_beta   90.21110000
_cell_angle_gamma   90.00000000
_symmetry_Int_Tables_number   1
_chemical_formula_structural   CaC9NO6
_chemical_formula_sum   'Ca4 C36 N4 O24'
_cell_volume   1196.83209524
_cell_formula_units_Z   4
loop_
 _symmetry_equiv_pos_site_id
 _symmetry_equiv_pos_as_xyz
  1  'x, y, z'
loop_
 _atom_site_type_symbol
 _atom_site_label
 _atom_site_symmetry_multiplicity
 _atom_site_fract_x
 _atom_site_fract_y
 _atom_site_fract_z
 _atom_site_occupancy
 _atom_site_charge
Ca  Ca1  1  0.75040000  0.10580000  0.48050000  1.0 1.325653221
Ca  Ca2  1  0.24960000  0.60580000  0.01950000  1.0 1.325653221
Ca  Ca3  1  0.24960000  0.89420000  0.51950000  1.0 1.325653221
Ca  Ca4  1  0.75040000  0.39420000  0.98050000  1.0 1.3247847415
C  C1  1  0.74500000  0.29100000  0.60500000  1.0 0.5857745267
C  C2  1  0.25500000  0.79100000  0.89500000  1.0 0.5857745267
C  C3  1  0.25500000  0.70900000  0.39500000  1.0 0.5857745267
C  C4  1  0.74500000  0.20900000  0.10500000  1.0 0.5857745267
C  C5  1  0.74900000  0.37300000  0.67400000  1.0 -0.208235956
C  C6  1  0.25100000  0.87300000  0.82600000  1.0 -0.208235956
C  C7  1  0.25100000  0.62700000  0.32600000  1.0 -0.208235956
C  C8  1  0.74900000  0.12700000  0.17400000  1.0 -0.208235956
C  C9  1  0.57600000  0.40300000  0.70800000  1.0 0.1758149124
C  C10  1  0.42400000  0.90300000  0.79200000  1.0 0.1758149124
C  C11  1  0.42400000  0.59700000  0.29200000  1.0 0.1758149124
C  C12  1  0.57600000  0.09700000  0.20800000  1.0 0.1758149124
C  C13  1  0.56900000  0.47200000  0.77400000  1.0 -0.0298750887
C  C14  1  0.43100000  0.97200000  0.72600000  1.0 -0.0298750887
C  C15  1  0.43100000  0.52800000  0.22600000  1.0 -0.0298750887
C  C16  1  0.56900000  0.02800000  0.27400000  1.0 -0.0298750887
C  C17  1  0.75200000  0.52000000  0.80700000  1.0 0.2290709324
C  C18  1  0.24800000  0.02000000  0.69300000  1.0 0.2290709324
C  C19  1  0.24800000  0.48000000  0.19300000  1.0 0.2290709324
C  C20  1  0.75200000  0.98000000  0.30700000  1.0 0.2290709324
C  C21  1  0.92700000  0.48400000  0.77600000  1.0 -0.0881611363
C  C22  1  0.07300000  0.98400000  0.72400000  1.0 -0.0881611363
C  C23  1  0.07300000  0.51600000  0.22400000  1.0 -0.0881611363
C  C24  1  0.92700000  0.01600000  0.27600000  1.0 -0.0881611363
C  C25  1  0.92700000  0.41100000  0.70700000  1.0 0.2514588691
C  C26  1  0.07300000  0.91100000  0.79300000  1.0 0.2514588691
C  C27  1  0.07300000  0.58900000  0.29300000  1.0 0.2514588691
C  C28  1  0.92700000  0.08900000  0.20700000  1.0 0.2514588691
C  C29  1  0.25000000  0.13900000  0.42700000  1.0 0.6217718429
C  C30  1  0.75000000  0.63900000  0.07300000  1.0 0.6217718429
C  C31  1  0.75000000  0.86100000  0.57300000  1.0 0.6217718429
C  C32  1  0.25000000  0.36100000  0.92700000  1.0 0.6217718429
C  C33  1  0.25100000  0.26700000  0.37400000  1.0 -0.1567742668
C  C34  1  0.74900000  0.76700000  0.12600000  1.0 -0.1501174562
C  C35  1  0.74900000  0.73300000  0.62600000  1.0 -0.1567742668
C  C36  1  0.25100000  0.23300000  0.87400000  1.0 -0.1567742668
N  N1  1  0.74800000  0.91700000  0.37800000  1.0 -0.2197781981
N  N2  1  0.25200000  0.41700000  0.12200000  1.0 -0.2197781981
N  N3  1  0.25200000  0.08300000  0.62200000  1.0 -0.2197781981
N  N4  1  0.74800000  0.58300000  0.87800000  1.0 -0.2197781981
O  O1  1  0.59100000  0.25600000  0.57800000  1.0 -0.4832889133
O  O2  1  0.40900000  0.75600000  0.92200000  1.0 -0.4906502389
O  O3  1  0.40900000  0.74400000  0.42200000  1.0 -0.4906502389
O  O4  1  0.59100000  0.24400000  0.07800000  1.0 -0.4832889133
O  O5  1  0.90600000  0.25600000  0.57500000  1.0 -0.4951739751
O  O6  1  0.09400000  0.75600000  0.92500000  1.0 -0.4906502389
O  O7  1  0.09400000  0.74400000  0.42500000  1.0 -0.4906502389
O  O8  1  0.90600000  0.24400000  0.07500000  1.0 -0.4906502389
O  O9  1  0.39300000  0.40900000  0.67100000  1.0 -0.1003415279
O  O10  1  0.60700000  0.90900000  0.82900000  1.0 -0.1060823195
O  O11  1  0.60700000  0.59100000  0.32900000  1.0 -0.1003415279
O  O12  1  0.39300000  0.09100000  0.17100000  1.0 -0.1003415279
O  O13  1  0.10300000  0.40900000  0.67100000  1.0 -0.170698303
O  O14  1  0.89700000  0.90900000  0.82900000  1.0 -0.170698303
O  O15  1  0.89700000  0.59100000  0.32900000  1.0 -0.170698303
O  O16  1  0.10300000  0.09100000  0.17100000  1.0 -0.170698303
O  O17  1  0.09300000  0.08800000  0.44700000  1.0 -0.6168556802
O  O18  1  0.90700000  0.58800000  0.05300000  1.0 -0.6142454587
O  O19  1  0.90700000  0.91200000  0.55300000  1.0 -0.6142454587
O  O20  1  0.09300000  0.41200000  0.94700000  1.0 -0.6168556802
O  O21  1  0.40500000  0.08300000  0.44600000  1.0 -0.6168556802
O  O22  1  0.59500000  0.58300000  0.05400000  1.0 -0.6259251081
O  O23  1  0.59500000  0.91700000  0.55400000  1.0 -0.6259251081
O  O24  1  0.40500000  0.41700000  0.94600000  1.0 -0.6168556802
