# DDEC6 charges by PACMAN v1.1 (https://github.com/mtap-research/PACMAN-charge/)
data_VAZHEN_ASR_pacman
_symmetry_space_group_name_H-M   'P 1'
_cell_length_a   32.65610000
_cell_length_b   32.65610000
_cell_length_c   32.65610000
_cell_angle_alpha   109.47100000
_cell_angle_beta   109.47100000
_cell_angle_gamma   109.47100000
_symmetry_Int_Tables_number   1
_chemical_formula_structural   Fe3H24C40N6O13
_chemical_formula_sum   'Fe36 H288 C480 N72 O156'
_cell_volume   26808.62925072
_cell_formula_units_Z   12
loop_
 _symmetry_equiv_pos_site_id
 _symmetry_equiv_pos_as_xyz
  1  'x, y, z'
loop_
 _atom_site_type_symbol
 _atom_site_label
 _atom_site_symmetry_multiplicity
 _atom_site_fract_x
 _atom_site_fract_y
 _atom_site_fract_z
 _atom_site_occupancy
 _atom_site_charge
Fe  Fe1  1  0.22193000  0.32897000  0.13296000  1.0 1.1233086677
Fe  Fe2  1  0.69601000  0.08897000  0.36704000  1.0 1.1233086677
Fe  Fe3  1  0.27807000  0.41103000  0.10704000  1.0 1.1233086677
Fe  Fe4  1  0.80399000  0.17103000  0.39296000  1.0 1.126600295
Fe  Fe5  1  0.17103000  0.39296000  0.80399000  1.0 1.1233086677
Fe  Fe6  1  0.41103000  0.10704000  0.27807000  1.0 1.1233086677
Fe  Fe7  1  0.08897000  0.36704000  0.69601000  1.0 1.1233086677
Fe  Fe8  1  0.32897000  0.13296000  0.22193000  1.0 1.1233086677
Fe  Fe9  1  0.10704000  0.27807000  0.41103000  1.0 1.1233086677
Fe  Fe10  1  0.39296000  0.80399000  0.17103000  1.0 1.126600295
Fe  Fe11  1  0.13296000  0.22193000  0.32897000  1.0 1.1233086677
Fe  Fe12  1  0.36704000  0.69601000  0.08897000  1.0 1.1233086677
Fe  Fe13  1  0.82897000  0.72193000  0.63296000  1.0 1.126600295
Fe  Fe14  1  0.58897000  0.19601000  0.86704000  1.0 1.126600295
Fe  Fe15  1  0.91103000  0.77807000  0.60704000  1.0 1.126600295
Fe  Fe16  1  0.67103000  0.30399000  0.89296000  1.0 1.126600295
Fe  Fe17  1  0.89296000  0.67103000  0.30399000  1.0 1.126600295
Fe  Fe18  1  0.60704000  0.91103000  0.77807000  1.0 1.126600295
Fe  Fe19  1  0.86704000  0.58897000  0.19601000  1.0 1.1233086677
Fe  Fe20  1  0.63296000  0.82897000  0.72193000  1.0 1.126600295
Fe  Fe21  1  0.77807000  0.60704000  0.91103000  1.0 1.1233086677
Fe  Fe22  1  0.30399000  0.89296000  0.67103000  1.0 1.1233086677
Fe  Fe23  1  0.72193000  0.63296000  0.82897000  1.0 1.126600295
Fe  Fe24  1  0.19601000  0.86704000  0.58897000  1.0 1.1233086677
Fe  Fe25  1  0.25000000  0.29283000  0.04283000  1.0 1.1728708821
Fe  Fe26  1  0.75000000  0.20717000  0.45717000  1.0 1.1728708821
Fe  Fe27  1  0.20717000  0.45717000  0.75000000  1.0 1.1728708821
Fe  Fe28  1  0.29283000  0.04283000  0.25000000  1.0 1.1728708821
Fe  Fe29  1  0.04283000  0.25000000  0.29283000  1.0 1.1728708821
Fe  Fe30  1  0.45717000  0.75000000  0.20717000  1.0 1.1728708821
Fe  Fe31  1  0.79283000  0.75000000  0.54283000  1.0 1.1728708821
Fe  Fe32  1  0.70717000  0.25000000  0.95717000  1.0 1.1728708821
Fe  Fe33  1  0.95717000  0.70717000  0.25000000  1.0 1.1728708821
Fe  Fe34  1  0.54283000  0.79283000  0.75000000  1.0 1.1728708821
Fe  Fe35  1  0.75000000  0.54283000  0.79283000  1.0 1.1728708821
Fe  Fe36  1  0.25000000  0.95717000  0.70717000  1.0 1.1728708821
H  H1  1  0.08100000  0.21180000  0.05560000  1.0 0.1232868882
H  H2  1  0.99570000  0.14930000  0.00680000  1.0 0.1232868882
H  H3  1  0.01520000  0.10540000  0.88720000  1.0 0.1283801153
H  H4  1  0.09820000  0.17140000  0.93820000  1.0 0.1407603862
H  H5  1  0.84510000  0.07920000  0.94170000  1.0 0.1283801153
H  H6  1  0.76090000  0.02210000  0.89200000  1.0 0.1283801153
H  H7  1  0.78780000  0.93190000  0.80410000  1.0 0.1283801153
H  H8  1  0.87290000  0.99040000  0.84830000  1.0 0.1283801153
H  H9  1  0.27460000  0.18200000  0.08540000  1.0 0.1407603862
H  H10  1  0.29250000  0.13440000  0.12050000  1.0 0.1076834976
H  H11  1  0.32580000  0.23310000  0.25170000  1.0 0.1076834976
H  H12  1  0.30190000  0.27940000  0.21830000  1.0 0.1407603862
H  H13  1  0.65620000  0.02540000  0.44440000  1.0 0.1232868882
H  H14  1  0.64250000  0.98890000  0.49320000  1.0 0.1232868882
H  H15  1  0.71820000  0.12800000  0.61280000  1.0 0.1232868882
H  H16  1  0.73320000  0.16000000  0.56180000  1.0 0.1407603862
H  H17  1  0.63750000  0.90340000  0.55830000  1.0 0.1283801153
H  H18  1  0.63010000  0.86890000  0.60800000  1.0 0.1283801153
H  H19  1  0.62780000  0.98370000  0.69590000  1.0 0.1283801153
H  H20  1  0.64210000  0.02460000  0.65170000  1.0 0.1283801153
H  H21  1  0.59660000  0.18920000  0.41460000  1.0 0.1407603862
H  H22  1  0.51390000  0.17200000  0.37950000  1.0 0.1076834976
H  H23  1  0.48140000  0.07410000  0.24830000  1.0 0.1076834976
H  H24  1  0.56110000  0.08360000  0.28170000  1.0 0.1407603862
H  H25  1  0.41900000  0.47460000  0.13080000  1.0 0.1232868882
H  H26  1  0.50430000  0.51110000  0.15360000  1.0 0.1232868882
H  H27  1  0.48480000  0.37200000  0.09020000  1.0 0.1283801153
H  H28  1  0.40180000  0.34000000  0.07320000  1.0 0.1407603862
H  H29  1  0.65490000  0.59660000  0.23410000  1.0 0.1283801153
H  H30  1  0.73910000  0.63110000  0.26120000  1.0 0.1283801153
H  H31  1  0.71220000  0.51630000  0.14410000  1.0 0.1283801153
H  H32  1  0.62710000  0.47540000  0.11750000  1.0 0.1283801153
H  H33  1  0.22540000  0.31080000  0.90740000  1.0 0.1407603862
H  H34  1  0.20750000  0.32800000  0.84190000  1.0 0.1076834976
H  H35  1  0.17420000  0.42590000  0.90730000  1.0 0.1076834976
H  H36  1  0.19810000  0.41640000  0.97750000  1.0 0.1407603862
H  H37  1  0.84380000  0.28820000  0.36920000  1.0 0.1232868882
H  H38  1  0.85750000  0.35070000  0.34640000  1.0 0.1232868882
H  H39  1  0.78180000  0.39460000  0.40980000  1.0 0.1232868882
H  H40  1  0.76680000  0.32860000  0.42680000  1.0 0.1407603862
H  H41  1  0.86250000  0.42080000  0.26590000  1.0 0.1283801153
H  H42  1  0.86990000  0.47790000  0.23880000  1.0 0.1283801153
H  H43  1  0.87220000  0.56810000  0.35590000  1.0 0.1283801153
H  H44  1  0.85790000  0.50960000  0.38250000  1.0 0.1283801153
H  H45  1  0.90340000  0.31800000  0.59260000  1.0 0.1407603862
H  H46  1  0.98610000  0.36560000  0.65810000  1.0 0.1076834976
H  H47  1  0.01860000  0.26690000  0.59270000  1.0 0.1076834976
H  H48  1  0.93890000  0.22060000  0.52250000  1.0 0.1407603862
H  H49  1  0.28820000  0.36920000  0.84380000  1.0 0.1232868882
H  H50  1  0.35070000  0.34640000  0.85750000  1.0 0.1232868882
H  H51  1  0.39460000  0.40980000  0.78180000  1.0 0.1232868882
H  H52  1  0.32860000  0.42680000  0.76680000  1.0 0.1407603862
H  H53  1  0.42080000  0.26590000  0.86250000  1.0 0.1283801153
H  H54  1  0.47790000  0.23880000  0.86990000  1.0 0.1283801153
H  H55  1  0.56810000  0.35590000  0.87220000  1.0 0.1283801153
H  H56  1  0.50960000  0.38250000  0.85790000  1.0 0.1283801153
H  H57  1  0.31800000  0.59260000  0.90340000  1.0 0.1407603862
H  H58  1  0.36560000  0.65810000  0.98610000  1.0 0.1076834976
H  H59  1  0.26690000  0.59270000  0.01860000  1.0 0.1076834976
H  H60  1  0.22060000  0.52250000  0.93890000  1.0 0.1407603862
H  H61  1  0.47460000  0.13080000  0.41900000  1.0 0.1232868882
H  H62  1  0.51110000  0.15360000  0.50430000  1.0 0.1232868882
H  H63  1  0.37200000  0.09020000  0.48480000  1.0 0.1232868882
H  H64  1  0.34000000  0.07320000  0.40180000  1.0 0.1407603862
H  H65  1  0.59660000  0.23410000  0.65490000  1.0 0.1283801153
H  H66  1  0.63110000  0.26120000  0.73910000  1.0 0.1283801153
H  H67  1  0.51630000  0.14410000  0.71220000  1.0 0.1283801153
H  H68  1  0.47540000  0.11750000  0.62710000  1.0 0.1283801153
H  H69  1  0.31080000  0.90740000  0.22540000  1.0 0.1407603862
H  H70  1  0.32800000  0.84190000  0.20750000  1.0 0.1076834976
H  H71  1  0.42590000  0.90730000  0.17420000  1.0 0.1076834976
H  H72  1  0.41640000  0.97750000  0.19810000  1.0 0.1407603862
H  H73  1  0.02540000  0.44440000  0.65620000  1.0 0.1232868882
H  H74  1  0.98890000  0.49320000  0.64250000  1.0 0.1232868882
H  H75  1  0.12800000  0.61280000  0.71820000  1.0 0.1232868882
H  H76  1  0.16000000  0.56180000  0.73320000  1.0 0.1407603862
H  H77  1  0.90340000  0.55830000  0.63750000  1.0 0.1283801153
H  H78  1  0.86890000  0.60800000  0.63010000  1.0 0.1283801153
H  H79  1  0.98370000  0.69590000  0.62780000  1.0 0.1283801153
H  H80  1  0.02460000  0.65170000  0.64210000  1.0 0.1283801153
H  H81  1  0.18920000  0.41460000  0.59660000  1.0 0.1407603862
H  H82  1  0.17200000  0.37950000  0.51390000  1.0 0.1076834976
H  H83  1  0.07410000  0.24830000  0.48140000  1.0 0.1076834976
H  H84  1  0.08360000  0.28170000  0.56110000  1.0 0.1407603862
H  H85  1  0.21180000  0.05560000  0.08100000  1.0 0.1232868882
H  H86  1  0.14930000  0.00680000  0.99570000  1.0 0.1232868882
H  H87  1  0.10540000  0.88720000  0.01520000  1.0 0.1232868882
H  H88  1  0.17140000  0.93820000  0.09820000  1.0 0.1407603862
H  H89  1  0.07920000  0.94170000  0.84510000  1.0 0.1283801153
H  H90  1  0.02210000  0.89200000  0.76090000  1.0 0.1283801153
H  H91  1  0.93190000  0.80410000  0.78780000  1.0 0.1283801153
H  H92  1  0.99040000  0.84830000  0.87290000  1.0 0.1283801153
H  H93  1  0.18200000  0.08540000  0.27460000  1.0 0.1407603862
H  H94  1  0.13440000  0.12050000  0.29250000  1.0 0.1076834976
H  H95  1  0.23310000  0.25170000  0.32580000  1.0 0.1076834976
H  H96  1  0.27940000  0.21830000  0.30190000  1.0 0.1407603862
H  H97  1  0.13080000  0.41900000  0.47460000  1.0 0.1232868882
H  H98  1  0.15360000  0.50430000  0.51110000  1.0 0.1232868882
H  H99  1  0.09020000  0.48480000  0.37200000  1.0 0.1232868882
H  H100  1  0.07320000  0.40180000  0.34000000  1.0 0.1407603862
H  H101  1  0.23410000  0.65490000  0.59660000  1.0 0.1283801153
H  H102  1  0.26120000  0.73910000  0.63110000  1.0 0.1283801153
H  H103  1  0.14410000  0.71220000  0.51630000  1.0 0.1283801153
H  H104  1  0.11750000  0.62710000  0.47540000  1.0 0.1283801153
H  H105  1  0.90740000  0.22540000  0.31080000  1.0 0.1407603862
H  H106  1  0.84190000  0.20750000  0.32800000  1.0 0.1076834976
H  H107  1  0.90730000  0.17420000  0.42590000  1.0 0.1076834976
H  H108  1  0.97750000  0.19810000  0.41640000  1.0 0.1407603862
H  H109  1  0.36920000  0.84380000  0.28820000  1.0 0.1232868882
H  H110  1  0.34640000  0.85750000  0.35070000  1.0 0.1232868882
H  H111  1  0.40980000  0.78180000  0.39460000  1.0 0.1232868882
H  H112  1  0.42680000  0.76680000  0.32860000  1.0 0.1407603862
H  H113  1  0.26590000  0.86250000  0.42080000  1.0 0.1283801153
H  H114  1  0.23880000  0.86990000  0.47790000  1.0 0.1283801153
H  H115  1  0.35590000  0.87220000  0.56810000  1.0 0.1283801153
H  H116  1  0.38250000  0.85790000  0.50960000  1.0 0.1283801153
H  H117  1  0.59260000  0.90340000  0.31800000  1.0 0.1407603862
H  H118  1  0.65810000  0.98610000  0.36560000  1.0 0.1076834976
H  H119  1  0.59270000  0.01860000  0.26690000  1.0 0.1076834976
H  H120  1  0.52250000  0.93890000  0.22060000  1.0 0.1407603862
H  H121  1  0.05560000  0.08100000  0.21180000  1.0 0.1232868882
H  H122  1  0.00680000  0.99570000  0.14930000  1.0 0.1232868882
H  H123  1  0.88720000  0.01520000  0.10540000  1.0 0.1232868882
H  H124  1  0.93820000  0.09820000  0.17140000  1.0 0.1407603862
H  H125  1  0.94170000  0.84510000  0.07920000  1.0 0.1283801153
H  H126  1  0.89200000  0.76090000  0.02210000  1.0 0.1283801153
H  H127  1  0.80410000  0.78780000  0.93190000  1.0 0.1283801153
H  H128  1  0.84830000  0.87290000  0.99040000  1.0 0.1283801153
H  H129  1  0.08540000  0.27460000  0.18200000  1.0 0.1407603862
H  H130  1  0.12050000  0.29250000  0.13440000  1.0 0.1076834976
H  H131  1  0.25170000  0.32580000  0.23310000  1.0 0.1076834976
H  H132  1  0.21830000  0.30190000  0.27940000  1.0 0.1407603862
H  H133  1  0.44440000  0.65620000  0.02540000  1.0 0.1232868882
H  H134  1  0.49320000  0.64250000  0.98890000  1.0 0.1232868882
H  H135  1  0.61280000  0.71820000  0.12800000  1.0 0.1283801153
H  H136  1  0.56180000  0.73320000  0.16000000  1.0 0.1407603862
H  H137  1  0.55830000  0.63750000  0.90340000  1.0 0.1283801153
H  H138  1  0.60800000  0.63010000  0.86890000  1.0 0.1283801153
H  H139  1  0.69590000  0.62780000  0.98370000  1.0 0.1283801153
H  H140  1  0.65170000  0.64210000  0.02460000  1.0 0.1283801153
H  H141  1  0.41460000  0.59660000  0.18920000  1.0 0.1407603862
H  H142  1  0.37950000  0.51390000  0.17200000  1.0 0.1076834976
H  H143  1  0.24830000  0.48140000  0.07410000  1.0 0.1076834976
H  H144  1  0.28170000  0.56110000  0.08360000  1.0 0.1407603862
H  H145  1  0.71180000  0.58100000  0.55560000  1.0 0.1232868882
H  H146  1  0.64930000  0.49570000  0.50680000  1.0 0.1232868882
H  H147  1  0.60540000  0.51520000  0.38720000  1.0 0.1232868882
H  H148  1  0.67140000  0.59820000  0.43820000  1.0 0.1407603862
H  H149  1  0.57920000  0.34510000  0.44170000  1.0 0.1283801153
H  H150  1  0.52210000  0.26090000  0.39200000  1.0 0.1283801153
H  H151  1  0.43190000  0.28780000  0.30410000  1.0 0.1283801153
H  H152  1  0.49040000  0.37290000  0.34830000  1.0 0.1283801153
H  H153  1  0.68200000  0.77460000  0.58540000  1.0 0.1407603862
H  H154  1  0.63440000  0.79250000  0.62050000  1.0 0.1076834976
H  H155  1  0.73310000  0.82580000  0.75170000  1.0 0.1076834976
H  H156  1  0.77940000  0.80190000  0.71830000  1.0 0.1407603862
H  H157  1  0.52540000  0.15620000  0.94440000  1.0 0.1232868882
H  H158  1  0.48890000  0.14250000  0.99320000  1.0 0.1232868882
H  H159  1  0.62800000  0.21820000  0.11280000  1.0 0.1232868882
H  H160  1  0.66000000  0.23320000  0.06180000  1.0 0.1407603862
H  H161  1  0.40340000  0.13750000  0.05830000  1.0 0.1283801153
H  H162  1  0.36890000  0.13010000  0.10800000  1.0 0.1283801153
H  H163  1  0.48370000  0.12780000  0.19590000  1.0 0.1283801153
H  H164  1  0.52460000  0.14210000  0.15170000  1.0 0.1283801153
H  H165  1  0.68920000  0.09660000  0.91460000  1.0 0.1407603862
H  H166  1  0.67200000  0.01390000  0.87950000  1.0 0.1076834976
H  H167  1  0.57410000  0.98140000  0.74830000  1.0 0.1076834976
H  H168  1  0.58360000  0.06110000  0.78170000  1.0 0.1407603862
H  H169  1  0.97460000  0.91900000  0.63080000  1.0 0.1232868882
H  H170  1  0.01110000  0.00430000  0.65360000  1.0 0.1232868882
H  H171  1  0.87200000  0.98480000  0.59020000  1.0 0.1232868882
H  H172  1  0.84000000  0.90180000  0.57320000  1.0 0.1407603862
H  H173  1  0.09660000  0.15490000  0.73410000  1.0 0.1283801153
H  H174  1  0.13110000  0.23910000  0.76120000  1.0 0.1283801153
H  H175  1  0.01630000  0.21220000  0.64410000  1.0 0.1283801153
H  H176  1  0.97540000  0.12710000  0.61750000  1.0 0.1283801153
H  H177  1  0.81080000  0.72540000  0.40740000  1.0 0.1407603862
H  H178  1  0.82800000  0.70750000  0.34190000  1.0 0.1076834976
H  H179  1  0.92590000  0.67420000  0.40730000  1.0 0.1076834976
H  H180  1  0.91640000  0.69810000  0.47750000  1.0 0.1407603862
H  H181  1  0.78820000  0.34380000  0.86920000  1.0 0.1232868882
H  H182  1  0.85070000  0.35750000  0.84640000  1.0 0.1232868882
H  H183  1  0.89460000  0.28180000  0.90980000  1.0 0.1232868882
H  H184  1  0.82860000  0.26680000  0.92680000  1.0 0.1407603862
H  H185  1  0.92080000  0.36250000  0.76590000  1.0 0.1283801153
H  H186  1  0.97790000  0.36990000  0.73880000  1.0 0.1283801153
H  H187  1  0.06810000  0.37220000  0.85590000  1.0 0.1283801153
H  H188  1  0.00960000  0.35790000  0.88250000  1.0 0.1283801153
H  H189  1  0.81800000  0.40340000  0.09260000  1.0 0.1407603862
H  H190  1  0.86560000  0.48610000  0.15810000  1.0 0.1076834976
H  H191  1  0.76690000  0.51860000  0.09270000  1.0 0.1076834976
H  H192  1  0.72060000  0.43890000  0.02250000  1.0 0.1407603862
H  H193  1  0.86920000  0.78820000  0.34380000  1.0 0.1232868882
H  H194  1  0.84640000  0.85070000  0.35750000  1.0 0.1232868882
H  H195  1  0.90980000  0.89460000  0.28180000  1.0 0.1232868882
H  H196  1  0.92680000  0.82860000  0.26680000  1.0 0.1407603862
H  H197  1  0.76590000  0.92080000  0.36250000  1.0 0.1283801153
H  H198  1  0.73880000  0.97790000  0.36990000  1.0 0.1283801153
H  H199  1  0.85590000  0.06810000  0.37220000  1.0 0.1283801153
H  H200  1  0.88250000  0.00960000  0.35790000  1.0 0.1283801153
H  H201  1  0.09260000  0.81800000  0.40340000  1.0 0.154017621
H  H202  1  0.15810000  0.86560000  0.48610000  1.0 0.1076834976
H  H203  1  0.09270000  0.76690000  0.51860000  1.0 0.1076834976
H  H204  1  0.02250000  0.72060000  0.43890000  1.0 0.1407603862
H  H205  1  0.63080000  0.97460000  0.91900000  1.0 0.1232868882
H  H206  1  0.65360000  0.01110000  0.00430000  1.0 0.1232868882
H  H207  1  0.59020000  0.87200000  0.98480000  1.0 0.1232868882
H  H208  1  0.57320000  0.84000000  0.90180000  1.0 0.1407603862
H  H209  1  0.73410000  0.09660000  0.15490000  1.0 0.1283801153
H  H210  1  0.76120000  0.13110000  0.23910000  1.0 0.1283801153
H  H211  1  0.64410000  0.01630000  0.21220000  1.0 0.1283801153
H  H212  1  0.61750000  0.97540000  0.12710000  1.0 0.1283801153
H  H213  1  0.40740000  0.81080000  0.72540000  1.0 0.1407603862
H  H214  1  0.34190000  0.82800000  0.70750000  1.0 0.1076834976
H  H215  1  0.40730000  0.92590000  0.67420000  1.0 0.1076834976
H  H216  1  0.47750000  0.91640000  0.69810000  1.0 0.1407603862
H  H217  1  0.94440000  0.52540000  0.15620000  1.0 0.1232868882
H  H218  1  0.99320000  0.48890000  0.14250000  1.0 0.1232868882
H  H219  1  0.11280000  0.62800000  0.21820000  1.0 0.1232868882
H  H220  1  0.06180000  0.66000000  0.23320000  1.0 0.1407603862
H  H221  1  0.05830000  0.40340000  0.13750000  1.0 0.1283801153
H  H222  1  0.10800000  0.36890000  0.13010000  1.0 0.1283801153
H  H223  1  0.19590000  0.48370000  0.12780000  1.0 0.1283801153
H  H224  1  0.15170000  0.52460000  0.14210000  1.0 0.1283801153
H  H225  1  0.91460000  0.68920000  0.09660000  1.0 0.1407603862
H  H226  1  0.87950000  0.67200000  0.01390000  1.0 0.1076834976
H  H227  1  0.74830000  0.57410000  0.98140000  1.0 0.1076834976
H  H228  1  0.78170000  0.58360000  0.06110000  1.0 0.1407603862
H  H229  1  0.55560000  0.71180000  0.58100000  1.0 0.1232868882
H  H230  1  0.50680000  0.64930000  0.49570000  1.0 0.1232868882
H  H231  1  0.38720000  0.60540000  0.51520000  1.0 0.1232868882
H  H232  1  0.43820000  0.67140000  0.59820000  1.0 0.1407603862
H  H233  1  0.44170000  0.57920000  0.34510000  1.0 0.1283801153
H  H234  1  0.39200000  0.52210000  0.26090000  1.0 0.1283801153
H  H235  1  0.30410000  0.43190000  0.28780000  1.0 0.1283801153
H  H236  1  0.34830000  0.49040000  0.37290000  1.0 0.1283801153
H  H237  1  0.58540000  0.68200000  0.77460000  1.0 0.1407603862
H  H238  1  0.62050000  0.63440000  0.79250000  1.0 0.1076834976
H  H239  1  0.75170000  0.73310000  0.82580000  1.0 0.1076834976
H  H240  1  0.71830000  0.77940000  0.80190000  1.0 0.1407603862
H  H241  1  0.91900000  0.63080000  0.97460000  1.0 0.1232868882
H  H242  1  0.00430000  0.65360000  0.01110000  1.0 0.1232868882
H  H243  1  0.98480000  0.59020000  0.87200000  1.0 0.1283801153
H  H244  1  0.90180000  0.57320000  0.84000000  1.0 0.1407603862
H  H245  1  0.15490000  0.73410000  0.09660000  1.0 0.1283801153
H  H246  1  0.23910000  0.76120000  0.13110000  1.0 0.1283801153
H  H247  1  0.21220000  0.64410000  0.01630000  1.0 0.1283801153
H  H248  1  0.12710000  0.61750000  0.97540000  1.0 0.1283801153
H  H249  1  0.72540000  0.40740000  0.81080000  1.0 0.1407603862
H  H250  1  0.70750000  0.34190000  0.82800000  1.0 0.1076834976
H  H251  1  0.67420000  0.40730000  0.92590000  1.0 0.1076834976
H  H252  1  0.69810000  0.47750000  0.91640000  1.0 0.1407603862
H  H253  1  0.34380000  0.86920000  0.78820000  1.0 0.1232868882
H  H254  1  0.35750000  0.84640000  0.85070000  1.0 0.1232868882
H  H255  1  0.28180000  0.90980000  0.89460000  1.0 0.1232868882
H  H256  1  0.26680000  0.92680000  0.82860000  1.0 0.1407603862
H  H257  1  0.36250000  0.76590000  0.92080000  1.0 0.1283801153
H  H258  1  0.36990000  0.73880000  0.97790000  1.0 0.1283801153
H  H259  1  0.37220000  0.85590000  0.06810000  1.0 0.1283801153
H  H260  1  0.35790000  0.88250000  0.00960000  1.0 0.1283801153
H  H261  1  0.40340000  0.09260000  0.81800000  1.0 0.1407603862
H  H262  1  0.48610000  0.15810000  0.86560000  1.0 0.1076834976
H  H263  1  0.51860000  0.09270000  0.76690000  1.0 0.1076834976
H  H264  1  0.43890000  0.02250000  0.72060000  1.0 0.1407603862
H  H265  1  0.58100000  0.55560000  0.71180000  1.0 0.1232868882
H  H266  1  0.49570000  0.50680000  0.64930000  1.0 0.1232868882
H  H267  1  0.51520000  0.38720000  0.60540000  1.0 0.1232868882
H  H268  1  0.59820000  0.43820000  0.67140000  1.0 0.1407603862
H  H269  1  0.34510000  0.44170000  0.57920000  1.0 0.1283801153
H  H270  1  0.26090000  0.39200000  0.52210000  1.0 0.1283801153
H  H271  1  0.28780000  0.30410000  0.43190000  1.0 0.1283801153
H  H272  1  0.37290000  0.34830000  0.49040000  1.0 0.1283801153
H  H273  1  0.77460000  0.58540000  0.68200000  1.0 0.1407603862
H  H274  1  0.79250000  0.62050000  0.63440000  1.0 0.1076834976
H  H275  1  0.82580000  0.75170000  0.73310000  1.0 0.1076834976
H  H276  1  0.80190000  0.71830000  0.77940000  1.0 0.1407603862
H  H277  1  0.15620000  0.94440000  0.52540000  1.0 0.1232868882
H  H278  1  0.14250000  0.99320000  0.48890000  1.0 0.1232868882
H  H279  1  0.21820000  0.11280000  0.62800000  1.0 0.1232868882
H  H280  1  0.23320000  0.06180000  0.66000000  1.0 0.1407603862
H  H281  1  0.13750000  0.05830000  0.40340000  1.0 0.1283801153
H  H282  1  0.13010000  0.10800000  0.36890000  1.0 0.1283801153
H  H283  1  0.12780000  0.19590000  0.48370000  1.0 0.1283801153
H  H284  1  0.14210000  0.15170000  0.52460000  1.0 0.1283801153
H  H285  1  0.09660000  0.91460000  0.68920000  1.0 0.1407603862
H  H286  1  0.01390000  0.87950000  0.67200000  1.0 0.1076834976
H  H287  1  0.98140000  0.74830000  0.57410000  1.0 0.1076834976
H  H288  1  0.06110000  0.78170000  0.58360000  1.0 0.1407603862
C  C1  1  0.14740000  0.23620000  0.03040000  1.0 0.6068617753
C  C2  1  0.09410000  0.19590000  0.99880000  1.0 -0.0391967934
C  C3  1  0.06670000  0.19090000  0.02140000  1.0 -0.0904498968
C  C4  1  0.01550000  0.15280000  0.99190000  1.0 -0.1482845918
C  C5  1  0.99560000  0.12270000  0.94410000  1.0 0.154017621
C  C6  1  0.02760000  0.12740000  0.92080000  1.0 -0.1320177836
C  C7  1  0.07710000  0.16640000  0.95150000  1.0 -0.0703385681
C  C8  1  0.86700000  0.04410000  0.89670000  1.0 0.1701681095
C  C9  1  0.83350000  0.05070000  0.91200000  1.0 -0.1482845918
C  C10  1  0.78320000  0.01540000  0.88320000  1.0 -0.0955329846
C  C11  1  0.76530000  0.97120000  0.84270000  1.0 -0.0703385681
C  C12  1  0.79950000  0.96280000  0.83110000  1.0 -0.0904498968
C  C13  1  0.85080000  0.99780000  0.85700000  1.0 -0.1580627454
C  C14  1  0.71220000  0.93380000  0.81080000  1.0 0.5894628095
C  C15  1  0.26930000  0.26380000  0.12590000  1.0 0.5984884229
C  C16  1  0.28510000  0.23490000  0.14860000  1.0 0.0090702352
C  C17  1  0.28340000  0.19210000  0.11870000  1.0 -0.1580627454
C  C18  1  0.29550000  0.16430000  0.14080000  1.0 0.1076834976
C  C19  1  0.31420000  0.22200000  0.21780000  1.0 0.071838064
C  C20  1  0.30050000  0.25060000  0.19810000  1.0 -0.1580627454
C  C21  1  0.70580000  0.11700000  0.46960000  1.0 0.6068617753
C  C22  1  0.69710000  0.09530000  0.50120000  1.0 -0.0391967934
C  C23  1  0.66950000  0.04530000  0.47860000  1.0 -0.0904498968
C  C24  1  0.66090000  0.02360000  0.50810000  1.0 -0.1482845918
C  C25  1  0.67860000  0.05150000  0.55590000  1.0 0.154017621
C  C26  1  0.70660000  0.10680000  0.57920000  1.0 -0.1320177836
C  C27  1  0.71490000  0.12560000  0.54850000  1.0 -0.0703385681
C  C28  1  0.64740000  0.97030000  0.60330000  1.0 0.1701681095
C  C29  1  0.63870000  0.92150000  0.58800000  1.0 -0.1482845918
C  C30  1  0.63220000  0.90000000  0.61680000  1.0 -0.0955329846
C  C31  1  0.62850000  0.92260000  0.65730000  1.0 -0.0703385681
C  C32  1  0.63170000  0.96840000  0.66890000  1.0 -0.0904498968
C  C33  1  0.64080000  0.99380000  0.64300000  1.0 -0.1580627454
C  C34  1  0.62300000  0.90140000  0.68920000  1.0 0.5894628095
C  C35  1  0.63790000  0.14340000  0.37410000  1.0 0.5984884229
C  C36  1  0.58630000  0.13650000  0.35140000  1.0 0.0090702352
C  C37  1  0.57340000  0.16470000  0.38130000  1.0 -0.1580627454
C  C38  1  0.52350000  0.15470000  0.35920000  1.0 0.1076834976
C  C39  1  0.50420000  0.09640000  0.28220000  1.0 0.071838064
C  C40  1  0.55250000  0.10240000  0.30190000  1.0 -0.1580627454
C  C41  1  0.35260000  0.38300000  0.08880000  1.0 0.6068617753
C  C42  1  0.40590000  0.40470000  0.10180000  1.0 -0.0391967934
C  C43  1  0.43330000  0.45470000  0.12420000  1.0 -0.0904498968
C  C44  1  0.48450000  0.47640000  0.13730000  1.0 -0.1482845918
C  C45  1  0.50440000  0.44850000  0.12710000  1.0 0.154017621
C  C46  1  0.47240000  0.39320000  0.09980000  1.0 -0.1320177836
C  C47  1  0.42290000  0.37440000  0.08930000  1.0 -0.0703385681
C  C48  1  0.63300000  0.52970000  0.17710000  1.0 0.1701681095
C  C49  1  0.66650000  0.57850000  0.21720000  1.0 -0.1482845918
C  C50  1  0.71680000  0.60000000  0.23220000  1.0 -0.0955329846
C  C51  1  0.73470000  0.57740000  0.20590000  1.0 -0.0703385681
C  C52  1  0.70050000  0.53160000  0.16330000  1.0 -0.0904498968
C  C53  1  0.64920000  0.50620000  0.14700000  1.0 -0.1580627454
C  C54  1  0.78780000  0.59860000  0.22160000  1.0 0.5894628095
C  C55  1  0.23070000  0.35660000  0.99450000  1.0 0.5984884229
C  C56  1  0.21490000  0.36350000  0.94980000  1.0 0.0090702352
C  C57  1  0.21660000  0.33530000  0.90870000  1.0 -0.1580627454
C  C58  1  0.20450000  0.34530000  0.86880000  1.0 0.1076834976
C  C59  1  0.18580000  0.40360000  0.90780000  1.0 0.071838064
C  C60  1  0.19950000  0.39760000  0.95010000  1.0 -0.1580627454
C  C61  1  0.79420000  0.26380000  0.41120000  1.0 0.6068617753
C  C62  1  0.80290000  0.30410000  0.39820000  1.0 -0.0391967934
C  C63  1  0.83050000  0.30910000  0.37580000  1.0 -0.0904498968
C  C64  1  0.83910000  0.34720000  0.36270000  1.0 -0.1482845918
C  C65  1  0.82140000  0.37730000  0.37290000  1.0 0.154017621
C  C66  1  0.79340000  0.37260000  0.40020000  1.0 -0.1320177836
C  C67  1  0.78510000  0.33360000  0.41070000  1.0 -0.0703385681
C  C68  1  0.85260000  0.45590000  0.32290000  1.0 0.1701681095
C  C69  1  0.86130000  0.44930000  0.28280000  1.0 -0.1482845918
C  C70  1  0.86780000  0.48460000  0.26780000  1.0 -0.0955329846
C  C71  1  0.87150000  0.52880000  0.29410000  1.0 -0.0703385681
C  C72  1  0.86830000  0.53720000  0.33670000  1.0 -0.0904498968
C  C73  1  0.85920000  0.50220000  0.35300000  1.0 -0.1580627454
C  C74  1  0.87700000  0.56620000  0.27840000  1.0 0.5894628095
C  C75  1  0.86210000  0.23620000  0.50550000  1.0 0.5984884229
C  C76  1  0.91370000  0.26510000  0.55020000  1.0 0.0090702352
C  C77  1  0.92660000  0.30790000  0.59130000  1.0 -0.1580627454
C  C78  1  0.97650000  0.33570000  0.63120000  1.0 0.1076834976
C  C79  1  0.99580000  0.27800000  0.59220000  1.0 0.071838064
C  C80  1  0.94750000  0.24940000  0.54990000  1.0 -0.1580627454
C  C81  1  0.26380000  0.41120000  0.79420000  1.0 0.6068617753
C  C82  1  0.30410000  0.39820000  0.80290000  1.0 -0.0391967934
C  C83  1  0.30910000  0.37580000  0.83050000  1.0 -0.0904498968
C  C84  1  0.34720000  0.36270000  0.83910000  1.0 -0.1482845918
C  C85  1  0.37730000  0.37290000  0.82140000  1.0 0.154017621
C  C86  1  0.37260000  0.40020000  0.79340000  1.0 -0.1320177836
C  C87  1  0.33360000  0.41070000  0.78510000  1.0 -0.0703385681
C  C88  1  0.45590000  0.32290000  0.85260000  1.0 0.1701681095
C  C89  1  0.44930000  0.28280000  0.86130000  1.0 -0.1482845918
C  C90  1  0.48460000  0.26780000  0.86780000  1.0 -0.0955329846
C  C91  1  0.52880000  0.29410000  0.87150000  1.0 -0.0703385681
C  C92  1  0.53720000  0.33670000  0.86830000  1.0 -0.0904498968
C  C93  1  0.50220000  0.35300000  0.85920000  1.0 -0.1580627454
C  C94  1  0.56620000  0.27840000  0.87700000  1.0 0.5894628095
C  C95  1  0.23620000  0.50550000  0.86210000  1.0 0.5984884229
C  C96  1  0.26510000  0.55020000  0.91370000  1.0 0.0090702352
C  C97  1  0.30790000  0.59130000  0.92660000  1.0 -0.1580627454
C  C98  1  0.33570000  0.63120000  0.97650000  1.0 0.1076834976
C  C99  1  0.27800000  0.59220000  0.99580000  1.0 0.071838064
C  C100  1  0.24940000  0.54990000  0.94750000  1.0 -0.1580627454
C  C101  1  0.38300000  0.08880000  0.35260000  1.0 0.6068617753
C  C102  1  0.40470000  0.10180000  0.40590000  1.0 -0.0391967934
C  C103  1  0.45470000  0.12420000  0.43330000  1.0 -0.0904498968
C  C104  1  0.47640000  0.13730000  0.48450000  1.0 -0.1482845918
C  C105  1  0.44850000  0.12710000  0.50440000  1.0 0.154017621
C  C106  1  0.39320000  0.09980000  0.47240000  1.0 -0.1320177836
C  C107  1  0.37440000  0.08930000  0.42290000  1.0 -0.0703385681
C  C108  1  0.52970000  0.17710000  0.63300000  1.0 0.1701681095
C  C109  1  0.57850000  0.21720000  0.66650000  1.0 -0.1482845918
C  C110  1  0.60000000  0.23220000  0.71680000  1.0 -0.0955329846
C  C111  1  0.57740000  0.20590000  0.73470000  1.0 -0.0703385681
C  C112  1  0.53160000  0.16330000  0.70050000  1.0 -0.0904498968
C  C113  1  0.50620000  0.14700000  0.64920000  1.0 -0.1580627454
C  C114  1  0.59860000  0.22160000  0.78780000  1.0 0.5894628095
C  C115  1  0.35660000  0.99450000  0.23070000  1.0 0.5984884229
C  C116  1  0.36350000  0.94980000  0.21490000  1.0 0.0090702352
C  C117  1  0.33530000  0.90870000  0.21660000  1.0 -0.1580627454
C  C118  1  0.34530000  0.86880000  0.20450000  1.0 0.1076834976
C  C119  1  0.40360000  0.90780000  0.18580000  1.0 0.071838064
C  C120  1  0.39760000  0.95010000  0.19950000  1.0 -0.1580627454
C  C121  1  0.11700000  0.46960000  0.70580000  1.0 0.6068617753
C  C122  1  0.09530000  0.50120000  0.69710000  1.0 -0.0391967934
C  C123  1  0.04530000  0.47860000  0.66950000  1.0 -0.0904498968
C  C124  1  0.02360000  0.50810000  0.66090000  1.0 -0.1482845918
C  C125  1  0.05150000  0.55590000  0.67860000  1.0 0.154017621
C  C126  1  0.10680000  0.57920000  0.70660000  1.0 -0.1320177836
C  C127  1  0.12560000  0.54850000  0.71490000  1.0 -0.0703385681
C  C128  1  0.97030000  0.60330000  0.64740000  1.0 0.1701681095
C  C129  1  0.92150000  0.58800000  0.63870000  1.0 -0.1482845918
C  C130  1  0.90000000  0.61680000  0.63220000  1.0 -0.0955329846
C  C131  1  0.92260000  0.65730000  0.62850000  1.0 -0.0703385681
C  C132  1  0.96840000  0.66890000  0.63170000  1.0 -0.0904498968
C  C133  1  0.99380000  0.64300000  0.64080000  1.0 -0.1580627454
C  C134  1  0.90140000  0.68920000  0.62300000  1.0 0.5894628095
C  C135  1  0.14340000  0.37410000  0.63790000  1.0 0.5984884229
C  C136  1  0.13650000  0.35140000  0.58630000  1.0 0.0090702352
C  C137  1  0.16470000  0.38130000  0.57340000  1.0 -0.1580627454
C  C138  1  0.15470000  0.35920000  0.52350000  1.0 0.1076834976
C  C139  1  0.09640000  0.28220000  0.50420000  1.0 0.071838064
C  C140  1  0.10240000  0.30190000  0.55250000  1.0 -0.1580627454
C  C141  1  0.23620000  0.03040000  0.14740000  1.0 0.6068617753
C  C142  1  0.19590000  0.99880000  0.09410000  1.0 -0.0391967934
C  C143  1  0.19090000  0.02140000  0.06670000  1.0 -0.0904498968
C  C144  1  0.15280000  0.99190000  0.01550000  1.0 -0.1482845918
C  C145  1  0.12270000  0.94410000  0.99560000  1.0 0.154017621
C  C146  1  0.12740000  0.92080000  0.02760000  1.0 -0.1320177836
C  C147  1  0.16640000  0.95150000  0.07710000  1.0 -0.0703385681
C  C148  1  0.04410000  0.89670000  0.86700000  1.0 0.1701681095
C  C149  1  0.05070000  0.91200000  0.83350000  1.0 -0.1482845918
C  C150  1  0.01540000  0.88320000  0.78320000  1.0 -0.0955329846
C  C151  1  0.97120000  0.84270000  0.76530000  1.0 -0.0703385681
C  C152  1  0.96280000  0.83110000  0.79950000  1.0 -0.0904498968
C  C153  1  0.99780000  0.85700000  0.85080000  1.0 -0.1580627454
C  C154  1  0.93380000  0.81080000  0.71220000  1.0 0.5894628095
C  C155  1  0.26380000  0.12590000  0.26930000  1.0 0.5984884229
C  C156  1  0.23490000  0.14860000  0.28510000  1.0 0.0090702352
C  C157  1  0.19210000  0.11870000  0.28340000  1.0 -0.1580627454
C  C158  1  0.16430000  0.14080000  0.29550000  1.0 0.1076834976
C  C159  1  0.22200000  0.21780000  0.31420000  1.0 0.071838064
C  C160  1  0.25060000  0.19810000  0.30050000  1.0 -0.1580627454
C  C161  1  0.08880000  0.35260000  0.38300000  1.0 0.6068617753
C  C162  1  0.10180000  0.40590000  0.40470000  1.0 -0.0391967934
C  C163  1  0.12420000  0.43330000  0.45470000  1.0 -0.0904498968
C  C164  1  0.13730000  0.48450000  0.47640000  1.0 -0.1482845918
C  C165  1  0.12710000  0.50440000  0.44850000  1.0 0.154017621
C  C166  1  0.09980000  0.47240000  0.39320000  1.0 -0.1320177836
C  C167  1  0.08930000  0.42290000  0.37440000  1.0 -0.0703385681
C  C168  1  0.17710000  0.63300000  0.52970000  1.0 0.1701681095
C  C169  1  0.21720000  0.66650000  0.57850000  1.0 -0.1482845918
C  C170  1  0.23220000  0.71680000  0.60000000  1.0 -0.0955329846
C  C171  1  0.20590000  0.73470000  0.57740000  1.0 -0.0703385681
C  C172  1  0.16330000  0.70050000  0.53160000  1.0 -0.0904498968
C  C173  1  0.14700000  0.64920000  0.50620000  1.0 -0.1580627454
C  C174  1  0.22160000  0.78780000  0.59860000  1.0 0.5894628095
C  C175  1  0.99450000  0.23070000  0.35660000  1.0 0.5984884229
C  C176  1  0.94980000  0.21490000  0.36350000  1.0 0.0090702352
C  C177  1  0.90870000  0.21660000  0.33530000  1.0 -0.1580627454
C  C178  1  0.86880000  0.20450000  0.34530000  1.0 0.1076834976
C  C179  1  0.90780000  0.18580000  0.40360000  1.0 0.071838064
C  C180  1  0.95010000  0.19950000  0.39760000  1.0 -0.1580627454
C  C181  1  0.41120000  0.79420000  0.26380000  1.0 0.6068617753
C  C182  1  0.39820000  0.80290000  0.30410000  1.0 -0.0391967934
C  C183  1  0.37580000  0.83050000  0.30910000  1.0 -0.0904498968
C  C184  1  0.36270000  0.83910000  0.34720000  1.0 -0.1482845918
C  C185  1  0.37290000  0.82140000  0.37730000  1.0 0.154017621
C  C186  1  0.40020000  0.79340000  0.37260000  1.0 -0.1320177836
C  C187  1  0.41070000  0.78510000  0.33360000  1.0 -0.0703385681
C  C188  1  0.32290000  0.85260000  0.45590000  1.0 0.1701681095
C  C189  1  0.28280000  0.86130000  0.44930000  1.0 -0.1482845918
C  C190  1  0.26780000  0.86780000  0.48460000  1.0 -0.0955329846
C  C191  1  0.29410000  0.87150000  0.52880000  1.0 -0.0703385681
C  C192  1  0.33670000  0.86830000  0.53720000  1.0 -0.0904498968
C  C193  1  0.35300000  0.85920000  0.50220000  1.0 -0.1580627454
C  C194  1  0.27840000  0.87700000  0.56620000  1.0 0.5894628095
C  C195  1  0.50550000  0.86210000  0.23620000  1.0 0.5984884229
C  C196  1  0.55020000  0.91370000  0.26510000  1.0 0.0090702352
C  C197  1  0.59130000  0.92660000  0.30790000  1.0 -0.1580627454
C  C198  1  0.63120000  0.97650000  0.33570000  1.0 0.1076834976
C  C199  1  0.59220000  0.99580000  0.27800000  1.0 0.071838064
C  C200  1  0.54990000  0.94750000  0.24940000  1.0 -0.1580627454
C  C201  1  0.03040000  0.14740000  0.23620000  1.0 0.6068617753
C  C202  1  0.99880000  0.09410000  0.19590000  1.0 -0.0391967934
C  C203  1  0.02140000  0.06670000  0.19090000  1.0 -0.0904498968
C  C204  1  0.99190000  0.01550000  0.15280000  1.0 -0.1482845918
C  C205  1  0.94410000  0.99560000  0.12270000  1.0 0.1575983998
C  C206  1  0.92080000  0.02760000  0.12740000  1.0 -0.1320177836
C  C207  1  0.95150000  0.07710000  0.16640000  1.0 -0.0703385681
C  C208  1  0.89670000  0.86700000  0.04410000  1.0 0.1701681095
C  C209  1  0.91200000  0.83350000  0.05070000  1.0 -0.1482845918
C  C210  1  0.88320000  0.78320000  0.01540000  1.0 -0.0955329846
C  C211  1  0.84270000  0.76530000  0.97120000  1.0 -0.0703385681
C  C212  1  0.83110000  0.79950000  0.96280000  1.0 -0.0904498968
C  C213  1  0.85700000  0.85080000  0.99780000  1.0 -0.1580627454
C  C214  1  0.81080000  0.71220000  0.93380000  1.0 0.5894628095
C  C215  1  0.12590000  0.26930000  0.26380000  1.0 0.5984884229
C  C216  1  0.14860000  0.28510000  0.23490000  1.0 0.0090702352
C  C217  1  0.11870000  0.28340000  0.19210000  1.0 -0.1580627454
C  C218  1  0.14080000  0.29550000  0.16430000  1.0 0.1076834976
C  C219  1  0.21780000  0.31420000  0.22200000  1.0 0.071838064
C  C220  1  0.19810000  0.30050000  0.25060000  1.0 -0.1580627454
C  C221  1  0.46960000  0.70580000  0.11700000  1.0 0.6068617753
C  C222  1  0.50120000  0.69710000  0.09530000  1.0 -0.0391967934
C  C223  1  0.47860000  0.66950000  0.04530000  1.0 -0.0904498968
C  C224  1  0.50810000  0.66090000  0.02360000  1.0 -0.1482845918
C  C225  1  0.55590000  0.67860000  0.05150000  1.0 0.1575983998
C  C226  1  0.57920000  0.70660000  0.10680000  1.0 -0.1320177836
C  C227  1  0.54850000  0.71490000  0.12560000  1.0 -0.0703385681
C  C228  1  0.60330000  0.64740000  0.97030000  1.0 0.1701681095
C  C229  1  0.58800000  0.63870000  0.92150000  1.0 -0.1482845918
C  C230  1  0.61680000  0.63220000  0.90000000  1.0 -0.0955329846
C  C231  1  0.65730000  0.62850000  0.92260000  1.0 -0.0703385681
C  C232  1  0.66890000  0.63170000  0.96840000  1.0 -0.0904498968
C  C233  1  0.64300000  0.64080000  0.99380000  1.0 -0.1580627454
C  C234  1  0.68920000  0.62300000  0.90140000  1.0 0.5894628095
C  C235  1  0.37410000  0.63790000  0.14340000  1.0 0.5984884229
C  C236  1  0.35140000  0.58630000  0.13650000  1.0 0.0090702352
C  C237  1  0.38130000  0.57340000  0.16470000  1.0 -0.1580627454
C  C238  1  0.35920000  0.52350000  0.15470000  1.0 0.1076834976
C  C239  1  0.28220000  0.50420000  0.09640000  1.0 0.071838064
C  C240  1  0.30190000  0.55250000  0.10240000  1.0 -0.1580627454
C  C241  1  0.73620000  0.64740000  0.53040000  1.0 0.6068617753
C  C242  1  0.69590000  0.59410000  0.49880000  1.0 -0.0391967934
C  C243  1  0.69090000  0.56670000  0.52140000  1.0 -0.0904498968
C  C244  1  0.65280000  0.51550000  0.49190000  1.0 -0.1482845918
C  C245  1  0.62270000  0.49560000  0.44410000  1.0 0.1575983998
C  C246  1  0.62740000  0.52760000  0.42080000  1.0 -0.1320177836
C  C247  1  0.66640000  0.57710000  0.45150000  1.0 -0.0703385681
C  C248  1  0.54410000  0.36700000  0.39670000  1.0 0.1701681095
C  C249  1  0.55070000  0.33350000  0.41200000  1.0 -0.1482845918
C  C250  1  0.51540000  0.28320000  0.38320000  1.0 -0.0955329846
C  C251  1  0.47120000  0.26530000  0.34270000  1.0 -0.0703385681
C  C252  1  0.46280000  0.29950000  0.33110000  1.0 -0.0904498968
C  C253  1  0.49780000  0.35080000  0.35700000  1.0 -0.1580627454
C  C254  1  0.43380000  0.21220000  0.31080000  1.0 0.5894628095
C  C255  1  0.76380000  0.76930000  0.62590000  1.0 0.5984884229
C  C256  1  0.73490000  0.78510000  0.64860000  1.0 0.0090702352
C  C257  1  0.69210000  0.78340000  0.61870000  1.0 -0.1580627454
C  C258  1  0.66430000  0.79550000  0.64080000  1.0 0.1076834976
C  C259  1  0.72200000  0.81420000  0.71780000  1.0 0.071838064
C  C260  1  0.75060000  0.80050000  0.69810000  1.0 -0.1580627454
C  C261  1  0.61700000  0.20580000  0.96960000  1.0 0.6068617753
C  C262  1  0.59530000  0.19710000  0.00120000  1.0 -0.0391967934
C  C263  1  0.54530000  0.16950000  0.97860000  1.0 -0.0904498968
C  C264  1  0.52360000  0.16090000  0.00810000  1.0 -0.1482845918
C  C265  1  0.55150000  0.17860000  0.05590000  1.0 0.154017621
C  C266  1  0.60680000  0.20660000  0.07920000  1.0 -0.1320177836
C  C267  1  0.62560000  0.21490000  0.04850000  1.0 -0.0703385681
C  C268  1  0.47030000  0.14740000  0.10330000  1.0 0.1701681095
C  C269  1  0.42150000  0.13870000  0.08800000  1.0 -0.1482845918
C  C270  1  0.40000000  0.13220000  0.11680000  1.0 -0.0955329846
C  C271  1  0.42260000  0.12850000  0.15730000  1.0 -0.0703385681
C  C272  1  0.46840000  0.13170000  0.16890000  1.0 -0.0904498968
C  C273  1  0.49380000  0.14080000  0.14300000  1.0 -0.1580627454
C  C274  1  0.40140000  0.12300000  0.18920000  1.0 0.5894628095
C  C275  1  0.64340000  0.13790000  0.87410000  1.0 0.5984884229
C  C276  1  0.63650000  0.08630000  0.85140000  1.0 0.0090702352
C  C277  1  0.66470000  0.07340000  0.88130000  1.0 -0.1580627454
C  C278  1  0.65470000  0.02350000  0.85920000  1.0 0.1076834976
C  C279  1  0.59640000  0.00420000  0.78220000  1.0 0.071838064
C  C280  1  0.60240000  0.05250000  0.80190000  1.0 -0.1580627454
C  C281  1  0.88300000  0.85260000  0.58880000  1.0 0.6068617753
C  C282  1  0.90470000  0.90590000  0.60180000  1.0 -0.0391967934
C  C283  1  0.95470000  0.93330000  0.62420000  1.0 -0.0904498968
C  C284  1  0.97640000  0.98450000  0.63730000  1.0 -0.1482845918
C  C285  1  0.94850000  0.00440000  0.62710000  1.0 0.154017621
C  C286  1  0.89320000  0.97240000  0.59980000  1.0 -0.1320177836
C  C287  1  0.87440000  0.92290000  0.58930000  1.0 -0.0703385681
C  C288  1  0.02970000  0.13300000  0.67710000  1.0 0.1701681095
C  C289  1  0.07850000  0.16650000  0.71720000  1.0 -0.1482845918
C  C290  1  0.10000000  0.21680000  0.73220000  1.0 -0.0955329846
C  C291  1  0.07740000  0.23470000  0.70590000  1.0 -0.0703385681
C  C292  1  0.03160000  0.20050000  0.66330000  1.0 -0.0904498968
C  C293  1  0.00620000  0.14920000  0.64700000  1.0 -0.1580627454
C  C294  1  0.09860000  0.28780000  0.72160000  1.0 0.5894628095
C  C295  1  0.85660000  0.73070000  0.49450000  1.0 0.5984884229
C  C296  1  0.86350000  0.71490000  0.44980000  1.0 0.0090702352
C  C297  1  0.83530000  0.71660000  0.40870000  1.0 -0.1580627454
C  C298  1  0.84530000  0.70450000  0.36880000  1.0 0.1076834976
C  C299  1  0.90360000  0.68580000  0.40780000  1.0 0.071838064
C  C300  1  0.89760000  0.69950000  0.45010000  1.0 -0.1580627454
C  C301  1  0.76380000  0.29420000  0.91120000  1.0 0.6068617753
C  C302  1  0.80410000  0.30290000  0.89820000  1.0 -0.0391967934
C  C303  1  0.80910000  0.33050000  0.87580000  1.0 -0.0904498968
C  C304  1  0.84720000  0.33910000  0.86270000  1.0 -0.1482845918
C  C305  1  0.87730000  0.32140000  0.87290000  1.0 0.154017621
C  C306  1  0.87260000  0.29340000  0.90020000  1.0 -0.1320177836
C  C307  1  0.83360000  0.28510000  0.91070000  1.0 -0.0703385681
C  C308  1  0.95590000  0.35260000  0.82290000  1.0 0.1701681095
C  C309  1  0.94930000  0.36130000  0.78280000  1.0 -0.1482845918
C  C310  1  0.98460000  0.36780000  0.76780000  1.0 -0.0955329846
C  C311  1  0.02880000  0.37150000  0.79410000  1.0 -0.0703385681
C  C312  1  0.03720000  0.36830000  0.83670000  1.0 -0.0904498968
C  C313  1  0.00220000  0.35920000  0.85300000  1.0 -0.1580627454
C  C314  1  0.06620000  0.37700000  0.77840000  1.0 0.5894628095
C  C315  1  0.73620000  0.36210000  0.00550000  1.0 0.5984884229
C  C316  1  0.76510000  0.41370000  0.05020000  1.0 0.0090702352
C  C317  1  0.80790000  0.42660000  0.09130000  1.0 -0.1580627454
C  C318  1  0.83570000  0.47650000  0.13120000  1.0 0.1076834976
C  C319  1  0.77800000  0.49580000  0.09220000  1.0 0.071838064
C  C320  1  0.74940000  0.44750000  0.04990000  1.0 -0.1580627454
C  C321  1  0.91120000  0.76380000  0.29420000  1.0 0.6068617753
C  C322  1  0.89820000  0.80410000  0.30290000  1.0 -0.0391967934
C  C323  1  0.87580000  0.80910000  0.33050000  1.0 -0.0904498968
C  C324  1  0.86270000  0.84720000  0.33910000  1.0 -0.1482845918
C  C325  1  0.87290000  0.87730000  0.32140000  1.0 0.154017621
C  C326  1  0.90020000  0.87260000  0.29340000  1.0 -0.1320177836
C  C327  1  0.91070000  0.83360000  0.28510000  1.0 -0.0703385681
C  C328  1  0.82290000  0.95590000  0.35260000  1.0 0.1701681095
C  C329  1  0.78280000  0.94930000  0.36130000  1.0 -0.1482845918
C  C330  1  0.76780000  0.98460000  0.36780000  1.0 -0.0955329846
C  C331  1  0.79410000  0.02880000  0.37150000  1.0 -0.0703385681
C  C332  1  0.83670000  0.03720000  0.36830000  1.0 -0.0904498968
C  C333  1  0.85300000  0.00220000  0.35920000  1.0 -0.1580627454
C  C334  1  0.77840000  0.06620000  0.37700000  1.0 0.5894628095
C  C335  1  0.00550000  0.73620000  0.36210000  1.0 0.5984884229
C  C336  1  0.05020000  0.76510000  0.41370000  1.0 0.0090702352
C  C337  1  0.09130000  0.80790000  0.42660000  1.0 -0.1580627454
C  C338  1  0.13120000  0.83570000  0.47650000  1.0 0.1076834976
C  C339  1  0.09220000  0.77800000  0.49580000  1.0 0.071838064
C  C340  1  0.04990000  0.74940000  0.44750000  1.0 -0.1580627454
C  C341  1  0.58880000  0.88300000  0.85260000  1.0 0.6068617753
C  C342  1  0.60180000  0.90470000  0.90590000  1.0 -0.0391967934
C  C343  1  0.62420000  0.95470000  0.93330000  1.0 -0.0904498968
C  C344  1  0.63730000  0.97640000  0.98450000  1.0 -0.1482845918
C  C345  1  0.62710000  0.94850000  0.00440000  1.0 0.1575983998
C  C346  1  0.59980000  0.89320000  0.97240000  1.0 -0.1320177836
C  C347  1  0.58930000  0.87440000  0.92290000  1.0 -0.0703385681
C  C348  1  0.67710000  0.02970000  0.13300000  1.0 0.1701681095
C  C349  1  0.71720000  0.07850000  0.16650000  1.0 -0.1482845918
C  C350  1  0.73220000  0.10000000  0.21680000  1.0 -0.0955329846
C  C351  1  0.70590000  0.07740000  0.23470000  1.0 -0.0703385681
C  C352  1  0.66330000  0.03160000  0.20050000  1.0 -0.0904498968
C  C353  1  0.64700000  0.00620000  0.14920000  1.0 -0.1580627454
C  C354  1  0.72160000  0.09860000  0.28780000  1.0 0.5894628095
C  C355  1  0.49450000  0.85660000  0.73070000  1.0 0.5984884229
C  C356  1  0.44980000  0.86350000  0.71490000  1.0 0.0090702352
C  C357  1  0.40870000  0.83530000  0.71660000  1.0 -0.1580627454
C  C358  1  0.36880000  0.84530000  0.70450000  1.0 0.1076834976
C  C359  1  0.40780000  0.90360000  0.68580000  1.0 0.071838064
C  C360  1  0.45010000  0.89760000  0.69950000  1.0 -0.1580627454
C  C361  1  0.96960000  0.61700000  0.20580000  1.0 0.6068617753
C  C362  1  0.00120000  0.59530000  0.19710000  1.0 -0.0391967934
C  C363  1  0.97860000  0.54530000  0.16950000  1.0 -0.0904498968
C  C364  1  0.00810000  0.52360000  0.16090000  1.0 -0.1482845918
C  C365  1  0.05590000  0.55150000  0.17860000  1.0 0.154017621
C  C366  1  0.07920000  0.60680000  0.20660000  1.0 -0.1320177836
C  C367  1  0.04850000  0.62560000  0.21490000  1.0 -0.0703385681
C  C368  1  0.10330000  0.47030000  0.14740000  1.0 0.1701681095
C  C369  1  0.08800000  0.42150000  0.13870000  1.0 -0.1482845918
C  C370  1  0.11680000  0.40000000  0.13220000  1.0 -0.0955329846
C  C371  1  0.15730000  0.42260000  0.12850000  1.0 -0.0703385681
C  C372  1  0.16890000  0.46840000  0.13170000  1.0 -0.0904498968
C  C373  1  0.14300000  0.49380000  0.14080000  1.0 -0.1580627454
C  C374  1  0.18920000  0.40140000  0.12300000  1.0 0.5894628095
C  C375  1  0.87410000  0.64340000  0.13790000  1.0 0.5984884229
C  C376  1  0.85140000  0.63650000  0.08630000  1.0 0.0090702352
C  C377  1  0.88130000  0.66470000  0.07340000  1.0 -0.1580627454
C  C378  1  0.85920000  0.65470000  0.02350000  1.0 0.1076834976
C  C379  1  0.78220000  0.59640000  0.00420000  1.0 0.071838064
C  C380  1  0.80190000  0.60240000  0.05250000  1.0 -0.1580627454
C  C381  1  0.53040000  0.73620000  0.64740000  1.0 0.6068617753
C  C382  1  0.49880000  0.69590000  0.59410000  1.0 -0.0391967934
C  C383  1  0.52140000  0.69090000  0.56670000  1.0 -0.0904498968
C  C384  1  0.49190000  0.65280000  0.51550000  1.0 -0.1482845918
C  C385  1  0.44410000  0.62270000  0.49560000  1.0 0.154017621
C  C386  1  0.42080000  0.62740000  0.52760000  1.0 -0.1320177836
C  C387  1  0.45150000  0.66640000  0.57710000  1.0 -0.0703385681
C  C388  1  0.39670000  0.54410000  0.36700000  1.0 0.1701681095
C  C389  1  0.41200000  0.55070000  0.33350000  1.0 -0.1482845918
C  C390  1  0.38320000  0.51540000  0.28320000  1.0 -0.0955329846
C  C391  1  0.34270000  0.47120000  0.26530000  1.0 -0.0703385681
C  C392  1  0.33110000  0.46280000  0.29950000  1.0 -0.0904498968
C  C393  1  0.35700000  0.49780000  0.35080000  1.0 -0.1580627454
C  C394  1  0.31080000  0.43380000  0.21220000  1.0 0.5894628095
C  C395  1  0.62590000  0.76380000  0.76930000  1.0 0.5984884229
C  C396  1  0.64860000  0.73490000  0.78510000  1.0 0.0090702352
C  C397  1  0.61870000  0.69210000  0.78340000  1.0 -0.1580627454
C  C398  1  0.64080000  0.66430000  0.79550000  1.0 0.1076834976
C  C399  1  0.71780000  0.72200000  0.81420000  1.0 0.071838064
C  C400  1  0.69810000  0.75060000  0.80050000  1.0 -0.1580627454
C  C401  1  0.85260000  0.58880000  0.88300000  1.0 0.6068617753
C  C402  1  0.90590000  0.60180000  0.90470000  1.0 -0.0391967934
C  C403  1  0.93330000  0.62420000  0.95470000  1.0 -0.0904498968
C  C404  1  0.98450000  0.63730000  0.97640000  1.0 -0.1482845918
C  C405  1  0.00440000  0.62710000  0.94850000  1.0 0.1575983998
C  C406  1  0.97240000  0.59980000  0.89320000  1.0 -0.1320177836
C  C407  1  0.92290000  0.58930000  0.87440000  1.0 -0.0703385681
C  C408  1  0.13300000  0.67710000  0.02970000  1.0 0.1701681095
C  C409  1  0.16650000  0.71720000  0.07850000  1.0 -0.1482845918
C  C410  1  0.21680000  0.73220000  0.10000000  1.0 -0.0955329846
C  C411  1  0.23470000  0.70590000  0.07740000  1.0 -0.0703385681
C  C412  1  0.20050000  0.66330000  0.03160000  1.0 -0.0904498968
C  C413  1  0.14920000  0.64700000  0.00620000  1.0 -0.1580627454
C  C414  1  0.28780000  0.72160000  0.09860000  1.0 0.5894628095
C  C415  1  0.73070000  0.49450000  0.85660000  1.0 0.5984884229
C  C416  1  0.71490000  0.44980000  0.86350000  1.0 0.0090702352
C  C417  1  0.71660000  0.40870000  0.83530000  1.0 -0.1580627454
C  C418  1  0.70450000  0.36880000  0.84530000  1.0 0.1076834976
C  C419  1  0.68580000  0.40780000  0.90360000  1.0 0.071838064
C  C420  1  0.69950000  0.45010000  0.89760000  1.0 -0.1580627454
C  C421  1  0.29420000  0.91120000  0.76380000  1.0 0.6068617753
C  C422  1  0.30290000  0.89820000  0.80410000  1.0 -0.0391967934
C  C423  1  0.33050000  0.87580000  0.80910000  1.0 -0.0904498968
C  C424  1  0.33910000  0.86270000  0.84720000  1.0 -0.1482845918
C  C425  1  0.32140000  0.87290000  0.87730000  1.0 0.154017621
C  C426  1  0.29340000  0.90020000  0.87260000  1.0 -0.1320177836
C  C427  1  0.28510000  0.91070000  0.83360000  1.0 -0.0703385681
C  C428  1  0.35260000  0.82290000  0.95590000  1.0 0.1701681095
C  C429  1  0.36130000  0.78280000  0.94930000  1.0 -0.1482845918
C  C430  1  0.36780000  0.76780000  0.98460000  1.0 -0.0955329846
C  C431  1  0.37150000  0.79410000  0.02880000  1.0 -0.0703385681
C  C432  1  0.36830000  0.83670000  0.03720000  1.0 -0.0904498968
C  C433  1  0.35920000  0.85300000  0.00220000  1.0 -0.1580627454
C  C434  1  0.37700000  0.77840000  0.06620000  1.0 0.5894628095
C  C435  1  0.36210000  0.00550000  0.73620000  1.0 0.5984884229
C  C436  1  0.41370000  0.05020000  0.76510000  1.0 0.0090702352
C  C437  1  0.42660000  0.09130000  0.80790000  1.0 -0.1580627454
C  C438  1  0.47650000  0.13120000  0.83570000  1.0 0.1076834976
C  C439  1  0.49580000  0.09220000  0.77800000  1.0 0.071838064
C  C440  1  0.44750000  0.04990000  0.74940000  1.0 -0.1580627454
C  C441  1  0.64740000  0.53040000  0.73620000  1.0 0.6068617753
C  C442  1  0.59410000  0.49880000  0.69590000  1.0 -0.0391967934
C  C443  1  0.56670000  0.52140000  0.69090000  1.0 -0.0904498968
C  C444  1  0.51550000  0.49190000  0.65280000  1.0 -0.1482845918
C  C445  1  0.49560000  0.44410000  0.62270000  1.0 0.154017621
C  C446  1  0.52760000  0.42080000  0.62740000  1.0 -0.1320177836
C  C447  1  0.57710000  0.45150000  0.66640000  1.0 -0.0703385681
C  C448  1  0.36700000  0.39670000  0.54410000  1.0 0.1701681095
C  C449  1  0.33350000  0.41200000  0.55070000  1.0 -0.1482845918
C  C450  1  0.28320000  0.38320000  0.51540000  1.0 -0.0955329846
C  C451  1  0.26530000  0.34270000  0.47120000  1.0 -0.0703385681
C  C452  1  0.29950000  0.33110000  0.46280000  1.0 -0.0904498968
C  C453  1  0.35080000  0.35700000  0.49780000  1.0 -0.1580627454
C  C454  1  0.21220000  0.31080000  0.43380000  1.0 0.5894628095
C  C455  1  0.76930000  0.62590000  0.76380000  1.0 0.5984884229
C  C456  1  0.78510000  0.64860000  0.73490000  1.0 0.0090702352
C  C457  1  0.78340000  0.61870000  0.69210000  1.0 -0.1580627454
C  C458  1  0.79550000  0.64080000  0.66430000  1.0 0.1076834976
C  C459  1  0.81420000  0.71780000  0.72200000  1.0 0.071838064
C  C460  1  0.80050000  0.69810000  0.75060000  1.0 -0.1580627454
C  C461  1  0.20580000  0.96960000  0.61700000  1.0 0.6068617753
C  C462  1  0.19710000  0.00120000  0.59530000  1.0 -0.0391967934
C  C463  1  0.16950000  0.97860000  0.54530000  1.0 -0.0904498968
C  C464  1  0.16090000  0.00810000  0.52360000  1.0 -0.1482845918
C  C465  1  0.17860000  0.05590000  0.55150000  1.0 0.154017621
C  C466  1  0.20660000  0.07920000  0.60680000  1.0 -0.1320177836
C  C467  1  0.21490000  0.04850000  0.62560000  1.0 -0.0703385681
C  C468  1  0.14740000  0.10330000  0.47030000  1.0 0.1701681095
C  C469  1  0.13870000  0.08800000  0.42150000  1.0 -0.1482845918
C  C470  1  0.13220000  0.11680000  0.40000000  1.0 -0.0955329846
C  C471  1  0.12850000  0.15730000  0.42260000  1.0 -0.0703385681
C  C472  1  0.13170000  0.16890000  0.46840000  1.0 -0.0904498968
C  C473  1  0.14080000  0.14300000  0.49380000  1.0 -0.1580627454
C  C474  1  0.12300000  0.18920000  0.40140000  1.0 0.5894628095
C  C475  1  0.13790000  0.87410000  0.64340000  1.0 0.5984884229
C  C476  1  0.08630000  0.85140000  0.63650000  1.0 0.0090702352
C  C477  1  0.07340000  0.88130000  0.66470000  1.0 -0.1580627454
C  C478  1  0.02350000  0.85920000  0.65470000  1.0 0.1076834976
C  C479  1  0.00420000  0.78220000  0.59640000  1.0 0.071838064
C  C480  1  0.05250000  0.80190000  0.60240000  1.0 -0.1580627454
N  N1  1  0.94570000  0.07970000  0.91180000  1.0 -0.1580627454
N  N2  1  0.91780000  0.08430000  0.92930000  1.0 -0.1440026042
N  N3  1  0.31087000  0.17807000  0.18856000  1.0 -0.2228241331
N  N4  1  0.66790000  0.03390000  0.58820000  1.0 -0.1482845918
N  N5  1  0.65500000  0.98850000  0.57070000  1.0 -0.1482845918
N  N6  1  0.48951000  0.12231000  0.31144000  1.0 -0.2228241331
N  N7  1  0.55430000  0.46610000  0.13400000  1.0 -0.1580627454
N  N8  1  0.58220000  0.51150000  0.16650000  1.0 -0.1482845918
N  N9  1  0.18913000  0.37769000  0.86720000  1.0 -0.2228241331
N  N10  1  0.83210000  0.42030000  0.36600000  1.0 -0.1482845918
N  N11  1  0.84500000  0.41570000  0.33350000  1.0 -0.1440026042
N  N12  1  0.01049000  0.32193000  0.63280000  1.0 -0.2228241331
N  N13  1  0.42030000  0.36600000  0.83210000  1.0 -0.1482845918
N  N14  1  0.41570000  0.33350000  0.84500000  1.0 -0.1440026042
N  N15  1  0.32193000  0.63280000  0.01049000  1.0 -0.2228241331
N  N16  1  0.46610000  0.13400000  0.55430000  1.0 -0.1482845918
N  N17  1  0.51150000  0.16650000  0.58220000  1.0 -0.1440026042
N  N18  1  0.37769000  0.86720000  0.18913000  1.0 -0.2228241331
N  N19  1  0.03390000  0.58820000  0.66790000  1.0 -0.1580627454
N  N20  1  0.98850000  0.57070000  0.65500000  1.0 -0.1440026042
N  N21  1  0.12231000  0.31144000  0.48951000  1.0 -0.2228241331
N  N22  1  0.07970000  0.91180000  0.94570000  1.0 -0.1580627454
N  N23  1  0.08430000  0.92930000  0.91780000  1.0 -0.1482845918
N  N24  1  0.17807000  0.18856000  0.31087000  1.0 -0.2228241331
N  N25  1  0.13400000  0.55430000  0.46610000  1.0 -0.1482845918
N  N26  1  0.16650000  0.58220000  0.51150000  1.0 -0.1440026042
N  N27  1  0.86720000  0.18913000  0.37769000  1.0 -0.2228241331
N  N28  1  0.36600000  0.83210000  0.42030000  1.0 -0.1482845918
N  N29  1  0.33350000  0.84500000  0.41570000  1.0 -0.1440026042
N  N30  1  0.63280000  0.01049000  0.32193000  1.0 -0.2228241331
N  N31  1  0.91180000  0.94570000  0.07970000  1.0 -0.1482845918
N  N32  1  0.92930000  0.91780000  0.08430000  1.0 -0.1482845918
N  N33  1  0.18856000  0.31087000  0.17807000  1.0 -0.2228241331
N  N34  1  0.58820000  0.66790000  0.03390000  1.0 -0.1580627454
N  N35  1  0.57070000  0.65500000  0.98850000  1.0 -0.1482845918
N  N36  1  0.31144000  0.48951000  0.12231000  1.0 -0.2228241331
N  N37  1  0.57970000  0.44570000  0.41180000  1.0 -0.1580627454
N  N38  1  0.58430000  0.41780000  0.42930000  1.0 -0.1482845918
N  N39  1  0.67807000  0.81087000  0.68856000  1.0 -0.2228241331
N  N40  1  0.53390000  0.16790000  0.08820000  1.0 -0.1482845918
N  N41  1  0.48850000  0.15500000  0.07070000  1.0 -0.1482845918
N  N42  1  0.62231000  0.98951000  0.81144000  1.0 -0.2228241331
N  N43  1  0.96610000  0.05430000  0.63400000  1.0 -0.1482845918
N  N44  1  0.01150000  0.08220000  0.66650000  1.0 -0.1482845918
N  N45  1  0.87769000  0.68913000  0.36720000  1.0 -0.2228241331
N  N46  1  0.92030000  0.33210000  0.86600000  1.0 -0.1482845918
N  N47  1  0.91570000  0.34500000  0.83350000  1.0 -0.1440026042
N  N48  1  0.82193000  0.51049000  0.13280000  1.0 -0.2228241331
N  N49  1  0.86600000  0.92030000  0.33210000  1.0 -0.1482845918
N  N50  1  0.83350000  0.91570000  0.34500000  1.0 -0.1482845918
N  N51  1  0.13280000  0.82193000  0.51049000  1.0 -0.2228241331
N  N52  1  0.63400000  0.96610000  0.05430000  1.0 -0.1580627454
N  N53  1  0.66650000  0.01150000  0.08220000  1.0 -0.1482845918
N  N54  1  0.36720000  0.87769000  0.68913000  1.0 -0.2228241331
N  N55  1  0.08820000  0.53390000  0.16790000  1.0 -0.1482845918
N  N56  1  0.07070000  0.48850000  0.15500000  1.0 -0.1482845918
N  N57  1  0.81144000  0.62231000  0.98951000  1.0 -0.2228241331
N  N58  1  0.41180000  0.57970000  0.44570000  1.0 -0.1482845918
N  N59  1  0.42930000  0.58430000  0.41780000  1.0 -0.1482845918
N  N60  1  0.68856000  0.67807000  0.81087000  1.0 -0.2228241331
N  N61  1  0.05430000  0.63400000  0.96610000  1.0 -0.1580627454
N  N62  1  0.08220000  0.66650000  0.01150000  1.0 -0.1482845918
N  N63  1  0.68913000  0.36720000  0.87769000  1.0 -0.2228241331
N  N64  1  0.33210000  0.86600000  0.92030000  1.0 -0.1482845918
N  N65  1  0.34500000  0.83350000  0.91570000  1.0 -0.1440026042
N  N66  1  0.51049000  0.13280000  0.82193000  1.0 -0.2228241331
N  N67  1  0.44570000  0.41180000  0.57970000  1.0 -0.1482845918
N  N68  1  0.41780000  0.42930000  0.58430000  1.0 -0.1440026042
N  N69  1  0.81087000  0.68856000  0.67807000  1.0 -0.2228241331
N  N70  1  0.16790000  0.08820000  0.53390000  1.0 -0.1482845918
N  N71  1  0.15500000  0.07070000  0.48850000  1.0 -0.1440026042
N  N72  1  0.98951000  0.81144000  0.62231000  1.0 -0.2228241331
O  O1  1  0.17353000  0.24572000  0.01105000  1.0 -0.5300639245
O  O2  1  0.16219000  0.26357000  0.07704000  1.0 -0.5490018491
O  O3  1  0.69981000  0.89218000  0.77471000  1.0 -0.5409397357
O  O4  1  0.68251000  0.94433000  0.82054000  1.0 -0.5055917996
O  O5  1  0.26621000  0.25766000  0.08481000  1.0 -0.5490018491
O  O6  1  0.25960000  0.29447000  0.15289000  1.0 -0.5490018491
O  O7  1  0.73467000  0.16248000  0.48895000  1.0 -0.5300639245
O  O8  1  0.68653000  0.08515000  0.42296000  1.0 -0.5490018491
O  O9  1  0.61747000  0.92510000  0.72529000  1.0 -0.5409397357
O  O10  1  0.62379000  0.86197000  0.67946000  1.0 -0.5055917996
O  O11  1  0.67285000  0.18140000  0.41519000  1.0 -0.5490018491
O  O12  1  0.64158000  0.10671000  0.34711000  1.0 -0.5490018491
O  O13  1  0.32647000  0.33752000  0.07219000  1.0 -0.5300639245
O  O14  1  0.33781000  0.41485000  0.10138000  1.0 -0.5490018491
O  O15  1  0.80019000  0.57490000  0.19237000  1.0 -0.5409397357
O  O16  1  0.81749000  0.63803000  0.26182000  1.0 -0.5055917996
O  O17  1  0.23379000  0.31860000  0.99145000  1.0 -0.5490018491
O  O18  1  0.24040000  0.39329000  0.03487000  1.0 -0.5490018491
O  O19  1  0.76533000  0.25428000  0.42781000  1.0 -0.5300639245
O  O20  1  0.81347000  0.23643000  0.39862000  1.0 -0.5490018491
O  O21  1  0.88253000  0.60782000  0.30763000  1.0 -0.5409397357
O  O22  1  0.87621000  0.55567000  0.23818000  1.0 -0.5055917996
O  O23  1  0.82715000  0.24234000  0.50855000  1.0 -0.5490018491
O  O24  1  0.85842000  0.20553000  0.46513000  1.0 -0.5490018491
O  O25  1  0.25428000  0.42781000  0.76533000  1.0 -0.5300639245
O  O26  1  0.23643000  0.39862000  0.81347000  1.0 -0.5490018491
O  O27  1  0.60782000  0.30763000  0.88253000  1.0 -0.5409397357
O  O28  1  0.55567000  0.23818000  0.87621000  1.0 -0.5055917996
O  O29  1  0.24234000  0.50855000  0.82715000  1.0 -0.5490018491
O  O30  1  0.20553000  0.46513000  0.85842000  1.0 -0.5490018491
O  O31  1  0.33752000  0.07219000  0.32647000  1.0 -0.5300639245
O  O32  1  0.41485000  0.10138000  0.33781000  1.0 -0.5490018491
O  O33  1  0.57490000  0.19237000  0.80019000  1.0 -0.5409397357
O  O34  1  0.63803000  0.26182000  0.81749000  1.0 -0.5055917996
O  O35  1  0.31860000  0.99145000  0.23379000  1.0 -0.5490018491
O  O36  1  0.39329000  0.03487000  0.24040000  1.0 -0.5490018491
O  O37  1  0.16248000  0.48895000  0.73467000  1.0 -0.5300639245
O  O38  1  0.08515000  0.42296000  0.68653000  1.0 -0.5490018491
O  O39  1  0.92510000  0.72529000  0.61747000  1.0 -0.5409397357
O  O40  1  0.86197000  0.67946000  0.62379000  1.0 -0.5055917996
O  O41  1  0.18140000  0.41519000  0.67285000  1.0 -0.5490018491
O  O42  1  0.10671000  0.34711000  0.64158000  1.0 -0.5490018491
O  O43  1  0.24572000  0.01105000  0.17353000  1.0 -0.5300639245
O  O44  1  0.26357000  0.07704000  0.16219000  1.0 -0.5490018491
O  O45  1  0.89218000  0.77471000  0.69981000  1.0 -0.5409397357
O  O46  1  0.94433000  0.82054000  0.68251000  1.0 -0.5055917996
O  O47  1  0.25766000  0.08481000  0.26621000  1.0 -0.5490018491
O  O48  1  0.29447000  0.15289000  0.25960000  1.0 -0.5490018491
O  O49  1  0.07219000  0.32647000  0.33752000  1.0 -0.5300639245
O  O50  1  0.10138000  0.33781000  0.41485000  1.0 -0.5490018491
O  O51  1  0.19237000  0.80019000  0.57490000  1.0 -0.5409397357
O  O52  1  0.26182000  0.81749000  0.63803000  1.0 -0.5055917996
O  O53  1  0.99145000  0.23379000  0.31860000  1.0 -0.5490018491
O  O54  1  0.03487000  0.24040000  0.39329000  1.0 -0.5490018491
O  O55  1  0.42781000  0.76533000  0.25428000  1.0 -0.5300639245
O  O56  1  0.39862000  0.81347000  0.23643000  1.0 -0.5490018491
O  O57  1  0.30763000  0.88253000  0.60782000  1.0 -0.5409397357
O  O58  1  0.23818000  0.87621000  0.55567000  1.0 -0.5055917996
O  O59  1  0.50855000  0.82715000  0.24234000  1.0 -0.5490018491
O  O60  1  0.46513000  0.85842000  0.20553000  1.0 -0.5490018491
O  O61  1  0.01105000  0.17353000  0.24572000  1.0 -0.5300639245
O  O62  1  0.07704000  0.16219000  0.26357000  1.0 -0.5490018491
O  O63  1  0.77471000  0.69981000  0.89218000  1.0 -0.5409397357
O  O64  1  0.82054000  0.68251000  0.94433000  1.0 -0.5055917996
O  O65  1  0.08481000  0.26621000  0.25766000  1.0 -0.5490018491
O  O66  1  0.15289000  0.25960000  0.29447000  1.0 -0.5490018491
O  O67  1  0.48895000  0.73467000  0.16248000  1.0 -0.5300639245
O  O68  1  0.42296000  0.68653000  0.08515000  1.0 -0.5490018491
O  O69  1  0.72529000  0.61747000  0.92510000  1.0 -0.5409397357
O  O70  1  0.67946000  0.62379000  0.86197000  1.0 -0.5055917996
O  O71  1  0.41519000  0.67285000  0.18140000  1.0 -0.5490018491
O  O72  1  0.34711000  0.64158000  0.10671000  1.0 -0.5490018491
O  O73  1  0.74572000  0.67353000  0.51105000  1.0 -0.5300639245
O  O74  1  0.76357000  0.66219000  0.57704000  1.0 -0.5490018491
O  O75  1  0.39218000  0.19981000  0.27471000  1.0 -0.5409397357
O  O76  1  0.44433000  0.18251000  0.32054000  1.0 -0.5055917996
O  O77  1  0.75766000  0.76621000  0.58481000  1.0 -0.5490018491
O  O78  1  0.79447000  0.75960000  0.65289000  1.0 -0.5490018491
O  O79  1  0.66248000  0.23467000  0.98895000  1.0 -0.5300639245
O  O80  1  0.58515000  0.18653000  0.92296000  1.0 -0.5490018491
O  O81  1  0.42510000  0.11747000  0.22529000  1.0 -0.5409397357
O  O82  1  0.36197000  0.12379000  0.17946000  1.0 -0.5055917996
O  O83  1  0.68140000  0.17285000  0.91519000  1.0 -0.5490018491
O  O84  1  0.60671000  0.14158000  0.84711000  1.0 -0.5490018491
O  O85  1  0.83752000  0.82647000  0.57219000  1.0 -0.5300639245
O  O86  1  0.91485000  0.83781000  0.60138000  1.0 -0.5490018491
O  O87  1  0.07490000  0.30019000  0.69237000  1.0 -0.5409397357
O  O88  1  0.13803000  0.31749000  0.76182000  1.0 -0.5055917996
O  O89  1  0.81860000  0.73379000  0.49145000  1.0 -0.5490018491
O  O90  1  0.89329000  0.74040000  0.53487000  1.0 -0.5490018491
O  O91  1  0.75428000  0.26533000  0.92781000  1.0 -0.5300639245
O  O92  1  0.73643000  0.31347000  0.89862000  1.0 -0.5490018491
O  O93  1  0.10782000  0.38253000  0.80763000  1.0 -0.5409397357
O  O94  1  0.05567000  0.37621000  0.73818000  1.0 -0.5055917996
O  O95  1  0.74234000  0.32715000  0.00855000  1.0 -0.5490018491
O  O96  1  0.70553000  0.35842000  0.96513000  1.0 -0.5490018491
O  O97  1  0.92781000  0.75428000  0.26533000  1.0 -0.5300639245
O  O98  1  0.89862000  0.73643000  0.31347000  1.0 -0.5490018491
O  O99  1  0.80763000  0.10782000  0.38253000  1.0 -0.5409397357
O  O100  1  0.73818000  0.05567000  0.37621000  1.0 -0.5055917996
O  O101  1  0.00855000  0.74234000  0.32715000  1.0 -0.5490018491
O  O102  1  0.96513000  0.70553000  0.35842000  1.0 -0.5490018491
O  O103  1  0.57219000  0.83752000  0.82647000  1.0 -0.5300639245
O  O104  1  0.60138000  0.91485000  0.83781000  1.0 -0.5490018491
O  O105  1  0.69237000  0.07490000  0.30019000  1.0 -0.5409397357
O  O106  1  0.76182000  0.13803000  0.31749000  1.0 -0.5055917996
O  O107  1  0.49145000  0.81860000  0.73379000  1.0 -0.5490018491
O  O108  1  0.53487000  0.89329000  0.74040000  1.0 -0.5490018491
O  O109  1  0.98895000  0.66248000  0.23467000  1.0 -0.5300639245
O  O110  1  0.92296000  0.58515000  0.18653000  1.0 -0.5490018491
O  O111  1  0.22529000  0.42510000  0.11747000  1.0 -0.5409397357
O  O112  1  0.17946000  0.36197000  0.12379000  1.0 -0.5055917996
O  O113  1  0.91519000  0.68140000  0.17285000  1.0 -0.5490018491
O  O114  1  0.84711000  0.60671000  0.14158000  1.0 -0.5490018491
O  O115  1  0.51105000  0.74572000  0.67353000  1.0 -0.5300639245
O  O116  1  0.57704000  0.76357000  0.66219000  1.0 -0.5490018491
O  O117  1  0.27471000  0.39218000  0.19981000  1.0 -0.5409397357
O  O118  1  0.32054000  0.44433000  0.18251000  1.0 -0.5055917996
O  O119  1  0.58481000  0.75766000  0.76621000  1.0 -0.5490018491
O  O120  1  0.65289000  0.79447000  0.75960000  1.0 -0.5490018491
O  O121  1  0.82647000  0.57219000  0.83752000  1.0 -0.5300639245
O  O122  1  0.83781000  0.60138000  0.91485000  1.0 -0.5490018491
O  O123  1  0.30019000  0.69237000  0.07490000  1.0 -0.5409397357
O  O124  1  0.31749000  0.76182000  0.13803000  1.0 -0.5055917996
O  O125  1  0.73379000  0.49145000  0.81860000  1.0 -0.5490018491
O  O126  1  0.74040000  0.53487000  0.89329000  1.0 -0.5490018491
O  O127  1  0.26533000  0.92781000  0.75428000  1.0 -0.5300639245
O  O128  1  0.31347000  0.89862000  0.73643000  1.0 -0.5490018491
O  O129  1  0.38253000  0.80763000  0.10782000  1.0 -0.5409397357
O  O130  1  0.37621000  0.73818000  0.05567000  1.0 -0.5055917996
O  O131  1  0.32715000  0.00855000  0.74234000  1.0 -0.5490018491
O  O132  1  0.35842000  0.96513000  0.70553000  1.0 -0.5490018491
O  O133  1  0.67353000  0.51105000  0.74572000  1.0 -0.5300639245
O  O134  1  0.66219000  0.57704000  0.76357000  1.0 -0.5490018491
O  O135  1  0.19981000  0.27471000  0.39218000  1.0 -0.5409397357
O  O136  1  0.18251000  0.32054000  0.44433000  1.0 -0.5055917996
O  O137  1  0.76621000  0.58481000  0.75766000  1.0 -0.5490018491
O  O138  1  0.75960000  0.65289000  0.79447000  1.0 -0.5490018491
O  O139  1  0.23467000  0.98895000  0.66248000  1.0 -0.5300639245
O  O140  1  0.18653000  0.92296000  0.58515000  1.0 -0.5490018491
O  O141  1  0.11747000  0.22529000  0.42510000  1.0 -0.5409397357
O  O142  1  0.12379000  0.17946000  0.36197000  1.0 -0.5055917996
O  O143  1  0.17285000  0.91519000  0.68140000  1.0 -0.5490018491
O  O144  1  0.14158000  0.84711000  0.60671000  1.0 -0.5490018491
O  O145  1  0.25000000  0.34583000  0.09583000  1.0 -0.8770192884
O  O146  1  0.75000000  0.15417000  0.40417000  1.0 -0.8770192884
O  O147  1  0.15417000  0.40417000  0.75000000  1.0 -0.8770192884
O  O148  1  0.34583000  0.09583000  0.25000000  1.0 -0.8770192884
O  O149  1  0.09583000  0.25000000  0.34583000  1.0 -0.8770192884
O  O150  1  0.40417000  0.75000000  0.15417000  1.0 -0.8770192884
O  O151  1  0.84583000  0.75000000  0.59583000  1.0 -0.8770192884
O  O152  1  0.65417000  0.25000000  0.90417000  1.0 -0.8770192884
O  O153  1  0.90417000  0.65417000  0.25000000  1.0 -0.8770192884
O  O154  1  0.59583000  0.84583000  0.75000000  1.0 -0.8770192884
O  O155  1  0.75000000  0.59583000  0.84583000  1.0 -0.8770192884
O  O156  1  0.25000000  0.90417000  0.65417000  1.0 -0.8770192884
