# DDEC6 charges by PACMAN v1.1 (https://github.com/mtap-research/PACMAN-charge/)
data_VEFJOG_ion_pacman
_symmetry_space_group_name_H-M   'P 1'
_cell_length_a   10.41000000
_cell_length_b   13.12600000
_cell_length_c   19.28200000
_cell_angle_alpha   86.69200000
_cell_angle_beta   78.25600000
_cell_angle_gamma   76.86700000
_symmetry_Int_Tables_number   1
_chemical_formula_structural   AgH12C22SN4(OF)3
_chemical_formula_sum   'Ag4 H48 C88 S4 N16 O12 F12'
_cell_volume   2511.92188613
_cell_formula_units_Z   4
loop_
 _symmetry_equiv_pos_site_id
 _symmetry_equiv_pos_as_xyz
  1  'x, y, z'
loop_
 _atom_site_type_symbol
 _atom_site_label
 _atom_site_symmetry_multiplicity
 _atom_site_fract_x
 _atom_site_fract_y
 _atom_site_fract_z
 _atom_site_occupancy
 _atom_site_charge
Ag  Ag1  1  0.91086000  0.81448000  0.38315000  1.0 0.4110111846
Ag  Ag2  1  0.08914000  0.18552000  0.61685000  1.0 0.4110111846
Ag  Ag3  1  0.71961000  0.62813000  0.85162000  1.0 0.5776132001
Ag  Ag4  1  0.28039000  0.37187000  0.14838000  1.0 0.5776132001
H  H1  1  0.00550000  0.79480000  0.21830000  1.0 0.2719245953
H  H2  1  0.99450000  0.20520000  0.78170000  1.0 0.2719245953
H  H3  1  0.63520000  0.92140000  0.33580000  1.0 0.2719245953
H  H4  1  0.36480000  0.07860000  0.66420000  1.0 0.2719245953
H  H5  1  0.92080000  0.39000000  0.26540000  1.0 0.1290274307
H  H6  1  0.07920000  0.61000000  0.73460000  1.0 0.1290274307
H  H7  1  0.98930000  0.35590000  0.13570000  1.0 0.1214936146
H  H8  1  0.01070000  0.64410000  0.86430000  1.0 0.1214936146
H  H9  1  0.06830000  0.49920000  0.07600000  1.0 0.1391693953
H  H10  1  0.93170000  0.50080000  0.92400000  1.0 0.1391693953
H  H11  1  0.28660000  0.60010000  0.08620000  1.0 0.1290274307
H  H12  1  0.71340000  0.39990000  0.91380000  1.0 0.1290274307
H  H13  1  0.29840000  0.83200000  0.94070000  1.0 0.1214936146
H  H14  1  0.70160000  0.16800000  0.05930000  1.0 0.1214936146
H  H15  1  0.09510000  0.92210000  0.00070000  1.0 0.1290274307
H  H16  1  0.90490000  0.07790000  0.99930000  1.0 0.1290274307
H  H17  1  0.98630000  0.85260000  0.10170000  1.0 0.1214936146
H  H18  1  0.01370000  0.14740000  0.89830000  1.0 0.1214936146
H  H19  1  0.68100000  0.67030000  0.36880000  1.0 0.1108616022
H  H20  1  0.31900000  0.32970000  0.63120000  1.0 0.1108616022
H  H21  1  0.57230000  0.61230000  0.47480000  1.0 0.1214936146
H  H22  1  0.42770000  0.38770000  0.52520000  1.0 0.1214936146
H  H23  1  0.68620000  0.47420000  0.53480000  1.0 0.1290274307
H  H24  1  0.31380000  0.52580000  0.46520000  1.0 0.1290274307
H  H25  1  0.01300000  0.45630000  0.38350000  1.0 0.1290274307
H  H26  1  0.98700000  0.54370000  0.61650000  1.0 0.1290274307
H  H27  1  0.42340000  0.79550000  0.61080000  1.0 0.1214936146
H  H28  1  0.57660000  0.20450000  0.38920000  1.0 0.1214936146
H  H29  1  0.21990000  0.76820000  0.57380000  1.0 0.1108616022
H  H30  1  0.78010000  0.23180000  0.42620000  1.0 0.1108616022
H  H31  1  0.23710000  0.79880000  0.44430000  1.0 0.1214936146
H  H32  1  0.76290000  0.20120000  0.55570000  1.0 0.1214936146
H  H33  1  0.45270000  0.04120000  0.29660000  1.0 0.1290274307
H  H34  1  0.54730000  0.95880000  0.70340000  1.0 0.1290274307
H  H35  1  0.24700000  0.95660000  0.16430000  1.0 0.1214936146
H  H36  1  0.75300000  0.04340000  0.83570000  1.0 0.1214936146
H  H37  1  0.24910000  0.79870000  0.22370000  1.0 0.1214936146
H  H38  1  0.75090000  0.20130000  0.77630000  1.0 0.1214936146
H  H39  1  0.36070000  0.75980000  0.31810000  1.0 0.1214936146
H  H40  1  0.63930000  0.24020000  0.68190000  1.0 0.1214936146
H  H41  1  0.66220000  0.71270000  0.59390000  1.0 0.1214936146
H  H42  1  0.33780000  0.28730000  0.40610000  1.0 0.1214936146
H  H43  1  0.79920000  0.69610000  0.67480000  1.0 0.1290274307
H  H44  1  0.20080000  0.30390000  0.32520000  1.0 0.1290274307
H  H45  1  0.92900000  0.81710000  0.67560000  1.0 0.1214936146
H  H46  1  0.07100000  0.18290000  0.32440000  1.0 0.1214936146
H  H47  1  0.77890000  0.97280000  0.51350000  1.0 0.1214936146
H  H48  1  0.22110000  0.02720000  0.48650000  1.0 0.1214936146
C  C1  1  0.97290000  0.53270000  0.23920000  1.0 -0.0087741432
C  C2  1  0.02710000  0.46730000  0.76080000  1.0 -0.0087741432
C  C3  1  0.96260000  0.43100000  0.23100000  1.0 -0.1695316331
C  C4  1  0.03740000  0.56900000  0.76900000  1.0 -0.1695316331
C  C5  1  0.02670000  0.40080000  0.16140000  1.0 -0.1280750307
C  C6  1  0.97330000  0.59920000  0.83860000  1.0 -0.1280750307
C  C7  1  0.07800000  0.48410000  0.12520000  1.0 -0.2191140326
C  C8  1  0.92200000  0.51590000  0.87480000  1.0 -0.2191140326
C  C9  1  0.04270000  0.56740000  0.17350000  1.0 -0.0241710236
C  C10  1  0.95730000  0.43260000  0.82650000  1.0 -0.0241710236
C  C11  1  0.05560000  0.66940000  0.16650000  1.0 0.1391693953
C  C12  1  0.94440000  0.33060000  0.83350000  1.0 0.1391693953
C  C13  1  0.12360000  0.71770000  0.10260000  1.0 0.0393992072
C  C14  1  0.87640000  0.28230000  0.89740000  1.0 0.0393992072
C  C15  1  0.24680000  0.66410000  0.06810000  1.0 -0.1426247405
C  C16  1  0.75320000  0.33590000  0.93190000  1.0 -0.1426247405
C  C17  1  0.31270000  0.70500000  0.00610000  1.0 0.0393992072
C  C18  1  0.68730000  0.29500000  0.99390000  1.0 0.0393992072
C  C19  1  0.43980000  0.65050000  0.96820000  1.0 0.2994195176
C  C20  1  0.56020000  0.34950000  0.03180000  1.0 0.2994195176
C  C21  1  0.25470000  0.80320000  0.98140000  1.0 -0.1020246083
C  C22  1  0.74530000  0.19680000  0.01860000  1.0 -0.1020246083
C  C23  1  0.13390000  0.85670000  0.01720000  1.0 -0.0730785302
C  C24  1  0.86610000  0.14330000  0.98280000  1.0 -0.0818082707
C  C25  1  0.06850000  0.81490000  0.07760000  1.0 -0.1020246083
C  C26  1  0.93150000  0.18510000  0.92240000  1.0 -0.1020246083
C  C27  1  0.92550000  0.60250000  0.29530000  1.0 0.1391693953
C  C28  1  0.07450000  0.39750000  0.70470000  1.0 0.1391693953
C  C29  1  0.85790000  0.56990000  0.36560000  1.0 0.0393992072
C  C30  1  0.14210000  0.43010000  0.63440000  1.0 0.0393992072
C  C31  1  0.72670000  0.61530000  0.39320000  1.0 -0.1182975071
C  C32  1  0.27330000  0.38470000  0.60680000  1.0 -0.1182975071
C  C33  1  0.66140000  0.58080000  0.45640000  1.0 -0.0818082707
C  C34  1  0.33860000  0.41920000  0.54360000  1.0 -0.0818082707
C  C35  1  0.73000000  0.49870000  0.49240000  1.0 -0.1020246083
C  C36  1  0.27000000  0.50130000  0.50760000  1.0 -0.1020246083
C  C37  1  0.86290000  0.45290000  0.46580000  1.0 0.0393992072
C  C38  1  0.13710000  0.54710000  0.53420000  1.0 0.0393992072
C  C39  1  0.93230000  0.36900000  0.50450000  1.0 0.2919670595
C  C40  1  0.06770000  0.63100000  0.49550000  1.0 0.2919670595
C  C41  1  0.92440000  0.48820000  0.40230000  1.0 -0.1426247405
C  C42  1  0.07560000  0.51180000  0.59770000  1.0 -0.1426247405
C  C43  1  0.62170000  0.85330000  0.49070000  1.0 0.1290274307
C  C44  1  0.37830000  0.14670000  0.50930000  1.0 0.1290274307
C  C45  1  0.49170000  0.83130000  0.50410000  1.0 -0.032235642
C  C46  1  0.50830000  0.16870000  0.49590000  1.0 -0.032235642
C  C47  1  0.40660000  0.80280000  0.56500000  1.0 -0.1610223996
C  C48  1  0.59340000  0.19720000  0.43500000  1.0 -0.1610223996
C  C49  1  0.29230000  0.78780000  0.54350000  1.0 -0.1020246083
C  C50  1  0.70770000  0.21220000  0.45650000  1.0 -0.1020246083
C  C51  1  0.30020000  0.80570000  0.47060000  1.0 -0.1798220323
C  C52  1  0.69980000  0.19430000  0.52940000  1.0 -0.1798220323
C  C53  1  0.42280000  0.83640000  0.44500000  1.0 -0.0445659654
C  C54  1  0.57720000  0.16360000  0.55500000  1.0 -0.0445659654
C  C55  1  0.48050000  0.87410000  0.38010000  1.0 0.1290274307
C  C56  1  0.51950000  0.12590000  0.61990000  1.0 0.1290274307
C  C57  1  0.41710000  0.89680000  0.31800000  1.0 0.0331177479
C  C58  1  0.58290000  0.10320000  0.68200000  1.0 0.0331177479
C  C59  1  0.41200000  0.99180000  0.28250000  1.0 -0.1505219313
C  C60  1  0.58800000  0.00820000  0.71750000  1.0 -0.1505219313
C  C61  1  0.34670000  0.01330000  0.22630000  1.0 0.0393992072
C  C62  1  0.65330000  0.98670000  0.77370000  1.0 0.0393992072
C  C63  1  0.33960000  0.11300000  0.19220000  1.0 0.2994195176
C  C64  1  0.66040000  0.88700000  0.80780000  1.0 0.2994195176
C  C65  1  0.28830000  0.94140000  0.20330000  1.0 -0.1020246083
C  C66  1  0.71170000  0.05860000  0.79670000  1.0 -0.1020246083
C  C67  1  0.29090000  0.84720000  0.23800000  1.0 -0.0730785302
C  C68  1  0.70910000  0.15280000  0.76200000  1.0 -0.0730785302
C  C69  1  0.35700000  0.82440000  0.29510000  1.0 -0.1020246083
C  C70  1  0.64300000  0.17560000  0.70490000  1.0 -0.1020246083
C  C71  1  0.70620000  0.84390000  0.54440000  1.0 0.0393992072
C  C72  1  0.29380000  0.15610000  0.45560000  1.0 0.0393992072
C  C73  1  0.71400000  0.76180000  0.59390000  1.0 -0.1020246083
C  C74  1  0.28600000  0.23820000  0.40610000  1.0 -0.1020246083
C  C75  1  0.79570000  0.75160000  0.64250000  1.0 -0.0818082707
C  C76  1  0.20430000  0.24840000  0.35750000  1.0 -0.0818082707
C  C77  1  0.87250000  0.82390000  0.64310000  1.0 -0.1280750307
C  C78  1  0.12750000  0.17610000  0.35690000  1.0 -0.1280750307
C  C79  1  0.86540000  0.90700000  0.59530000  1.0 0.0564690372
C  C80  1  0.13460000  0.09300000  0.40470000  1.0 0.0564690372
C  C81  1  0.93960000  0.98720000  0.60000000  1.0 0.3088305546
C  C82  1  0.06040000  0.01280000  0.40000000  1.0 0.3088305546
C  C83  1  0.78270000  0.91710000  0.54570000  1.0 -0.1695316331
C  C84  1  0.21730000  0.08290000  0.45430000  1.0 -0.1695316331
C  C85  1  0.47800000  0.51950000  0.72550000  1.0 0.4912341488
C  C86  1  0.52200000  0.48050000  0.27450000  1.0 0.4912341488
C  C87  1  0.14710000  0.85820000  0.78220000  1.0 0.4507634593
C  C88  1  0.85290000  0.14180000  0.21780000  1.0 0.4507634593
S  S1  1  0.65840000  0.47890000  0.72856000  1.0 0.9706087662
S  S2  1  0.34160000  0.52110000  0.27144000  1.0 0.9706087662
S  S3  1  0.16980000  0.98461000  0.78766000  1.0 1.002488221
S  S4  1  0.83020000  0.01539000  0.21234000  1.0 1.002488221
N  N1  1  0.00000000  0.73040000  0.22340000  1.0 -0.1129419999
N  N2  1  0.00000000  0.26960000  0.77660000  1.0 -0.1129419999
N  N3  1  0.93580000  0.70220000  0.28840000  1.0 -0.2072242247
N  N4  1  0.06420000  0.29780000  0.71160000  1.0 -0.2072242247
N  N5  1  0.98820000  0.30400000  0.53570000  1.0 -0.3565135943
N  N6  1  0.01180000  0.69600000  0.46430000  1.0 -0.3565135943
N  N7  1  0.54020000  0.60920000  0.93680000  1.0 -0.3771629231
N  N8  1  0.45980000  0.39080000  0.06320000  1.0 -0.3771629231
N  N9  1  0.60090000  0.89640000  0.37580000  1.0 -0.1129419999
N  N10  1  0.39910000  0.10360000  0.62420000  1.0 -0.1129419999
N  N11  1  0.67570000  0.88420000  0.42710000  1.0 -0.2072242247
N  N12  1  0.32430000  0.11580000  0.57290000  1.0 -0.2072242247
N  N13  1  0.99280000  0.05030000  0.60410000  1.0 -0.3524102169
N  N14  1  0.00720000  0.94970000  0.39590000  1.0 -0.3524102169
N  N15  1  0.33300000  0.19580000  0.16790000  1.0 -0.3746060478
N  N16  1  0.66700000  0.80420000  0.83210000  1.0 -0.3746060478
O  O1  1  0.65660000  0.40990000  0.78680000  1.0 -0.5124603259
O  O2  1  0.34340000  0.59010000  0.21320000  1.0 -0.5124603259
O  O3  1  0.72010000  0.43130000  0.66400000  1.0 -0.5124603259
O  O4  1  0.27990000  0.56870000  0.33600000  1.0 -0.5124603259
O  O5  1  0.69290000  0.57210000  0.74150000  1.0 -0.529990648
O  O6  1  0.30710000  0.42790000  0.25850000  1.0 -0.529990648
O  O7  1  0.18270000  0.98520000  0.86290000  1.0 -0.5739325034
O  O8  1  0.04990000  0.04930000  0.76960000  1.0 -0.5791487144
O  O9  1  0.28500000  0.98990000  0.73700000  1.0 -0.5435766326
O  O10  1  0.81730000  0.01480000  0.13710000  1.0 -0.5739325034
O  O11  1  0.95010000  0.95070000  0.23040000  1.0 -0.5791487144
O  O12  1  0.71500000  0.01010000  0.26300000  1.0 -0.5435766326
F  F1  1  0.43700000  0.43970000  0.71380000  1.0 -0.1695316331
F  F2  1  0.56300000  0.56030000  0.28620000  1.0 -0.1695316331
F  F3  1  0.47320000  0.58160000  0.66780000  1.0 -0.1862895312
F  F4  1  0.52680000  0.41840000  0.33220000  1.0 -0.1862895312
F  F5  1  0.41370000  0.56820000  0.77790000  1.0 -0.1505219313
F  F6  1  0.58630000  0.43180000  0.22210000  1.0 -0.1505219313
F  F7  1  0.13970000  0.84200000  0.71370000  1.0 -0.1862895312
F  F8  1  0.03390000  0.84730000  0.81960000  1.0 -0.1695316331
F  F9  1  0.23790000  0.78730000  0.80140000  1.0 -0.1695316331
F  F10  1  0.86030000  0.15800000  0.28630000  1.0 -0.1862895312
F  F11  1  0.96610000  0.15270000  0.18040000  1.0 -0.1695316331
F  F12  1  0.76210000  0.21270000  0.19860000  1.0 -0.1695316331
