# DDEC6 charges by PACMAN v1.1 (https://github.com/mtap-research/PACMAN-charge/)
data_VEFMAW_FSR_pacman
_symmetry_space_group_name_H-M   'P 1'
_cell_length_a   24.33450000
_cell_length_b   24.33450000
_cell_length_c   24.33450000
_cell_angle_alpha   105.91900000
_cell_angle_beta   105.91900000
_cell_angle_gamma   105.91900000
_symmetry_Int_Tables_number   1
_chemical_formula_structural   Co5H62C88(N3O14)2
_chemical_formula_sum   'Co15 H186 C264 N18 O84'
_cell_volume   12337.67510091
_cell_formula_units_Z   3
loop_
 _symmetry_equiv_pos_site_id
 _symmetry_equiv_pos_as_xyz
  1  'x, y, z'
loop_
 _atom_site_type_symbol
 _atom_site_label
 _atom_site_symmetry_multiplicity
 _atom_site_fract_x
 _atom_site_fract_y
 _atom_site_fract_z
 _atom_site_occupancy
 _atom_site_charge
Co  Co1  1  0.50000000  0.50000000  0.00000000  1.0 1.0965503516
Co  Co2  1  0.50000000  0.00000000  0.50000000  1.0 1.0945160451
Co  Co3  1  0.00000000  0.50000000  0.50000000  1.0 1.0945160451
Co  Co4  1  0.46952000  0.61588000  0.95255000  1.0 0.9410502277
Co  Co5  1  0.61588000  0.95255000  0.46952000  1.0 0.9410502277
Co  Co6  1  0.95255000  0.46952000  0.61588000  1.0 0.9410502277
Co  Co7  1  0.53048000  0.38412000  0.04745000  1.0 0.9410502277
Co  Co8  1  0.38412000  0.04745000  0.53048000  1.0 0.9410502277
Co  Co9  1  0.04745000  0.53048000  0.38412000  1.0 0.9410502277
Co  Co10  1  0.94472000  0.97990000  0.51340000  1.0 0.9962623181
Co  Co11  1  0.97990000  0.51340000  0.94472000  1.0 0.9962623181
Co  Co12  1  0.51340000  0.94472000  0.97990000  1.0 0.9962623181
Co  Co13  1  0.05528000  0.02010000  0.48660000  1.0 0.9962623181
Co  Co14  1  0.02010000  0.48660000  0.05528000  1.0 0.9962623181
Co  Co15  1  0.48660000  0.05528000  0.02010000  1.0 0.9962623181
H  H1  1  0.46180000  0.60910000  0.84630000  1.0 0.2769772472
H  H2  1  0.60910000  0.84630000  0.46180000  1.0 0.2769772472
H  H3  1  0.84630000  0.46180000  0.60910000  1.0 0.2769772472
H  H4  1  0.53820000  0.39090000  0.15370000  1.0 0.2769772472
H  H5  1  0.39090000  0.15370000  0.53820000  1.0 0.2769772472
H  H6  1  0.15370000  0.53820000  0.39090000  1.0 0.2769772472
H  H7  1  0.74700000  0.60030000  0.09190000  1.0 0.1306282092
H  H8  1  0.60030000  0.09190000  0.74700000  1.0 0.1306282092
H  H9  1  0.09190000  0.74700000  0.60030000  1.0 0.1306282092
H  H10  1  0.25300000  0.39970000  0.90810000  1.0 0.1306282092
H  H11  1  0.39970000  0.90810000  0.25300000  1.0 0.1306282092
H  H12  1  0.90810000  0.25300000  0.39970000  1.0 0.1306282092
H  H13  1  0.64280000  0.57330000  0.03380000  1.0 0.1306282092
H  H14  1  0.57330000  0.03380000  0.64280000  1.0 0.1306282092
H  H15  1  0.03380000  0.64280000  0.57330000  1.0 0.1306282092
H  H16  1  0.35720000  0.42670000  0.96620000  1.0 0.1306282092
H  H17  1  0.42670000  0.96620000  0.35720000  1.0 0.1306282092
H  H18  1  0.96620000  0.35720000  0.42670000  1.0 0.1306282092
H  H19  1  0.66350000  0.75200000  0.10560000  1.0 0.1306282092
H  H20  1  0.75200000  0.10560000  0.66350000  1.0 0.1306282092
H  H21  1  0.10560000  0.66350000  0.75200000  1.0 0.1306282092
H  H22  1  0.33650000  0.24800000  0.89440000  1.0 0.1306282092
H  H23  1  0.24800000  0.89440000  0.33650000  1.0 0.1306282092
H  H24  1  0.89440000  0.33650000  0.24800000  1.0 0.1306282092
H  H25  1  0.76700000  0.77920000  0.16360000  1.0 0.1306282092
H  H26  1  0.77920000  0.16360000  0.76700000  1.0 0.1306282092
H  H27  1  0.16360000  0.76700000  0.77920000  1.0 0.1306282092
H  H28  1  0.23300000  0.22080000  0.83640000  1.0 0.1306282092
H  H29  1  0.22080000  0.83640000  0.23300000  1.0 0.1306282092
H  H30  1  0.83640000  0.23300000  0.22080000  1.0 0.1306282092
H  H31  1  0.79640000  0.73280000  0.25500000  1.0 0.122181273
H  H32  1  0.73280000  0.25500000  0.79640000  1.0 0.122181273
H  H33  1  0.25500000  0.79640000  0.73280000  1.0 0.122181273
H  H34  1  0.20360000  0.26720000  0.74500000  1.0 0.122181273
H  H35  1  0.26720000  0.74500000  0.20360000  1.0 0.122181273
H  H36  1  0.74500000  0.20360000  0.26720000  1.0 0.122181273
H  H37  1  0.84560000  0.81480000  0.35120000  1.0 0.122181273
H  H38  1  0.81480000  0.35120000  0.84560000  1.0 0.122181273
H  H39  1  0.35120000  0.84560000  0.81480000  1.0 0.122181273
H  H40  1  0.15440000  0.18520000  0.64880000  1.0 0.122181273
H  H41  1  0.18520000  0.64880000  0.15440000  1.0 0.122181273
H  H42  1  0.64880000  0.15440000  0.18520000  1.0 0.122181273
H  H43  1  0.99530000  0.87230000  0.30720000  1.0 0.1306282092
H  H44  1  0.87230000  0.30720000  0.99530000  1.0 0.1306282092
H  H45  1  0.30720000  0.99530000  0.87230000  1.0 0.1306282092
H  H46  1  0.00470000  0.12770000  0.69280000  1.0 0.1306282092
H  H47  1  0.12770000  0.69280000  0.00470000  1.0 0.1306282092
H  H48  1  0.69280000  0.00470000  0.12770000  1.0 0.1306282092
H  H49  1  0.94430000  0.78950000  0.21120000  1.0 0.1306282092
H  H50  1  0.78950000  0.21120000  0.94430000  1.0 0.1306282092
H  H51  1  0.21120000  0.94430000  0.78950000  1.0 0.1306282092
H  H52  1  0.05570000  0.21050000  0.78880000  1.0 0.1306282092
H  H53  1  0.21050000  0.78880000  0.05570000  1.0 0.1306282092
H  H54  1  0.78880000  0.05570000  0.21050000  1.0 0.1306282092
H  H55  1  0.90810000  0.66410000  0.21320000  1.0 0.1306282092
H  H56  1  0.66410000  0.21320000  0.90810000  1.0 0.1306282092
H  H57  1  0.21320000  0.90810000  0.66410000  1.0 0.1306282092
H  H58  1  0.09190000  0.33590000  0.78680000  1.0 0.1306282092
H  H59  1  0.33590000  0.78680000  0.09190000  1.0 0.1306282092
H  H60  1  0.78680000  0.09190000  0.33590000  1.0 0.1306282092
H  H61  1  0.95320000  0.60150000  0.16530000  1.0 0.1405566396
H  H62  1  0.60150000  0.16530000  0.95320000  1.0 0.1405566396
H  H63  1  0.16530000  0.95320000  0.60150000  1.0 0.1405566396
H  H64  1  0.04680000  0.39850000  0.83470000  1.0 0.1405566396
H  H65  1  0.39850000  0.83470000  0.04680000  1.0 0.1405566396
H  H66  1  0.83470000  0.04680000  0.39850000  1.0 0.1405566396
H  H67  1  0.87510000  0.61760000  0.00440000  1.0 0.1306282092
H  H68  1  0.61760000  0.00440000  0.87510000  1.0 0.1306282092
H  H69  1  0.00440000  0.87510000  0.61760000  1.0 0.1306282092
H  H70  1  0.12490000  0.38240000  0.99560000  1.0 0.1306282092
H  H71  1  0.38240000  0.99560000  0.12490000  1.0 0.1306282092
H  H72  1  0.99560000  0.12490000  0.38240000  1.0 0.1306282092
H  H73  1  0.82840000  0.67860000  0.05040000  1.0 0.1306282092
H  H74  1  0.67860000  0.05040000  0.82840000  1.0 0.1306282092
H  H75  1  0.05040000  0.82840000  0.67860000  1.0 0.1306282092
H  H76  1  0.17160000  0.32140000  0.94960000  1.0 0.1306282092
H  H77  1  0.32140000  0.94960000  0.17160000  1.0 0.1306282092
H  H78  1  0.94960000  0.17160000  0.32140000  1.0 0.1306282092
H  H79  1  0.36300000  0.69290000  0.17390000  1.0 0.1306282092
H  H80  1  0.69290000  0.17390000  0.36300000  1.0 0.1306282092
H  H81  1  0.17390000  0.36300000  0.69290000  1.0 0.1306282092
H  H82  1  0.63700000  0.30710000  0.82610000  1.0 0.1306282092
H  H83  1  0.30710000  0.82610000  0.63700000  1.0 0.1306282092
H  H84  1  0.82610000  0.63700000  0.30710000  1.0 0.1306282092
H  H85  1  0.40170000  0.67310000  0.09680000  1.0 0.122181273
H  H86  1  0.67310000  0.09680000  0.40170000  1.0 0.122181273
H  H87  1  0.09680000  0.40170000  0.67310000  1.0 0.122181273
H  H88  1  0.59830000  0.32690000  0.90320000  1.0 0.122181273
H  H89  1  0.32690000  0.90320000  0.59830000  1.0 0.122181273
H  H90  1  0.90320000  0.59830000  0.32690000  1.0 0.122181273
H  H91  1  0.39420000  0.50800000  0.10830000  1.0 0.122181273
H  H92  1  0.50800000  0.10830000  0.39420000  1.0 0.122181273
H  H93  1  0.10830000  0.39420000  0.50800000  1.0 0.122181273
H  H94  1  0.60580000  0.49200000  0.89170000  1.0 0.122181273
H  H95  1  0.49200000  0.89170000  0.60580000  1.0 0.122181273
H  H96  1  0.89170000  0.60580000  0.49200000  1.0 0.122181273
H  H97  1  0.35720000  0.53050000  0.18880000  1.0 0.1306282092
H  H98  1  0.53050000  0.18880000  0.35720000  1.0 0.1306282092
H  H99  1  0.18880000  0.35720000  0.53050000  1.0 0.1306282092
H  H100  1  0.64280000  0.46950000  0.81120000  1.0 0.1306282092
H  H101  1  0.46950000  0.81120000  0.64280000  1.0 0.1306282092
H  H102  1  0.81120000  0.64280000  0.46950000  1.0 0.1306282092
H  H103  1  0.24760000  0.54620000  0.13360000  1.0 0.1306282092
H  H104  1  0.54620000  0.13360000  0.24760000  1.0 0.1306282092
H  H105  1  0.13360000  0.24760000  0.54620000  1.0 0.1306282092
H  H106  1  0.75240000  0.45380000  0.86640000  1.0 0.1306282092
H  H107  1  0.45380000  0.86640000  0.75240000  1.0 0.1306282092
H  H108  1  0.86640000  0.75240000  0.45380000  1.0 0.1306282092
H  H109  1  0.14470000  0.49330000  0.11240000  1.0 0.122181273
H  H110  1  0.49330000  0.11240000  0.14470000  1.0 0.122181273
H  H111  1  0.11240000  0.14470000  0.49330000  1.0 0.122181273
H  H112  1  0.85530000  0.50670000  0.88760000  1.0 0.122181273
H  H113  1  0.50670000  0.88760000  0.85530000  1.0 0.122181273
H  H114  1  0.88760000  0.85530000  0.50670000  1.0 0.122181273
H  H115  1  0.17430000  0.57240000  0.29320000  1.0 0.1100368493
H  H116  1  0.57240000  0.29320000  0.17430000  1.0 0.1100368493
H  H117  1  0.29320000  0.17430000  0.57240000  1.0 0.1100368493
H  H118  1  0.82570000  0.42760000  0.70680000  1.0 0.1100368493
H  H119  1  0.42760000  0.70680000  0.82570000  1.0 0.1100368493
H  H120  1  0.70680000  0.82570000  0.42760000  1.0 0.1100368493
H  H121  1  0.27770000  0.62280000  0.31430000  1.0 0.1306282092
H  H122  1  0.62280000  0.31430000  0.27770000  1.0 0.1306282092
H  H123  1  0.31430000  0.27770000  0.62280000  1.0 0.1306282092
H  H124  1  0.72230000  0.37720000  0.68570000  1.0 0.1306282092
H  H125  1  0.37720000  0.68570000  0.72230000  1.0 0.1306282092
H  H126  1  0.68570000  0.72230000  0.37720000  1.0 0.1306282092
H  H127  1  0.29610000  0.71560000  0.28620000  1.0 0.122181273
H  H128  1  0.71560000  0.28620000  0.29610000  1.0 0.122181273
H  H129  1  0.28620000  0.29610000  0.71560000  1.0 0.122181273
H  H130  1  0.70390000  0.28440000  0.71380000  1.0 0.122181273
H  H131  1  0.28440000  0.71380000  0.70390000  1.0 0.122181273
H  H132  1  0.71380000  0.70390000  0.28440000  1.0 0.122181273
H  H133  1  0.35620000  0.81760000  0.35360000  1.0 0.122181273
H  H134  1  0.81760000  0.35360000  0.35620000  1.0 0.122181273
H  H135  1  0.35360000  0.35620000  0.81760000  1.0 0.122181273
H  H136  1  0.64380000  0.18240000  0.64640000  1.0 0.122181273
H  H137  1  0.18240000  0.64640000  0.64380000  1.0 0.122181273
H  H138  1  0.64640000  0.64380000  0.18240000  1.0 0.122181273
H  H139  1  0.51120000  0.78200000  0.36680000  1.0 0.122181273
H  H140  1  0.78200000  0.36680000  0.51120000  1.0 0.122181273
H  H141  1  0.36680000  0.51120000  0.78200000  1.0 0.122181273
H  H142  1  0.48880000  0.21800000  0.63320000  1.0 0.122181273
H  H143  1  0.21800000  0.63320000  0.48880000  1.0 0.122181273
H  H144  1  0.63320000  0.48880000  0.21800000  1.0 0.122181273
H  H145  1  0.45130000  0.67810000  0.30380000  1.0 0.1306282092
H  H146  1  0.67810000  0.30380000  0.45130000  1.0 0.1306282092
H  H147  1  0.30380000  0.45130000  0.67810000  1.0 0.1306282092
H  H148  1  0.54870000  0.32190000  0.69620000  1.0 0.1306282092
H  H149  1  0.32190000  0.69620000  0.54870000  1.0 0.1306282092
H  H150  1  0.69620000  0.54870000  0.32190000  1.0 0.1306282092
H  H151  1  0.58400000  0.68410000  0.91340000  1.0 0.1306282092
H  H152  1  0.68410000  0.91340000  0.58400000  1.0 0.1306282092
H  H153  1  0.91340000  0.58400000  0.68410000  1.0 0.1306282092
H  H154  1  0.41600000  0.31590000  0.08660000  1.0 0.1306282092
H  H155  1  0.31590000  0.08660000  0.41600000  1.0 0.1306282092
H  H156  1  0.08660000  0.41600000  0.31590000  1.0 0.1306282092
H  H157  1  0.53030000  0.71060000  0.90130000  1.0 0.1495031503
H  H158  1  0.71060000  0.90130000  0.53030000  1.0 0.1495031503
H  H159  1  0.90130000  0.53030000  0.71060000  1.0 0.1495031503
H  H160  1  0.46970000  0.28940000  0.09870000  1.0 0.1495031503
H  H161  1  0.28940000  0.09870000  0.46970000  1.0 0.1495031503
H  H162  1  0.09870000  0.46970000  0.28940000  1.0 0.1495031503
H  H163  1  0.54420000  0.67390000  0.84460000  1.0 0.0930641132
H  H164  1  0.67390000  0.84460000  0.54420000  1.0 0.0930641132
H  H165  1  0.84460000  0.54420000  0.67390000  1.0 0.0930641132
H  H166  1  0.45580000  0.32610000  0.15540000  1.0 0.0930641132
H  H167  1  0.32610000  0.15540000  0.45580000  1.0 0.0930641132
H  H168  1  0.15540000  0.45580000  0.32610000  1.0 0.0930641132
H  H169  1  0.51270000  0.55890000  0.81110000  1.0 0.1000469538
H  H170  1  0.55890000  0.81110000  0.51270000  1.0 0.1000469538
H  H171  1  0.81110000  0.51270000  0.55890000  1.0 0.1000469538
H  H172  1  0.48730000  0.44110000  0.18890000  1.0 0.1000469538
H  H173  1  0.44110000  0.18890000  0.48730000  1.0 0.1000469538
H  H174  1  0.18890000  0.48730000  0.44110000  1.0 0.1000469538
H  H175  1  0.49920000  0.53020000  0.86020000  1.0 0.1100368493
H  H176  1  0.53020000  0.86020000  0.49920000  1.0 0.1100368493
H  H177  1  0.86020000  0.49920000  0.53020000  1.0 0.1100368493
H  H178  1  0.50080000  0.46980000  0.13980000  1.0 0.1100368493
H  H179  1  0.46980000  0.13980000  0.50080000  1.0 0.1100368493
H  H180  1  0.13980000  0.50080000  0.46980000  1.0 0.1100368493
H  H181  1  0.56520000  0.58220000  0.87810000  1.0 0.122181273
H  H182  1  0.58220000  0.87810000  0.56520000  1.0 0.122181273
H  H183  1  0.87810000  0.56520000  0.58220000  1.0 0.122181273
H  H184  1  0.43480000  0.41780000  0.12190000  1.0 0.122181273
H  H185  1  0.41780000  0.12190000  0.43480000  1.0 0.122181273
H  H186  1  0.12190000  0.43480000  0.41780000  1.0 0.122181273
C  C1  1  0.76726000  0.69258000  0.13152000  1.0 0.1803850933
C  C2  1  0.69258000  0.13152000  0.76726000  1.0 0.1803850933
C  C3  1  0.13152000  0.76726000  0.69258000  1.0 0.1803850933
C  C4  1  0.23274000  0.30742000  0.86848000  1.0 0.1803850933
C  C5  1  0.30742000  0.86848000  0.23274000  1.0 0.1803850933
C  C6  1  0.86848000  0.23274000  0.30742000  1.0 0.1803850933
C  C7  1  0.72996000  0.63145000  0.09411000  1.0 -0.1899126383
C  C8  1  0.63145000  0.09411000  0.72996000  1.0 -0.1899126383
C  C9  1  0.09411000  0.72996000  0.63145000  1.0 -0.1899126383
C  C10  1  0.27004000  0.36855000  0.90589000  1.0 -0.1899126383
C  C11  1  0.36855000  0.90589000  0.27004000  1.0 -0.1899126383
C  C12  1  0.90589000  0.27004000  0.36855000  1.0 -0.1899126383
C  C13  1  0.66784000  0.61525000  0.05984000  1.0 -0.068308865
C  C14  1  0.61525000  0.05984000  0.66784000  1.0 -0.068308865
C  C15  1  0.05984000  0.66784000  0.61525000  1.0 -0.068308865
C  C16  1  0.33216000  0.38475000  0.94016000  1.0 -0.068308865
C  C17  1  0.38475000  0.94016000  0.33216000  1.0 -0.068308865
C  C18  1  0.94016000  0.33216000  0.38475000  1.0 -0.068308865
C  C19  1  0.64235000  0.66054000  0.06362000  1.0 -0.0401984167
C  C20  1  0.66054000  0.06362000  0.64235000  1.0 -0.0401984167
C  C21  1  0.06362000  0.64235000  0.66054000  1.0 -0.0401984167
C  C22  1  0.35765000  0.33946000  0.93638000  1.0 -0.0401984167
C  C23  1  0.33946000  0.93638000  0.35765000  1.0 -0.0401984167
C  C24  1  0.93638000  0.35765000  0.33946000  1.0 -0.0401984167
C  C25  1  0.68035000  0.72107000  0.10249000  1.0 -0.0796173566
C  C26  1  0.72107000  0.10249000  0.68035000  1.0 -0.0796173566
C  C27  1  0.10249000  0.68035000  0.72107000  1.0 -0.0796173566
C  C28  1  0.31965000  0.27893000  0.89751000  1.0 -0.0796173566
C  C29  1  0.27893000  0.89751000  0.31965000  1.0 -0.0796173566
C  C30  1  0.89751000  0.31965000  0.27893000  1.0 -0.0796173566
C  C31  1  0.74208000  0.73765000  0.13677000  1.0 -0.1899126383
C  C32  1  0.73765000  0.13677000  0.74208000  1.0 -0.1899126383
C  C33  1  0.13677000  0.74208000  0.73765000  1.0 -0.1899126383
C  C34  1  0.25792000  0.26235000  0.86323000  1.0 -0.1899126383
C  C35  1  0.26235000  0.86323000  0.25792000  1.0 -0.1899126383
C  C36  1  0.86323000  0.25792000  0.26235000  1.0 -0.1899126383
C  C37  1  0.86398000  0.75565000  0.22319000  1.0 0.171156204
C  C38  1  0.75565000  0.22319000  0.86398000  1.0 0.171156204
C  C39  1  0.22319000  0.86398000  0.75565000  1.0 0.171156204
C  C40  1  0.13602000  0.24435000  0.77681000  1.0 0.171156204
C  C41  1  0.24435000  0.77681000  0.13602000  1.0 0.171156204
C  C42  1  0.77681000  0.13602000  0.24435000  1.0 0.171156204
C  C43  1  0.83646000  0.76185000  0.26536000  1.0 -0.1823916522
C  C44  1  0.76185000  0.26536000  0.83646000  1.0 -0.1823916522
C  C45  1  0.26536000  0.83646000  0.76185000  1.0 -0.1823916522
C  C46  1  0.16354000  0.23815000  0.73464000  1.0 -0.1823916522
C  C47  1  0.23815000  0.73464000  0.16354000  1.0 -0.1823916522
C  C48  1  0.73464000  0.16354000  0.23815000  1.0 -0.1823916522
C  C49  1  0.86606000  0.80979000  0.32324000  1.0 -0.0796173566
C  C50  1  0.80979000  0.32324000  0.86606000  1.0 -0.0796173566
C  C51  1  0.32324000  0.86606000  0.80979000  1.0 -0.0796173566
C  C52  1  0.13394000  0.19021000  0.67676000  1.0 -0.0796173566
C  C53  1  0.19021000  0.67676000  0.13394000  1.0 -0.0796173566
C  C54  1  0.67676000  0.13394000  0.19021000  1.0 -0.0796173566
C  C55  1  0.92611000  0.85000000  0.33938000  1.0 -0.0202485177
C  C56  1  0.85000000  0.33938000  0.92611000  1.0 -0.0202485177
C  C57  1  0.33938000  0.92611000  0.85000000  1.0 -0.0202485177
C  C58  1  0.07389000  0.15000000  0.66062000  1.0 -0.0202485177
C  C59  1  0.15000000  0.66062000  0.07389000  1.0 -0.0202485177
C  C60  1  0.66062000  0.07389000  0.15000000  1.0 -0.0202485177
C  C61  1  0.95494000  0.84372000  0.29703000  1.0 -0.0796173566
C  C62  1  0.84372000  0.29703000  0.95494000  1.0 -0.0796173566
C  C63  1  0.29703000  0.95494000  0.84372000  1.0 -0.0796173566
C  C64  1  0.04506000  0.15628000  0.70297000  1.0 -0.0796173566
C  C65  1  0.15628000  0.70297000  0.04506000  1.0 -0.0796173566
C  C66  1  0.70297000  0.04506000  0.15628000  1.0 -0.0796173566
C  C67  1  0.92399000  0.79538000  0.23949000  1.0 -0.1823916522
C  C68  1  0.79538000  0.23949000  0.92399000  1.0 -0.1823916522
C  C69  1  0.23949000  0.92399000  0.79538000  1.0 -0.1823916522
C  C70  1  0.07601000  0.20462000  0.76051000  1.0 -0.1823916522
C  C71  1  0.20462000  0.76051000  0.07601000  1.0 -0.1823916522
C  C72  1  0.76051000  0.07601000  0.20462000  1.0 -0.1823916522
C  C73  1  0.86165000  0.67416000  0.13667000  1.0 0.1803850933
C  C74  1  0.67416000  0.13667000  0.86165000  1.0 0.1803850933
C  C75  1  0.13667000  0.86165000  0.67416000  1.0 0.1803850933
C  C76  1  0.13835000  0.32584000  0.86333000  1.0 0.1803850933
C  C77  1  0.32584000  0.86333000  0.13835000  1.0 0.1803850933
C  C78  1  0.86333000  0.13835000  0.32584000  1.0 0.1803850933
C  C79  1  0.89987000  0.65369000  0.17040000  1.0 -0.1899126383
C  C80  1  0.65369000  0.17040000  0.89987000  1.0 -0.1899126383
C  C81  1  0.17040000  0.89987000  0.65369000  1.0 -0.1899126383
C  C82  1  0.10013000  0.34631000  0.82960000  1.0 -0.1899126383
C  C83  1  0.34631000  0.82960000  0.10013000  1.0 -0.1899126383
C  C84  1  0.82960000  0.10013000  0.34631000  1.0 -0.1899126383
C  C85  1  0.92747000  0.61700000  0.14193000  1.0 -0.068308865
C  C86  1  0.61700000  0.14193000  0.92747000  1.0 -0.068308865
C  C87  1  0.14193000  0.92747000  0.61700000  1.0 -0.068308865
C  C88  1  0.07253000  0.38300000  0.85807000  1.0 -0.068308865
C  C89  1  0.38300000  0.85807000  0.07253000  1.0 -0.068308865
C  C90  1  0.85807000  0.07253000  0.38300000  1.0 -0.068308865
C  C91  1  0.91762000  0.60340000  0.08072000  1.0 -0.0329635864
C  C92  1  0.60340000  0.08072000  0.91762000  1.0 -0.0329635864
C  C93  1  0.08072000  0.91762000  0.60340000  1.0 -0.0329635864
C  C94  1  0.08238000  0.39660000  0.91928000  1.0 -0.0329635864
C  C95  1  0.39660000  0.91928000  0.08238000  1.0 -0.0329635864
C  C96  1  0.91928000  0.08238000  0.39660000  1.0 -0.0329635864
C  C97  1  0.88091000  0.62653000  0.04666000  1.0 -0.0796173566
C  C98  1  0.62653000  0.04666000  0.88091000  1.0 -0.0796173566
C  C99  1  0.04666000  0.88091000  0.62653000  1.0 -0.0796173566
C  C100  1  0.11909000  0.37347000  0.95334000  1.0 -0.0796173566
C  C101  1  0.37347000  0.95334000  0.11909000  1.0 -0.0796173566
C  C102  1  0.95334000  0.11909000  0.37347000  1.0 -0.0796173566
C  C103  1  0.85291000  0.66228000  0.07350000  1.0 -0.1899126383
C  C104  1  0.66228000  0.07350000  0.85291000  1.0 -0.1899126383
C  C105  1  0.07350000  0.85291000  0.66228000  1.0 -0.1899126383
C  C106  1  0.14709000  0.33772000  0.92650000  1.0 -0.1899126383
C  C107  1  0.33772000  0.92650000  0.14709000  1.0 -0.1899126383
C  C108  1  0.92650000  0.14709000  0.33772000  1.0 -0.1899126383
C  C109  1  0.57743000  0.64407000  0.02402000  1.0 0.560654557
C  C110  1  0.64407000  0.02402000  0.57743000  1.0 0.560654557
C  C111  1  0.02402000  0.57743000  0.64407000  1.0 0.560654557
C  C112  1  0.42257000  0.35593000  0.97598000  1.0 0.560654557
C  C113  1  0.35593000  0.97598000  0.42257000  1.0 0.560654557
C  C114  1  0.97598000  0.42257000  0.35593000  1.0 0.560654557
C  C115  1  0.95695000  0.90451000  0.39950000  1.0 0.5900076094
C  C116  1  0.90451000  0.39950000  0.95695000  1.0 0.5900076094
C  C117  1  0.39950000  0.95695000  0.90451000  1.0 0.5900076094
C  C118  1  0.04305000  0.09549000  0.60050000  1.0 0.5900076094
C  C119  1  0.09549000  0.60050000  0.04305000  1.0 0.5900076094
C  C120  1  0.60050000  0.04305000  0.09549000  1.0 0.5900076094
C  C121  1  0.94635000  0.56406000  0.04978000  1.0 0.5956074707
C  C122  1  0.56406000  0.04978000  0.94635000  1.0 0.5956074707
C  C123  1  0.04978000  0.94635000  0.56406000  1.0 0.5956074707
C  C124  1  0.05365000  0.43594000  0.95022000  1.0 0.5956074707
C  C125  1  0.43594000  0.95022000  0.05365000  1.0 0.5956074707
C  C126  1  0.95022000  0.05365000  0.43594000  1.0 0.5956074707
C  C127  1  0.35744000  0.61358000  0.18930000  1.0 0.1616352784
C  C128  1  0.61358000  0.18930000  0.35744000  1.0 0.1616352784
C  C129  1  0.18930000  0.35744000  0.61358000  1.0 0.1616352784
C  C130  1  0.64256000  0.38642000  0.81070000  1.0 0.1616352784
C  C131  1  0.38642000  0.81070000  0.64256000  1.0 0.1616352784
C  C132  1  0.81070000  0.64256000  0.38642000  1.0 0.1616352784
C  C133  1  0.36998000  0.65578000  0.16117000  1.0 -0.1899126383
C  C134  1  0.65578000  0.16117000  0.36998000  1.0 -0.1899126383
C  C135  1  0.16117000  0.36998000  0.65578000  1.0 -0.1899126383
C  C136  1  0.63002000  0.34422000  0.83883000  1.0 -0.1899126383
C  C137  1  0.34422000  0.83883000  0.63002000  1.0 -0.1899126383
C  C138  1  0.83883000  0.63002000  0.34422000  1.0 -0.1899126383
C  C139  1  0.39239000  0.64367000  0.11508000  1.0 -0.0796173566
C  C140  1  0.64367000  0.11508000  0.39239000  1.0 -0.0796173566
C  C141  1  0.11508000  0.39239000  0.64367000  1.0 -0.0796173566
C  C142  1  0.60761000  0.35633000  0.88492000  1.0 -0.0796173566
C  C143  1  0.35633000  0.88492000  0.60761000  1.0 -0.0796173566
C  C144  1  0.88492000  0.60761000  0.35633000  1.0 -0.0796173566
C  C145  1  0.40158000  0.58890000  0.09493000  1.0 -0.0202485177
C  C146  1  0.58890000  0.09493000  0.40158000  1.0 -0.0202485177
C  C147  1  0.09493000  0.40158000  0.58890000  1.0 -0.0202485177
C  C148  1  0.59842000  0.41110000  0.90507000  1.0 -0.0202485177
C  C149  1  0.41110000  0.90507000  0.59842000  1.0 -0.0202485177
C  C150  1  0.90507000  0.59842000  0.41110000  1.0 -0.0202485177
C  C151  1  0.38837000  0.54583000  0.12172000  1.0 -0.0907852867
C  C152  1  0.54583000  0.12172000  0.38837000  1.0 -0.0907852867
C  C153  1  0.12172000  0.38837000  0.54583000  1.0 -0.0907852867
C  C154  1  0.61163000  0.45417000  0.87828000  1.0 -0.0907852867
C  C155  1  0.45417000  0.87828000  0.61163000  1.0 -0.0907852867
C  C156  1  0.87828000  0.61163000  0.45417000  1.0 -0.0907852867
C  C157  1  0.36615000  0.55928000  0.16985000  1.0 -0.1899126383
C  C158  1  0.55928000  0.16985000  0.36615000  1.0 -0.1899126383
C  C159  1  0.16985000  0.36615000  0.55928000  1.0 -0.1899126383
C  C160  1  0.63385000  0.44072000  0.83015000  1.0 -0.1899126383
C  C161  1  0.44072000  0.83015000  0.63385000  1.0 -0.1899126383
C  C162  1  0.83015000  0.63385000  0.44072000  1.0 -0.1899126383
C  C163  1  0.27299000  0.59283000  0.22586000  1.0 0.1875646425
C  C164  1  0.59283000  0.22586000  0.27299000  1.0 0.1875646425
C  C165  1  0.22586000  0.27299000  0.59283000  1.0 0.1875646425
C  C166  1  0.72701000  0.40717000  0.77414000  1.0 0.1875646425
C  C167  1  0.40717000  0.77414000  0.72701000  1.0 0.1875646425
C  C168  1  0.77414000  0.72701000  0.40717000  1.0 0.1875646425
C  C169  1  0.23260000  0.55214000  0.16606000  1.0 -0.1899126383
C  C170  1  0.55214000  0.16606000  0.23260000  1.0 -0.1899126383
C  C171  1  0.16606000  0.23260000  0.55214000  1.0 -0.1899126383
C  C172  1  0.76740000  0.44786000  0.83394000  1.0 -0.1899126383
C  C173  1  0.44786000  0.83394000  0.76740000  1.0 -0.1899126383
C  C174  1  0.83394000  0.76740000  0.44786000  1.0 -0.1899126383
C  C175  1  0.17140000  0.52051000  0.15338000  1.0 -0.0796173566
C  C176  1  0.52051000  0.15338000  0.17140000  1.0 -0.0796173566
C  C177  1  0.15338000  0.17140000  0.52051000  1.0 -0.0796173566
C  C178  1  0.82860000  0.47949000  0.84662000  1.0 -0.0796173566
C  C179  1  0.47949000  0.84662000  0.82860000  1.0 -0.0796173566
C  C180  1  0.84662000  0.82860000  0.47949000  1.0 -0.0796173566
C  C181  1  0.14858000  0.52824000  0.20000000  1.0 -0.0329635864
C  C182  1  0.52824000  0.20000000  0.14858000  1.0 -0.0329635864
C  C183  1  0.20000000  0.14858000  0.52824000  1.0 -0.0329635864
C  C184  1  0.85142000  0.47176000  0.80000000  1.0 -0.0329635864
C  C185  1  0.47176000  0.80000000  0.85142000  1.0 -0.0329635864
C  C186  1  0.80000000  0.85142000  0.47176000  1.0 -0.0329635864
C  C187  1  0.18921000  0.56716000  0.26055000  1.0 -0.1072870356
C  C188  1  0.56716000  0.26055000  0.18921000  1.0 -0.1072870356
C  C189  1  0.26055000  0.18921000  0.56716000  1.0 -0.1072870356
C  C190  1  0.81079000  0.43284000  0.73945000  1.0 -0.1072870356
C  C191  1  0.43284000  0.73945000  0.81079000  1.0 -0.1072870356
C  C192  1  0.73945000  0.81079000  0.43284000  1.0 -0.1072870356
C  C193  1  0.25027000  0.59776000  0.27287000  1.0 -0.1899126383
C  C194  1  0.59776000  0.27287000  0.25027000  1.0 -0.1899126383
C  C195  1  0.27287000  0.25027000  0.59776000  1.0 -0.1899126383
C  C196  1  0.74973000  0.40224000  0.72713000  1.0 -0.1899126383
C  C197  1  0.40224000  0.72713000  0.74973000  1.0 -0.1899126383
C  C198  1  0.72713000  0.74973000  0.40224000  1.0 -0.1899126383
C  C199  1  0.36748000  0.68760000  0.28455000  1.0 0.1803850933
C  C200  1  0.68760000  0.28455000  0.36748000  1.0 0.1803850933
C  C201  1  0.28455000  0.36748000  0.68760000  1.0 0.1803850933
C  C202  1  0.63252000  0.31240000  0.71545000  1.0 0.1803850933
C  C203  1  0.31240000  0.71545000  0.63252000  1.0 0.1803850933
C  C204  1  0.71545000  0.63252000  0.31240000  1.0 0.1803850933
C  C205  1  0.33990000  0.72900000  0.30190000  1.0 -0.1899126383
C  C206  1  0.72900000  0.30190000  0.33990000  1.0 -0.1899126383
C  C207  1  0.30190000  0.33990000  0.72900000  1.0 -0.1899126383
C  C208  1  0.66010000  0.27100000  0.69810000  1.0 -0.1899126383
C  C209  1  0.27100000  0.69810000  0.66010000  1.0 -0.1899126383
C  C210  1  0.69810000  0.66010000  0.27100000  1.0 -0.1899126383
C  C211  1  0.37569000  0.78990000  0.34210000  1.0 -0.0796173566
C  C212  1  0.78990000  0.34210000  0.37569000  1.0 -0.0796173566
C  C213  1  0.34210000  0.37569000  0.78990000  1.0 -0.0796173566
C  C214  1  0.62431000  0.21010000  0.65790000  1.0 -0.0796173566
C  C215  1  0.21010000  0.65790000  0.62431000  1.0 -0.0796173566
C  C216  1  0.65790000  0.62431000  0.21010000  1.0 -0.0796173566
C  C217  1  0.43965000  0.81045000  0.36547000  1.0 -0.0401984167
C  C218  1  0.81045000  0.36547000  0.43965000  1.0 -0.0401984167
C  C219  1  0.36547000  0.43965000  0.81045000  1.0 -0.0401984167
C  C220  1  0.56035000  0.18955000  0.63453000  1.0 -0.0401984167
C  C221  1  0.18955000  0.63453000  0.56035000  1.0 -0.0401984167
C  C222  1  0.63453000  0.56035000  0.18955000  1.0 -0.0401984167
C  C223  1  0.46748000  0.76851000  0.35045000  1.0 -0.0953442169
C  C224  1  0.76851000  0.35045000  0.46748000  1.0 -0.0953442169
C  C225  1  0.35045000  0.46748000  0.76851000  1.0 -0.0953442169
C  C226  1  0.53252000  0.23149000  0.64955000  1.0 -0.0953442169
C  C227  1  0.23149000  0.64955000  0.53252000  1.0 -0.0953442169
C  C228  1  0.64955000  0.53252000  0.23149000  1.0 -0.0953442169
C  C229  1  0.43202000  0.70683000  0.31172000  1.0 -0.1899126383
C  C230  1  0.70683000  0.31172000  0.43202000  1.0 -0.1899126383
C  C231  1  0.31172000  0.43202000  0.70683000  1.0 -0.1899126383
C  C232  1  0.56798000  0.29317000  0.68828000  1.0 -0.1899126383
C  C233  1  0.29317000  0.68828000  0.56798000  1.0 -0.1899126383
C  C234  1  0.68828000  0.56798000  0.29317000  1.0 -0.1899126383
C  C235  1  0.42833000  0.57680000  0.04554000  1.0 0.5956074707
C  C236  1  0.57680000  0.04554000  0.42833000  1.0 0.5956074707
C  C237  1  0.04554000  0.42833000  0.57680000  1.0 0.5956074707
C  C238  1  0.57167000  0.42320000  0.95446000  1.0 0.5956074707
C  C239  1  0.42320000  0.95446000  0.57167000  1.0 0.5956074707
C  C240  1  0.95446000  0.57167000  0.42320000  1.0 0.5956074707
C  C241  1  0.08021000  0.49729000  0.18511000  1.0 0.560654557
C  C242  1  0.49729000  0.18511000  0.08021000  1.0 0.560654557
C  C243  1  0.18511000  0.08021000  0.49729000  1.0 0.560654557
C  C244  1  0.91979000  0.50271000  0.81489000  1.0 0.560654557
C  C245  1  0.50271000  0.81489000  0.91979000  1.0 0.560654557
C  C246  1  0.81489000  0.91979000  0.50271000  1.0 0.560654557
C  C247  1  0.48056000  0.87592000  0.40711000  1.0 0.5844739142
C  C248  1  0.87592000  0.40711000  0.48056000  1.0 0.5844739142
C  C249  1  0.40711000  0.48056000  0.87592000  1.0 0.5844739142
C  C250  1  0.51944000  0.12408000  0.59289000  1.0 0.5844739142
C  C251  1  0.12408000  0.59289000  0.51944000  1.0 0.5844739142
C  C252  1  0.59289000  0.51944000  0.12408000  1.0 0.5844739142
C  C253  1  0.54286000  0.67670000  0.88511000  1.0 0.0761490526
C  C254  1  0.67670000  0.88511000  0.54286000  1.0 0.0761490526
C  C255  1  0.88511000  0.54286000  0.67670000  1.0 0.0761490526
C  C256  1  0.45714000  0.32330000  0.11489000  1.0 0.0761490526
C  C257  1  0.32330000  0.11489000  0.45714000  1.0 0.0761490526
C  C258  1  0.11489000  0.45714000  0.32330000  1.0 0.0761490526
C  C259  1  0.52060000  0.56796000  0.85504000  1.0 -0.0907852867
C  C260  1  0.56796000  0.85504000  0.52060000  1.0 -0.0907852867
C  C261  1  0.85504000  0.52060000  0.56796000  1.0 -0.0907852867
C  C262  1  0.47940000  0.43204000  0.14496000  1.0 -0.0907852867
C  C263  1  0.43204000  0.14496000  0.47940000  1.0 -0.0907852867
C  C264  1  0.14496000  0.47940000  0.43204000  1.0 -0.0907852867
N  N1  1  0.49734000  0.61718000  0.87885000  1.0 -0.3829148847
N  N2  1  0.61718000  0.87885000  0.49734000  1.0 -0.3829148847
N  N3  1  0.87885000  0.49734000  0.61718000  1.0 -0.3829148847
N  N4  1  0.50266000  0.38282000  0.12115000  1.0 -0.3829148847
N  N5  1  0.38282000  0.12115000  0.50266000  1.0 -0.3829148847
N  N6  1  0.12115000  0.50266000  0.38282000  1.0 -0.3829148847
N  N7  1  0.83167000  0.70870000  0.16358000  1.0 -0.1520239636
N  N8  1  0.70870000  0.16358000  0.83167000  1.0 -0.1520239636
N  N9  1  0.16358000  0.83167000  0.70870000  1.0 -0.1520239636
N  N10  1  0.16833000  0.29130000  0.83642000  1.0 -0.1520239636
N  N11  1  0.29130000  0.83642000  0.16833000  1.0 -0.1520239636
N  N12  1  0.83642000  0.16833000  0.29130000  1.0 -0.1520239636
N  N13  1  0.33477000  0.62744000  0.23840000  1.0 -0.1520239636
N  N14  1  0.62744000  0.23840000  0.33477000  1.0 -0.1520239636
N  N15  1  0.23840000  0.33477000  0.62744000  1.0 -0.1520239636
N  N16  1  0.66523000  0.37256000  0.76160000  1.0 -0.1520239636
N  N17  1  0.37256000  0.76160000  0.66523000  1.0 -0.1520239636
N  N18  1  0.76160000  0.66523000  0.37256000  1.0 -0.1520239636
O  O1  1  0.54138000  0.58772000  0.99300000  1.0 -0.5952579913
O  O2  1  0.58772000  0.99300000  0.54138000  1.0 -0.5952579913
O  O3  1  0.99300000  0.54138000  0.58772000  1.0 -0.5939401922
O  O4  1  0.45862000  0.41228000  0.00700000  1.0 -0.5952579913
O  O5  1  0.41228000  0.00700000  0.45862000  1.0 -0.5952579913
O  O6  1  0.00700000  0.45862000  0.41228000  1.0 -0.5952579913
O  O7  1  0.55754000  0.68659000  0.02071000  1.0 -0.5188978153
O  O8  1  0.68659000  0.02071000  0.55754000  1.0 -0.5188978153
O  O9  1  0.02071000  0.55754000  0.68659000  1.0 -0.5188978153
O  O10  1  0.44246000  0.31341000  0.97929000  1.0 -0.5188978153
O  O11  1  0.31341000  0.97929000  0.44246000  1.0 -0.5188978153
O  O12  1  0.97929000  0.44246000  0.31341000  1.0 -0.5188978153
O  O13  1  0.92613000  0.91098000  0.43291000  1.0 -0.568558806
O  O14  1  0.91098000  0.43291000  0.92613000  1.0 -0.568558806
O  O15  1  0.43291000  0.92613000  0.91098000  1.0 -0.568558806
O  O16  1  0.07387000  0.08902000  0.56709000  1.0 -0.568558806
O  O17  1  0.08902000  0.56709000  0.07387000  1.0 -0.568558806
O  O18  1  0.56709000  0.07387000  0.08902000  1.0 -0.568558806
O  O19  1  0.01028000  0.94008000  0.41158000  1.0 -0.5188978153
O  O20  1  0.94008000  0.41158000  0.01028000  1.0 -0.5188978153
O  O21  1  0.41158000  0.01028000  0.94008000  1.0 -0.5188978153
O  O22  1  0.98972000  0.05992000  0.58842000  1.0 -0.5188978153
O  O23  1  0.05992000  0.58842000  0.98972000  1.0 -0.5188978153
O  O24  1  0.58842000  0.98972000  0.05992000  1.0 -0.5188978153
O  O25  1  0.97390000  0.53926000  0.08225000  1.0 -0.5515368453
O  O26  1  0.53926000  0.08225000  0.97390000  1.0 -0.5515368453
O  O27  1  0.08225000  0.97390000  0.53926000  1.0 -0.5515368453
O  O28  1  0.02610000  0.46074000  0.91775000  1.0 -0.5515368453
O  O29  1  0.46074000  0.91775000  0.02610000  1.0 -0.5515368453
O  O30  1  0.91775000  0.02610000  0.46074000  1.0 -0.5515368453
O  O31  1  0.94218000  0.55862000  0.99708000  1.0 -0.5290368825
O  O32  1  0.55862000  0.99708000  0.94218000  1.0 -0.5290368825
O  O33  1  0.99708000  0.94218000  0.55862000  1.0 -0.5290368825
O  O34  1  0.05782000  0.44138000  0.00292000  1.0 -0.5290368825
O  O35  1  0.44138000  0.00292000  0.05782000  1.0 -0.5290368825
O  O36  1  0.00292000  0.05782000  0.44138000  1.0 -0.5290368825
O  O37  1  0.43742000  0.52691000  0.03111000  1.0 -0.5778471467
O  O38  1  0.52691000  0.03111000  0.43742000  1.0 -0.5778471467
O  O39  1  0.03111000  0.43742000  0.52691000  1.0 -0.5778471467
O  O40  1  0.56258000  0.47309000  0.96889000  1.0 -0.5778471467
O  O41  1  0.47309000  0.96889000  0.56258000  1.0 -0.5778471467
O  O42  1  0.96889000  0.56258000  0.47309000  1.0 -0.5778471467
O  O43  1  0.43901000  0.61715000  0.02349000  1.0 -0.5290368825
O  O44  1  0.61715000  0.02349000  0.43901000  1.0 -0.535278791
O  O45  1  0.02349000  0.43901000  0.61715000  1.0 -0.535278791
O  O46  1  0.56099000  0.38285000  0.97651000  1.0 -0.535278791
O  O47  1  0.38285000  0.97651000  0.56099000  1.0 -0.535278791
O  O48  1  0.97651000  0.56099000  0.38285000  1.0 -0.535278791
O  O49  1  0.04464000  0.46690000  0.13005000  1.0 -0.5290368825
O  O50  1  0.46690000  0.13005000  0.04464000  1.0 -0.5290368825
O  O51  1  0.13005000  0.04464000  0.46690000  1.0 -0.5290368825
O  O52  1  0.95536000  0.53310000  0.86995000  1.0 -0.5290368825
O  O53  1  0.53310000  0.86995000  0.95536000  1.0 -0.5290368825
O  O54  1  0.86995000  0.95536000  0.53310000  1.0 -0.5290368825
O  O55  1  0.06224000  0.50242000  0.22837000  1.0 -0.4941296317
O  O56  1  0.50242000  0.22837000  0.06224000  1.0 -0.4941296317
O  O57  1  0.22837000  0.06224000  0.50242000  1.0 -0.4941296317
O  O58  1  0.93776000  0.49758000  0.77163000  1.0 -0.4941296317
O  O59  1  0.49758000  0.77163000  0.93776000  1.0 -0.4941296317
O  O60  1  0.77163000  0.93776000  0.49758000  1.0 -0.4941296317
O  O61  1  0.45973000  0.90724000  0.43952000  1.0 -0.5515368453
O  O62  1  0.90724000  0.43952000  0.45973000  1.0 -0.5515368453
O  O63  1  0.43952000  0.45973000  0.90724000  1.0 -0.5515368453
O  O64  1  0.54027000  0.09276000  0.56048000  1.0 -0.5515368453
O  O65  1  0.09276000  0.56048000  0.54027000  1.0 -0.5515368453
O  O66  1  0.56048000  0.54027000  0.09276000  1.0 -0.5515368453
O  O67  1  0.53332000  0.89344000  0.40484000  1.0 -0.5515368453
O  O68  1  0.89344000  0.40484000  0.53332000  1.0 -0.5515368453
O  O69  1  0.40484000  0.53332000  0.89344000  1.0 -0.5515368453
O  O70  1  0.46668000  0.10656000  0.59516000  1.0 -0.5515368453
O  O71  1  0.10656000  0.59516000  0.46668000  1.0 -0.5515368453
O  O72  1  0.59516000  0.46668000  0.10656000  1.0 -0.5515368453
O  O73  1  0.41549000  0.66460000  0.92669000  1.0 -0.1682493252
O  O74  1  0.66460000  0.92669000  0.41549000  1.0 -0.1632817698
O  O75  1  0.92669000  0.41549000  0.66460000  1.0 -0.1632817698
O  O76  1  0.58451000  0.33540000  0.07331000  1.0 -0.1682493252
O  O77  1  0.33540000  0.07331000  0.58451000  1.0 -0.1632817698
O  O78  1  0.07331000  0.58451000  0.33540000  1.0 -0.1632817698
O  O79  1  0.62906000  0.88386000  0.50615000  1.0 -0.2477874917
O  O80  1  0.88386000  0.50615000  0.62906000  1.0 -0.2477874917
O  O81  1  0.50615000  0.62906000  0.88386000  1.0 -0.2477874917
O  O82  1  0.37094000  0.11614000  0.49385000  1.0 -0.2477874917
O  O83  1  0.11614000  0.49385000  0.37094000  1.0 -0.2477874917
O  O84  1  0.49385000  0.37094000  0.11614000  1.0 -0.2477874917
