# DDEC6 charges by PACMAN v1.1 (https://github.com/mtap-research/PACMAN-charge/)
data_VEHJUP_ASR_pacman
_symmetry_space_group_name_H-M   'P 1'
_cell_length_a   20.61550000
_cell_length_b   20.61550000
_cell_length_c   20.61550000
_cell_angle_alpha   90.00000000
_cell_angle_beta   90.00000000
_cell_angle_gamma   90.00000000
_symmetry_Int_Tables_number   1
_chemical_formula_structural   Zn11H18(C3O2)18
_chemical_formula_sum   'Zn22 H36 C108 O72'
_cell_volume   8761.56359117
_cell_formula_units_Z   2
loop_
 _symmetry_equiv_pos_site_id
 _symmetry_equiv_pos_as_xyz
  1  'x, y, z'
loop_
 _atom_site_type_symbol
 _atom_site_label
 _atom_site_symmetry_multiplicity
 _atom_site_fract_x
 _atom_site_fract_y
 _atom_site_fract_z
 _atom_site_occupancy
 _atom_site_charge
Zn  Zn1  1  0.00000000  0.42776000  0.00000000  1.0 0.940977024
Zn  Zn2  1  0.00000000  0.57224000  0.00000000  1.0 0.940977024
Zn  Zn3  1  0.00000000  0.00000000  0.42776000  1.0 0.940977024
Zn  Zn4  1  0.00000000  0.00000000  0.57224000  1.0 0.940977024
Zn  Zn5  1  0.42776000  0.00000000  0.00000000  1.0 0.940977024
Zn  Zn6  1  0.57224000  0.00000000  0.00000000  1.0 0.940977024
Zn  Zn7  1  0.23888000  0.23888000  0.23888000  1.0 0.9629168754
Zn  Zn8  1  0.76112000  0.76112000  0.23888000  1.0 0.9629168754
Zn  Zn9  1  0.76112000  0.23888000  0.76112000  1.0 0.9629168754
Zn  Zn10  1  0.23888000  0.76112000  0.76112000  1.0 0.9629168754
Zn  Zn11  1  0.23888000  0.23888000  0.76112000  1.0 0.9629168754
Zn  Zn12  1  0.76112000  0.76112000  0.76112000  1.0 0.9629168754
Zn  Zn13  1  0.23888000  0.76112000  0.23888000  1.0 0.9629168754
Zn  Zn14  1  0.76112000  0.23888000  0.23888000  1.0 0.9629168754
Zn  Zn15  1  0.33549000  0.33549000  0.33549000  1.0 0.9764213731
Zn  Zn16  1  0.66451000  0.66451000  0.33549000  1.0 0.9764213731
Zn  Zn17  1  0.66451000  0.33549000  0.66451000  1.0 0.9764213731
Zn  Zn18  1  0.33549000  0.66451000  0.66451000  1.0 0.974596249
Zn  Zn19  1  0.33549000  0.33549000  0.66451000  1.0 0.9764213731
Zn  Zn20  1  0.66451000  0.66451000  0.66451000  1.0 0.9764213731
Zn  Zn21  1  0.33549000  0.66451000  0.33549000  1.0 0.974596249
Zn  Zn22  1  0.66451000  0.33549000  0.33549000  1.0 0.9764213731
H  H1  1  0.14810000  0.40220000  0.14810000  1.0 0.1225906481
H  H2  1  0.85190000  0.59780000  0.14810000  1.0 0.1225906481
H  H3  1  0.85190000  0.40220000  0.85190000  1.0 0.1225906481
H  H4  1  0.14810000  0.59780000  0.85190000  1.0 0.1225906481
H  H5  1  0.14810000  0.14810000  0.40220000  1.0 0.1225906481
H  H6  1  0.14810000  0.85190000  0.59780000  1.0 0.1225906481
H  H7  1  0.85190000  0.85190000  0.40220000  1.0 0.1225906481
H  H8  1  0.85190000  0.14810000  0.59780000  1.0 0.1225906481
H  H9  1  0.40220000  0.14810000  0.14810000  1.0 0.1225906481
H  H10  1  0.59780000  0.14810000  0.85190000  1.0 0.1225906481
H  H11  1  0.40220000  0.85190000  0.85190000  1.0 0.1225906481
H  H12  1  0.59780000  0.85190000  0.14810000  1.0 0.1225906481
H  H13  1  0.40220000  0.14810000  0.85190000  1.0 0.1225906481
H  H14  1  0.59780000  0.85190000  0.85190000  1.0 0.1225906481
H  H15  1  0.40220000  0.85190000  0.14810000  1.0 0.1225906481
H  H16  1  0.59780000  0.14810000  0.14810000  1.0 0.1225906481
H  H17  1  0.14810000  0.14810000  0.59780000  1.0 0.1225906481
H  H18  1  0.85190000  0.14810000  0.40220000  1.0 0.1225906481
H  H19  1  0.85190000  0.85190000  0.59780000  1.0 0.1225906481
H  H20  1  0.14810000  0.85190000  0.40220000  1.0 0.1225906481
H  H21  1  0.14810000  0.40220000  0.85190000  1.0 0.1225906481
H  H22  1  0.14810000  0.59780000  0.14810000  1.0 0.1225906481
H  H23  1  0.85190000  0.40220000  0.14810000  1.0 0.1225906481
H  H24  1  0.85190000  0.59780000  0.85190000  1.0 0.1225906481
H  H25  1  0.26580000  0.50000000  0.26580000  1.0 0.1110986007
H  H26  1  0.73420000  0.50000000  0.26580000  1.0 0.1110986007
H  H27  1  0.73420000  0.50000000  0.73420000  1.0 0.1110986007
H  H28  1  0.26580000  0.50000000  0.73420000  1.0 0.1110986007
H  H29  1  0.26580000  0.26580000  0.50000000  1.0 0.1110986007
H  H30  1  0.26580000  0.73420000  0.50000000  1.0 0.1110986007
H  H31  1  0.73420000  0.73420000  0.50000000  1.0 0.1110986007
H  H32  1  0.73420000  0.26580000  0.50000000  1.0 0.1110986007
H  H33  1  0.50000000  0.26580000  0.26580000  1.0 0.1110986007
H  H34  1  0.50000000  0.26580000  0.73420000  1.0 0.1110986007
H  H35  1  0.50000000  0.73420000  0.73420000  1.0 0.1110986007
H  H36  1  0.50000000  0.73420000  0.26580000  1.0 0.1110986007
C  C1  1  0.08940000  0.50000000  0.08940000  1.0 0.5850494971
C  C2  1  0.91060000  0.50000000  0.08940000  1.0 0.5850494971
C  C3  1  0.91060000  0.50000000  0.91060000  1.0 0.5848101844
C  C4  1  0.08940000  0.50000000  0.91060000  1.0 0.5848101844
C  C5  1  0.08940000  0.08940000  0.50000000  1.0 0.5848101844
C  C6  1  0.08940000  0.91060000  0.50000000  1.0 0.5848101844
C  C7  1  0.91060000  0.91060000  0.50000000  1.0 0.5850494971
C  C8  1  0.91060000  0.08940000  0.50000000  1.0 0.5848101844
C  C9  1  0.50000000  0.08940000  0.08940000  1.0 0.5850494971
C  C10  1  0.50000000  0.08940000  0.91060000  1.0 0.5848101844
C  C11  1  0.50000000  0.91060000  0.91060000  1.0 0.5848101844
C  C12  1  0.50000000  0.91060000  0.08940000  1.0 0.5850494971
C  C13  1  0.14000000  0.50000000  0.14000000  1.0 -0.0622261491
C  C14  1  0.86000000  0.50000000  0.14000000  1.0 -0.0622261491
C  C15  1  0.86000000  0.50000000  0.86000000  1.0 -0.0622261491
C  C16  1  0.14000000  0.50000000  0.86000000  1.0 -0.0622261491
C  C17  1  0.14000000  0.14000000  0.50000000  1.0 -0.0622261491
C  C18  1  0.14000000  0.86000000  0.50000000  1.0 -0.0622261491
C  C19  1  0.86000000  0.86000000  0.50000000  1.0 -0.0622261491
C  C20  1  0.86000000  0.14000000  0.50000000  1.0 -0.0622261491
C  C21  1  0.50000000  0.14000000  0.14000000  1.0 -0.0622261491
C  C22  1  0.50000000  0.14000000  0.86000000  1.0 -0.0622261491
C  C23  1  0.50000000  0.86000000  0.86000000  1.0 -0.0622261491
C  C24  1  0.50000000  0.86000000  0.14000000  1.0 -0.0622261491
C  C25  1  0.16380000  0.44150000  0.16380000  1.0 -0.0874892097
C  C26  1  0.83620000  0.55850000  0.16380000  1.0 -0.0874892097
C  C27  1  0.83620000  0.44150000  0.83620000  1.0 -0.0874892097
C  C28  1  0.16380000  0.55850000  0.83620000  1.0 -0.0874892097
C  C29  1  0.16380000  0.16380000  0.44150000  1.0 -0.0874892097
C  C30  1  0.16380000  0.83620000  0.55850000  1.0 -0.0874892097
C  C31  1  0.83620000  0.83620000  0.44150000  1.0 -0.0874892097
C  C32  1  0.83620000  0.16380000  0.55850000  1.0 -0.0874892097
C  C33  1  0.44150000  0.16380000  0.16380000  1.0 -0.0874892097
C  C34  1  0.55850000  0.16380000  0.83620000  1.0 -0.0874892097
C  C35  1  0.44150000  0.83620000  0.83620000  1.0 -0.0874892097
C  C36  1  0.55850000  0.83620000  0.16380000  1.0 -0.0874892097
C  C37  1  0.44150000  0.16380000  0.83620000  1.0 -0.0874892097
C  C38  1  0.55850000  0.83620000  0.83620000  1.0 -0.0874892097
C  C39  1  0.44150000  0.83620000  0.16380000  1.0 -0.0874892097
C  C40  1  0.55850000  0.16380000  0.16380000  1.0 -0.0874892097
C  C41  1  0.16380000  0.16380000  0.55850000  1.0 -0.0874892097
C  C42  1  0.83620000  0.16380000  0.44150000  1.0 -0.0874892097
C  C43  1  0.83620000  0.83620000  0.55850000  1.0 -0.0874892097
C  C44  1  0.16380000  0.83620000  0.44150000  1.0 -0.0874892097
C  C45  1  0.16380000  0.44150000  0.83620000  1.0 -0.0874892097
C  C46  1  0.16380000  0.55850000  0.16380000  1.0 -0.0874892097
C  C47  1  0.83620000  0.44150000  0.16380000  1.0 -0.0874892097
C  C48  1  0.83620000  0.55850000  0.83620000  1.0 -0.0874892097
C  C49  1  0.21030000  0.44270000  0.21030000  1.0 -0.0336486976
C  C50  1  0.78970000  0.55730000  0.21030000  1.0 -0.0336486976
C  C51  1  0.78970000  0.44270000  0.78970000  1.0 -0.0336486976
C  C52  1  0.21030000  0.55730000  0.78970000  1.0 -0.0336486976
C  C53  1  0.21030000  0.21030000  0.44270000  1.0 -0.0336486976
C  C54  1  0.21030000  0.78970000  0.55730000  1.0 -0.0336486976
C  C55  1  0.78970000  0.78970000  0.44270000  1.0 -0.0336486976
C  C56  1  0.78970000  0.21030000  0.55730000  1.0 -0.0336486976
C  C57  1  0.44270000  0.21030000  0.21030000  1.0 -0.0336486976
C  C58  1  0.55730000  0.21030000  0.78970000  1.0 -0.0336486976
C  C59  1  0.44270000  0.78970000  0.78970000  1.0 -0.0336486976
C  C60  1  0.55730000  0.78970000  0.21030000  1.0 -0.0336486976
C  C61  1  0.44270000  0.21030000  0.78970000  1.0 -0.0336486976
C  C62  1  0.55730000  0.78970000  0.78970000  1.0 -0.0336486976
C  C63  1  0.44270000  0.78970000  0.21030000  1.0 -0.0336486976
C  C64  1  0.55730000  0.21030000  0.21030000  1.0 -0.0336486976
C  C65  1  0.21030000  0.21030000  0.55730000  1.0 -0.0336486976
C  C66  1  0.78970000  0.21030000  0.44270000  1.0 -0.0336486976
C  C67  1  0.78970000  0.78970000  0.55730000  1.0 -0.0336486976
C  C68  1  0.21030000  0.78970000  0.44270000  1.0 -0.0336486976
C  C69  1  0.21030000  0.44270000  0.78970000  1.0 -0.0336486976
C  C70  1  0.21030000  0.55730000  0.21030000  1.0 -0.0336486976
C  C71  1  0.78970000  0.44270000  0.21030000  1.0 -0.0336486976
C  C72  1  0.78970000  0.55730000  0.78970000  1.0 -0.0336486976
C  C73  1  0.23390000  0.50000000  0.23390000  1.0 -0.0956007372
C  C74  1  0.76610000  0.50000000  0.23390000  1.0 -0.0956007372
C  C75  1  0.76610000  0.50000000  0.76610000  1.0 -0.0956007372
C  C76  1  0.23390000  0.50000000  0.76610000  1.0 -0.0956007372
C  C77  1  0.23390000  0.23390000  0.50000000  1.0 -0.0956007372
C  C78  1  0.23390000  0.76610000  0.50000000  1.0 -0.0956007372
C  C79  1  0.76610000  0.76610000  0.50000000  1.0 -0.0956007372
C  C80  1  0.76610000  0.23390000  0.50000000  1.0 -0.0956007372
C  C81  1  0.50000000  0.23390000  0.23390000  1.0 -0.0956007372
C  C82  1  0.50000000  0.23390000  0.76610000  1.0 -0.0956007372
C  C83  1  0.50000000  0.76610000  0.76610000  1.0 -0.0956007372
C  C84  1  0.50000000  0.76610000  0.23390000  1.0 -0.0956007372
C  C85  1  0.23940000  0.38010000  0.23940000  1.0 0.6115031287
C  C86  1  0.76060000  0.61990000  0.23940000  1.0 0.6115031287
C  C87  1  0.76060000  0.38010000  0.76060000  1.0 0.6115031287
C  C88  1  0.23940000  0.61990000  0.76060000  1.0 0.6115031287
C  C89  1  0.23940000  0.23940000  0.38010000  1.0 0.6115031287
C  C90  1  0.23940000  0.76060000  0.61990000  1.0 0.6115031287
C  C91  1  0.76060000  0.76060000  0.38010000  1.0 0.6115031287
C  C92  1  0.76060000  0.23940000  0.61990000  1.0 0.6115031287
C  C93  1  0.38010000  0.23940000  0.23940000  1.0 0.6115031287
C  C94  1  0.61990000  0.23940000  0.76060000  1.0 0.6115031287
C  C95  1  0.38010000  0.76060000  0.76060000  1.0 0.6115031287
C  C96  1  0.61990000  0.76060000  0.23940000  1.0 0.6115031287
C  C97  1  0.38010000  0.23940000  0.76060000  1.0 0.6115031287
C  C98  1  0.61990000  0.76060000  0.76060000  1.0 0.6115031287
C  C99  1  0.38010000  0.76060000  0.23940000  1.0 0.6115031287
C  C100  1  0.61990000  0.23940000  0.23940000  1.0 0.6115031287
C  C101  1  0.23940000  0.23940000  0.61990000  1.0 0.6115031287
C  C102  1  0.76060000  0.23940000  0.38010000  1.0 0.6115031287
C  C103  1  0.76060000  0.76060000  0.61990000  1.0 0.6115031287
C  C104  1  0.23940000  0.76060000  0.38010000  1.0 0.6115031287
C  C105  1  0.23940000  0.38010000  0.76060000  1.0 0.6115031287
C  C106  1  0.23940000  0.61990000  0.23940000  1.0 0.6115031287
C  C107  1  0.76060000  0.38010000  0.23940000  1.0 0.6115031287
C  C108  1  0.76060000  0.61990000  0.76060000  1.0 0.6115031287
O  O1  1  0.06890000  0.44580000  0.06890000  1.0 -0.5543140998
O  O2  1  0.93110000  0.55420000  0.06890000  1.0 -0.5543140998
O  O3  1  0.93110000  0.44580000  0.93110000  1.0 -0.5543140998
O  O4  1  0.06890000  0.55420000  0.93110000  1.0 -0.5543140998
O  O5  1  0.06890000  0.06890000  0.44580000  1.0 -0.5543140998
O  O6  1  0.06890000  0.93110000  0.55420000  1.0 -0.5543140998
O  O7  1  0.93110000  0.93110000  0.44580000  1.0 -0.5543140998
O  O8  1  0.93110000  0.06890000  0.55420000  1.0 -0.5543140998
O  O9  1  0.44580000  0.06890000  0.06890000  1.0 -0.5543140998
O  O10  1  0.55420000  0.06890000  0.93110000  1.0 -0.5543140998
O  O11  1  0.44580000  0.93110000  0.93110000  1.0 -0.5543140998
O  O12  1  0.55420000  0.93110000  0.06890000  1.0 -0.5543140998
O  O13  1  0.44580000  0.06890000  0.93110000  1.0 -0.5543140998
O  O14  1  0.55420000  0.93110000  0.93110000  1.0 -0.5543140998
O  O15  1  0.44580000  0.93110000  0.06890000  1.0 -0.5543140998
O  O16  1  0.55420000  0.06890000  0.06890000  1.0 -0.5543140998
O  O17  1  0.06890000  0.06890000  0.55420000  1.0 -0.5543140998
O  O18  1  0.93110000  0.06890000  0.44580000  1.0 -0.5543140998
O  O19  1  0.93110000  0.93110000  0.55420000  1.0 -0.5543140998
O  O20  1  0.06890000  0.93110000  0.44580000  1.0 -0.5543140998
O  O21  1  0.06890000  0.44580000  0.93110000  1.0 -0.5543140998
O  O22  1  0.06890000  0.55420000  0.06890000  1.0 -0.5543140998
O  O23  1  0.93110000  0.44580000  0.06890000  1.0 -0.5543140998
O  O24  1  0.93110000  0.55420000  0.93110000  1.0 -0.5543140998
O  O25  1  0.21570000  0.32790000  0.21570000  1.0 -0.5882382
O  O26  1  0.78430000  0.67210000  0.21570000  1.0 -0.5882382
O  O27  1  0.78430000  0.32790000  0.78430000  1.0 -0.5882382
O  O28  1  0.21570000  0.67210000  0.78430000  1.0 -0.5882382
O  O29  1  0.21570000  0.21570000  0.32790000  1.0 -0.5882382
O  O30  1  0.21570000  0.78430000  0.67210000  1.0 -0.5882382
O  O31  1  0.78430000  0.78430000  0.32790000  1.0 -0.5882382
O  O32  1  0.78430000  0.21570000  0.67210000  1.0 -0.5882382
O  O33  1  0.32790000  0.21570000  0.21570000  1.0 -0.5882382
O  O34  1  0.67210000  0.21570000  0.78430000  1.0 -0.5882382
O  O35  1  0.32790000  0.78430000  0.78430000  1.0 -0.5882382
O  O36  1  0.67210000  0.78430000  0.21570000  1.0 -0.5882382
O  O37  1  0.32790000  0.21570000  0.78430000  1.0 -0.5882382
O  O38  1  0.67210000  0.78430000  0.78430000  1.0 -0.5882382
O  O39  1  0.32790000  0.78430000  0.21570000  1.0 -0.5882382
O  O40  1  0.67210000  0.21570000  0.21570000  1.0 -0.5882382
O  O41  1  0.21570000  0.21570000  0.67210000  1.0 -0.5882382
O  O42  1  0.78430000  0.21570000  0.32790000  1.0 -0.5882382
O  O43  1  0.78430000  0.78430000  0.67210000  1.0 -0.5882382
O  O44  1  0.21570000  0.78430000  0.32790000  1.0 -0.5882382
O  O45  1  0.21570000  0.32790000  0.78430000  1.0 -0.5882382
O  O46  1  0.21570000  0.67210000  0.21570000  1.0 -0.5882382
O  O47  1  0.78430000  0.32790000  0.21570000  1.0 -0.5882382
O  O48  1  0.78430000  0.67210000  0.78430000  1.0 -0.5882382
O  O49  1  0.28320000  0.38680000  0.28320000  1.0 -0.621032621
O  O50  1  0.71680000  0.61320000  0.28320000  1.0 -0.621032621
O  O51  1  0.71680000  0.38680000  0.71680000  1.0 -0.621032621
O  O52  1  0.28320000  0.61320000  0.71680000  1.0 -0.621032621
O  O53  1  0.28320000  0.28320000  0.38680000  1.0 -0.621032621
O  O54  1  0.28320000  0.71680000  0.61320000  1.0 -0.621032621
O  O55  1  0.71680000  0.71680000  0.38680000  1.0 -0.621032621
O  O56  1  0.71680000  0.28320000  0.61320000  1.0 -0.621032621
O  O57  1  0.38680000  0.28320000  0.28320000  1.0 -0.621032621
O  O58  1  0.61320000  0.28320000  0.71680000  1.0 -0.621032621
O  O59  1  0.38680000  0.71680000  0.71680000  1.0 -0.621032621
O  O60  1  0.61320000  0.71680000  0.28320000  1.0 -0.621032621
O  O61  1  0.38680000  0.28320000  0.71680000  1.0 -0.621032621
O  O62  1  0.61320000  0.71680000  0.71680000  1.0 -0.621032621
O  O63  1  0.38680000  0.71680000  0.28320000  1.0 -0.621032621
O  O64  1  0.61320000  0.28320000  0.28320000  1.0 -0.621032621
O  O65  1  0.28320000  0.28320000  0.61320000  1.0 -0.621032621
O  O66  1  0.71680000  0.28320000  0.38680000  1.0 -0.621032621
O  O67  1  0.71680000  0.71680000  0.61320000  1.0 -0.621032621
O  O68  1  0.28320000  0.71680000  0.38680000  1.0 -0.621032621
O  O69  1  0.28320000  0.38680000  0.71680000  1.0 -0.621032621
O  O70  1  0.28320000  0.61320000  0.28320000  1.0 -0.621032621
O  O71  1  0.71680000  0.38680000  0.28320000  1.0 -0.621032621
O  O72  1  0.71680000  0.61320000  0.71680000  1.0 -0.621032621
