# DDEC6 charges by PACMAN v1.1 (https://github.com/mtap-research/PACMAN-charge/)
data_VEHJOJ_ASR_pacman
_symmetry_space_group_name_H-M   'P 1'
_cell_length_a   20.57300000
_cell_length_b   20.57300000
_cell_length_c   20.57300000
_cell_angle_alpha   90.00000000
_cell_angle_beta   90.00000000
_cell_angle_gamma   90.00000000
_symmetry_Int_Tables_number   1
_chemical_formula_structural   Zn11H18(C3O2)18
_chemical_formula_sum   'Zn22 H36 C108 O72'
_cell_volume   8707.48787252
_cell_formula_units_Z   2
loop_
 _symmetry_equiv_pos_site_id
 _symmetry_equiv_pos_as_xyz
  1  'x, y, z'
loop_
 _atom_site_type_symbol
 _atom_site_label
 _atom_site_symmetry_multiplicity
 _atom_site_fract_x
 _atom_site_fract_y
 _atom_site_fract_z
 _atom_site_occupancy
 _atom_site_charge
Zn  Zn1  1  0.50000000  0.07243000  0.50000000  1.0 0.9175476731
Zn  Zn2  1  0.50000000  0.92757000  0.50000000  1.0 0.9175476731
Zn  Zn3  1  0.50000000  0.50000000  0.07243000  1.0 0.9175476731
Zn  Zn4  1  0.07243000  0.50000000  0.50000000  1.0 0.9175476731
Zn  Zn5  1  0.92757000  0.50000000  0.50000000  1.0 0.9175476731
Zn  Zn6  1  0.50000000  0.50000000  0.92757000  1.0 0.9175476731
Zn  Zn7  1  0.26319000  0.73681000  0.26319000  1.0 0.9767258765
Zn  Zn8  1  0.73681000  0.26319000  0.26319000  1.0 0.9767258765
Zn  Zn9  1  0.26319000  0.26319000  0.73681000  1.0 0.9767258765
Zn  Zn10  1  0.73681000  0.73681000  0.73681000  1.0 0.9767258765
Zn  Zn11  1  0.26319000  0.73681000  0.73681000  1.0 0.9767258765
Zn  Zn12  1  0.73681000  0.26319000  0.73681000  1.0 0.9767258765
Zn  Zn13  1  0.73681000  0.73681000  0.26319000  1.0 0.9767258765
Zn  Zn14  1  0.26319000  0.26319000  0.26319000  1.0 0.9767258765
Zn  Zn15  1  0.16524000  0.83476000  0.16524000  1.0 0.9544754447
Zn  Zn16  1  0.83476000  0.16524000  0.16524000  1.0 0.9553985895
Zn  Zn17  1  0.16524000  0.16524000  0.83476000  1.0 0.9553985895
Zn  Zn18  1  0.83476000  0.83476000  0.83476000  1.0 0.9544754447
Zn  Zn19  1  0.16524000  0.83476000  0.83476000  1.0 0.9544754447
Zn  Zn20  1  0.83476000  0.16524000  0.83476000  1.0 0.9544754447
Zn  Zn21  1  0.83476000  0.83476000  0.16524000  1.0 0.9544754447
Zn  Zn22  1  0.16524000  0.16524000  0.16524000  1.0 0.9553985895
H  H1  1  0.34910000  0.90110000  0.34910000  1.0 0.1264456946
H  H2  1  0.65090000  0.09890000  0.34910000  1.0 0.1264456946
H  H3  1  0.34910000  0.09890000  0.65090000  1.0 0.1264456946
H  H4  1  0.65090000  0.90110000  0.65090000  1.0 0.1264456946
H  H5  1  0.34910000  0.34910000  0.90110000  1.0 0.1264456946
H  H6  1  0.90110000  0.34910000  0.34910000  1.0 0.1264456946
H  H7  1  0.65090000  0.65090000  0.90110000  1.0 0.1264456946
H  H8  1  0.09890000  0.34910000  0.65090000  1.0 0.1264456946
H  H9  1  0.34910000  0.65090000  0.09890000  1.0 0.1264456946
H  H10  1  0.09890000  0.65090000  0.34910000  1.0 0.1264456946
H  H11  1  0.65090000  0.34910000  0.09890000  1.0 0.1264456946
H  H12  1  0.90110000  0.65090000  0.65090000  1.0 0.1264456946
H  H13  1  0.09890000  0.65090000  0.65090000  1.0 0.1264456946
H  H14  1  0.90110000  0.34910000  0.65090000  1.0 0.1264456946
H  H15  1  0.90110000  0.65090000  0.34910000  1.0 0.1264456946
H  H16  1  0.09890000  0.34910000  0.34910000  1.0 0.1264456946
H  H17  1  0.65090000  0.65090000  0.09890000  1.0 0.1264456946
H  H18  1  0.65090000  0.09890000  0.65090000  1.0 0.1264456946
H  H19  1  0.34910000  0.34910000  0.09890000  1.0 0.1264456946
H  H20  1  0.65090000  0.90110000  0.34910000  1.0 0.1264456946
H  H21  1  0.34910000  0.65090000  0.90110000  1.0 0.1264456946
H  H22  1  0.34910000  0.90110000  0.65090000  1.0 0.1264456946
H  H23  1  0.65090000  0.34910000  0.90110000  1.0 0.1264456946
H  H24  1  0.34910000  0.09890000  0.34910000  1.0 0.1264456946
H  H25  1  0.23310000  0.00000000  0.23310000  1.0 0.1137874425
H  H26  1  0.76690000  0.00000000  0.23310000  1.0 0.1137874425
H  H27  1  0.23310000  0.00000000  0.76690000  1.0 0.1137874425
H  H28  1  0.76690000  0.00000000  0.76690000  1.0 0.1137874425
H  H29  1  0.23310000  0.23310000  0.00000000  1.0 0.1137874425
H  H30  1  0.00000000  0.23310000  0.23310000  1.0 0.1137874425
H  H31  1  0.76690000  0.76690000  0.00000000  1.0 0.1137874425
H  H32  1  0.00000000  0.23310000  0.76690000  1.0 0.1137874425
H  H33  1  0.23310000  0.76690000  0.00000000  1.0 0.1137874425
H  H34  1  0.00000000  0.76690000  0.23310000  1.0 0.1137874425
H  H35  1  0.76690000  0.23310000  0.00000000  1.0 0.1137874425
H  H36  1  0.00000000  0.76690000  0.76690000  1.0 0.1137874425
C  C1  1  0.36000000  0.00000000  0.36000000  1.0 -0.0315875334
C  C2  1  0.64000000  0.00000000  0.36000000  1.0 -0.0315875334
C  C3  1  0.36000000  0.00000000  0.64000000  1.0 -0.0315875334
C  C4  1  0.64000000  0.00000000  0.64000000  1.0 -0.0315875334
C  C5  1  0.36000000  0.36000000  0.00000000  1.0 -0.0315875334
C  C6  1  0.00000000  0.36000000  0.36000000  1.0 -0.0315875334
C  C7  1  0.64000000  0.64000000  0.00000000  1.0 -0.0315875334
C  C8  1  0.00000000  0.36000000  0.64000000  1.0 -0.0315875334
C  C9  1  0.36000000  0.64000000  0.00000000  1.0 -0.0315875334
C  C10  1  0.00000000  0.64000000  0.36000000  1.0 -0.0315875334
C  C11  1  0.64000000  0.36000000  0.00000000  1.0 -0.0315875334
C  C12  1  0.00000000  0.64000000  0.64000000  1.0 -0.0315875334
C  C13  1  0.33410000  0.94100000  0.33410000  1.0 -0.0965119746
C  C14  1  0.66590000  0.05900000  0.33410000  1.0 -0.0965119746
C  C15  1  0.33410000  0.05900000  0.66590000  1.0 -0.0948203503
C  C16  1  0.66590000  0.94100000  0.66590000  1.0 -0.0965119746
C  C17  1  0.33410000  0.33410000  0.94100000  1.0 -0.0965119746
C  C18  1  0.94100000  0.33410000  0.33410000  1.0 -0.0965119746
C  C19  1  0.66590000  0.66590000  0.94100000  1.0 -0.0965119746
C  C20  1  0.05900000  0.33410000  0.66590000  1.0 -0.0965119746
C  C21  1  0.33410000  0.66590000  0.05900000  1.0 -0.0965119746
C  C22  1  0.05900000  0.66590000  0.33410000  1.0 -0.0965119746
C  C23  1  0.66590000  0.33410000  0.05900000  1.0 -0.0965119746
C  C24  1  0.94100000  0.66590000  0.66590000  1.0 -0.0948203503
C  C25  1  0.05900000  0.66590000  0.66590000  1.0 -0.0965119746
C  C26  1  0.94100000  0.33410000  0.66590000  1.0 -0.0948203503
C  C27  1  0.94100000  0.66590000  0.33410000  1.0 -0.0965119746
C  C28  1  0.05900000  0.33410000  0.33410000  1.0 -0.0965119746
C  C29  1  0.66590000  0.66590000  0.05900000  1.0 -0.0965119746
C  C30  1  0.66590000  0.05900000  0.66590000  1.0 -0.0965119746
C  C31  1  0.33410000  0.33410000  0.05900000  1.0 -0.0965119746
C  C32  1  0.66590000  0.94100000  0.33410000  1.0 -0.0965119746
C  C33  1  0.33410000  0.66590000  0.94100000  1.0 -0.0965119746
C  C34  1  0.33410000  0.94100000  0.66590000  1.0 -0.0965119746
C  C35  1  0.66590000  0.33410000  0.94100000  1.0 -0.0965119746
C  C36  1  0.33410000  0.05900000  0.33410000  1.0 -0.0965119746
C  C37  1  0.28820000  0.94300000  0.28820000  1.0 -0.0545202363
C  C38  1  0.71180000  0.05700000  0.28820000  1.0 -0.0545202363
C  C39  1  0.28820000  0.05700000  0.71180000  1.0 -0.0545202363
C  C40  1  0.71180000  0.94300000  0.71180000  1.0 -0.0545202363
C  C41  1  0.28820000  0.28820000  0.94300000  1.0 -0.0545202363
C  C42  1  0.94300000  0.28820000  0.28820000  1.0 -0.0545202363
C  C43  1  0.71180000  0.71180000  0.94300000  1.0 -0.0545202363
C  C44  1  0.05700000  0.28820000  0.71180000  1.0 -0.0545202363
C  C45  1  0.28820000  0.71180000  0.05700000  1.0 -0.0545202363
C  C46  1  0.05700000  0.71180000  0.28820000  1.0 -0.0545202363
C  C47  1  0.71180000  0.28820000  0.05700000  1.0 -0.0545202363
C  C48  1  0.94300000  0.71180000  0.71180000  1.0 -0.0545202363
C  C49  1  0.05700000  0.71180000  0.71180000  1.0 -0.0545202363
C  C50  1  0.94300000  0.28820000  0.71180000  1.0 -0.0545202363
C  C51  1  0.94300000  0.71180000  0.28820000  1.0 -0.0545202363
C  C52  1  0.05700000  0.28820000  0.28820000  1.0 -0.0545202363
C  C53  1  0.71180000  0.71180000  0.05700000  1.0 -0.0545202363
C  C54  1  0.71180000  0.05700000  0.71180000  1.0 -0.0545202363
C  C55  1  0.28820000  0.28820000  0.05700000  1.0 -0.0545202363
C  C56  1  0.71180000  0.94300000  0.28820000  1.0 -0.0545202363
C  C57  1  0.28820000  0.71180000  0.94300000  1.0 -0.0545202363
C  C58  1  0.28820000  0.94300000  0.71180000  1.0 -0.0545202363
C  C59  1  0.71180000  0.28820000  0.94300000  1.0 -0.0545202363
C  C60  1  0.28820000  0.05700000  0.28820000  1.0 -0.0545202363
C  C61  1  0.26510000  0.00000000  0.26510000  1.0 -0.0965119746
C  C62  1  0.73490000  0.00000000  0.26510000  1.0 -0.0965119746
C  C63  1  0.26510000  0.00000000  0.73490000  1.0 -0.0965119746
C  C64  1  0.73490000  0.00000000  0.73490000  1.0 -0.0965119746
C  C65  1  0.26510000  0.26510000  0.00000000  1.0 -0.0965119746
C  C66  1  0.00000000  0.26510000  0.26510000  1.0 -0.0965119746
C  C67  1  0.73490000  0.73490000  0.00000000  1.0 -0.0965119746
C  C68  1  0.00000000  0.26510000  0.73490000  1.0 -0.0965119746
C  C69  1  0.26510000  0.73490000  0.00000000  1.0 -0.0965119746
C  C70  1  0.00000000  0.73490000  0.26510000  1.0 -0.0965119746
C  C71  1  0.73490000  0.26510000  0.00000000  1.0 -0.0965119746
C  C72  1  0.00000000  0.73490000  0.73490000  1.0 -0.0965119746
C  C73  1  0.41330000  0.00000000  0.41330000  1.0 0.5696130694
C  C74  1  0.58670000  0.00000000  0.41330000  1.0 0.5696130694
C  C75  1  0.41330000  0.00000000  0.58670000  1.0 0.5696130694
C  C76  1  0.58670000  0.00000000  0.58670000  1.0 0.5696130694
C  C77  1  0.41330000  0.41330000  0.00000000  1.0 0.5696130694
C  C78  1  0.00000000  0.41330000  0.41330000  1.0 0.5696130694
C  C79  1  0.58670000  0.58670000  0.00000000  1.0 0.5696130694
C  C80  1  0.00000000  0.41330000  0.58670000  1.0 0.5696130694
C  C81  1  0.41330000  0.58670000  0.00000000  1.0 0.5696130694
C  C82  1  0.00000000  0.58670000  0.41330000  1.0 0.5696130694
C  C83  1  0.58670000  0.41330000  0.00000000  1.0 0.5696130694
C  C84  1  0.00000000  0.58670000  0.58670000  1.0 0.5696130694
C  C85  1  0.26100000  0.88120000  0.26100000  1.0 0.6037683066
C  C86  1  0.73900000  0.11880000  0.26100000  1.0 0.6037683066
C  C87  1  0.26100000  0.11880000  0.73900000  1.0 0.6037683066
C  C88  1  0.73900000  0.88120000  0.73900000  1.0 0.6037683066
C  C89  1  0.26100000  0.26100000  0.88120000  1.0 0.6037683066
C  C90  1  0.88120000  0.26100000  0.26100000  1.0 0.6037683066
C  C91  1  0.73900000  0.73900000  0.88120000  1.0 0.6037683066
C  C92  1  0.11880000  0.26100000  0.73900000  1.0 0.6037683066
C  C93  1  0.26100000  0.73900000  0.11880000  1.0 0.6037683066
C  C94  1  0.11880000  0.73900000  0.26100000  1.0 0.6037683066
C  C95  1  0.73900000  0.26100000  0.11880000  1.0 0.6037683066
C  C96  1  0.88120000  0.73900000  0.73900000  1.0 0.6037683066
C  C97  1  0.11880000  0.73900000  0.73900000  1.0 0.6037683066
C  C98  1  0.88120000  0.26100000  0.73900000  1.0 0.6037683066
C  C99  1  0.88120000  0.73900000  0.26100000  1.0 0.6037683066
C  C100  1  0.11880000  0.26100000  0.26100000  1.0 0.6037683066
C  C101  1  0.73900000  0.73900000  0.11880000  1.0 0.6037683066
C  C102  1  0.73900000  0.11880000  0.73900000  1.0 0.6037683066
C  C103  1  0.26100000  0.26100000  0.11880000  1.0 0.6037683066
C  C104  1  0.73900000  0.88120000  0.26100000  1.0 0.6037683066
C  C105  1  0.26100000  0.73900000  0.88120000  1.0 0.6037683066
C  C106  1  0.26100000  0.88120000  0.73900000  1.0 0.6037683066
C  C107  1  0.73900000  0.26100000  0.88120000  1.0 0.6037683066
C  C108  1  0.26100000  0.11880000  0.26100000  1.0 0.6037683066
O  O1  1  0.43180000  0.05390000  0.43180000  1.0 -0.5443787971
O  O2  1  0.56820000  0.94610000  0.43180000  1.0 -0.5443787971
O  O3  1  0.43180000  0.94610000  0.56820000  1.0 -0.5443787971
O  O4  1  0.56820000  0.05390000  0.56820000  1.0 -0.5443787971
O  O5  1  0.43180000  0.43180000  0.05390000  1.0 -0.5443787971
O  O6  1  0.05390000  0.43180000  0.43180000  1.0 -0.5443787971
O  O7  1  0.56820000  0.56820000  0.05390000  1.0 -0.5443787971
O  O8  1  0.94610000  0.43180000  0.56820000  1.0 -0.5443787971
O  O9  1  0.43180000  0.56820000  0.94610000  1.0 -0.5443787971
O  O10  1  0.94610000  0.56820000  0.43180000  1.0 -0.5443787971
O  O11  1  0.56820000  0.43180000  0.94610000  1.0 -0.5443787971
O  O12  1  0.05390000  0.56820000  0.56820000  1.0 -0.5443787971
O  O13  1  0.94610000  0.56820000  0.56820000  1.0 -0.5443787971
O  O14  1  0.05390000  0.43180000  0.56820000  1.0 -0.5443787971
O  O15  1  0.05390000  0.56820000  0.43180000  1.0 -0.5443787971
O  O16  1  0.94610000  0.43180000  0.43180000  1.0 -0.5443787971
O  O17  1  0.56820000  0.56820000  0.94610000  1.0 -0.5443787971
O  O18  1  0.56820000  0.94610000  0.56820000  1.0 -0.5443787971
O  O19  1  0.43180000  0.43180000  0.94610000  1.0 -0.5443787971
O  O20  1  0.56820000  0.05390000  0.43180000  1.0 -0.5443787971
O  O21  1  0.43180000  0.56820000  0.05390000  1.0 -0.5443787971
O  O22  1  0.43180000  0.05390000  0.56820000  1.0 -0.5443787971
O  O23  1  0.56820000  0.43180000  0.05390000  1.0 -0.5443787971
O  O24  1  0.43180000  0.94610000  0.43180000  1.0 -0.5443787971
O  O25  1  0.28310000  0.82830000  0.28310000  1.0 -0.5954584131
O  O26  1  0.71690000  0.17170000  0.28310000  1.0 -0.5954584131
O  O27  1  0.28310000  0.17170000  0.71690000  1.0 -0.5954584131
O  O28  1  0.71690000  0.82830000  0.71690000  1.0 -0.5954584131
O  O29  1  0.28310000  0.28310000  0.82830000  1.0 -0.5954584131
O  O30  1  0.82830000  0.28310000  0.28310000  1.0 -0.5954584131
O  O31  1  0.71690000  0.71690000  0.82830000  1.0 -0.5954584131
O  O32  1  0.17170000  0.28310000  0.71690000  1.0 -0.5954584131
O  O33  1  0.28310000  0.71690000  0.17170000  1.0 -0.5954584131
O  O34  1  0.17170000  0.71690000  0.28310000  1.0 -0.5954584131
O  O35  1  0.71690000  0.28310000  0.17170000  1.0 -0.5954584131
O  O36  1  0.82830000  0.71690000  0.71690000  1.0 -0.5954584131
O  O37  1  0.17170000  0.71690000  0.71690000  1.0 -0.5954584131
O  O38  1  0.82830000  0.28310000  0.71690000  1.0 -0.5954584131
O  O39  1  0.82830000  0.71690000  0.28310000  1.0 -0.5954584131
O  O40  1  0.17170000  0.28310000  0.28310000  1.0 -0.5954584131
O  O41  1  0.71690000  0.71690000  0.17170000  1.0 -0.5954584131
O  O42  1  0.71690000  0.17170000  0.71690000  1.0 -0.5954584131
O  O43  1  0.28310000  0.28310000  0.17170000  1.0 -0.5954584131
O  O44  1  0.71690000  0.82830000  0.28310000  1.0 -0.5954584131
O  O45  1  0.28310000  0.71690000  0.82830000  1.0 -0.5954584131
O  O46  1  0.28310000  0.82830000  0.71690000  1.0 -0.5954584131
O  O47  1  0.71690000  0.28310000  0.82830000  1.0 -0.5954584131
O  O48  1  0.28310000  0.17170000  0.28310000  1.0 -0.5954584131
O  O49  1  0.21860000  0.88770000  0.21860000  1.0 -0.5904426201
O  O50  1  0.78140000  0.11230000  0.21860000  1.0 -0.5904426201
O  O51  1  0.21860000  0.11230000  0.78140000  1.0 -0.5904426201
O  O52  1  0.78140000  0.88770000  0.78140000  1.0 -0.5904426201
O  O53  1  0.21860000  0.21860000  0.88770000  1.0 -0.5904426201
O  O54  1  0.88770000  0.21860000  0.21860000  1.0 -0.5904426201
O  O55  1  0.78140000  0.78140000  0.88770000  1.0 -0.5904426201
O  O56  1  0.11230000  0.21860000  0.78140000  1.0 -0.5904426201
O  O57  1  0.21860000  0.78140000  0.11230000  1.0 -0.5904426201
O  O58  1  0.11230000  0.78140000  0.21860000  1.0 -0.5904426201
O  O59  1  0.78140000  0.21860000  0.11230000  1.0 -0.5904426201
O  O60  1  0.88770000  0.78140000  0.78140000  1.0 -0.5904426201
O  O61  1  0.11230000  0.78140000  0.78140000  1.0 -0.5904426201
O  O62  1  0.88770000  0.21860000  0.78140000  1.0 -0.5904426201
O  O63  1  0.88770000  0.78140000  0.21860000  1.0 -0.5904426201
O  O64  1  0.11230000  0.21860000  0.21860000  1.0 -0.5904426201
O  O65  1  0.78140000  0.78140000  0.11230000  1.0 -0.5904426201
O  O66  1  0.78140000  0.11230000  0.78140000  1.0 -0.5904426201
O  O67  1  0.21860000  0.21860000  0.11230000  1.0 -0.5904426201
O  O68  1  0.78140000  0.88770000  0.21860000  1.0 -0.5904426201
O  O69  1  0.21860000  0.78140000  0.88770000  1.0 -0.5904426201
O  O70  1  0.21860000  0.88770000  0.78140000  1.0 -0.5904426201
O  O71  1  0.78140000  0.21860000  0.88770000  1.0 -0.5904426201
O  O72  1  0.21860000  0.11230000  0.21860000  1.0 -0.5904426201
