# DDEC6 charges by PACMAN v1.1 (https://github.com/mtap-research/PACMAN-charge/)
data_VEHXEN_ion_pacman
_symmetry_space_group_name_H-M   'P 1'
_cell_length_a   43.60510000
_cell_length_b   43.60510000
_cell_length_c   19.34740000
_cell_angle_alpha   90.00000000
_cell_angle_beta   90.00000000
_cell_angle_gamma   90.00000000
_symmetry_Int_Tables_number   1
_chemical_formula_structural   Pr20Sb60H24C72S12Cl61O138
_chemical_formula_sum   'Pr40 Sb120 H48 C144 S24 Cl122 O276'
_cell_volume   36787.23818295
_cell_formula_units_Z   2
loop_
 _symmetry_equiv_pos_site_id
 _symmetry_equiv_pos_as_xyz
  1  'x, y, z'
loop_
 _atom_site_type_symbol
 _atom_site_label
 _atom_site_symmetry_multiplicity
 _atom_site_fract_x
 _atom_site_fract_y
 _atom_site_fract_z
 _atom_site_occupancy
 _atom_site_charge
Pr  Pr1  1  0.87422000  0.27697000  0.96303000  1.0 1.8396231406
Pr  Pr2  1  0.77697000  0.62578000  0.46303000  1.0 1.8396231406
Pr  Pr3  1  0.12578000  0.72303000  0.96303000  1.0 1.8396231406
Pr  Pr4  1  0.22303000  0.37422000  0.46303000  1.0 1.8347356279
Pr  Pr5  1  0.62578000  0.22303000  0.53697000  1.0 1.8396231406
Pr  Pr6  1  0.72303000  0.87422000  0.03697000  1.0 1.8396231406
Pr  Pr7  1  0.37422000  0.77697000  0.53697000  1.0 1.8396231406
Pr  Pr8  1  0.27697000  0.12578000  0.03697000  1.0 1.8396231406
Pr  Pr9  1  0.98385000  0.29545000  0.97163000  1.0 1.9512634535
Pr  Pr10  1  0.79545000  0.51615000  0.47163000  1.0 1.9512634535
Pr  Pr11  1  0.01615000  0.70455000  0.97163000  1.0 1.9512634535
Pr  Pr12  1  0.20455000  0.48385000  0.47163000  1.0 1.9512634535
Pr  Pr13  1  0.51615000  0.20455000  0.52837000  1.0 1.9512634535
Pr  Pr14  1  0.70455000  0.98385000  0.02837000  1.0 1.9512634535
Pr  Pr15  1  0.48385000  0.79545000  0.52837000  1.0 1.9512634535
Pr  Pr16  1  0.29545000  0.01615000  0.02837000  1.0 1.9512634535
Pr  Pr17  1  0.91364000  0.35463000  0.11442000  1.0 1.9670499821
Pr  Pr18  1  0.85463000  0.58636000  0.61442000  1.0 1.9670499821
Pr  Pr19  1  0.08636000  0.64537000  0.11442000  1.0 1.9670499821
Pr  Pr20  1  0.14537000  0.41364000  0.61442000  1.0 1.9670499821
Pr  Pr21  1  0.58636000  0.14537000  0.38558000  1.0 1.9670499821
Pr  Pr22  1  0.64537000  0.91364000  0.88558000  1.0 1.9670499821
Pr  Pr23  1  0.41364000  0.85463000  0.38558000  1.0 1.9670499821
Pr  Pr24  1  0.35463000  0.08636000  0.88558000  1.0 1.9670499821
Pr  Pr25  1  0.93246000  0.24938000  0.16574000  1.0 2.0262939889
Pr  Pr26  1  0.74938000  0.56754000  0.66574000  1.0 2.0239384928
Pr  Pr27  1  0.06754000  0.75062000  0.16574000  1.0 2.0239384928
Pr  Pr28  1  0.25062000  0.43246000  0.66574000  1.0 2.0239384928
Pr  Pr29  1  0.56754000  0.25062000  0.33426000  1.0 2.0239384928
Pr  Pr30  1  0.75062000  0.93246000  0.83426000  1.0 2.0262939889
Pr  Pr31  1  0.43246000  0.74938000  0.33426000  1.0 2.0239384928
Pr  Pr32  1  0.24938000  0.06754000  0.83426000  1.0 2.0239384928
Pr  Pr33  1  0.05311000  0.01260000  0.58946000  1.0 2.0075030137
Pr  Pr34  1  0.51260000  0.44689000  0.08946000  1.0 2.0075030137
Pr  Pr35  1  0.94689000  0.98740000  0.58946000  1.0 2.0075030137
Pr  Pr36  1  0.48740000  0.55311000  0.08946000  1.0 2.0075030137
Pr  Pr37  1  0.44689000  0.48740000  0.91054000  1.0 2.0075030137
Pr  Pr38  1  0.98740000  0.05311000  0.41054000  1.0 2.0075030137
Pr  Pr39  1  0.55311000  0.51260000  0.91054000  1.0 2.0075030137
Pr  Pr40  1  0.01260000  0.94689000  0.41054000  1.0 2.0075030137
Sb  Sb1  1  0.83465000  0.32482000  0.09213000  1.0 1.5079253871
Sb  Sb2  1  0.82482000  0.66535000  0.59213000  1.0 1.5079253871
Sb  Sb3  1  0.16535000  0.67518000  0.09213000  1.0 1.5079253871
Sb  Sb4  1  0.17518000  0.33465000  0.59213000  1.0 1.5079253871
Sb  Sb5  1  0.66535000  0.17518000  0.40787000  1.0 1.5079253871
Sb  Sb6  1  0.67518000  0.83465000  0.90787000  1.0 1.5079253871
Sb  Sb7  1  0.33465000  0.82482000  0.40787000  1.0 1.5079253871
Sb  Sb8  1  0.32482000  0.16535000  0.90787000  1.0 1.5079253871
Sb  Sb9  1  0.84804000  0.24445000  0.13296000  1.0 1.4603690877
Sb  Sb10  1  0.74445000  0.65196000  0.63296000  1.0 1.4603690877
Sb  Sb11  1  0.15196000  0.75555000  0.13296000  1.0 1.4603690877
Sb  Sb12  1  0.25555000  0.34804000  0.63296000  1.0 1.4603690877
Sb  Sb13  1  0.65196000  0.25555000  0.36704000  1.0 1.4603690877
Sb  Sb14  1  0.75555000  0.84804000  0.86704000  1.0 1.4681174052
Sb  Sb15  1  0.34804000  0.74445000  0.36704000  1.0 1.4603690877
Sb  Sb16  1  0.24445000  0.15196000  0.86704000  1.0 1.4603690877
Sb  Sb17  1  0.90139000  0.20123000  0.02570000  1.0 1.504371043
Sb  Sb18  1  0.70123000  0.59861000  0.52570000  1.0 1.5079253871
Sb  Sb19  1  0.09861000  0.79877000  0.02570000  1.0 1.504371043
Sb  Sb20  1  0.29877000  0.40139000  0.52570000  1.0 1.5079253871
Sb  Sb21  1  0.59861000  0.29877000  0.47430000  1.0 1.5079253871
Sb  Sb22  1  0.79877000  0.90139000  0.97430000  1.0 1.5079253871
Sb  Sb23  1  0.40139000  0.70123000  0.47430000  1.0 1.5079253871
Sb  Sb24  1  0.20123000  0.09861000  0.97430000  1.0 1.5079253871
Sb  Sb25  1  0.93869000  0.23688000  0.87909000  1.0 1.4804739249
Sb  Sb26  1  0.73688000  0.56131000  0.37909000  1.0 1.4885881781
Sb  Sb27  1  0.06131000  0.76312000  0.87909000  1.0 1.4885881781
Sb  Sb28  1  0.26312000  0.43869000  0.37909000  1.0 1.4885881781
Sb  Sb29  1  0.56131000  0.26312000  0.62091000  1.0 1.4885881781
Sb  Sb30  1  0.76312000  0.93869000  0.12091000  1.0 1.4885881781
Sb  Sb31  1  0.43869000  0.73688000  0.62091000  1.0 1.4885881781
Sb  Sb32  1  0.23688000  0.06131000  0.12091000  1.0 1.4885881781
Sb  Sb33  1  0.92528000  0.31658000  0.83978000  1.0 1.4681174052
Sb  Sb34  1  0.81658000  0.57472000  0.33978000  1.0 1.4681174052
Sb  Sb35  1  0.07472000  0.68342000  0.83978000  1.0 1.4681174052
Sb  Sb36  1  0.18342000  0.42528000  0.33978000  1.0 1.4681174052
Sb  Sb37  1  0.57472000  0.18342000  0.66022000  1.0 1.4681174052
Sb  Sb38  1  0.68342000  0.92528000  0.16022000  1.0 1.4681174052
Sb  Sb39  1  0.42528000  0.81658000  0.66022000  1.0 1.4681174052
Sb  Sb40  1  0.31658000  0.07472000  0.16022000  1.0 1.4681174052
Sb  Sb41  1  0.87326000  0.36153000  0.94612000  1.0 1.4885881781
Sb  Sb42  1  0.86153000  0.62674000  0.44612000  1.0 1.4885881781
Sb  Sb43  1  0.12674000  0.63847000  0.94612000  1.0 1.4885881781
Sb  Sb44  1  0.13847000  0.37326000  0.44612000  1.0 1.4885881781
Sb  Sb45  1  0.62674000  0.13847000  0.55388000  1.0 1.4885881781
Sb  Sb46  1  0.63847000  0.87326000  0.05388000  1.0 1.4885881781
Sb  Sb47  1  0.37326000  0.86153000  0.55388000  1.0 1.4885881781
Sb  Sb48  1  0.36153000  0.12674000  0.05388000  1.0 1.4885881781
Sb  Sb49  1  0.87746000  0.30395000  0.24505000  1.0 1.4087390621
Sb  Sb50  1  0.80395000  0.62254000  0.74505000  1.0 1.4087390621
Sb  Sb51  1  0.12254000  0.69605000  0.24505000  1.0 1.4044860799
Sb  Sb52  1  0.19605000  0.37746000  0.74505000  1.0 1.4087390621
Sb  Sb53  1  0.62254000  0.19605000  0.25495000  1.0 1.4087390621
Sb  Sb54  1  0.69605000  0.87746000  0.75495000  1.0 1.4087390621
Sb  Sb55  1  0.37746000  0.80395000  0.25495000  1.0 1.4087390621
Sb  Sb56  1  0.30395000  0.12254000  0.75495000  1.0 1.4087390621
Sb  Sb57  1  0.98307000  0.21580000  0.03221000  1.0 1.4044860799
Sb  Sb58  1  0.71580000  0.51693000  0.53221000  1.0 1.4044860799
Sb  Sb59  1  0.01693000  0.78420000  0.03221000  1.0 1.4087390621
Sb  Sb60  1  0.28420000  0.48307000  0.53221000  1.0 1.4044860799
Sb  Sb61  1  0.51693000  0.28420000  0.46779000  1.0 1.4087390621
Sb  Sb62  1  0.78420000  0.98307000  0.96779000  1.0 1.4087390621
Sb  Sb63  1  0.48307000  0.71580000  0.46779000  1.0 1.4044860799
Sb  Sb64  1  0.21580000  0.01693000  0.96779000  1.0 1.4153701026
Sb  Sb65  1  0.95479000  0.37516000  0.95290000  1.0 1.4367254932
Sb  Sb66  1  0.87516000  0.54521000  0.45290000  1.0 1.4318234146
Sb  Sb67  1  0.04521000  0.62484000  0.95290000  1.0 1.4367254932
Sb  Sb68  1  0.12484000  0.45479000  0.45290000  1.0 1.4318234146
Sb  Sb69  1  0.54521000  0.12484000  0.54710000  1.0 1.4367254932
Sb  Sb70  1  0.62484000  0.95479000  0.04710000  1.0 1.4318234146
Sb  Sb71  1  0.45479000  0.87516000  0.54710000  1.0 1.4318234146
Sb  Sb72  1  0.37516000  0.04521000  0.04710000  1.0 1.4318234146
Sb  Sb73  1  0.01213000  0.27603000  0.14429000  1.0 1.4318234146
Sb  Sb74  1  0.77603000  0.48787000  0.64429000  1.0 1.4318234146
Sb  Sb75  1  0.98787000  0.72397000  0.14429000  1.0 1.4318234146
Sb  Sb76  1  0.22397000  0.51213000  0.64429000  1.0 1.4318234146
Sb  Sb77  1  0.48787000  0.22397000  0.35571000  1.0 1.4318234146
Sb  Sb78  1  0.72397000  0.01213000  0.85571000  1.0 1.4318234146
Sb  Sb79  1  0.51213000  0.77603000  0.35571000  1.0 1.4318234146
Sb  Sb80  1  0.27603000  0.98787000  0.85571000  1.0 1.4318234146
Sb  Sb81  1  0.99832000  0.35610000  0.10748000  1.0 1.4804739249
Sb  Sb82  1  0.85610000  0.50168000  0.60748000  1.0 1.4804739249
Sb  Sb83  1  0.00168000  0.64390000  0.10748000  1.0 1.4804739249
Sb  Sb84  1  0.14390000  0.49832000  0.60748000  1.0 1.4804739249
Sb  Sb85  1  0.50168000  0.14390000  0.39252000  1.0 1.4804739249
Sb  Sb86  1  0.64390000  0.99832000  0.89252000  1.0 1.4804739249
Sb  Sb87  1  0.49832000  0.85610000  0.39252000  1.0 1.4804739249
Sb  Sb88  1  0.35610000  0.00168000  0.89252000  1.0 1.4804739249
Sb  Sb89  1  0.95941000  0.31884000  0.25331000  1.0 1.4512756665
Sb  Sb90  1  0.81884000  0.54059000  0.75331000  1.0 1.4512756665
Sb  Sb91  1  0.04059000  0.68116000  0.25331000  1.0 1.4512756665
Sb  Sb92  1  0.18116000  0.45941000  0.75331000  1.0 1.4512756665
Sb  Sb93  1  0.54059000  0.18116000  0.24669000  1.0 1.4512756665
Sb  Sb94  1  0.68116000  0.95941000  0.74669000  1.0 1.4512756665
Sb  Sb95  1  0.45941000  0.81884000  0.24669000  1.0 1.4512756665
Sb  Sb96  1  0.31884000  0.04059000  0.74669000  1.0 1.4512756665
Sb  Sb97  1  0.02006000  0.09198000  0.56504000  1.0 1.3186333933
Sb  Sb98  1  0.59198000  0.47994000  0.06504000  1.0 1.3186333933
Sb  Sb99  1  0.97994000  0.90802000  0.56504000  1.0 1.3186333933
Sb  Sb100  1  0.40802000  0.52006000  0.06504000  1.0 1.3278332908
Sb  Sb101  1  0.47994000  0.40802000  0.93496000  1.0 1.3186333933
Sb  Sb102  1  0.90802000  0.02006000  0.43496000  1.0 1.3186333933
Sb  Sb103  1  0.52006000  0.59198000  0.93496000  1.0 1.3186333933
Sb  Sb104  1  0.09198000  0.97994000  0.43496000  1.0 1.31378388
Sb  Sb105  1  0.93961000  0.07060000  0.56677000  1.0 1.3750275333
Sb  Sb106  1  0.57060000  0.56039000  0.06677000  1.0 1.369604047
Sb  Sb107  1  0.06039000  0.92940000  0.56677000  1.0 1.369604047
Sb  Sb108  1  0.42940000  0.43961000  0.06677000  1.0 1.369604047
Sb  Sb109  1  0.56039000  0.42940000  0.93323000  1.0 1.369604047
Sb  Sb110  1  0.92940000  0.93961000  0.43323000  1.0 1.369604047
Sb  Sb111  1  0.43961000  0.57060000  0.93323000  1.0 1.369604047
Sb  Sb112  1  0.07060000  0.06039000  0.43323000  1.0 1.3863671977
Sb  Sb113  1  0.99148000  0.04051000  0.69883000  1.0 1.4603690877
Sb  Sb114  1  0.54051000  0.50852000  0.19883000  1.0 1.4512756665
Sb  Sb115  1  0.00852000  0.95949000  0.69883000  1.0 1.4603690877
Sb  Sb116  1  0.45949000  0.49148000  0.19883000  1.0 1.4603690877
Sb  Sb117  1  0.50852000  0.45949000  0.80117000  1.0 1.4603690877
Sb  Sb118  1  0.95949000  0.99148000  0.30117000  1.0 1.4512756665
Sb  Sb119  1  0.49148000  0.54051000  0.80117000  1.0 1.4603690877
Sb  Sb120  1  0.04051000  0.00852000  0.30117000  1.0 1.4603690877
H  H1  1  0.99380000  0.21970000  0.32150000  1.0 0.1801701948
H  H2  1  0.71970000  0.50620000  0.82150000  1.0 0.1801701948
H  H3  1  0.00620000  0.78030000  0.32150000  1.0 0.1801701948
H  H4  1  0.28030000  0.49380000  0.82150000  1.0 0.1801701948
H  H5  1  0.50620000  0.28030000  0.17850000  1.0 0.1801701948
H  H6  1  0.78030000  0.99380000  0.67850000  1.0 0.1801701948
H  H7  1  0.49380000  0.71970000  0.17850000  1.0 0.1801701948
H  H8  1  0.21970000  0.00620000  0.67850000  1.0 0.1801701948
H  H9  1  0.00770000  0.18870000  0.41430000  1.0 0.1621641402
H  H10  1  0.68870000  0.49230000  0.91430000  1.0 0.1621641402
H  H11  1  0.99230000  0.81130000  0.41430000  1.0 0.1621641402
H  H12  1  0.31130000  0.50770000  0.91430000  1.0 0.1621641402
H  H13  1  0.49230000  0.31130000  0.08570000  1.0 0.1621641402
H  H14  1  0.81130000  0.00770000  0.58570000  1.0 0.1621641402
H  H15  1  0.50770000  0.68870000  0.08570000  1.0 0.1621641402
H  H16  1  0.18870000  0.99230000  0.58570000  1.0 0.1621641402
H  H17  1  0.84530000  0.14930000  0.28670000  1.0 0.1711642074
H  H18  1  0.64930000  0.65470000  0.78670000  1.0 0.1711642074
H  H19  1  0.15470000  0.85070000  0.28670000  1.0 0.1711642074
H  H20  1  0.35070000  0.34530000  0.78670000  1.0 0.1711642074
H  H21  1  0.65470000  0.35070000  0.21330000  1.0 0.1711642074
H  H22  1  0.85070000  0.84530000  0.71330000  1.0 0.1711642074
H  H23  1  0.34530000  0.64930000  0.21330000  1.0 0.1711642074
H  H24  1  0.14930000  0.15470000  0.71330000  1.0 0.1711642074
H  H25  1  0.86150000  0.11150000  0.37170000  1.0 0.1621641402
H  H26  1  0.61150000  0.63850000  0.87170000  1.0 0.1621641402
H  H27  1  0.13850000  0.88850000  0.37170000  1.0 0.1621641402
H  H28  1  0.38850000  0.36150000  0.87170000  1.0 0.1621641402
H  H29  1  0.63850000  0.38850000  0.12830000  1.0 0.1621641402
H  H30  1  0.88850000  0.86150000  0.62830000  1.0 0.1621641402
H  H31  1  0.36150000  0.61150000  0.12830000  1.0 0.1621641402
H  H32  1  0.11150000  0.13850000  0.62830000  1.0 0.1621641402
H  H33  1  0.08460000  0.35860000  0.73860000  1.0 0.1711642074
H  H34  1  0.85860000  0.41540000  0.23860000  1.0 0.1711642074
H  H35  1  0.91540000  0.64140000  0.73860000  1.0 0.1711642074
H  H36  1  0.14140000  0.58460000  0.23860000  1.0 0.1711642074
H  H37  1  0.41540000  0.14140000  0.76140000  1.0 0.1711642074
H  H38  1  0.64140000  0.08460000  0.26140000  1.0 0.1711642074
H  H39  1  0.58460000  0.85860000  0.76140000  1.0 0.1711642074
H  H40  1  0.35860000  0.91540000  0.26140000  1.0 0.1711642074
H  H41  1  0.04470000  0.33600000  0.81000000  1.0 0.1711642074
H  H42  1  0.83600000  0.45530000  0.31000000  1.0 0.1711642074
H  H43  1  0.95530000  0.66400000  0.81000000  1.0 0.1711642074
H  H44  1  0.16400000  0.54470000  0.31000000  1.0 0.1711642074
H  H45  1  0.45530000  0.16400000  0.69000000  1.0 0.1711642074
H  H46  1  0.66400000  0.04470000  0.19000000  1.0 0.1711642074
H  H47  1  0.54470000  0.83600000  0.69000000  1.0 0.1711642074
H  H48  1  0.33600000  0.95530000  0.19000000  1.0 0.1711642074
C  C1  1  0.99010000  0.19340000  0.19340000  1.0 0.6217854951
C  C2  1  0.69340000  0.50990000  0.69340000  1.0 0.6217854951
C  C3  1  0.00990000  0.80660000  0.19340000  1.0 0.6217854951
C  C4  1  0.30660000  0.49010000  0.69340000  1.0 0.6217854951
C  C5  1  0.50990000  0.30660000  0.30660000  1.0 0.6217854951
C  C6  1  0.80660000  0.99010000  0.80660000  1.0 0.6217854951
C  C7  1  0.49010000  0.69340000  0.30660000  1.0 0.6217854951
C  C8  1  0.19340000  0.00990000  0.80660000  1.0 0.6217854951
C  C9  1  0.99670000  0.18160000  0.25990000  1.0 -0.1299567129
C  C10  1  0.68160000  0.50330000  0.75990000  1.0 -0.1299567129
C  C11  1  0.00330000  0.81840000  0.25990000  1.0 -0.1299567129
C  C12  1  0.31840000  0.49670000  0.75990000  1.0 -0.1299567129
C  C13  1  0.50330000  0.31840000  0.24010000  1.0 -0.1299567129
C  C14  1  0.81840000  0.99670000  0.74010000  1.0 -0.1299567129
C  C15  1  0.49670000  0.68160000  0.24010000  1.0 -0.1299567129
C  C16  1  0.18160000  0.00330000  0.74010000  1.0 -0.1299567129
C  C17  1  0.99780000  0.19880000  0.31850000  1.0 -0.0592424481
C  C18  1  0.69880000  0.50220000  0.81850000  1.0 -0.0592424481
C  C19  1  0.00220000  0.80120000  0.31850000  1.0 -0.0592424481
C  C20  1  0.30120000  0.49780000  0.81850000  1.0 -0.0592424481
C  C21  1  0.50220000  0.30120000  0.18150000  1.0 -0.0592424481
C  C22  1  0.80120000  0.99780000  0.68150000  1.0 -0.0592424481
C  C23  1  0.49780000  0.69880000  0.18150000  1.0 -0.0592424481
C  C24  1  0.19880000  0.00220000  0.68150000  1.0 -0.0592424481
C  C25  1  0.00540000  0.18050000  0.37030000  1.0 -0.0494806668
C  C26  1  0.68050000  0.49460000  0.87030000  1.0 -0.0494806668
C  C27  1  0.99460000  0.81950000  0.37030000  1.0 -0.0494806668
C  C28  1  0.31950000  0.50540000  0.87030000  1.0 -0.0494806668
C  C29  1  0.49460000  0.31950000  0.12970000  1.0 -0.0494806668
C  C30  1  0.81950000  0.00540000  0.62970000  1.0 -0.0494806668
C  C31  1  0.50540000  0.68050000  0.12970000  1.0 -0.0494806668
C  C32  1  0.18050000  0.99460000  0.62970000  1.0 -0.0494806668
C  C33  1  0.01010000  0.14940000  0.36060000  1.0 -0.1244540851
C  C34  1  0.64940000  0.48990000  0.86060000  1.0 -0.1244540851
C  C35  1  0.98990000  0.85060000  0.36060000  1.0 -0.1299567129
C  C36  1  0.35060000  0.51010000  0.86060000  1.0 -0.1244540851
C  C37  1  0.48990000  0.35060000  0.13940000  1.0 -0.1244540851
C  C38  1  0.85060000  0.01010000  0.63940000  1.0 -0.1299567129
C  C39  1  0.51010000  0.64940000  0.13940000  1.0 -0.1244540851
C  C40  1  0.14940000  0.98990000  0.63940000  1.0 -0.1244540851
C  C41  1  0.01750000  0.12550000  0.40650000  1.0 0.6012529094
C  C42  1  0.62550000  0.48250000  0.90650000  1.0 0.6012529094
C  C43  1  0.98250000  0.87450000  0.40650000  1.0 0.6012529094
C  C44  1  0.37450000  0.51750000  0.90650000  1.0 0.6012529094
C  C45  1  0.48250000  0.37450000  0.09350000  1.0 0.6012529094
C  C46  1  0.87450000  0.01750000  0.59350000  1.0 0.6012529094
C  C47  1  0.51750000  0.62550000  0.09350000  1.0 0.6012529094
C  C48  1  0.12550000  0.98250000  0.59350000  1.0 0.6012529094
C  C49  1  0.89030000  0.18830000  0.22090000  1.0 0.6512520832
C  C50  1  0.68830000  0.60970000  0.72090000  1.0 0.6512520832
C  C51  1  0.10970000  0.81170000  0.22090000  1.0 0.6512520832
C  C52  1  0.31170000  0.39030000  0.72090000  1.0 0.6512520832
C  C53  1  0.60970000  0.31170000  0.27910000  1.0 0.6512520832
C  C54  1  0.81170000  0.89030000  0.77910000  1.0 0.6512520832
C  C55  1  0.39030000  0.68830000  0.27910000  1.0 0.6512520832
C  C56  1  0.18830000  0.10970000  0.77910000  1.0 0.6512520832
C  C57  1  0.89080000  0.16270000  0.27350000  1.0 -0.0274911289
C  C58  1  0.66270000  0.60920000  0.77350000  1.0 -0.0274911289
C  C59  1  0.10920000  0.83730000  0.27350000  1.0 -0.0274911289
C  C60  1  0.33730000  0.39080000  0.77350000  1.0 -0.0274911289
C  C61  1  0.60920000  0.33730000  0.22650000  1.0 -0.0274911289
C  C62  1  0.83730000  0.89080000  0.72650000  1.0 -0.0274911289
C  C63  1  0.39080000  0.66270000  0.22650000  1.0 -0.0274911289
C  C64  1  0.16270000  0.10920000  0.72650000  1.0 -0.0274911289
C  C65  1  0.86560000  0.14600000  0.29960000  1.0 -0.0834784197
C  C66  1  0.64600000  0.63440000  0.79960000  1.0 -0.0834784197
C  C67  1  0.13440000  0.85400000  0.29960000  1.0 -0.0834784197
C  C68  1  0.35400000  0.36560000  0.79960000  1.0 -0.0834784197
C  C69  1  0.63440000  0.35400000  0.20040000  1.0 -0.0834784197
C  C70  1  0.85400000  0.86560000  0.70040000  1.0 -0.0886168951
C  C71  1  0.36560000  0.64600000  0.20040000  1.0 -0.0834784197
C  C72  1  0.14600000  0.13440000  0.70040000  1.0 -0.0834784197
C  C73  1  0.87520000  0.12390000  0.34770000  1.0 -0.0434889574
C  C74  1  0.62390000  0.62480000  0.84770000  1.0 -0.0434889574
C  C75  1  0.12480000  0.87610000  0.34770000  1.0 -0.0434889574
C  C76  1  0.37610000  0.37520000  0.84770000  1.0 -0.0434889574
C  C77  1  0.62480000  0.37610000  0.15230000  1.0 -0.0434889574
C  C78  1  0.87610000  0.87520000  0.65230000  1.0 -0.0434889574
C  C79  1  0.37520000  0.62390000  0.15230000  1.0 -0.0434889574
C  C80  1  0.12390000  0.12480000  0.65230000  1.0 -0.0434889574
C  C81  1  0.90570000  0.12210000  0.35650000  1.0 -0.0886168951
C  C82  1  0.62210000  0.59430000  0.85650000  1.0 -0.0886168951
C  C83  1  0.09430000  0.87790000  0.35650000  1.0 -0.0886168951
C  C84  1  0.37790000  0.40570000  0.85650000  1.0 -0.0886168951
C  C85  1  0.59430000  0.37790000  0.14350000  1.0 -0.0886168951
C  C86  1  0.87790000  0.90570000  0.64350000  1.0 -0.0886168951
C  C87  1  0.40570000  0.62210000  0.14350000  1.0 -0.0886168951
C  C88  1  0.12210000  0.09430000  0.64350000  1.0 -0.0886168951
C  C89  1  0.92180000  0.09980000  0.39930000  1.0 0.6217854951
C  C90  1  0.59980000  0.57820000  0.89930000  1.0 0.6217854951
C  C91  1  0.07820000  0.90020000  0.39930000  1.0 0.6217854951
C  C92  1  0.40020000  0.42180000  0.89930000  1.0 0.6217854951
C  C93  1  0.57820000  0.40020000  0.10070000  1.0 0.6217854951
C  C94  1  0.90020000  0.92180000  0.60070000  1.0 0.6217854951
C  C95  1  0.42180000  0.59980000  0.10070000  1.0 0.6217854951
C  C96  1  0.09980000  0.07820000  0.60070000  1.0 0.6217854951
C  C97  1  0.12380000  0.40270000  0.78850000  1.0 0.6512520832
C  C98  1  0.90270000  0.37620000  0.28850000  1.0 0.6512520832
C  C99  1  0.87620000  0.59730000  0.78850000  1.0 0.6512520832
C  C100  1  0.09730000  0.62380000  0.28850000  1.0 0.6512520832
C  C101  1  0.37620000  0.09730000  0.71150000  1.0 0.6512520832
C  C102  1  0.59730000  0.12380000  0.21150000  1.0 0.6512520832
C  C103  1  0.62380000  0.90270000  0.71150000  1.0 0.6512520832
C  C104  1  0.40270000  0.87620000  0.21150000  1.0 0.6512520832
C  C105  1  0.09820000  0.38560000  0.81710000  1.0 -0.0992983248
C  C106  1  0.88560000  0.40180000  0.31710000  1.0 -0.0992983248
C  C107  1  0.90180000  0.61440000  0.81710000  1.0 -0.0992983248
C  C108  1  0.11440000  0.59820000  0.31710000  1.0 -0.0992983248
C  C109  1  0.40180000  0.11440000  0.68290000  1.0 -0.0992983248
C  C110  1  0.61440000  0.09820000  0.18290000  1.0 -0.0992983248
C  C111  1  0.59820000  0.88560000  0.68290000  1.0 -0.0992983248
C  C112  1  0.38560000  0.90180000  0.18290000  1.0 -0.0992983248
C  C113  1  0.08120000  0.36430000  0.78430000  1.0 -0.0592424481
C  C114  1  0.86430000  0.41880000  0.28430000  1.0 -0.0592424481
C  C115  1  0.91880000  0.63570000  0.78430000  1.0 -0.0592424481
C  C116  1  0.13570000  0.58120000  0.28430000  1.0 -0.0592424481
C  C117  1  0.41880000  0.13570000  0.71570000  1.0 -0.0592424481
C  C118  1  0.63570000  0.08120000  0.21570000  1.0 -0.0592424481
C  C119  1  0.58120000  0.86430000  0.71570000  1.0 -0.0592424481
C  C120  1  0.36430000  0.91880000  0.21570000  1.0 -0.0592424481
C  C121  1  0.05790000  0.35130000  0.82530000  1.0 -0.0592424481
C  C122  1  0.85130000  0.44210000  0.32530000  1.0 -0.0592424481
C  C123  1  0.94210000  0.64870000  0.82530000  1.0 -0.0592424481
C  C124  1  0.14870000  0.55790000  0.32530000  1.0 -0.0592424481
C  C125  1  0.44210000  0.14870000  0.67470000  1.0 -0.0592424481
C  C126  1  0.64870000  0.05790000  0.17470000  1.0 -0.0592424481
C  C127  1  0.55790000  0.85130000  0.67470000  1.0 -0.0592424481
C  C128  1  0.35130000  0.94210000  0.17470000  1.0 -0.0592424481
C  C129  1  0.05670000  0.36360000  0.88950000  1.0 -0.0742043484
C  C130  1  0.86360000  0.44330000  0.38950000  1.0 -0.0742043484
C  C131  1  0.94330000  0.63640000  0.88950000  1.0 -0.0742043484
C  C132  1  0.13640000  0.55670000  0.38950000  1.0 -0.0742043484
C  C133  1  0.44330000  0.13640000  0.61050000  1.0 -0.0742043484
C  C134  1  0.63640000  0.05670000  0.11050000  1.0 -0.0742043484
C  C135  1  0.55670000  0.86360000  0.61050000  1.0 -0.0742043484
C  C136  1  0.36360000  0.94330000  0.11050000  1.0 -0.0742043484
C  C137  1  0.03440000  0.35630000  0.94540000  1.0 0.6684644778
C  C138  1  0.85630000  0.46560000  0.44540000  1.0 0.6684644778
C  C139  1  0.96560000  0.64370000  0.94540000  1.0 0.6684644778
C  C140  1  0.14370000  0.53440000  0.44540000  1.0 0.6684644778
C  C141  1  0.46560000  0.14370000  0.55460000  1.0 0.6684644778
C  C142  1  0.64370000  0.03440000  0.05460000  1.0 0.6684644778
C  C143  1  0.53440000  0.85630000  0.55460000  1.0 0.6684644778
C  C144  1  0.35630000  0.96560000  0.05460000  1.0 0.6684644778
S  S1  1  0.08515000  0.39044000  0.90110000  1.0 0.1801701948
S  S2  1  0.89044000  0.41485000  0.40110000  1.0 0.1801701948
S  S3  1  0.91485000  0.60956000  0.90110000  1.0 0.1801701948
S  S4  1  0.10956000  0.58515000  0.40110000  1.0 0.1801701948
S  S5  1  0.41485000  0.10956000  0.59890000  1.0 0.1801701948
S  S6  1  0.60956000  0.08515000  0.09890000  1.0 0.1801701948
S  S7  1  0.58515000  0.89044000  0.59890000  1.0 0.1801701948
S  S8  1  0.39044000  0.91485000  0.09890000  1.0 0.1801701948
S  S9  1  0.92418000  0.14918000  0.30850000  1.0 0.1864037827
S  S10  1  0.64918000  0.57582000  0.80850000  1.0 0.1864037827
S  S11  1  0.07582000  0.85082000  0.30850000  1.0 0.1864037827
S  S12  1  0.35082000  0.42418000  0.80850000  1.0 0.1864037827
S  S13  1  0.57582000  0.35082000  0.19150000  1.0 0.1864037827
S  S14  1  0.85082000  0.92418000  0.69150000  1.0 0.1864037827
S  S15  1  0.42418000  0.64918000  0.19150000  1.0 0.1864037827
S  S16  1  0.14918000  0.07582000  0.69150000  1.0 0.1864037827
S  S17  1  0.00530000  0.14423000  0.27490000  1.0 0.2705596879
S  S18  1  0.64423000  0.49470000  0.77490000  1.0 0.2705596879
S  S19  1  0.99470000  0.85577000  0.27490000  1.0 0.2771948833
S  S20  1  0.35577000  0.50530000  0.77490000  1.0 0.2705596879
S  S21  1  0.49470000  0.35577000  0.22510000  1.0 0.2705596879
S  S22  1  0.85577000  0.00530000  0.72510000  1.0 0.2705596879
S  S23  1  0.50530000  0.64423000  0.22510000  1.0 0.2705596879
S  S24  1  0.14423000  0.99470000  0.72510000  1.0 0.2705596879
Cl  Cl1  1  0.92510000  0.29430000  0.05410000  1.0 -0.6316136088
Cl  Cl2  1  0.79430000  0.57490000  0.55410000  1.0 -0.6316136088
Cl  Cl3  1  0.07490000  0.70570000  0.05410000  1.0 -0.6316136088
Cl  Cl4  1  0.20570000  0.42510000  0.55410000  1.0 -0.6316136088
Cl  Cl5  1  0.57490000  0.20570000  0.44590000  1.0 -0.6316136088
Cl  Cl6  1  0.70570000  0.92510000  0.94590000  1.0 -0.6316136088
Cl  Cl7  1  0.42510000  0.79430000  0.44590000  1.0 -0.6316136088
Cl  Cl8  1  0.29430000  0.07490000  0.94590000  1.0 -0.6316136088
Cl  Cl9  1  0.87267000  0.26090000  0.81800000  1.0 -0.6593460571
Cl  Cl10  1  0.76090000  0.62733000  0.31800000  1.0 -0.6593460571
Cl  Cl11  1  0.12733000  0.73910000  0.81800000  1.0 -0.6593460571
Cl  Cl12  1  0.23910000  0.37267000  0.31800000  1.0 -0.6593460571
Cl  Cl13  1  0.62733000  0.23910000  0.68200000  1.0 -0.6593460571
Cl  Cl14  1  0.73910000  0.87267000  0.18200000  1.0 -0.6593460571
Cl  Cl15  1  0.37267000  0.76090000  0.68200000  1.0 -0.6593460571
Cl  Cl16  1  0.26090000  0.12733000  0.18200000  1.0 -0.6593460571
Cl  Cl17  1  0.81792000  0.30825000  0.92940000  1.0 -0.6593460571
Cl  Cl18  1  0.80825000  0.68208000  0.42940000  1.0 -0.6593460571
Cl  Cl19  1  0.18208000  0.69175000  0.92940000  1.0 -0.6593460571
Cl  Cl20  1  0.19175000  0.31792000  0.42940000  1.0 -0.6502666961
Cl  Cl21  1  0.68208000  0.19175000  0.57060000  1.0 -0.6593460571
Cl  Cl22  1  0.69175000  0.81792000  0.07060000  1.0 -0.6593460571
Cl  Cl23  1  0.31792000  0.80825000  0.57060000  1.0 -0.6692130116
Cl  Cl24  1  0.30825000  0.18208000  0.07060000  1.0 -0.6593460571
Cl  Cl25  1  0.83485000  0.22202000  0.97820000  1.0 -0.6692130116
Cl  Cl26  1  0.72202000  0.66515000  0.47820000  1.0 -0.6692130116
Cl  Cl27  1  0.16515000  0.77798000  0.97820000  1.0 -0.6692130116
Cl  Cl28  1  0.27798000  0.33485000  0.47820000  1.0 -0.6692130116
Cl  Cl29  1  0.66515000  0.27798000  0.52180000  1.0 -0.6692130116
Cl  Cl30  1  0.77798000  0.83485000  0.02180000  1.0 -0.6692130116
Cl  Cl31  1  0.33485000  0.72202000  0.52180000  1.0 -0.6692130116
Cl  Cl32  1  0.22202000  0.16515000  0.02180000  1.0 -0.6692130116
Cl  Cl33  1  0.98783000  0.27985000  0.81920000  1.0 -0.6593460571
Cl  Cl34  1  0.77985000  0.51217000  0.31920000  1.0 -0.6593460571
Cl  Cl35  1  0.01217000  0.72015000  0.81920000  1.0 -0.6593460571
Cl  Cl36  1  0.22015000  0.48783000  0.31920000  1.0 -0.6593460571
Cl  Cl37  1  0.51217000  0.22015000  0.68080000  1.0 -0.6593460571
Cl  Cl38  1  0.72015000  0.98783000  0.18080000  1.0 -0.6593460571
Cl  Cl39  1  0.48783000  0.77985000  0.68080000  1.0 -0.6593460571
Cl  Cl40  1  0.27985000  0.01217000  0.18080000  1.0 -0.6593460571
Cl  Cl41  1  0.04128000  0.26233000  0.98870000  1.0 -0.6404546795
Cl  Cl42  1  0.76233000  0.45872000  0.48870000  1.0 -0.6404546795
Cl  Cl43  1  0.95872000  0.73767000  0.98870000  1.0 -0.6404546795
Cl  Cl44  1  0.23767000  0.54128000  0.48870000  1.0 -0.6502666961
Cl  Cl45  1  0.45872000  0.23767000  0.51130000  1.0 -0.6502666961
Cl  Cl46  1  0.73767000  0.04128000  0.01130000  1.0 -0.6404546795
Cl  Cl47  1  0.54128000  0.76233000  0.51130000  1.0 -0.6502666961
Cl  Cl48  1  0.26233000  0.95872000  0.01130000  1.0 -0.6404546795
Cl  Cl49  1  0.94996000  0.41070000  0.10100000  1.0 -0.6404546795
Cl  Cl50  1  0.91070000  0.55004000  0.60100000  1.0 -0.6404546795
Cl  Cl51  1  0.05004000  0.58930000  0.10100000  1.0 -0.6404546795
Cl  Cl52  1  0.08930000  0.44996000  0.60100000  1.0 -0.6404546795
Cl  Cl53  1  0.55004000  0.08930000  0.39900000  1.0 -0.6404546795
Cl  Cl54  1  0.58930000  0.94996000  0.89900000  1.0 -0.6404546795
Cl  Cl55  1  0.44996000  0.91070000  0.39900000  1.0 -0.6404546795
Cl  Cl56  1  0.41070000  0.05004000  0.89900000  1.0 -0.6404546795
Cl  Cl57  1  0.85987000  0.39554000  0.08630000  1.0 -0.6593460571
Cl  Cl58  1  0.89554000  0.64013000  0.58630000  1.0 -0.6593460571
Cl  Cl59  1  0.14013000  0.60446000  0.08630000  1.0 -0.6593460571
Cl  Cl60  1  0.10446000  0.35987000  0.58630000  1.0 -0.6593460571
Cl  Cl61  1  0.64013000  0.10446000  0.41370000  1.0 -0.6593460571
Cl  Cl62  1  0.60446000  0.85987000  0.91370000  1.0 -0.6593460571
Cl  Cl63  1  0.35987000  0.89554000  0.41370000  1.0 -0.6593460571
Cl  Cl64  1  0.39554000  0.14013000  0.91370000  1.0 -0.6593460571
Cl  Cl65  1  0.92907000  0.26087000  0.31950000  1.0 -0.6593460571
Cl  Cl66  1  0.76087000  0.57093000  0.81950000  1.0 -0.6593460571
Cl  Cl67  1  0.07093000  0.73913000  0.31950000  1.0 -0.6593460571
Cl  Cl68  1  0.23913000  0.42907000  0.81950000  1.0 -0.6593460571
Cl  Cl69  1  0.57093000  0.23913000  0.18050000  1.0 -0.6593460571
Cl  Cl70  1  0.73913000  0.92907000  0.68050000  1.0 -0.6593460571
Cl  Cl71  1  0.42907000  0.76087000  0.18050000  1.0 -0.6593460571
Cl  Cl72  1  0.26087000  0.07093000  0.68050000  1.0 -0.6593460571
Cl  Cl73  1  0.05314000  0.01486000  0.74700000  1.0 -0.6404546795
Cl  Cl74  1  0.51486000  0.44686000  0.24700000  1.0 -0.6404546795
Cl  Cl75  1  0.94686000  0.98514000  0.74700000  1.0 -0.6404546795
Cl  Cl76  1  0.48514000  0.55314000  0.24700000  1.0 -0.6404546795
Cl  Cl77  1  0.44686000  0.48514000  0.75300000  1.0 -0.6404546795
Cl  Cl78  1  0.98514000  0.05314000  0.25300000  1.0 -0.6404546795
Cl  Cl79  1  0.55314000  0.51486000  0.75300000  1.0 -0.6404546795
Cl  Cl80  1  0.01486000  0.94686000  0.25300000  1.0 -0.6404546795
Cl  Cl81  1  0.00000000  0.00000000  0.50000000  1.0 -0.6593460571
Cl  Cl82  1  0.50000000  0.50000000  0.00000000  1.0 -0.6593460571
Cl  Cl83  1  0.91481000  0.38628000  0.83180000  1.0 -0.6954857002
Cl  Cl84  1  0.88628000  0.58519000  0.33180000  1.0 -0.6954857002
Cl  Cl85  1  0.08519000  0.61372000  0.83180000  1.0 -0.6954857002
Cl  Cl86  1  0.11372000  0.41481000  0.33180000  1.0 -0.6954857002
Cl  Cl87  1  0.58519000  0.11372000  0.66820000  1.0 -0.6954857002
Cl  Cl88  1  0.61372000  0.91481000  0.16820000  1.0 -0.6954857002
Cl  Cl89  1  0.41481000  0.88628000  0.66820000  1.0 -0.6954857002
Cl  Cl90  1  0.38628000  0.08519000  0.16820000  1.0 -0.6954857002
Cl  Cl91  1  0.03144000  0.32662000  0.23980000  1.0 -0.6692130116
Cl  Cl92  1  0.82662000  0.46856000  0.73980000  1.0 -0.6692130116
Cl  Cl93  1  0.96856000  0.67338000  0.23980000  1.0 -0.6692130116
Cl  Cl94  1  0.17338000  0.53144000  0.73980000  1.0 -0.6692130116
Cl  Cl95  1  0.46856000  0.17338000  0.26020000  1.0 -0.6692130116
Cl  Cl96  1  0.67338000  0.03144000  0.76020000  1.0 -0.6692130116
Cl  Cl97  1  0.53144000  0.82662000  0.26020000  1.0 -0.6692130116
Cl  Cl98  1  0.32662000  0.96856000  0.76020000  1.0 -0.6692130116
Cl  Cl99  1  0.80956000  0.29153000  0.22120000  1.0 -0.6897474195
Cl  Cl100  1  0.79153000  0.69044000  0.72120000  1.0 -0.6897474195
Cl  Cl101  1  0.19044000  0.70847000  0.22120000  1.0 -0.6897474195
Cl  Cl102  1  0.20847000  0.30956000  0.72120000  1.0 -0.6897474195
Cl  Cl103  1  0.69044000  0.20847000  0.27880000  1.0 -0.6897474195
Cl  Cl104  1  0.70847000  0.80956000  0.77880000  1.0 -0.6897474195
Cl  Cl105  1  0.30956000  0.79153000  0.27880000  1.0 -0.6897474195
Cl  Cl106  1  0.29153000  0.19044000  0.77880000  1.0 -0.6897474195
Cl  Cl107  1  0.94962000  0.16964000  0.93640000  1.0 -0.681042571
Cl  Cl108  1  0.66964000  0.55038000  0.43640000  1.0 -0.681042571
Cl  Cl109  1  0.05038000  0.83036000  0.93640000  1.0 -0.681042571
Cl  Cl110  1  0.33036000  0.44962000  0.43640000  1.0 -0.681042571
Cl  Cl111  1  0.55038000  0.33036000  0.56360000  1.0 -0.681042571
Cl  Cl112  1  0.83036000  0.94962000  0.06360000  1.0 -0.681042571
Cl  Cl113  1  0.44962000  0.66964000  0.56360000  1.0 -0.681042571
Cl  Cl114  1  0.16964000  0.05038000  0.06360000  1.0 -0.681042571
Cl  Cl115  1  0.10939000  0.02769000  0.32050000  1.0 -0.6502666961
Cl  Cl116  1  0.47231000  0.60939000  0.82050000  1.0 -0.6502666961
Cl  Cl117  1  0.89061000  0.97231000  0.32050000  1.0 -0.6502666961
Cl  Cl118  1  0.52769000  0.39061000  0.82050000  1.0 -0.6502666961
Cl  Cl119  1  0.39061000  0.47231000  0.17950000  1.0 -0.6502666961
Cl  Cl120  1  0.02769000  0.89061000  0.67950000  1.0 -0.6502666961
Cl  Cl121  1  0.60939000  0.52769000  0.17950000  1.0 -0.6502666961
Cl  Cl122  1  0.97231000  0.10939000  0.67950000  1.0 -0.6502666961
O  O1  1  0.88700000  0.23660000  0.08130000  1.0 -0.8790701132
O  O2  1  0.73660000  0.61300000  0.58130000  1.0 -0.8790701132
O  O3  1  0.11300000  0.76340000  0.08130000  1.0 -0.8790701132
O  O4  1  0.26340000  0.38700000  0.58130000  1.0 -0.8790701132
O  O5  1  0.61300000  0.26340000  0.41870000  1.0 -0.8790701132
O  O6  1  0.76340000  0.88700000  0.91870000  1.0 -0.8790701132
O  O7  1  0.38700000  0.73660000  0.41870000  1.0 -0.8790701132
O  O8  1  0.23660000  0.11300000  0.91870000  1.0 -0.8790701132
O  O9  1  0.90560000  0.22970000  0.94810000  1.0 -0.8627688143
O  O10  1  0.72970000  0.59440000  0.44810000  1.0 -0.8627688143
O  O11  1  0.09440000  0.77030000  0.94810000  1.0 -0.8627688143
O  O12  1  0.27030000  0.40560000  0.44810000  1.0 -0.8627688143
O  O13  1  0.59440000  0.27030000  0.55190000  1.0 -0.8627688143
O  O14  1  0.77030000  0.90560000  0.05190000  1.0 -0.8627688143
O  O15  1  0.40560000  0.72970000  0.55190000  1.0 -0.8627688143
O  O16  1  0.22970000  0.09440000  0.05190000  1.0 -0.8627688143
O  O17  1  0.92920000  0.28030000  0.90190000  1.0 -0.8976864193
O  O18  1  0.78030000  0.57080000  0.40190000  1.0 -0.8976864193
O  O19  1  0.07080000  0.71970000  0.90190000  1.0 -0.8976864193
O  O20  1  0.21970000  0.42920000  0.40190000  1.0 -0.8908597808
O  O21  1  0.57080000  0.21970000  0.59810000  1.0 -0.8976864193
O  O22  1  0.71970000  0.92920000  0.09810000  1.0 -0.8976864193
O  O23  1  0.42920000  0.78030000  0.59810000  1.0 -0.8976864193
O  O24  1  0.28030000  0.07080000  0.09810000  1.0 -0.8976864193
O  O25  1  0.88810000  0.32390000  0.89830000  1.0 -0.8908597808
O  O26  1  0.82390000  0.61190000  0.39830000  1.0 -0.8908597808
O  O27  1  0.11190000  0.67610000  0.89830000  1.0 -0.8908597808
O  O28  1  0.17610000  0.38810000  0.39830000  1.0 -0.8908597808
O  O29  1  0.61190000  0.17610000  0.60170000  1.0 -0.8908597808
O  O30  1  0.67610000  0.88810000  0.10170000  1.0 -0.8908597808
O  O31  1  0.38810000  0.82390000  0.60170000  1.0 -0.8908597808
O  O32  1  0.32390000  0.11190000  0.10170000  1.0 -0.8908597808
O  O33  1  0.86850000  0.33220000  0.02460000  1.0 -0.8976864193
O  O34  1  0.83220000  0.63150000  0.52460000  1.0 -0.8976864193
O  O35  1  0.13150000  0.66780000  0.02460000  1.0 -0.8976864193
O  O36  1  0.16780000  0.36850000  0.52460000  1.0 -0.8908597808
O  O37  1  0.63150000  0.16780000  0.47540000  1.0 -0.8976864193
O  O38  1  0.66780000  0.86850000  0.97540000  1.0 -0.8976864193
O  O39  1  0.36850000  0.83220000  0.47540000  1.0 -0.8976864193
O  O40  1  0.33220000  0.13150000  0.97540000  1.0 -0.8976864193
O  O41  1  0.84490000  0.28160000  0.07120000  1.0 -0.8709311159
O  O42  1  0.78160000  0.65510000  0.57120000  1.0 -0.8709311159
O  O43  1  0.15510000  0.71840000  0.07120000  1.0 -0.8709311159
O  O44  1  0.21840000  0.34490000  0.57120000  1.0 -0.8709311159
O  O45  1  0.65510000  0.21840000  0.42880000  1.0 -0.8709311159
O  O46  1  0.71840000  0.84490000  0.92880000  1.0 -0.8709311159
O  O47  1  0.34490000  0.78160000  0.42880000  1.0 -0.8709311159
O  O48  1  0.28160000  0.15510000  0.92880000  1.0 -0.8709311159
O  O49  1  0.87820000  0.26440000  0.19740000  1.0 -0.8392344754
O  O50  1  0.76440000  0.62180000  0.69740000  1.0 -0.8392344754
O  O51  1  0.12180000  0.73560000  0.19740000  1.0 -0.8392344754
O  O52  1  0.23560000  0.37820000  0.69740000  1.0 -0.8392344754
O  O53  1  0.62180000  0.23560000  0.30260000  1.0 -0.8392344754
O  O54  1  0.73560000  0.87820000  0.80260000  1.0 -0.8392344754
O  O55  1  0.37820000  0.76440000  0.30260000  1.0 -0.8392344754
O  O56  1  0.26440000  0.12180000  0.80260000  1.0 -0.8392344754
O  O57  1  0.94070000  0.21310000  0.06780000  1.0 -0.8392344754
O  O58  1  0.71310000  0.55930000  0.56780000  1.0 -0.8392344754
O  O59  1  0.05930000  0.78690000  0.06780000  1.0 -0.8392344754
O  O60  1  0.28690000  0.44070000  0.56780000  1.0 -0.8392344754
O  O61  1  0.55930000  0.28690000  0.43220000  1.0 -0.8392344754
O  O62  1  0.78690000  0.94070000  0.93220000  1.0 -0.8392344754
O  O63  1  0.44070000  0.71310000  0.43220000  1.0 -0.8392344754
O  O64  1  0.21310000  0.05930000  0.93220000  1.0 -0.8392344754
O  O65  1  0.97060000  0.24090000  0.94950000  1.0 -0.8709311159
O  O66  1  0.74090000  0.52940000  0.44950000  1.0 -0.8709311159
O  O67  1  0.02940000  0.75910000  0.94950000  1.0 -0.8709311159
O  O68  1  0.25910000  0.47060000  0.44950000  1.0 -0.8709311159
O  O69  1  0.52940000  0.25910000  0.55050000  1.0 -0.8709311159
O  O70  1  0.75910000  0.97060000  0.05050000  1.0 -0.8709311159
O  O71  1  0.47060000  0.74090000  0.55050000  1.0 -0.8709311159
O  O72  1  0.24090000  0.02940000  0.05050000  1.0 -0.8709311159
O  O73  1  0.95470000  0.33500000  0.90490000  1.0 -0.8499022111
O  O74  1  0.83500000  0.54530000  0.40490000  1.0 -0.8499022111
O  O75  1  0.04530000  0.66500000  0.90490000  1.0 -0.8499022111
O  O76  1  0.16500000  0.45470000  0.40490000  1.0 -0.8499022111
O  O77  1  0.54530000  0.16500000  0.59510000  1.0 -0.8499022111
O  O78  1  0.66500000  0.95470000  0.09510000  1.0 -0.8499022111
O  O79  1  0.45470000  0.83500000  0.59510000  1.0 -0.8499022111
O  O80  1  0.33500000  0.04530000  0.09510000  1.0 -0.8499022111
O  O81  1  0.91300000  0.37080000  0.99160000  1.0 -0.8790701132
O  O82  1  0.87080000  0.58700000  0.49160000  1.0 -0.8790701132
O  O83  1  0.08700000  0.62920000  0.99160000  1.0 -0.8790701132
O  O84  1  0.12920000  0.41300000  0.49160000  1.0 -0.8790701132
O  O85  1  0.58700000  0.12920000  0.50840000  1.0 -0.8790701132
O  O86  1  0.62920000  0.91300000  0.00840000  1.0 -0.8790701132
O  O87  1  0.41300000  0.87080000  0.50840000  1.0 -0.8790701132
O  O88  1  0.37080000  0.08700000  0.00840000  1.0 -0.8790701132
O  O89  1  0.86700000  0.32880000  0.16260000  1.0 -0.8499022111
O  O90  1  0.82880000  0.63300000  0.66260000  1.0 -0.8499022111
O  O91  1  0.13300000  0.67120000  0.16260000  1.0 -0.8499022111
O  O92  1  0.17120000  0.36700000  0.66260000  1.0 -0.8499022111
O  O93  1  0.63300000  0.17120000  0.33740000  1.0 -0.8499022111
O  O94  1  0.67120000  0.86700000  0.83740000  1.0 -0.8499022111
O  O95  1  0.36700000  0.82880000  0.33740000  1.0 -0.8499022111
O  O96  1  0.32880000  0.13300000  0.83740000  1.0 -0.8499022111
O  O97  1  0.91990000  0.30920000  0.20690000  1.0 -0.8709311159
O  O98  1  0.80920000  0.58010000  0.70690000  1.0 -0.8709311159
O  O99  1  0.08010000  0.69080000  0.20690000  1.0 -0.8709311159
O  O100  1  0.19080000  0.41990000  0.70690000  1.0 -0.8709311159
O  O101  1  0.58010000  0.19080000  0.29310000  1.0 -0.8709311159
O  O102  1  0.69080000  0.91990000  0.79310000  1.0 -0.8709311159
O  O103  1  0.41990000  0.80920000  0.29310000  1.0 -0.8709311159
O  O104  1  0.30920000  0.08010000  0.79310000  1.0 -0.8709311159
O  O105  1  0.98220000  0.25710000  0.07730000  1.0 -0.8709311159
O  O106  1  0.75710000  0.51780000  0.57730000  1.0 -0.8790701132
O  O107  1  0.01780000  0.74290000  0.07730000  1.0 -0.8790701132
O  O108  1  0.24290000  0.48220000  0.57730000  1.0 -0.8790701132
O  O109  1  0.51780000  0.24290000  0.42270000  1.0 -0.8790701132
O  O110  1  0.74290000  0.98220000  0.92270000  1.0 -0.8790701132
O  O111  1  0.48220000  0.75710000  0.42270000  1.0 -0.8790701132
O  O112  1  0.25710000  0.01780000  0.92270000  1.0 -0.8709311159
O  O113  1  0.96760000  0.34980000  0.03360000  1.0 -0.8790701132
O  O114  1  0.84980000  0.53240000  0.53360000  1.0 -0.8790701132
O  O115  1  0.03240000  0.65020000  0.03360000  1.0 -0.8790701132
O  O116  1  0.15020000  0.46760000  0.53360000  1.0 -0.8790701132
O  O117  1  0.53240000  0.15020000  0.46640000  1.0 -0.8790701132
O  O118  1  0.65020000  0.96760000  0.96640000  1.0 -0.8790701132
O  O119  1  0.46760000  0.84980000  0.46640000  1.0 -0.8790701132
O  O120  1  0.34980000  0.03240000  0.96640000  1.0 -0.8790701132
O  O121  1  0.96390000  0.34650000  0.17170000  1.0 -0.8627688143
O  O122  1  0.84650000  0.53610000  0.67170000  1.0 -0.8627688143
O  O123  1  0.03610000  0.65350000  0.17170000  1.0 -0.8627688143
O  O124  1  0.15350000  0.46390000  0.67170000  1.0 -0.8627688143
O  O125  1  0.53610000  0.15350000  0.32830000  1.0 -0.8627688143
O  O126  1  0.65350000  0.96390000  0.82830000  1.0 -0.8627688143
O  O127  1  0.46390000  0.84650000  0.32830000  1.0 -0.8627688143
O  O128  1  0.34650000  0.03610000  0.82830000  1.0 -0.8627688143
O  O129  1  0.97470000  0.28300000  0.19960000  1.0 -0.8499022111
O  O130  1  0.78300000  0.52530000  0.69960000  1.0 -0.8499022111
O  O131  1  0.02530000  0.71700000  0.19960000  1.0 -0.8499022111
O  O132  1  0.21700000  0.47470000  0.69960000  1.0 -0.8499022111
O  O133  1  0.52530000  0.21700000  0.30040000  1.0 -0.8499022111
O  O134  1  0.71700000  0.97470000  0.80040000  1.0 -0.8499022111
O  O135  1  0.47470000  0.78300000  0.30040000  1.0 -0.8499022111
O  O136  1  0.28300000  0.02530000  0.80040000  1.0 -0.8499022111
O  O137  1  0.00800000  0.31290000  0.08560000  1.0 -0.8392344754
O  O138  1  0.81290000  0.49200000  0.58560000  1.0 -0.8295687707
O  O139  1  0.99200000  0.68710000  0.08560000  1.0 -0.8295687707
O  O140  1  0.18710000  0.50800000  0.58560000  1.0 -0.8295687707
O  O141  1  0.49200000  0.18710000  0.41440000  1.0 -0.8295687707
O  O142  1  0.68710000  0.00800000  0.91440000  1.0 -0.8295687707
O  O143  1  0.50800000  0.81290000  0.41440000  1.0 -0.8295687707
O  O144  1  0.31290000  0.99200000  0.91440000  1.0 -0.8295687707
O  O145  1  0.03590000  0.06100000  0.49970000  1.0 -0.823218612
O  O146  1  0.56100000  0.46410000  0.99970000  1.0 -0.823218612
O  O147  1  0.96410000  0.93900000  0.49970000  1.0 -0.823218612
O  O148  1  0.43900000  0.53590000  0.99970000  1.0 -0.823218612
O  O149  1  0.46410000  0.43900000  0.00030000  1.0 -0.823218612
O  O150  1  0.93900000  0.03590000  0.50030000  1.0 -0.823218612
O  O151  1  0.53590000  0.56100000  0.00030000  1.0 -0.823218612
O  O152  1  0.06100000  0.96410000  0.50030000  1.0 -0.823218612
O  O153  1  0.02160000  0.05600000  0.63130000  1.0 -0.8392344754
O  O154  1  0.55600000  0.47840000  0.13130000  1.0 -0.8392344754
O  O155  1  0.97840000  0.94400000  0.63130000  1.0 -0.8392344754
O  O156  1  0.44400000  0.52160000  0.13130000  1.0 -0.8392344754
O  O157  1  0.47840000  0.44400000  0.86870000  1.0 -0.8392344754
O  O158  1  0.94400000  0.02160000  0.36870000  1.0 -0.8392344754
O  O159  1  0.52160000  0.55600000  0.86870000  1.0 -0.8392344754
O  O160  1  0.05600000  0.97840000  0.36870000  1.0 -0.8392344754
O  O161  1  0.00000000  0.00000000  0.65350000  1.0 -0.8976864193
O  O162  1  0.50000000  0.50000000  0.15350000  1.0 -0.8976864193
O  O163  1  0.50000000  0.50000000  0.84650000  1.0 -0.8976864193
O  O164  1  0.00000000  0.00000000  0.34650000  1.0 -0.8976864193
O  O165  1  0.95680000  0.03990000  0.63170000  1.0 -0.8499022111
O  O166  1  0.53990000  0.54320000  0.13170000  1.0 -0.8499022111
O  O167  1  0.04320000  0.96010000  0.63170000  1.0 -0.8499022111
O  O168  1  0.46010000  0.45680000  0.13170000  1.0 -0.8499022111
O  O169  1  0.54320000  0.46010000  0.86830000  1.0 -0.8499022111
O  O170  1  0.96010000  0.95680000  0.36830000  1.0 -0.8499022111
O  O171  1  0.45680000  0.53990000  0.86830000  1.0 -0.8499022111
O  O172  1  0.03990000  0.04320000  0.36830000  1.0 -0.8499022111
O  O173  1  0.97920000  0.08050000  0.52330000  1.0 -0.8295687707
O  O174  1  0.58050000  0.52080000  0.02330000  1.0 -0.823218612
O  O175  1  0.02080000  0.91950000  0.52330000  1.0 -0.8295687707
O  O176  1  0.41950000  0.47920000  0.02330000  1.0 -0.8295687707
O  O177  1  0.52080000  0.41950000  0.97670000  1.0 -0.8295687707
O  O178  1  0.91950000  0.97920000  0.47670000  1.0 -0.823218612
O  O179  1  0.47920000  0.58050000  0.97670000  1.0 -0.8295687707
O  O180  1  0.08050000  0.02080000  0.47670000  1.0 -0.8295687707
O  O181  1  0.98180000  0.21970000  0.18950000  1.0 -0.5600001071
O  O182  1  0.71970000  0.51820000  0.68950000  1.0 -0.5600001071
O  O183  1  0.01820000  0.78030000  0.18950000  1.0 -0.5600001071
O  O184  1  0.28030000  0.48180000  0.68950000  1.0 -0.5600001071
O  O185  1  0.51820000  0.28030000  0.31050000  1.0 -0.5600001071
O  O186  1  0.78030000  0.98180000  0.81050000  1.0 -0.5600001071
O  O187  1  0.48180000  0.71970000  0.31050000  1.0 -0.5600001071
O  O188  1  0.21970000  0.01820000  0.81050000  1.0 -0.5600001071
O  O189  1  0.99320000  0.17560000  0.14220000  1.0 -0.4990213157
O  O190  1  0.67560000  0.50680000  0.64220000  1.0 -0.4990213157
O  O191  1  0.00680000  0.82440000  0.14220000  1.0 -0.4948343079
O  O192  1  0.32440000  0.49320000  0.64220000  1.0 -0.4990213157
O  O193  1  0.50680000  0.32440000  0.35780000  1.0 -0.4990213157
O  O194  1  0.82440000  0.99320000  0.85780000  1.0 -0.4990213157
O  O195  1  0.49320000  0.67560000  0.35780000  1.0 -0.4990213157
O  O196  1  0.17560000  0.00680000  0.85780000  1.0 -0.4990213157
O  O197  1  0.02330000  0.13100000  0.46850000  1.0 -0.4990213157
O  O198  1  0.63100000  0.47670000  0.96850000  1.0 -0.4990213157
O  O199  1  0.97670000  0.86900000  0.46850000  1.0 -0.4990213157
O  O200  1  0.36900000  0.52330000  0.96850000  1.0 -0.4990213157
O  O201  1  0.47670000  0.36900000  0.03150000  1.0 -0.4990213157
O  O202  1  0.86900000  0.02330000  0.53150000  1.0 -0.4990213157
O  O203  1  0.52330000  0.63100000  0.03150000  1.0 -0.4990213157
O  O204  1  0.13100000  0.97670000  0.53150000  1.0 -0.4990213157
O  O205  1  0.01680000  0.09950000  0.38670000  1.0 -0.5234611672
O  O206  1  0.59950000  0.48320000  0.88670000  1.0 -0.5234611672
O  O207  1  0.98320000  0.90050000  0.38670000  1.0 -0.5234611672
O  O208  1  0.40050000  0.51680000  0.88670000  1.0 -0.5234611672
O  O209  1  0.48320000  0.40050000  0.11330000  1.0 -0.5234611672
O  O210  1  0.90050000  0.01680000  0.61330000  1.0 -0.5234611672
O  O211  1  0.51680000  0.59950000  0.11330000  1.0 -0.5234611672
O  O212  1  0.09950000  0.98320000  0.61330000  1.0 -0.5234611672
O  O213  1  0.86580000  0.19420000  0.19570000  1.0 -0.5396339388
O  O214  1  0.69420000  0.63420000  0.69570000  1.0 -0.5396339388
O  O215  1  0.13420000  0.80580000  0.19570000  1.0 -0.5396339388
O  O216  1  0.30580000  0.36580000  0.69570000  1.0 -0.5396339388
O  O217  1  0.63420000  0.30580000  0.30430000  1.0 -0.5396339388
O  O218  1  0.80580000  0.86580000  0.80430000  1.0 -0.5396339388
O  O219  1  0.36580000  0.69420000  0.30430000  1.0 -0.5396339388
O  O220  1  0.19420000  0.13420000  0.80430000  1.0 -0.5396339388
O  O221  1  0.91540000  0.20130000  0.21070000  1.0 -0.6022871364
O  O222  1  0.70130000  0.58460000  0.71070000  1.0 -0.6022871364
O  O223  1  0.08460000  0.79870000  0.21070000  1.0 -0.6022871364
O  O224  1  0.29870000  0.41540000  0.71070000  1.0 -0.6022871364
O  O225  1  0.58460000  0.29870000  0.28930000  1.0 -0.6022871364
O  O226  1  0.79870000  0.91540000  0.78930000  1.0 -0.6022871364
O  O227  1  0.41540000  0.70130000  0.28930000  1.0 -0.6022871364
O  O228  1  0.20130000  0.08460000  0.78930000  1.0 -0.6022871364
O  O229  1  0.90830000  0.08710000  0.44560000  1.0 -0.5098029788
O  O230  1  0.58710000  0.59170000  0.94560000  1.0 -0.5098029788
O  O231  1  0.09170000  0.91290000  0.44560000  1.0 -0.5098029788
O  O232  1  0.41290000  0.40830000  0.94560000  1.0 -0.5098029788
O  O233  1  0.59170000  0.41290000  0.05440000  1.0 -0.5098029788
O  O234  1  0.91290000  0.90830000  0.55440000  1.0 -0.5098029788
O  O235  1  0.40830000  0.58710000  0.05440000  1.0 -0.5098029788
O  O236  1  0.08710000  0.09170000  0.55440000  1.0 -0.5098029788
O  O237  1  0.94890000  0.09310000  0.38540000  1.0 -0.5600001071
O  O238  1  0.59310000  0.55110000  0.88540000  1.0 -0.5600001071
O  O239  1  0.05110000  0.90690000  0.38540000  1.0 -0.5600001071
O  O240  1  0.40690000  0.44890000  0.88540000  1.0 -0.5600001071
O  O241  1  0.55110000  0.40690000  0.11460000  1.0 -0.5600001071
O  O242  1  0.90690000  0.94890000  0.61460000  1.0 -0.5600001071
O  O243  1  0.44890000  0.59310000  0.11460000  1.0 -0.5600001071
O  O244  1  0.09310000  0.05110000  0.61460000  1.0 -0.5600001071
O  O245  1  0.12420000  0.40540000  0.72440000  1.0 -0.6112155955
O  O246  1  0.90540000  0.37580000  0.22440000  1.0 -0.6112155955
O  O247  1  0.87580000  0.59460000  0.72440000  1.0 -0.6112155955
O  O248  1  0.09460000  0.62420000  0.22440000  1.0 -0.6112155955
O  O249  1  0.37580000  0.09460000  0.77560000  1.0 -0.6112155955
O  O250  1  0.59460000  0.12420000  0.27560000  1.0 -0.6112155955
O  O251  1  0.62420000  0.90540000  0.77560000  1.0 -0.6112155955
O  O252  1  0.40540000  0.87580000  0.27560000  1.0 -0.6112155955
O  O253  1  0.14240000  0.41530000  0.82830000  1.0 -0.5396339388
O  O254  1  0.91530000  0.35760000  0.32830000  1.0 -0.5396339388
O  O255  1  0.85760000  0.58470000  0.82830000  1.0 -0.5396339388
O  O256  1  0.08470000  0.64240000  0.32830000  1.0 -0.5396339388
O  O257  1  0.35760000  0.08470000  0.67170000  1.0 -0.5396339388
O  O258  1  0.58470000  0.14240000  0.17170000  1.0 -0.5396339388
O  O259  1  0.64240000  0.91530000  0.67170000  1.0 -0.5396339388
O  O260  1  0.41530000  0.85760000  0.17170000  1.0 -0.5396339388
O  O261  1  0.01940000  0.33220000  0.93390000  1.0 -0.6022871364
O  O262  1  0.83220000  0.48060000  0.43390000  1.0 -0.6022871364
O  O263  1  0.98060000  0.66780000  0.93390000  1.0 -0.6022871364
O  O264  1  0.16780000  0.51940000  0.43390000  1.0 -0.6022871364
O  O265  1  0.48060000  0.16780000  0.56610000  1.0 -0.6022871364
O  O266  1  0.66780000  0.01940000  0.06610000  1.0 -0.6022871364
O  O267  1  0.51940000  0.83220000  0.56610000  1.0 -0.6022871364
O  O268  1  0.33220000  0.98060000  0.06610000  1.0 -0.6022871364
O  O269  1  0.03320000  0.37190000  0.99740000  1.0 -0.5396339388
O  O270  1  0.87190000  0.46680000  0.49740000  1.0 -0.5396339388
O  O271  1  0.96680000  0.62810000  0.99740000  1.0 -0.5396339388
O  O272  1  0.12810000  0.53320000  0.49740000  1.0 -0.5396339388
O  O273  1  0.46680000  0.12810000  0.50260000  1.0 -0.5396339388
O  O274  1  0.62810000  0.03320000  0.00260000  1.0 -0.5396339388
O  O275  1  0.53320000  0.87190000  0.50260000  1.0 -0.5396339388
O  O276  1  0.37190000  0.96680000  0.00260000  1.0 -0.5396339388
