# DDEC6 charges by PACMAN v1.1 (https://github.com/mtap-research/PACMAN-charge/)
data_VEHYUE_ASR_pacman
_symmetry_space_group_name_H-M   'P 1'
_cell_length_a   21.56090000
_cell_length_b   21.56090000
_cell_length_c   11.36770000
_cell_angle_alpha   90.00000000
_cell_angle_beta   90.00000000
_cell_angle_gamma   90.00000000
_symmetry_Int_Tables_number   1
_chemical_formula_structural   Rb2Mo2P2H8C5S2N2O11
_chemical_formula_sum   'Rb16 Mo16 P16 H64 C40 S16 N16 O88'
_cell_volume   5284.53008163
_cell_formula_units_Z   8
loop_
 _symmetry_equiv_pos_site_id
 _symmetry_equiv_pos_as_xyz
  1  'x, y, z'
loop_
 _atom_site_type_symbol
 _atom_site_label
 _atom_site_symmetry_multiplicity
 _atom_site_fract_x
 _atom_site_fract_y
 _atom_site_fract_z
 _atom_site_occupancy
 _atom_site_charge
Rb  Rb1  1  0.26654000  0.31515000  0.88187000  1.0 0.9127564832
Rb  Rb2  1  0.73346000  0.68485000  0.88187000  1.0 0.9127564832
Rb  Rb3  1  0.81515000  0.23346000  0.38187000  1.0 0.9127564832
Rb  Rb4  1  0.18485000  0.76654000  0.38187000  1.0 0.9127564832
Rb  Rb5  1  0.23346000  0.18485000  0.61813000  1.0 0.9127564832
Rb  Rb6  1  0.76654000  0.81515000  0.61813000  1.0 0.9127564832
Rb  Rb7  1  0.68485000  0.26654000  0.11813000  1.0 0.9127564832
Rb  Rb8  1  0.31515000  0.73346000  0.11813000  1.0 0.9127564832
Rb  Rb9  1  0.03601000  0.21899000  0.25311000  1.0 0.9022986992
Rb  Rb10  1  0.96399000  0.78101000  0.25311000  1.0 0.9022986992
Rb  Rb11  1  0.71899000  0.46399000  0.75311000  1.0 0.9022986992
Rb  Rb12  1  0.28101000  0.53601000  0.75311000  1.0 0.9022986992
Rb  Rb13  1  0.46399000  0.28101000  0.24689000  1.0 0.9022986992
Rb  Rb14  1  0.53601000  0.71899000  0.24689000  1.0 0.9022986992
Rb  Rb15  1  0.78101000  0.03601000  0.74689000  1.0 0.9022986992
Rb  Rb16  1  0.21899000  0.96399000  0.74689000  1.0 0.9022986992
Mo  Mo1  1  0.21513000  0.13398000  0.96632000  1.0 1.4538346424
Mo  Mo2  1  0.78487000  0.86602000  0.96632000  1.0 1.4538346424
Mo  Mo3  1  0.63398000  0.28487000  0.46632000  1.0 1.4565999959
Mo  Mo4  1  0.36602000  0.71513000  0.46632000  1.0 1.4538346424
Mo  Mo5  1  0.28487000  0.36602000  0.53368000  1.0 1.4538346424
Mo  Mo6  1  0.71513000  0.63398000  0.53368000  1.0 1.4538346424
Mo  Mo7  1  0.86602000  0.21513000  0.03368000  1.0 1.4565999959
Mo  Mo8  1  0.13398000  0.78487000  0.03368000  1.0 1.4565999959
Mo  Mo9  1  0.10886000  0.20187000  0.89452000  1.0 1.596365179
Mo  Mo10  1  0.89114000  0.79813000  0.89452000  1.0 1.596365179
Mo  Mo11  1  0.70187000  0.39114000  0.39452000  1.0 1.5933067455
Mo  Mo12  1  0.29813000  0.60886000  0.39452000  1.0 1.5933067455
Mo  Mo13  1  0.39114000  0.29813000  0.60548000  1.0 1.596365179
Mo  Mo14  1  0.60886000  0.70187000  0.60548000  1.0 1.596365179
Mo  Mo15  1  0.79813000  0.10886000  0.10548000  1.0 1.596365179
Mo  Mo16  1  0.20187000  0.89114000  0.10548000  1.0 1.5933067455
P  P1  1  0.18888000  0.04071000  0.19356000  1.0 1.2395315721
P  P2  1  0.81112000  0.95929000  0.19356000  1.0 1.2395315721
P  P3  1  0.54071000  0.31112000  0.69356000  1.0 1.2395315721
P  P4  1  0.45929000  0.68888000  0.69356000  1.0 1.2395315721
P  P5  1  0.31112000  0.45929000  0.30644000  1.0 1.2395315721
P  P6  1  0.68888000  0.54071000  0.30644000  1.0 1.2395315721
P  P7  1  0.95929000  0.18888000  0.80644000  1.0 1.2395315721
P  P8  1  0.04071000  0.81112000  0.80644000  1.0 1.2395315721
P  P9  1  0.29434000  0.01492000  0.02797000  1.0 1.2173626676
P  P10  1  0.70566000  0.98508000  0.02797000  1.0 1.2173626676
P  P11  1  0.51492000  0.20566000  0.52797000  1.0 1.2173626676
P  P12  1  0.48508000  0.79434000  0.52797000  1.0 1.2173626676
P  P13  1  0.20566000  0.48508000  0.47203000  1.0 1.2173626676
P  P14  1  0.79434000  0.51492000  0.47203000  1.0 1.2173626676
P  P15  1  0.98508000  0.29434000  0.97203000  1.0 1.2173626676
P  P16  1  0.01492000  0.70566000  0.97203000  1.0 1.2173626676
H  H1  1  0.06550000  0.11260000  0.05100000  1.0 0.3013280803
H  H2  1  0.93450000  0.88740000  0.05100000  1.0 0.3013280803
H  H3  1  0.61260000  0.43450000  0.55100000  1.0 0.3013280803
H  H4  1  0.38740000  0.56550000  0.55100000  1.0 0.3013280803
H  H5  1  0.43450000  0.38740000  0.44900000  1.0 0.3013280803
H  H6  1  0.56550000  0.61260000  0.44900000  1.0 0.3013280803
H  H7  1  0.88740000  0.06550000  0.94900000  1.0 0.3013280803
H  H8  1  0.11260000  0.93450000  0.94900000  1.0 0.3013280803
H  H9  1  0.01720000  0.13700000  0.01300000  1.0 0.3198325998
H  H10  1  0.98280000  0.86300000  0.01300000  1.0 0.3198325998
H  H11  1  0.63700000  0.48280000  0.51300000  1.0 0.3198325998
H  H12  1  0.36300000  0.51720000  0.51300000  1.0 0.3198325998
H  H13  1  0.48280000  0.36300000  0.48700000  1.0 0.3198325998
H  H14  1  0.51720000  0.63700000  0.48700000  1.0 0.3198325998
H  H15  1  0.86300000  0.01720000  0.98700000  1.0 0.3198325998
H  H16  1  0.13700000  0.98280000  0.98700000  1.0 0.3198325998
H  H17  1  0.29850000  0.08590000  0.32450000  1.0 0.1428921121
H  H18  1  0.70150000  0.91410000  0.32450000  1.0 0.1428921121
H  H19  1  0.58590000  0.20150000  0.82450000  1.0 0.1428921121
H  H20  1  0.41410000  0.79850000  0.82450000  1.0 0.1428921121
H  H21  1  0.20150000  0.41410000  0.17550000  1.0 0.1428921121
H  H22  1  0.79850000  0.58590000  0.17550000  1.0 0.1428921121
H  H23  1  0.91410000  0.29850000  0.67550000  1.0 0.1428921121
H  H24  1  0.08590000  0.70150000  0.67550000  1.0 0.1428921121
H  H25  1  0.35510000  0.07620000  0.23540000  1.0 0.1428921121
H  H26  1  0.64490000  0.92380000  0.23540000  1.0 0.1428921121
H  H27  1  0.57620000  0.14490000  0.73540000  1.0 0.1428921121
H  H28  1  0.42380000  0.85510000  0.73540000  1.0 0.1428921121
H  H29  1  0.14490000  0.42380000  0.26460000  1.0 0.1428921121
H  H30  1  0.85510000  0.57620000  0.26460000  1.0 0.1428921121
H  H31  1  0.92380000  0.35510000  0.76460000  1.0 0.1428921121
H  H32  1  0.07620000  0.64490000  0.76460000  1.0 0.1428921121
H  H33  1  0.39310000  0.95610000  0.20270000  1.0 0.1597917528
H  H34  1  0.60690000  0.04390000  0.20270000  1.0 0.1597917528
H  H35  1  0.45610000  0.10690000  0.70270000  1.0 0.1597917528
H  H36  1  0.54390000  0.89310000  0.70270000  1.0 0.1597917528
H  H37  1  0.10690000  0.54390000  0.29730000  1.0 0.1597917528
H  H38  1  0.89310000  0.45610000  0.29730000  1.0 0.1597917528
H  H39  1  0.04390000  0.39310000  0.79730000  1.0 0.1597917528
H  H40  1  0.95610000  0.60690000  0.79730000  1.0 0.1597917528
H  H41  1  0.38650000  0.86620000  0.33920000  1.0 0.1597917528
H  H42  1  0.61350000  0.13380000  0.33920000  1.0 0.1597917528
H  H43  1  0.36620000  0.11350000  0.83920000  1.0 0.1597917528
H  H44  1  0.63380000  0.88650000  0.83920000  1.0 0.1597917528
H  H45  1  0.11350000  0.63380000  0.16080000  1.0 0.1597917528
H  H46  1  0.88650000  0.36620000  0.16080000  1.0 0.1597917528
H  H47  1  0.13380000  0.38650000  0.66080000  1.0 0.1597917528
H  H48  1  0.86620000  0.61350000  0.66080000  1.0 0.1597917528
H  H49  1  0.26810000  0.99570000  0.45160000  1.0 0.1314662985
H  H50  1  0.73190000  0.00430000  0.45160000  1.0 0.1314662985
H  H51  1  0.49570000  0.23190000  0.95160000  1.0 0.1314662985
H  H52  1  0.50430000  0.76810000  0.95160000  1.0 0.1314662985
H  H53  1  0.23190000  0.50430000  0.04840000  1.0 0.1314662985
H  H54  1  0.76810000  0.49570000  0.04840000  1.0 0.1314662985
H  H55  1  0.00430000  0.26810000  0.54840000  1.0 0.1314662985
H  H56  1  0.99570000  0.73190000  0.54840000  1.0 0.1314662985
H  H57  1  0.30850000  0.89410000  0.48500000  1.0 0.3013280803
H  H58  1  0.69150000  0.10590000  0.48500000  1.0 0.3013280803
H  H59  1  0.39410000  0.19150000  0.98500000  1.0 0.3013280803
H  H60  1  0.60590000  0.80850000  0.98500000  1.0 0.3013280803
H  H61  1  0.19150000  0.60590000  0.01500000  1.0 0.3013280803
H  H62  1  0.80850000  0.39410000  0.01500000  1.0 0.3013280803
H  H63  1  0.10590000  0.30850000  0.51500000  1.0 0.3013280803
H  H64  1  0.89410000  0.69150000  0.51500000  1.0 0.3055262818
C  C1  1  0.26959000  0.05951000  0.15761000  1.0 -0.247865171
C  C2  1  0.73041000  0.94049000  0.15761000  1.0 -0.247865171
C  C3  1  0.55951000  0.23041000  0.65761000  1.0 -0.247865171
C  C4  1  0.44049000  0.76959000  0.65761000  1.0 -0.247865171
C  C5  1  0.23041000  0.44049000  0.34239000  1.0 -0.247865171
C  C6  1  0.76959000  0.55951000  0.34239000  1.0 -0.247865171
C  C7  1  0.94049000  0.26959000  0.84239000  1.0 -0.247865171
C  C8  1  0.05951000  0.73041000  0.84239000  1.0 -0.247865171
C  C9  1  0.31493000  0.05867000  0.26157000  1.0 -0.1094918147
C  C10  1  0.68507000  0.94133000  0.26157000  1.0 -0.1094918147
C  C11  1  0.55867000  0.18507000  0.76157000  1.0 -0.1094918147
C  C12  1  0.44133000  0.81493000  0.76157000  1.0 -0.1094918147
C  C13  1  0.18507000  0.44133000  0.23843000  1.0 -0.1094918147
C  C14  1  0.81493000  0.55867000  0.23843000  1.0 -0.1094918147
C  C15  1  0.94133000  0.31493000  0.73843000  1.0 -0.1094918147
C  C16  1  0.05867000  0.68507000  0.73843000  1.0 -0.1094918147
C  C17  1  0.36709000  0.95267000  0.26987000  1.0 -0.074156788
C  C18  1  0.63291000  0.04733000  0.26987000  1.0 -0.074156788
C  C19  1  0.45267000  0.13291000  0.76987000  1.0 -0.074156788
C  C20  1  0.54733000  0.86709000  0.76987000  1.0 -0.074156788
C  C21  1  0.13291000  0.54733000  0.23013000  1.0 -0.074156788
C  C22  1  0.86709000  0.45267000  0.23013000  1.0 -0.074156788
C  C23  1  0.04733000  0.36709000  0.73013000  1.0 -0.074156788
C  C24  1  0.95267000  0.63291000  0.73013000  1.0 -0.074156788
C  C25  1  0.36342000  0.90366000  0.34398000  1.0 0.0261712285
C  C26  1  0.63658000  0.09634000  0.34398000  1.0 0.0261712285
C  C27  1  0.40366000  0.13658000  0.84398000  1.0 0.0261712285
C  C28  1  0.59634000  0.86342000  0.84398000  1.0 0.0261712285
C  C29  1  0.13658000  0.59634000  0.15602000  1.0 0.0261712285
C  C30  1  0.86342000  0.40366000  0.15602000  1.0 0.0261712285
C  C31  1  0.09634000  0.36342000  0.65602000  1.0 0.0261712285
C  C32  1  0.90366000  0.63658000  0.65602000  1.0 0.0261712285
C  C33  1  0.29835000  0.97471000  0.40585000  1.0 0.0787710166
C  C34  1  0.70165000  0.02529000  0.40585000  1.0 0.0787710166
C  C35  1  0.47471000  0.20165000  0.90585000  1.0 0.0787710166
C  C36  1  0.52529000  0.79835000  0.90585000  1.0 0.0787710166
C  C37  1  0.20165000  0.52529000  0.09415000  1.0 0.0787710166
C  C38  1  0.79835000  0.47471000  0.09415000  1.0 0.0787710166
C  C39  1  0.02529000  0.29835000  0.59415000  1.0 0.0787710166
C  C40  1  0.97471000  0.70165000  0.59415000  1.0 0.0787710166
S  S1  1  0.16754000  0.21571000  0.06401000  1.0 -0.7592007638
S  S2  1  0.83246000  0.78429000  0.06401000  1.0 -0.7592007638
S  S3  1  0.71571000  0.33246000  0.56401000  1.0 -0.7592007638
S  S4  1  0.28429000  0.66754000  0.56401000  1.0 -0.7592007638
S  S5  1  0.33246000  0.28429000  0.43599000  1.0 -0.7592007638
S  S6  1  0.66754000  0.71571000  0.43599000  1.0 -0.7592007638
S  S7  1  0.78429000  0.16754000  0.93599000  1.0 -0.7592007638
S  S8  1  0.21571000  0.83246000  0.93599000  1.0 -0.7592007638
S  S9  1  0.14139000  0.10522000  0.82771000  1.0 -0.701047537
S  S10  1  0.85861000  0.89478000  0.82771000  1.0 -0.7112544655
S  S11  1  0.60522000  0.35861000  0.32771000  1.0 -0.701047537
S  S12  1  0.39478000  0.64139000  0.32771000  1.0 -0.701047537
S  S13  1  0.35861000  0.39478000  0.67229000  1.0 -0.701047537
S  S14  1  0.64139000  0.60522000  0.67229000  1.0 -0.701047537
S  S15  1  0.89478000  0.14139000  0.17229000  1.0 -0.701047537
S  S16  1  0.10522000  0.85861000  0.17229000  1.0 -0.701047537
N  N1  1  0.32580000  0.99675000  0.31070000  1.0 0.0598511036
N  N2  1  0.67420000  0.00325000  0.31070000  1.0 0.0598511036
N  N3  1  0.49675000  0.17420000  0.81070000  1.0 0.0598511036
N  N4  1  0.50325000  0.82580000  0.81070000  1.0 0.0598511036
N  N5  1  0.17420000  0.50325000  0.18930000  1.0 0.0598511036
N  N6  1  0.82580000  0.49675000  0.18930000  1.0 0.0598511036
N  N7  1  0.00325000  0.32580000  0.68930000  1.0 0.0598511036
N  N8  1  0.99675000  0.67420000  0.68930000  1.0 0.0598511036
N  N9  1  0.32019000  0.91835000  0.42668000  1.0 -0.1519525227
N  N10  1  0.67981000  0.08165000  0.42668000  1.0 -0.1519525227
N  N11  1  0.41835000  0.17981000  0.92668000  1.0 -0.1519525227
N  N12  1  0.58165000  0.82019000  0.92668000  1.0 -0.1519525227
N  N13  1  0.17981000  0.58165000  0.07332000  1.0 -0.1519525227
N  N14  1  0.82019000  0.41835000  0.07332000  1.0 -0.1519525227
N  N15  1  0.08165000  0.32019000  0.57332000  1.0 -0.1519525227
N  N16  1  0.91835000  0.67981000  0.57332000  1.0 -0.1519525227
O  O1  1  0.26631000  0.17432000  0.88359000  1.0 -0.6630062208
O  O2  1  0.73369000  0.82568000  0.88359000  1.0 -0.6630062208
O  O3  1  0.67432000  0.23369000  0.38359000  1.0 -0.6630062208
O  O4  1  0.32568000  0.76631000  0.38359000  1.0 -0.6630062208
O  O5  1  0.23369000  0.32568000  0.61641000  1.0 -0.6630062208
O  O6  1  0.76631000  0.67432000  0.61641000  1.0 -0.6630062208
O  O7  1  0.82568000  0.26631000  0.11641000  1.0 -0.6630062208
O  O8  1  0.17432000  0.73369000  0.11641000  1.0 -0.6630062208
O  O9  1  0.26664000  0.12262000  0.11845000  1.0 -0.389021472
O  O10  1  0.73336000  0.87738000  0.11845000  1.0 -0.389021472
O  O11  1  0.62262000  0.23336000  0.61845000  1.0 -0.389021472
O  O12  1  0.37738000  0.76664000  0.61845000  1.0 -0.389021472
O  O13  1  0.23336000  0.37738000  0.38155000  1.0 -0.389021472
O  O14  1  0.76664000  0.62262000  0.38155000  1.0 -0.389021472
O  O15  1  0.87738000  0.26664000  0.88155000  1.0 -0.389021472
O  O16  1  0.12262000  0.73336000  0.88155000  1.0 -0.389021472
O  O17  1  0.25710000  0.04780000  0.93088000  1.0 -0.7244851933
O  O18  1  0.74290000  0.95220000  0.93088000  1.0 -0.7260096037
O  O19  1  0.54780000  0.24290000  0.43088000  1.0 -0.7244851933
O  O20  1  0.45220000  0.75710000  0.43088000  1.0 -0.7244851933
O  O21  1  0.24290000  0.45220000  0.56912000  1.0 -0.7260096037
O  O22  1  0.75710000  0.54780000  0.56912000  1.0 -0.7260096037
O  O23  1  0.95220000  0.25710000  0.06912000  1.0 -0.7244851933
O  O24  1  0.04780000  0.74290000  0.06912000  1.0 -0.7244851933
O  O25  1  0.15490000  0.06483000  0.08481000  1.0 -0.7260096037
O  O26  1  0.84510000  0.93517000  0.08481000  1.0 -0.7260096037
O  O27  1  0.56483000  0.34510000  0.58481000  1.0 -0.7260096037
O  O28  1  0.43517000  0.65490000  0.58481000  1.0 -0.7260096037
O  O29  1  0.34510000  0.43517000  0.41519000  1.0 -0.7260096037
O  O30  1  0.65490000  0.56483000  0.41519000  1.0 -0.7260096037
O  O31  1  0.93517000  0.15490000  0.91519000  1.0 -0.7260096037
O  O32  1  0.06483000  0.84510000  0.91519000  1.0 -0.7260096037
O  O33  1  0.14625000  0.24800000  0.79839000  1.0 -0.6410250709
O  O34  1  0.85375000  0.75200000  0.79839000  1.0 -0.6410250709
O  O35  1  0.74800000  0.35375000  0.29839000  1.0 -0.6410250709
O  O36  1  0.25200000  0.64625000  0.29839000  1.0 -0.6410250709
O  O37  1  0.35375000  0.25200000  0.70161000  1.0 -0.6410250709
O  O38  1  0.64625000  0.74800000  0.70161000  1.0 -0.6410250709
O  O39  1  0.75200000  0.14625000  0.20161000  1.0 -0.6410250709
O  O40  1  0.24800000  0.85375000  0.20161000  1.0 -0.6410250709
O  O41  1  0.18246000  0.97003000  0.20787000  1.0 -0.701047537
O  O42  1  0.81754000  0.02997000  0.20787000  1.0 -0.701047537
O  O43  1  0.47003000  0.31754000  0.70787000  1.0 -0.701047537
O  O44  1  0.52997000  0.68246000  0.70787000  1.0 -0.701047537
O  O45  1  0.31754000  0.52997000  0.29213000  1.0 -0.701047537
O  O46  1  0.68246000  0.47003000  0.29213000  1.0 -0.701047537
O  O47  1  0.02997000  0.18246000  0.79213000  1.0 -0.701047537
O  O48  1  0.97003000  0.81754000  0.79213000  1.0 -0.701047537
O  O49  1  0.27336000  0.94699000  0.03651000  1.0 -0.7112544655
O  O50  1  0.72664000  0.05301000  0.03651000  1.0 -0.7112544655
O  O51  1  0.44699000  0.22664000  0.53651000  1.0 -0.7112544655
O  O52  1  0.55301000  0.77336000  0.53651000  1.0 -0.7112544655
O  O53  1  0.22664000  0.55301000  0.46349000  1.0 -0.7112544655
O  O54  1  0.77336000  0.44699000  0.46349000  1.0 -0.7112544655
O  O55  1  0.05301000  0.27336000  0.96349000  1.0 -0.7112544655
O  O56  1  0.94699000  0.72664000  0.96349000  1.0 -0.7112544655
O  O57  1  0.04751000  0.14388000  0.03164000  1.0 -0.5525687233
O  O58  1  0.95249000  0.85612000  0.03164000  1.0 -0.5525687233
O  O59  1  0.64388000  0.45249000  0.53164000  1.0 -0.5525687233
O  O60  1  0.35612000  0.54751000  0.53164000  1.0 -0.5525687233
O  O61  1  0.45249000  0.35612000  0.46836000  1.0 -0.5525687233
O  O62  1  0.54751000  0.64388000  0.46836000  1.0 -0.5525687233
O  O63  1  0.85612000  0.04751000  0.96836000  1.0 -0.5525687233
O  O64  1  0.14388000  0.95249000  0.96836000  1.0 -0.5525687233
O  O65  1  0.17104000  0.07264000  0.30676000  1.0 -0.5924273104
O  O66  1  0.82896000  0.92736000  0.30676000  1.0 -0.5924273104
O  O67  1  0.57264000  0.32896000  0.80676000  1.0 -0.5924273104
O  O68  1  0.42736000  0.67104000  0.80676000  1.0 -0.5924273104
O  O69  1  0.32896000  0.42736000  0.19324000  1.0 -0.5924273104
O  O70  1  0.67104000  0.57264000  0.19324000  1.0 -0.5924273104
O  O71  1  0.92736000  0.17104000  0.69324000  1.0 -0.5924273104
O  O72  1  0.07264000  0.82896000  0.69324000  1.0 -0.5924273104
O  O73  1  0.36319000  0.02030000  0.01328000  1.0 -0.701047537
O  O74  1  0.63681000  0.97970000  0.01328000  1.0 -0.701047537
O  O75  1  0.52030000  0.13681000  0.51328000  1.0 -0.701047537
O  O76  1  0.47970000  0.86319000  0.51328000  1.0 -0.701047537
O  O77  1  0.13681000  0.47970000  0.48672000  1.0 -0.701047537
O  O78  1  0.86319000  0.52030000  0.48672000  1.0 -0.701047537
O  O79  1  0.97970000  0.36319000  0.98672000  1.0 -0.701047537
O  O80  1  0.02030000  0.63681000  0.98672000  1.0 -0.701047537
O  O81  1  0.32026000  0.44861000  0.95628000  1.0 -0.701047537
O  O82  1  0.67974000  0.55139000  0.95628000  1.0 -0.6937573896
O  O83  1  0.94861000  0.17974000  0.45628000  1.0 -0.6937573896
O  O84  1  0.05139000  0.82026000  0.45628000  1.0 -0.701047537
O  O85  1  0.17974000  0.05139000  0.54372000  1.0 -0.701047537
O  O86  1  0.82026000  0.94861000  0.54372000  1.0 -0.701047537
O  O87  1  0.55139000  0.32026000  0.04372000  1.0 -0.701047537
O  O88  1  0.44861000  0.67974000  0.04372000  1.0 -0.701047537
