# DDEC6 charges by PACMAN v1.1 (https://github.com/mtap-research/PACMAN-charge/)
data_VEJHID_ASR_pacman
_symmetry_space_group_name_H-M   'P 1'
_cell_length_a   22.52100000
_cell_length_b   22.52100000
_cell_length_c   22.52100000
_cell_angle_alpha   90.00000000
_cell_angle_beta   90.00000000
_cell_angle_gamma   90.00000000
_symmetry_Int_Tables_number   1
_chemical_formula_structural   Cd7H30C78(NO4)6
_chemical_formula_sum   'Cd14 H60 C156 N12 O48'
_cell_volume   11422.54852676
_cell_formula_units_Z   2
loop_
 _symmetry_equiv_pos_site_id
 _symmetry_equiv_pos_as_xyz
  1  'x, y, z'
loop_
 _atom_site_type_symbol
 _atom_site_label
 _atom_site_symmetry_multiplicity
 _atom_site_fract_x
 _atom_site_fract_y
 _atom_site_fract_z
 _atom_site_occupancy
 _atom_site_charge
Cd  Cd1  1  0.28534000  0.28534000  0.71466000  1.0 1.0139957864
Cd  Cd2  1  0.71466000  0.28534000  0.71466000  1.0 1.0139957864
Cd  Cd3  1  0.71466000  0.71466000  0.71466000  1.0 1.0139957864
Cd  Cd4  1  0.28534000  0.71466000  0.71466000  1.0 1.0139957864
Cd  Cd5  1  0.28534000  0.28534000  0.28534000  1.0 1.0139957864
Cd  Cd6  1  0.28534000  0.71466000  0.28534000  1.0 1.0139957864
Cd  Cd7  1  0.71466000  0.28534000  0.28534000  1.0 1.0139957864
Cd  Cd8  1  0.71466000  0.71466000  0.28534000  1.0 1.0139957864
Cd  Cd9  1  0.00000000  0.00000000  0.53800000  1.0 0.5641227761
Cd  Cd10  1  0.00000000  0.46200000  0.00000000  1.0 0.5641227761
Cd  Cd11  1  0.00000000  0.00000000  0.46200000  1.0 0.5641227761
Cd  Cd12  1  0.00000000  0.53800000  0.00000000  1.0 0.5641227761
Cd  Cd13  1  0.53800000  0.00000000  0.00000000  1.0 0.5641227761
Cd  Cd14  1  0.46200000  0.00000000  0.00000000  1.0 0.5641227761
H  H1  1  0.05420000  0.22620000  0.50000000  1.0 0.1409563404
H  H2  1  0.77380000  0.05420000  0.50000000  1.0 0.1409563404
H  H3  1  0.94580000  0.77380000  0.50000000  1.0 0.1409563404
H  H4  1  0.22620000  0.94580000  0.50000000  1.0 0.1409563404
H  H5  1  0.05420000  0.50000000  0.22620000  1.0 0.1409563404
H  H6  1  0.05420000  0.77380000  0.50000000  1.0 0.1409563404
H  H7  1  0.05420000  0.50000000  0.77380000  1.0 0.1409563404
H  H8  1  0.50000000  0.22620000  0.94580000  1.0 0.1409563404
H  H9  1  0.94580000  0.22620000  0.50000000  1.0 0.1409563404
H  H10  1  0.50000000  0.22620000  0.05420000  1.0 0.1409563404
H  H11  1  0.50000000  0.05420000  0.22620000  1.0 0.1409563404
H  H12  1  0.22620000  0.50000000  0.05420000  1.0 0.1409563404
H  H13  1  0.77380000  0.50000000  0.05420000  1.0 0.1409563404
H  H14  1  0.50000000  0.94580000  0.77380000  1.0 0.1409563404
H  H15  1  0.77380000  0.50000000  0.94580000  1.0 0.1409563404
H  H16  1  0.50000000  0.94580000  0.22620000  1.0 0.1409563404
H  H17  1  0.50000000  0.05420000  0.77380000  1.0 0.1409563404
H  H18  1  0.22620000  0.50000000  0.94580000  1.0 0.1409563404
H  H19  1  0.22620000  0.05420000  0.50000000  1.0 0.1409563404
H  H20  1  0.77380000  0.94580000  0.50000000  1.0 0.1409563404
H  H21  1  0.94580000  0.50000000  0.22620000  1.0 0.1409563404
H  H22  1  0.94580000  0.50000000  0.77380000  1.0 0.1409563404
H  H23  1  0.50000000  0.77380000  0.05420000  1.0 0.1409563404
H  H24  1  0.50000000  0.77380000  0.94580000  1.0 0.1409563404
H  H25  1  0.27190000  0.27190000  0.50000000  1.0 0.1409563404
H  H26  1  0.72810000  0.27190000  0.50000000  1.0 0.1409563404
H  H27  1  0.72810000  0.72810000  0.50000000  1.0 0.1409563404
H  H28  1  0.27190000  0.72810000  0.50000000  1.0 0.1409563404
H  H29  1  0.27190000  0.50000000  0.27190000  1.0 0.1409563404
H  H30  1  0.27190000  0.50000000  0.72810000  1.0 0.1409563404
H  H31  1  0.50000000  0.27190000  0.72810000  1.0 0.1409563404
H  H32  1  0.50000000  0.27190000  0.27190000  1.0 0.1409563404
H  H33  1  0.72810000  0.50000000  0.27190000  1.0 0.1409563404
H  H34  1  0.50000000  0.72810000  0.72810000  1.0 0.1409563404
H  H35  1  0.72810000  0.50000000  0.72810000  1.0 0.1409563404
H  H36  1  0.50000000  0.72810000  0.27190000  1.0 0.1409563404
H  H37  1  0.16320000  0.16320000  0.58890000  1.0 0.1296022434
H  H38  1  0.83680000  0.16320000  0.58890000  1.0 0.1296022434
H  H39  1  0.83680000  0.83680000  0.58890000  1.0 0.1296022434
H  H40  1  0.16320000  0.83680000  0.58890000  1.0 0.1296022434
H  H41  1  0.16320000  0.41110000  0.16320000  1.0 0.1296022434
H  H42  1  0.16320000  0.83680000  0.41110000  1.0 0.1296022434
H  H43  1  0.16320000  0.58890000  0.83680000  1.0 0.1296022434
H  H44  1  0.58890000  0.16320000  0.83680000  1.0 0.1296022434
H  H45  1  0.83680000  0.16320000  0.41110000  1.0 0.1296022434
H  H46  1  0.41110000  0.16320000  0.16320000  1.0 0.1296022434
H  H47  1  0.58890000  0.16320000  0.16320000  1.0 0.1296022434
H  H48  1  0.16320000  0.58890000  0.16320000  1.0 0.1296022434
H  H49  1  0.83680000  0.41110000  0.16320000  1.0 0.1296022434
H  H50  1  0.58890000  0.83680000  0.83680000  1.0 0.1296022434
H  H51  1  0.83680000  0.58890000  0.83680000  1.0 0.1296022434
H  H52  1  0.41110000  0.83680000  0.16320000  1.0 0.1296022434
H  H53  1  0.41110000  0.16320000  0.83680000  1.0 0.1296022434
H  H54  1  0.16320000  0.41110000  0.83680000  1.0 0.1296022434
H  H55  1  0.16320000  0.16320000  0.41110000  1.0 0.1296022434
H  H56  1  0.83680000  0.83680000  0.41110000  1.0 0.1296022434
H  H57  1  0.83680000  0.58890000  0.16320000  1.0 0.1296022434
H  H58  1  0.83680000  0.41110000  0.83680000  1.0 0.1296022434
H  H59  1  0.58890000  0.83680000  0.16320000  1.0 0.1296022434
H  H60  1  0.41110000  0.83680000  0.83680000  1.0 0.1296022434
C  C1  1  0.05090000  0.13090000  0.50000000  1.0 0.1925929684
C  C2  1  0.86910000  0.05090000  0.50000000  1.0 0.1925929684
C  C3  1  0.94910000  0.86910000  0.50000000  1.0 0.1925929684
C  C4  1  0.13090000  0.94910000  0.50000000  1.0 0.1925929684
C  C5  1  0.05090000  0.50000000  0.13090000  1.0 0.1925929684
C  C6  1  0.05090000  0.86910000  0.50000000  1.0 0.1925929684
C  C7  1  0.05090000  0.50000000  0.86910000  1.0 0.1925929684
C  C8  1  0.50000000  0.13090000  0.94910000  1.0 0.1925929684
C  C9  1  0.94910000  0.13090000  0.50000000  1.0 0.1925929684
C  C10  1  0.50000000  0.13090000  0.05090000  1.0 0.1925929684
C  C11  1  0.50000000  0.05090000  0.13090000  1.0 0.1925929684
C  C12  1  0.13090000  0.50000000  0.05090000  1.0 0.1925929684
C  C13  1  0.86910000  0.50000000  0.05090000  1.0 0.1925929684
C  C14  1  0.50000000  0.94910000  0.86910000  1.0 0.1925929684
C  C15  1  0.86910000  0.50000000  0.94910000  1.0 0.1925929684
C  C16  1  0.50000000  0.94910000  0.13090000  1.0 0.1925929684
C  C17  1  0.50000000  0.05090000  0.86910000  1.0 0.1925929684
C  C18  1  0.13090000  0.50000000  0.94910000  1.0 0.1925929684
C  C19  1  0.13090000  0.05090000  0.50000000  1.0 0.1925929684
C  C20  1  0.86910000  0.94910000  0.50000000  1.0 0.1925929684
C  C21  1  0.94910000  0.50000000  0.13090000  1.0 0.1925929684
C  C22  1  0.94910000  0.50000000  0.86910000  1.0 0.1925929684
C  C23  1  0.50000000  0.86910000  0.05090000  1.0 0.1925929684
C  C24  1  0.50000000  0.86910000  0.94910000  1.0 0.1925929684
C  C25  1  0.03010000  0.19270000  0.50000000  1.0 -0.170370631
C  C26  1  0.80730000  0.03010000  0.50000000  1.0 -0.170370631
C  C27  1  0.96990000  0.80730000  0.50000000  1.0 -0.170370631
C  C28  1  0.19270000  0.96990000  0.50000000  1.0 -0.170370631
C  C29  1  0.03010000  0.50000000  0.19270000  1.0 -0.170370631
C  C30  1  0.03010000  0.80730000  0.50000000  1.0 -0.170370631
C  C31  1  0.03010000  0.50000000  0.80730000  1.0 -0.170370631
C  C32  1  0.50000000  0.19270000  0.96990000  1.0 -0.170370631
C  C33  1  0.96990000  0.19270000  0.50000000  1.0 -0.170370631
C  C34  1  0.50000000  0.19270000  0.03010000  1.0 -0.170370631
C  C35  1  0.50000000  0.03010000  0.19270000  1.0 -0.170370631
C  C36  1  0.19270000  0.50000000  0.03010000  1.0 -0.170370631
C  C37  1  0.80730000  0.50000000  0.03010000  1.0 -0.170370631
C  C38  1  0.50000000  0.96990000  0.80730000  1.0 -0.170370631
C  C39  1  0.80730000  0.50000000  0.96990000  1.0 -0.170370631
C  C40  1  0.50000000  0.96990000  0.19270000  1.0 -0.170370631
C  C41  1  0.50000000  0.03010000  0.80730000  1.0 -0.170370631
C  C42  1  0.19270000  0.50000000  0.96990000  1.0 -0.170370631
C  C43  1  0.19270000  0.03010000  0.50000000  1.0 -0.170370631
C  C44  1  0.80730000  0.96990000  0.50000000  1.0 -0.170370631
C  C45  1  0.96990000  0.50000000  0.19270000  1.0 -0.170370631
C  C46  1  0.96990000  0.50000000  0.80730000  1.0 -0.170370631
C  C47  1  0.50000000  0.80730000  0.03010000  1.0 -0.170370631
C  C48  1  0.50000000  0.80730000  0.96990000  1.0 -0.170370631
C  C49  1  0.22160000  0.22160000  0.55300000  1.0 -0.0070401049
C  C50  1  0.77840000  0.22160000  0.55300000  1.0 -0.0070401049
C  C51  1  0.77840000  0.77840000  0.55300000  1.0 -0.0070401049
C  C52  1  0.22160000  0.77840000  0.55300000  1.0 -0.0070401049
C  C53  1  0.22160000  0.44700000  0.22160000  1.0 -0.0070401049
C  C54  1  0.22160000  0.77840000  0.44700000  1.0 -0.0070401049
C  C55  1  0.22160000  0.55300000  0.77840000  1.0 -0.0070401049
C  C56  1  0.55300000  0.22160000  0.77840000  1.0 -0.0070401049
C  C57  1  0.77840000  0.22160000  0.44700000  1.0 -0.0070401049
C  C58  1  0.44700000  0.22160000  0.22160000  1.0 -0.0070401049
C  C59  1  0.55300000  0.22160000  0.22160000  1.0 -0.0070401049
C  C60  1  0.22160000  0.55300000  0.22160000  1.0 -0.0070401049
C  C61  1  0.77840000  0.44700000  0.22160000  1.0 -0.0070401049
C  C62  1  0.55300000  0.77840000  0.77840000  1.0 -0.0070401049
C  C63  1  0.77840000  0.55300000  0.77840000  1.0 -0.0070401049
C  C64  1  0.44700000  0.77840000  0.22160000  1.0 -0.0070401049
C  C65  1  0.44700000  0.22160000  0.77840000  1.0 -0.0070401049
C  C66  1  0.22160000  0.44700000  0.77840000  1.0 -0.0070401049
C  C67  1  0.22160000  0.22160000  0.44700000  1.0 -0.0070401049
C  C68  1  0.77840000  0.77840000  0.44700000  1.0 -0.0070401049
C  C69  1  0.77840000  0.55300000  0.22160000  1.0 -0.0070401049
C  C70  1  0.77840000  0.44700000  0.77840000  1.0 -0.0070401049
C  C71  1  0.55300000  0.77840000  0.22160000  1.0 -0.0070401049
C  C72  1  0.44700000  0.77840000  0.77840000  1.0 -0.0070401049
C  C73  1  0.10910000  0.10910000  0.50000000  1.0 -0.1121437997
C  C74  1  0.89090000  0.10910000  0.50000000  1.0 -0.1121437997
C  C75  1  0.89090000  0.89090000  0.50000000  1.0 -0.1121437997
C  C76  1  0.10910000  0.89090000  0.50000000  1.0 -0.1121437997
C  C77  1  0.10910000  0.50000000  0.10910000  1.0 -0.1121437997
C  C78  1  0.10910000  0.50000000  0.89090000  1.0 -0.1121437997
C  C79  1  0.50000000  0.10910000  0.89090000  1.0 -0.1121437997
C  C80  1  0.50000000  0.10910000  0.10910000  1.0 -0.1121437997
C  C81  1  0.89090000  0.50000000  0.10910000  1.0 -0.1121437997
C  C82  1  0.50000000  0.89090000  0.89090000  1.0 -0.1121437997
C  C83  1  0.89090000  0.50000000  0.89090000  1.0 -0.1121437997
C  C84  1  0.50000000  0.89090000  0.10910000  1.0 -0.1121437997
C  C85  1  0.15600000  0.15600000  0.50000000  1.0 0.0623774713
C  C86  1  0.84400000  0.15600000  0.50000000  1.0 0.0623774713
C  C87  1  0.84400000  0.84400000  0.50000000  1.0 0.0623774713
C  C88  1  0.15600000  0.84400000  0.50000000  1.0 0.0623774713
C  C89  1  0.15600000  0.50000000  0.15600000  1.0 0.0623774713
C  C90  1  0.15600000  0.50000000  0.84400000  1.0 0.0623774713
C  C91  1  0.50000000  0.15600000  0.84400000  1.0 0.0623774713
C  C92  1  0.50000000  0.15600000  0.15600000  1.0 0.0623774713
C  C93  1  0.84400000  0.50000000  0.15600000  1.0 0.0623774713
C  C94  1  0.50000000  0.84400000  0.84400000  1.0 0.0623774713
C  C95  1  0.84400000  0.50000000  0.84400000  1.0 0.0623774713
C  C96  1  0.50000000  0.84400000  0.15600000  1.0 0.0623774713
C  C97  1  0.24270000  0.24270000  0.50000000  1.0 -0.1021315817
C  C98  1  0.75730000  0.24270000  0.50000000  1.0 -0.1021315817
C  C99  1  0.75730000  0.75730000  0.50000000  1.0 -0.1021315817
C  C100  1  0.24270000  0.75730000  0.50000000  1.0 -0.1021315817
C  C101  1  0.24270000  0.50000000  0.24270000  1.0 -0.1021315817
C  C102  1  0.24270000  0.50000000  0.75730000  1.0 -0.1021315817
C  C103  1  0.50000000  0.24270000  0.75730000  1.0 -0.1021315817
C  C104  1  0.50000000  0.24270000  0.24270000  1.0 -0.1021315817
C  C105  1  0.75730000  0.50000000  0.24270000  1.0 -0.1021315817
C  C106  1  0.50000000  0.75730000  0.75730000  1.0 -0.1021315817
C  C107  1  0.75730000  0.50000000  0.75730000  1.0 -0.1021315817
C  C108  1  0.50000000  0.75730000  0.24270000  1.0 -0.1021315817
C  C109  1  0.17770000  0.17770000  0.55310000  1.0 -0.1335858505
C  C110  1  0.82230000  0.17770000  0.55310000  1.0 -0.1335858505
C  C111  1  0.82230000  0.82230000  0.55310000  1.0 -0.1335858505
C  C112  1  0.17770000  0.82230000  0.55310000  1.0 -0.1335858505
C  C113  1  0.17770000  0.44690000  0.17770000  1.0 -0.1335858505
C  C114  1  0.17770000  0.82230000  0.44690000  1.0 -0.1335858505
C  C115  1  0.17770000  0.55310000  0.82230000  1.0 -0.1335858505
C  C116  1  0.55310000  0.17770000  0.82230000  1.0 -0.1335858505
C  C117  1  0.82230000  0.17770000  0.44690000  1.0 -0.1335858505
C  C118  1  0.44690000  0.17770000  0.17770000  1.0 -0.1335858505
C  C119  1  0.55310000  0.17770000  0.17770000  1.0 -0.1335858505
C  C120  1  0.17770000  0.55310000  0.17770000  1.0 -0.1335858505
C  C121  1  0.82230000  0.44690000  0.17770000  1.0 -0.1335858505
C  C122  1  0.55310000  0.82230000  0.82230000  1.0 -0.1335858505
C  C123  1  0.82230000  0.55310000  0.82230000  1.0 -0.1335858505
C  C124  1  0.44690000  0.82230000  0.17770000  1.0 -0.1335858505
C  C125  1  0.44690000  0.17770000  0.82230000  1.0 -0.1335858505
C  C126  1  0.17770000  0.44690000  0.82230000  1.0 -0.1335858505
C  C127  1  0.17770000  0.17770000  0.44690000  1.0 -0.1335858505
C  C128  1  0.82230000  0.82230000  0.44690000  1.0 -0.1335858505
C  C129  1  0.82230000  0.55310000  0.17770000  1.0 -0.1335858505
C  C130  1  0.82230000  0.44690000  0.82230000  1.0 -0.1335858505
C  C131  1  0.55310000  0.82230000  0.17770000  1.0 -0.1335858505
C  C132  1  0.44690000  0.82230000  0.82230000  1.0 -0.1335858505
C  C133  1  0.24450000  0.24450000  0.61060000  1.0 0.5134724204
C  C134  1  0.75550000  0.24450000  0.61060000  1.0 0.5134724204
C  C135  1  0.75550000  0.75550000  0.61060000  1.0 0.5134724204
C  C136  1  0.24450000  0.75550000  0.61060000  1.0 0.5134724204
C  C137  1  0.24450000  0.38940000  0.24450000  1.0 0.5134724204
C  C138  1  0.24450000  0.75550000  0.38940000  1.0 0.5134724204
C  C139  1  0.24450000  0.61060000  0.75550000  1.0 0.5134724204
C  C140  1  0.61060000  0.24450000  0.75550000  1.0 0.5134724204
C  C141  1  0.75550000  0.24450000  0.38940000  1.0 0.5134724204
C  C142  1  0.38940000  0.24450000  0.24450000  1.0 0.5134724204
C  C143  1  0.61060000  0.24450000  0.24450000  1.0 0.5134724204
C  C144  1  0.24450000  0.61060000  0.24450000  1.0 0.5134724204
C  C145  1  0.75550000  0.38940000  0.24450000  1.0 0.5134724204
C  C146  1  0.61060000  0.75550000  0.75550000  1.0 0.5134724204
C  C147  1  0.75550000  0.61060000  0.75550000  1.0 0.5134724204
C  C148  1  0.38940000  0.75550000  0.24450000  1.0 0.5134724204
C  C149  1  0.38940000  0.24450000  0.75550000  1.0 0.5134724204
C  C150  1  0.24450000  0.38940000  0.75550000  1.0 0.5134724204
C  C151  1  0.24450000  0.24450000  0.38940000  1.0 0.5134724204
C  C152  1  0.75550000  0.75550000  0.38940000  1.0 0.5134724204
C  C153  1  0.75550000  0.61060000  0.24450000  1.0 0.5134724204
C  C154  1  0.75550000  0.38940000  0.75550000  1.0 0.5134724204
C  C155  1  0.61060000  0.75550000  0.24450000  1.0 0.5134724204
C  C156  1  0.38940000  0.75550000  0.75550000  1.0 0.5134724204
N  N1  1  0.00000000  0.09570000  0.50000000  1.0 -0.4091297886
N  N2  1  0.90430000  0.00000000  0.50000000  1.0 -0.4091297886
N  N3  1  0.00000000  0.90430000  0.50000000  1.0 -0.4091297886
N  N4  1  0.09570000  0.00000000  0.50000000  1.0 -0.4091297886
N  N5  1  0.00000000  0.50000000  0.09570000  1.0 -0.4091297886
N  N6  1  0.00000000  0.50000000  0.90430000  1.0 -0.4091297886
N  N7  1  0.50000000  0.09570000  0.00000000  1.0 -0.4091297886
N  N8  1  0.50000000  0.00000000  0.09570000  1.0 -0.4091297886
N  N9  1  0.09570000  0.50000000  0.00000000  1.0 -0.4091297886
N  N10  1  0.90430000  0.50000000  0.00000000  1.0 -0.4091297886
N  N11  1  0.50000000  0.00000000  0.90430000  1.0 -0.4091297886
N  N12  1  0.50000000  0.90430000  0.00000000  1.0 -0.4091297886
O  O1  1  0.22510000  0.22510000  0.65540000  1.0 -0.478389154
O  O2  1  0.77490000  0.22510000  0.65540000  1.0 -0.478389154
O  O3  1  0.77490000  0.77490000  0.65540000  1.0 -0.478389154
O  O4  1  0.22510000  0.77490000  0.65540000  1.0 -0.478389154
O  O5  1  0.22510000  0.34460000  0.22510000  1.0 -0.478389154
O  O6  1  0.22510000  0.77490000  0.34460000  1.0 -0.478389154
O  O7  1  0.22510000  0.65540000  0.77490000  1.0 -0.478389154
O  O8  1  0.65540000  0.22510000  0.77490000  1.0 -0.478389154
O  O9  1  0.77490000  0.22510000  0.34460000  1.0 -0.478389154
O  O10  1  0.34460000  0.22510000  0.22510000  1.0 -0.478389154
O  O11  1  0.65540000  0.22510000  0.22510000  1.0 -0.478389154
O  O12  1  0.22510000  0.65540000  0.22510000  1.0 -0.478389154
O  O13  1  0.77490000  0.34460000  0.22510000  1.0 -0.478389154
O  O14  1  0.65540000  0.77490000  0.77490000  1.0 -0.478389154
O  O15  1  0.77490000  0.65540000  0.77490000  1.0 -0.478389154
O  O16  1  0.34460000  0.77490000  0.22510000  1.0 -0.478389154
O  O17  1  0.34460000  0.22510000  0.77490000  1.0 -0.478389154
O  O18  1  0.22510000  0.34460000  0.77490000  1.0 -0.478389154
O  O19  1  0.22510000  0.22510000  0.34460000  1.0 -0.478389154
O  O20  1  0.77490000  0.77490000  0.34460000  1.0 -0.478389154
O  O21  1  0.77490000  0.65540000  0.22510000  1.0 -0.478389154
O  O22  1  0.77490000  0.34460000  0.77490000  1.0 -0.478389154
O  O23  1  0.65540000  0.77490000  0.22510000  1.0 -0.478389154
O  O24  1  0.34460000  0.77490000  0.77490000  1.0 -0.478389154
O  O25  1  0.28290000  0.28290000  0.60760000  1.0 -0.4562318426
O  O26  1  0.71710000  0.28290000  0.60760000  1.0 -0.4562318426
O  O27  1  0.71710000  0.71710000  0.60760000  1.0 -0.4562318426
O  O28  1  0.28290000  0.71710000  0.60760000  1.0 -0.4562318426
O  O29  1  0.28290000  0.39240000  0.28290000  1.0 -0.4562318426
O  O30  1  0.28290000  0.71710000  0.39240000  1.0 -0.4562318426
O  O31  1  0.28290000  0.60760000  0.71710000  1.0 -0.4562318426
O  O32  1  0.60760000  0.28290000  0.71710000  1.0 -0.4562318426
O  O33  1  0.71710000  0.28290000  0.39240000  1.0 -0.4562318426
O  O34  1  0.39240000  0.28290000  0.28290000  1.0 -0.4562318426
O  O35  1  0.60760000  0.28290000  0.28290000  1.0 -0.4562318426
O  O36  1  0.28290000  0.60760000  0.28290000  1.0 -0.4562318426
O  O37  1  0.71710000  0.39240000  0.28290000  1.0 -0.4562318426
O  O38  1  0.60760000  0.71710000  0.71710000  1.0 -0.4562318426
O  O39  1  0.71710000  0.60760000  0.71710000  1.0 -0.4562318426
O  O40  1  0.39240000  0.71710000  0.28290000  1.0 -0.4562318426
O  O41  1  0.39240000  0.28290000  0.71710000  1.0 -0.4562318426
O  O42  1  0.28290000  0.39240000  0.71710000  1.0 -0.4562318426
O  O43  1  0.28290000  0.28290000  0.39240000  1.0 -0.4562318426
O  O44  1  0.71710000  0.71710000  0.39240000  1.0 -0.4562318426
O  O45  1  0.71710000  0.60760000  0.28290000  1.0 -0.4562318426
O  O46  1  0.71710000  0.39240000  0.71710000  1.0 -0.4562318426
O  O47  1  0.60760000  0.71710000  0.28290000  1.0 -0.4562318426
O  O48  1  0.39240000  0.71710000  0.71710000  1.0 -0.4562318426
