# DDEC6 charges by PACMAN v1.1 (https://github.com/mtap-research/PACMAN-charge/)
data_VEJZUG_ASR_pacman
_symmetry_space_group_name_H-M   'P 1'
_cell_length_a   28.75950000
_cell_length_b   28.75950000
_cell_length_c   28.75950000
_cell_angle_alpha   90.00000000
_cell_angle_beta   90.00000000
_cell_angle_gamma   90.00000000
_symmetry_Int_Tables_number   1
_chemical_formula_structural   Co2H29(C5N)8
_chemical_formula_sum   'Co48 H696 C960 N192'
_cell_volume   23787.23669117
_cell_formula_units_Z   24
loop_
 _symmetry_equiv_pos_site_id
 _symmetry_equiv_pos_as_xyz
  1  'x, y, z'
loop_
 _atom_site_type_symbol
 _atom_site_label
 _atom_site_symmetry_multiplicity
 _atom_site_fract_x
 _atom_site_fract_y
 _atom_site_fract_z
 _atom_site_occupancy
 _atom_site_charge
Co  Co1  1  0.39650000  0.10440000  0.25150000  1.0 0.5633979551
Co  Co2  1  0.25150000  0.39650000  0.10440000  1.0 0.5633979551
Co  Co3  1  0.10440000  0.25150000  0.39650000  1.0 0.5633979551
Co  Co4  1  0.10440000  0.39650000  0.74850000  1.0 0.5633979551
Co  Co5  1  0.10440000  0.60350000  0.25150000  1.0 0.5633979551
Co  Co6  1  0.89560000  0.39650000  0.25150000  1.0 0.5656871973
Co  Co7  1  0.39650000  0.25150000  0.89560000  1.0 0.5633979551
Co  Co8  1  0.60350000  0.25150000  0.10440000  1.0 0.5633979551
Co  Co9  1  0.39650000  0.74850000  0.10440000  1.0 0.5633979551
Co  Co10  1  0.25150000  0.10440000  0.60350000  1.0 0.5633979551
Co  Co11  1  0.25150000  0.89560000  0.39650000  1.0 0.5633979551
Co  Co12  1  0.74850000  0.10440000  0.39650000  1.0 0.5656871973
Co  Co13  1  0.60350000  0.89560000  0.25150000  1.0 0.5633979551
Co  Co14  1  0.60350000  0.10440000  0.74850000  1.0 0.5656871973
Co  Co15  1  0.39650000  0.89560000  0.74850000  1.0 0.5633979551
Co  Co16  1  0.25150000  0.60350000  0.89560000  1.0 0.5633979551
Co  Co17  1  0.74850000  0.60350000  0.10440000  1.0 0.5656871973
Co  Co18  1  0.74850000  0.39650000  0.89560000  1.0 0.5656871973
Co  Co19  1  0.89560000  0.25150000  0.60350000  1.0 0.5656871973
Co  Co20  1  0.10440000  0.74850000  0.60350000  1.0 0.5633979551
Co  Co21  1  0.89560000  0.74850000  0.39650000  1.0 0.5656871973
Co  Co22  1  0.89560000  0.60350000  0.74850000  1.0 0.5656871973
Co  Co23  1  0.60350000  0.74850000  0.89560000  1.0 0.5633979551
Co  Co24  1  0.74850000  0.89560000  0.60350000  1.0 0.5656871973
Co  Co25  1  0.60350000  0.89560000  0.74850000  1.0 0.5656871973
Co  Co26  1  0.74850000  0.60350000  0.89560000  1.0 0.5656871973
Co  Co27  1  0.89560000  0.74850000  0.60350000  1.0 0.5656871973
Co  Co28  1  0.89560000  0.60350000  0.25150000  1.0 0.5656871973
Co  Co29  1  0.89560000  0.39650000  0.74850000  1.0 0.5656871973
Co  Co30  1  0.10440000  0.60350000  0.74850000  1.0 0.5633979551
Co  Co31  1  0.60350000  0.74850000  0.10440000  1.0 0.5633979551
Co  Co32  1  0.39650000  0.74850000  0.89560000  1.0 0.5633979551
Co  Co33  1  0.60350000  0.25150000  0.89560000  1.0 0.5633979551
Co  Co34  1  0.74850000  0.89560000  0.39650000  1.0 0.5656871973
Co  Co35  1  0.74850000  0.10440000  0.60350000  1.0 0.5656871973
Co  Co36  1  0.25150000  0.89560000  0.60350000  1.0 0.5633979551
Co  Co37  1  0.39650000  0.10440000  0.74850000  1.0 0.5633979551
Co  Co38  1  0.39650000  0.89560000  0.25150000  1.0 0.5633979551
Co  Co39  1  0.60350000  0.10440000  0.25150000  1.0 0.5633979551
Co  Co40  1  0.74850000  0.39650000  0.10440000  1.0 0.5656871973
Co  Co41  1  0.25150000  0.39650000  0.89560000  1.0 0.5633979551
Co  Co42  1  0.25150000  0.60350000  0.10440000  1.0 0.5633979551
Co  Co43  1  0.10440000  0.74850000  0.39650000  1.0 0.5633979551
Co  Co44  1  0.89560000  0.25150000  0.39650000  1.0 0.5656871973
Co  Co45  1  0.10440000  0.25150000  0.60350000  1.0 0.5633979551
Co  Co46  1  0.10440000  0.39650000  0.25150000  1.0 0.5633979551
Co  Co47  1  0.39650000  0.25150000  0.10440000  1.0 0.5633979551
Co  Co48  1  0.25150000  0.10440000  0.39650000  1.0 0.5633979551
H  H1  1  0.42270000  0.00000000  0.27280000  1.0 0.1193492011
H  H2  1  0.27280000  0.42270000  0.00000000  1.0 0.1193492011
H  H3  1  0.00000000  0.27280000  0.42270000  1.0 0.1193492011
H  H4  1  0.00000000  0.42270000  0.72720000  1.0 0.1193492011
H  H5  1  0.00000000  0.57730000  0.27280000  1.0 0.1193492011
H  H6  1  0.00000000  0.42270000  0.27280000  1.0 0.1193492011
H  H7  1  0.42270000  0.27280000  0.00000000  1.0 0.1193492011
H  H8  1  0.57730000  0.27280000  0.00000000  1.0 0.1193492011
H  H9  1  0.42270000  0.72720000  0.00000000  1.0 0.1193492011
H  H10  1  0.27280000  0.00000000  0.57730000  1.0 0.1193492011
H  H11  1  0.27280000  0.00000000  0.42270000  1.0 0.1193492011
H  H12  1  0.72720000  0.00000000  0.42270000  1.0 0.1193492011
H  H13  1  0.57730000  0.00000000  0.27280000  1.0 0.1193492011
H  H14  1  0.57730000  0.00000000  0.72720000  1.0 0.1193492011
H  H15  1  0.42270000  0.00000000  0.72720000  1.0 0.1193492011
H  H16  1  0.27280000  0.57730000  0.00000000  1.0 0.1193492011
H  H17  1  0.72720000  0.57730000  0.00000000  1.0 0.1193492011
H  H18  1  0.72720000  0.42270000  0.00000000  1.0 0.1193492011
H  H19  1  0.00000000  0.27280000  0.57730000  1.0 0.1193492011
H  H20  1  0.00000000  0.72720000  0.57730000  1.0 0.1193492011
H  H21  1  0.00000000  0.72720000  0.42270000  1.0 0.1193492011
H  H22  1  0.00000000  0.57730000  0.72720000  1.0 0.1193492011
H  H23  1  0.57730000  0.72720000  0.00000000  1.0 0.1193492011
H  H24  1  0.72720000  0.00000000  0.57730000  1.0 0.1193492011
H  H25  1  0.29860000  0.08230000  0.19890000  1.0 0.1417490389
H  H26  1  0.19890000  0.29860000  0.08230000  1.0 0.1417490389
H  H27  1  0.08230000  0.19890000  0.29860000  1.0 0.1417490389
H  H28  1  0.08230000  0.29860000  0.80110000  1.0 0.1417490389
H  H29  1  0.08230000  0.70140000  0.19890000  1.0 0.1417490389
H  H30  1  0.91770000  0.29860000  0.19890000  1.0 0.1417490389
H  H31  1  0.29860000  0.19890000  0.91770000  1.0 0.1417490389
H  H32  1  0.70140000  0.19890000  0.08230000  1.0 0.1417490389
H  H33  1  0.29860000  0.80110000  0.08230000  1.0 0.1417490389
H  H34  1  0.19890000  0.08230000  0.70140000  1.0 0.1417490389
H  H35  1  0.19890000  0.91770000  0.29860000  1.0 0.1417490389
H  H36  1  0.80110000  0.08230000  0.29860000  1.0 0.1417490389
H  H37  1  0.70140000  0.91770000  0.19890000  1.0 0.1417490389
H  H38  1  0.70140000  0.08230000  0.80110000  1.0 0.1417490389
H  H39  1  0.29860000  0.91770000  0.80110000  1.0 0.1417490389
H  H40  1  0.19890000  0.70140000  0.91770000  1.0 0.1417490389
H  H41  1  0.80110000  0.70140000  0.08230000  1.0 0.1417490389
H  H42  1  0.80110000  0.29860000  0.91770000  1.0 0.1417490389
H  H43  1  0.91770000  0.19890000  0.70140000  1.0 0.1417490389
H  H44  1  0.08230000  0.80110000  0.70140000  1.0 0.1417490389
H  H45  1  0.91770000  0.80110000  0.29860000  1.0 0.1417490389
H  H46  1  0.91770000  0.70140000  0.80110000  1.0 0.1417490389
H  H47  1  0.70140000  0.80110000  0.91770000  1.0 0.1417490389
H  H48  1  0.80110000  0.91770000  0.70140000  1.0 0.1417490389
H  H49  1  0.70140000  0.91770000  0.80110000  1.0 0.1417490389
H  H50  1  0.80110000  0.70140000  0.91770000  1.0 0.1417490389
H  H51  1  0.91770000  0.80110000  0.70140000  1.0 0.1417490389
H  H52  1  0.91770000  0.70140000  0.19890000  1.0 0.1417490389
H  H53  1  0.91770000  0.29860000  0.80110000  1.0 0.1417490389
H  H54  1  0.08230000  0.70140000  0.80110000  1.0 0.1417490389
H  H55  1  0.70140000  0.80110000  0.08230000  1.0 0.1417490389
H  H56  1  0.29860000  0.80110000  0.91770000  1.0 0.1417490389
H  H57  1  0.70140000  0.19890000  0.91770000  1.0 0.1417490389
H  H58  1  0.80110000  0.91770000  0.29860000  1.0 0.1417490389
H  H59  1  0.80110000  0.08230000  0.70140000  1.0 0.1417490389
H  H60  1  0.19890000  0.91770000  0.70140000  1.0 0.1417490389
H  H61  1  0.29860000  0.08230000  0.80110000  1.0 0.1417490389
H  H62  1  0.29860000  0.91770000  0.19890000  1.0 0.1417490389
H  H63  1  0.70140000  0.08230000  0.19890000  1.0 0.1417490389
H  H64  1  0.80110000  0.29860000  0.08230000  1.0 0.1417490389
H  H65  1  0.19890000  0.29860000  0.91770000  1.0 0.1417490389
H  H66  1  0.19890000  0.70140000  0.08230000  1.0 0.1417490389
H  H67  1  0.08230000  0.80110000  0.29860000  1.0 0.1417490389
H  H68  1  0.91770000  0.19890000  0.29860000  1.0 0.1417490389
H  H69  1  0.08230000  0.19890000  0.70140000  1.0 0.1417490389
H  H70  1  0.08230000  0.29860000  0.19890000  1.0 0.1417490389
H  H71  1  0.29860000  0.19890000  0.08230000  1.0 0.1417490389
H  H72  1  0.19890000  0.08230000  0.29860000  1.0 0.1417490389
H  H73  1  0.24050000  0.04020000  0.16620000  1.0 0.1193492011
H  H74  1  0.16620000  0.24050000  0.04020000  1.0 0.1193492011
H  H75  1  0.04020000  0.16620000  0.24050000  1.0 0.1193492011
H  H76  1  0.04020000  0.24050000  0.83380000  1.0 0.1193492011
H  H77  1  0.04020000  0.75950000  0.16620000  1.0 0.1193492011
H  H78  1  0.95980000  0.24050000  0.16620000  1.0 0.1193492011
H  H79  1  0.24050000  0.16620000  0.95980000  1.0 0.1193492011
H  H80  1  0.75950000  0.16620000  0.04020000  1.0 0.1193492011
H  H81  1  0.24050000  0.83380000  0.04020000  1.0 0.1193492011
H  H82  1  0.16620000  0.04020000  0.75950000  1.0 0.1193492011
H  H83  1  0.16620000  0.95980000  0.24050000  1.0 0.1193492011
H  H84  1  0.83380000  0.04020000  0.24050000  1.0 0.1193492011
H  H85  1  0.75950000  0.95980000  0.16620000  1.0 0.1193492011
H  H86  1  0.75950000  0.04020000  0.83380000  1.0 0.1193492011
H  H87  1  0.24050000  0.95980000  0.83380000  1.0 0.1193492011
H  H88  1  0.16620000  0.75950000  0.95980000  1.0 0.1193492011
H  H89  1  0.83380000  0.75950000  0.04020000  1.0 0.1193492011
H  H90  1  0.83380000  0.24050000  0.95980000  1.0 0.1193492011
H  H91  1  0.95980000  0.16620000  0.75950000  1.0 0.1193492011
H  H92  1  0.04020000  0.83380000  0.75950000  1.0 0.1193492011
H  H93  1  0.95980000  0.83380000  0.24050000  1.0 0.1193492011
H  H94  1  0.95980000  0.75950000  0.83380000  1.0 0.1193492011
H  H95  1  0.75950000  0.83380000  0.95980000  1.0 0.1193492011
H  H96  1  0.83380000  0.95980000  0.75950000  1.0 0.1193492011
H  H97  1  0.75950000  0.95980000  0.83380000  1.0 0.1193492011
H  H98  1  0.83380000  0.75950000  0.95980000  1.0 0.1193492011
H  H99  1  0.95980000  0.83380000  0.75950000  1.0 0.1193492011
H  H100  1  0.95980000  0.75950000  0.16620000  1.0 0.1193492011
H  H101  1  0.95980000  0.24050000  0.83380000  1.0 0.1193492011
H  H102  1  0.04020000  0.75950000  0.83380000  1.0 0.1193492011
H  H103  1  0.75950000  0.83380000  0.04020000  1.0 0.1193492011
H  H104  1  0.24050000  0.83380000  0.95980000  1.0 0.1193492011
H  H105  1  0.75950000  0.16620000  0.95980000  1.0 0.1193492011
H  H106  1  0.83380000  0.95980000  0.24050000  1.0 0.1193492011
H  H107  1  0.83380000  0.04020000  0.75950000  1.0 0.1193492011
H  H108  1  0.16620000  0.95980000  0.75950000  1.0 0.1193492011
H  H109  1  0.24050000  0.04020000  0.83380000  1.0 0.1193492011
H  H110  1  0.24050000  0.95980000  0.16620000  1.0 0.1193492011
H  H111  1  0.75950000  0.04020000  0.16620000  1.0 0.1193492011
H  H112  1  0.83380000  0.24050000  0.04020000  1.0 0.1193492011
H  H113  1  0.16620000  0.24050000  0.95980000  1.0 0.1193492011
H  H114  1  0.16620000  0.75950000  0.04020000  1.0 0.1193492011
H  H115  1  0.04020000  0.83380000  0.24050000  1.0 0.1193492011
H  H116  1  0.95980000  0.16620000  0.24050000  1.0 0.1193492011
H  H117  1  0.04020000  0.16620000  0.75950000  1.0 0.1193492011
H  H118  1  0.04020000  0.24050000  0.16620000  1.0 0.1193492011
H  H119  1  0.24050000  0.16620000  0.04020000  1.0 0.1193492011
H  H120  1  0.16620000  0.04020000  0.24050000  1.0 0.1193492011
H  H121  1  0.37960000  0.20070000  0.20070000  1.0 0.1193492011
H  H122  1  0.20070000  0.37960000  0.20070000  1.0 0.1193492011
H  H123  1  0.20070000  0.20070000  0.37960000  1.0 0.1193492011
H  H124  1  0.20070000  0.37960000  0.79930000  1.0 0.1193492011
H  H125  1  0.20070000  0.62040000  0.20070000  1.0 0.1193492011
H  H126  1  0.79930000  0.37960000  0.20070000  1.0 0.1193492011
H  H127  1  0.37960000  0.20070000  0.79930000  1.0 0.1193492011
H  H128  1  0.62040000  0.20070000  0.20070000  1.0 0.1193492011
H  H129  1  0.37960000  0.79930000  0.20070000  1.0 0.1193492011
H  H130  1  0.20070000  0.20070000  0.62040000  1.0 0.1193492011
H  H131  1  0.20070000  0.79930000  0.37960000  1.0 0.1193492011
H  H132  1  0.79930000  0.20070000  0.37960000  1.0 0.1193492011
H  H133  1  0.62040000  0.79930000  0.20070000  1.0 0.1193492011
H  H134  1  0.62040000  0.20070000  0.79930000  1.0 0.1193492011
H  H135  1  0.37960000  0.79930000  0.79930000  1.0 0.1193492011
H  H136  1  0.20070000  0.62040000  0.79930000  1.0 0.1193492011
H  H137  1  0.79930000  0.62040000  0.20070000  1.0 0.1193492011
H  H138  1  0.79930000  0.37960000  0.79930000  1.0 0.1193492011
H  H139  1  0.79930000  0.20070000  0.62040000  1.0 0.1193492011
H  H140  1  0.20070000  0.79930000  0.62040000  1.0 0.1193492011
H  H141  1  0.79930000  0.79930000  0.37960000  1.0 0.1193492011
H  H142  1  0.79930000  0.62040000  0.79930000  1.0 0.1193492011
H  H143  1  0.62040000  0.79930000  0.79930000  1.0 0.1193492011
H  H144  1  0.79930000  0.79930000  0.62040000  1.0 0.1193492011
H  H145  1  0.41320000  0.04000000  0.15560000  1.0 0.0990850578
H  H146  1  0.15560000  0.41320000  0.04000000  1.0 0.0990850578
H  H147  1  0.04000000  0.15560000  0.41320000  1.0 0.0990850578
H  H148  1  0.04000000  0.41320000  0.84440000  1.0 0.0990850578
H  H149  1  0.04000000  0.58680000  0.15560000  1.0 0.0990850578
H  H150  1  0.96000000  0.41320000  0.15560000  1.0 0.0990850578
H  H151  1  0.41320000  0.15560000  0.96000000  1.0 0.0990850578
H  H152  1  0.58680000  0.15560000  0.04000000  1.0 0.0990850578
H  H153  1  0.41320000  0.84440000  0.04000000  1.0 0.0990850578
H  H154  1  0.15560000  0.04000000  0.58680000  1.0 0.0990850578
H  H155  1  0.15560000  0.96000000  0.41320000  1.0 0.0990850578
H  H156  1  0.84440000  0.04000000  0.41320000  1.0 0.0990850578
H  H157  1  0.58680000  0.96000000  0.15560000  1.0 0.0990850578
H  H158  1  0.58680000  0.04000000  0.84440000  1.0 0.0990850578
H  H159  1  0.41320000  0.96000000  0.84440000  1.0 0.0990850578
H  H160  1  0.15560000  0.58680000  0.96000000  1.0 0.0990850578
H  H161  1  0.84440000  0.58680000  0.04000000  1.0 0.0990850578
H  H162  1  0.84440000  0.41320000  0.96000000  1.0 0.0990850578
H  H163  1  0.96000000  0.15560000  0.58680000  1.0 0.0990850578
H  H164  1  0.04000000  0.84440000  0.58680000  1.0 0.0990850578
H  H165  1  0.96000000  0.84440000  0.41320000  1.0 0.0990850578
H  H166  1  0.96000000  0.58680000  0.84440000  1.0 0.0990850578
H  H167  1  0.58680000  0.84440000  0.96000000  1.0 0.0990850578
H  H168  1  0.84440000  0.96000000  0.58680000  1.0 0.0990850578
H  H169  1  0.58680000  0.96000000  0.84440000  1.0 0.0990850578
H  H170  1  0.84440000  0.58680000  0.96000000  1.0 0.0990850578
H  H171  1  0.96000000  0.84440000  0.58680000  1.0 0.0990850578
H  H172  1  0.96000000  0.58680000  0.15560000  1.0 0.0990850578
H  H173  1  0.96000000  0.41320000  0.84440000  1.0 0.0990850578
H  H174  1  0.04000000  0.58680000  0.84440000  1.0 0.0990850578
H  H175  1  0.58680000  0.84440000  0.04000000  1.0 0.0990850578
H  H176  1  0.41320000  0.84440000  0.96000000  1.0 0.0990850578
H  H177  1  0.58680000  0.15560000  0.96000000  1.0 0.0990850578
H  H178  1  0.84440000  0.96000000  0.41320000  1.0 0.0990850578
H  H179  1  0.84440000  0.04000000  0.58680000  1.0 0.0990850578
H  H180  1  0.15560000  0.96000000  0.58680000  1.0 0.0990850578
H  H181  1  0.41320000  0.04000000  0.84440000  1.0 0.0990850578
H  H182  1  0.41320000  0.96000000  0.15560000  1.0 0.0990850578
H  H183  1  0.58680000  0.04000000  0.15560000  1.0 0.0990850578
H  H184  1  0.84440000  0.41320000  0.04000000  1.0 0.0990850578
H  H185  1  0.15560000  0.41320000  0.96000000  1.0 0.0990850578
H  H186  1  0.15560000  0.58680000  0.04000000  1.0 0.0990850578
H  H187  1  0.04000000  0.84440000  0.41320000  1.0 0.0990850578
H  H188  1  0.96000000  0.15560000  0.41320000  1.0 0.0990850578
H  H189  1  0.04000000  0.15560000  0.58680000  1.0 0.0990850578
H  H190  1  0.04000000  0.41320000  0.15560000  1.0 0.0990850578
H  H191  1  0.41320000  0.15560000  0.04000000  1.0 0.0990850578
H  H192  1  0.15560000  0.04000000  0.41320000  1.0 0.0990850578
H  H193  1  0.41710000  0.02240000  0.07750000  1.0 0.069383089
H  H194  1  0.07750000  0.41710000  0.02240000  1.0 0.069383089
H  H195  1  0.02240000  0.07750000  0.41710000  1.0 0.069383089
H  H196  1  0.02240000  0.41710000  0.92250000  1.0 0.069383089
H  H197  1  0.02240000  0.58290000  0.07750000  1.0 0.069383089
H  H198  1  0.97760000  0.41710000  0.07750000  1.0 0.069383089
H  H199  1  0.41710000  0.07750000  0.97760000  1.0 0.069383089
H  H200  1  0.58290000  0.07750000  0.02240000  1.0 0.069383089
H  H201  1  0.41710000  0.92250000  0.02240000  1.0 0.069383089
H  H202  1  0.07750000  0.02240000  0.58290000  1.0 0.069383089
H  H203  1  0.07750000  0.97760000  0.41710000  1.0 0.069383089
H  H204  1  0.92250000  0.02240000  0.41710000  1.0 0.069383089
H  H205  1  0.58290000  0.97760000  0.07750000  1.0 0.069383089
H  H206  1  0.58290000  0.02240000  0.92250000  1.0 0.069383089
H  H207  1  0.41710000  0.97760000  0.92250000  1.0 0.069383089
H  H208  1  0.07750000  0.58290000  0.97760000  1.0 0.069383089
H  H209  1  0.92250000  0.58290000  0.02240000  1.0 0.069383089
H  H210  1  0.92250000  0.41710000  0.97760000  1.0 0.069383089
H  H211  1  0.97760000  0.07750000  0.58290000  1.0 0.069383089
H  H212  1  0.02240000  0.92250000  0.58290000  1.0 0.069383089
H  H213  1  0.97760000  0.92250000  0.41710000  1.0 0.069383089
H  H214  1  0.97760000  0.58290000  0.92250000  1.0 0.069383089
H  H215  1  0.58290000  0.92250000  0.97760000  1.0 0.069383089
H  H216  1  0.92250000  0.97760000  0.58290000  1.0 0.069383089
H  H217  1  0.58290000  0.97760000  0.92250000  1.0 0.069383089
H  H218  1  0.92250000  0.58290000  0.97760000  1.0 0.069383089
H  H219  1  0.97760000  0.92250000  0.58290000  1.0 0.069383089
H  H220  1  0.97760000  0.58290000  0.07750000  1.0 0.069383089
H  H221  1  0.97760000  0.41710000  0.92250000  1.0 0.069383089
H  H222  1  0.02240000  0.58290000  0.92250000  1.0 0.069383089
H  H223  1  0.58290000  0.92250000  0.02240000  1.0 0.069383089
H  H224  1  0.41710000  0.92250000  0.97760000  1.0 0.069383089
H  H225  1  0.58290000  0.07750000  0.97760000  1.0 0.069383089
H  H226  1  0.92250000  0.97760000  0.41710000  1.0 0.069383089
H  H227  1  0.92250000  0.02240000  0.58290000  1.0 0.069383089
H  H228  1  0.07750000  0.97760000  0.58290000  1.0 0.069383089
H  H229  1  0.41710000  0.02240000  0.92250000  1.0 0.069383089
H  H230  1  0.41710000  0.97760000  0.07750000  1.0 0.069383089
H  H231  1  0.58290000  0.02240000  0.07750000  1.0 0.069383089
H  H232  1  0.92250000  0.41710000  0.02240000  1.0 0.069383089
H  H233  1  0.07750000  0.41710000  0.97760000  1.0 0.069383089
H  H234  1  0.07750000  0.58290000  0.02240000  1.0 0.069383089
H  H235  1  0.02240000  0.92250000  0.41710000  1.0 0.069383089
H  H236  1  0.97760000  0.07750000  0.41710000  1.0 0.069383089
H  H237  1  0.02240000  0.07750000  0.58290000  1.0 0.069383089
H  H238  1  0.02240000  0.41710000  0.07750000  1.0 0.069383089
H  H239  1  0.41710000  0.07750000  0.02240000  1.0 0.069383089
H  H240  1  0.07750000  0.02240000  0.41710000  1.0 0.069383089
H  H241  1  0.40950000  0.21540000  0.29440000  1.0 0.1417490389
H  H242  1  0.29440000  0.40950000  0.21540000  1.0 0.1417490389
H  H243  1  0.21540000  0.29440000  0.40950000  1.0 0.1417490389
H  H244  1  0.21540000  0.40950000  0.70560000  1.0 0.1417490389
H  H245  1  0.21540000  0.59050000  0.29440000  1.0 0.1417490389
H  H246  1  0.78460000  0.40950000  0.29440000  1.0 0.1417490389
H  H247  1  0.40950000  0.29440000  0.78460000  1.0 0.1417490389
H  H248  1  0.59050000  0.29440000  0.21540000  1.0 0.1417490389
H  H249  1  0.40950000  0.70560000  0.21540000  1.0 0.1417490389
H  H250  1  0.29440000  0.21540000  0.59050000  1.0 0.1417490389
H  H251  1  0.29440000  0.78460000  0.40950000  1.0 0.1417490389
H  H252  1  0.70560000  0.21540000  0.40950000  1.0 0.1417490389
H  H253  1  0.59050000  0.78460000  0.29440000  1.0 0.1417490389
H  H254  1  0.59050000  0.21540000  0.70560000  1.0 0.1417490389
H  H255  1  0.40950000  0.78460000  0.70560000  1.0 0.1417490389
H  H256  1  0.29440000  0.59050000  0.78460000  1.0 0.1417490389
H  H257  1  0.70560000  0.59050000  0.21540000  1.0 0.1417490389
H  H258  1  0.70560000  0.40950000  0.78460000  1.0 0.1417490389
H  H259  1  0.78460000  0.29440000  0.59050000  1.0 0.1417490389
H  H260  1  0.21540000  0.70560000  0.59050000  1.0 0.1417490389
H  H261  1  0.78460000  0.70560000  0.40950000  1.0 0.1417490389
H  H262  1  0.78460000  0.59050000  0.70560000  1.0 0.1417490389
H  H263  1  0.59050000  0.70560000  0.78460000  1.0 0.1417490389
H  H264  1  0.70560000  0.78460000  0.59050000  1.0 0.1417490389
H  H265  1  0.59050000  0.78460000  0.70560000  1.0 0.1417490389
H  H266  1  0.70560000  0.59050000  0.78460000  1.0 0.1417490389
H  H267  1  0.78460000  0.70560000  0.59050000  1.0 0.1417490389
H  H268  1  0.78460000  0.59050000  0.29440000  1.0 0.1417490389
H  H269  1  0.78460000  0.40950000  0.70560000  1.0 0.1417490389
H  H270  1  0.21540000  0.59050000  0.70560000  1.0 0.1417490389
H  H271  1  0.59050000  0.70560000  0.21540000  1.0 0.1417490389
H  H272  1  0.40950000  0.70560000  0.78460000  1.0 0.1417490389
H  H273  1  0.59050000  0.29440000  0.78460000  1.0 0.1417490389
H  H274  1  0.70560000  0.78460000  0.40950000  1.0 0.1417490389
H  H275  1  0.70560000  0.21540000  0.59050000  1.0 0.1417490389
H  H276  1  0.29440000  0.78460000  0.59050000  1.0 0.1417490389
H  H277  1  0.40950000  0.21540000  0.70560000  1.0 0.1417490389
H  H278  1  0.40950000  0.78460000  0.29440000  1.0 0.1417490389
H  H279  1  0.59050000  0.21540000  0.29440000  1.0 0.1417490389
H  H280  1  0.70560000  0.40950000  0.21540000  1.0 0.1417490389
H  H281  1  0.29440000  0.40950000  0.78460000  1.0 0.1417490389
H  H282  1  0.29440000  0.59050000  0.21540000  1.0 0.1417490389
H  H283  1  0.21540000  0.70560000  0.40950000  1.0 0.1417490389
H  H284  1  0.78460000  0.29440000  0.40950000  1.0 0.1417490389
H  H285  1  0.21540000  0.29440000  0.59050000  1.0 0.1417490389
H  H286  1  0.21540000  0.40950000  0.29440000  1.0 0.1417490389
H  H287  1  0.40950000  0.29440000  0.21540000  1.0 0.1417490389
H  H288  1  0.29440000  0.21540000  0.40950000  1.0 0.1417490389
H  H289  1  0.38820000  0.28360000  0.32990000  1.0 0.069383089
H  H290  1  0.32990000  0.38820000  0.28360000  1.0 0.069383089
H  H291  1  0.28360000  0.32990000  0.38820000  1.0 0.069383089
H  H292  1  0.28360000  0.38820000  0.67010000  1.0 0.069383089
H  H293  1  0.28360000  0.61180000  0.32990000  1.0 0.069383089
H  H294  1  0.71640000  0.38820000  0.32990000  1.0 0.069383089
H  H295  1  0.38820000  0.32990000  0.71640000  1.0 0.069383089
H  H296  1  0.61180000  0.32990000  0.28360000  1.0 0.069383089
H  H297  1  0.38820000  0.67010000  0.28360000  1.0 0.069383089
H  H298  1  0.32990000  0.28360000  0.61180000  1.0 0.069383089
H  H299  1  0.32990000  0.71640000  0.38820000  1.0 0.069383089
H  H300  1  0.67010000  0.28360000  0.38820000  1.0 0.069383089
H  H301  1  0.61180000  0.71640000  0.32990000  1.0 0.069383089
H  H302  1  0.61180000  0.28360000  0.67010000  1.0 0.069383089
H  H303  1  0.38820000  0.71640000  0.67010000  1.0 0.069383089
H  H304  1  0.32990000  0.61180000  0.71640000  1.0 0.069383089
H  H305  1  0.67010000  0.61180000  0.28360000  1.0 0.069383089
H  H306  1  0.67010000  0.38820000  0.71640000  1.0 0.069383089
H  H307  1  0.71640000  0.32990000  0.61180000  1.0 0.069383089
H  H308  1  0.28360000  0.67010000  0.61180000  1.0 0.069383089
H  H309  1  0.71640000  0.67010000  0.38820000  1.0 0.069383089
H  H310  1  0.71640000  0.61180000  0.67010000  1.0 0.069383089
H  H311  1  0.61180000  0.67010000  0.71640000  1.0 0.069383089
H  H312  1  0.67010000  0.71640000  0.61180000  1.0 0.069383089
H  H313  1  0.61180000  0.71640000  0.67010000  1.0 0.069383089
H  H314  1  0.67010000  0.61180000  0.71640000  1.0 0.069383089
H  H315  1  0.71640000  0.67010000  0.61180000  1.0 0.069383089
H  H316  1  0.71640000  0.61180000  0.32990000  1.0 0.069383089
H  H317  1  0.71640000  0.38820000  0.67010000  1.0 0.069383089
H  H318  1  0.28360000  0.61180000  0.67010000  1.0 0.069383089
H  H319  1  0.61180000  0.67010000  0.28360000  1.0 0.069383089
H  H320  1  0.38820000  0.67010000  0.71640000  1.0 0.069383089
H  H321  1  0.61180000  0.32990000  0.71640000  1.0 0.069383089
H  H322  1  0.67010000  0.71640000  0.38820000  1.0 0.069383089
H  H323  1  0.67010000  0.28360000  0.61180000  1.0 0.069383089
H  H324  1  0.32990000  0.71640000  0.61180000  1.0 0.069383089
H  H325  1  0.38820000  0.28360000  0.67010000  1.0 0.069383089
H  H326  1  0.38820000  0.71640000  0.32990000  1.0 0.069383089
H  H327  1  0.61180000  0.28360000  0.32990000  1.0 0.069383089
H  H328  1  0.67010000  0.38820000  0.28360000  1.0 0.069383089
H  H329  1  0.32990000  0.38820000  0.71640000  1.0 0.069383089
H  H330  1  0.32990000  0.61180000  0.28360000  1.0 0.069383089
H  H331  1  0.28360000  0.67010000  0.38820000  1.0 0.069383089
H  H332  1  0.71640000  0.32990000  0.38820000  1.0 0.069383089
H  H333  1  0.28360000  0.32990000  0.61180000  1.0 0.069383089
H  H334  1  0.28360000  0.38820000  0.32990000  1.0 0.069383089
H  H335  1  0.38820000  0.32990000  0.28360000  1.0 0.069383089
H  H336  1  0.32990000  0.28360000  0.38820000  1.0 0.069383089
H  H337  1  0.41790000  0.06020000  0.35440000  1.0 0.0790596167
H  H338  1  0.35440000  0.41790000  0.06020000  1.0 0.0790596167
H  H339  1  0.06020000  0.35440000  0.41790000  1.0 0.0790596167
H  H340  1  0.06020000  0.41790000  0.64560000  1.0 0.0790596167
H  H341  1  0.06020000  0.58210000  0.35440000  1.0 0.0790596167
H  H342  1  0.93980000  0.41790000  0.35440000  1.0 0.0790596167
H  H343  1  0.41790000  0.35440000  0.93980000  1.0 0.0790596167
H  H344  1  0.58210000  0.35440000  0.06020000  1.0 0.0790596167
H  H345  1  0.41790000  0.64560000  0.06020000  1.0 0.0790596167
H  H346  1  0.35440000  0.06020000  0.58210000  1.0 0.0790596167
H  H347  1  0.35440000  0.93980000  0.41790000  1.0 0.0790596167
H  H348  1  0.64560000  0.06020000  0.41790000  1.0 0.0790596167
H  H349  1  0.58210000  0.93980000  0.35440000  1.0 0.0790596167
H  H350  1  0.58210000  0.06020000  0.64560000  1.0 0.0790596167
H  H351  1  0.41790000  0.93980000  0.64560000  1.0 0.0790596167
H  H352  1  0.35440000  0.58210000  0.93980000  1.0 0.0790596167
H  H353  1  0.64560000  0.58210000  0.06020000  1.0 0.0790596167
H  H354  1  0.64560000  0.41790000  0.93980000  1.0 0.0790596167
H  H355  1  0.93980000  0.35440000  0.58210000  1.0 0.0790596167
H  H356  1  0.06020000  0.64560000  0.58210000  1.0 0.0790596167
H  H357  1  0.93980000  0.64560000  0.41790000  1.0 0.0790596167
H  H358  1  0.93980000  0.58210000  0.64560000  1.0 0.0790596167
H  H359  1  0.58210000  0.64560000  0.93980000  1.0 0.0790596167
H  H360  1  0.64560000  0.93980000  0.58210000  1.0 0.0790596167
H  H361  1  0.58210000  0.93980000  0.64560000  1.0 0.0790596167
H  H362  1  0.64560000  0.58210000  0.93980000  1.0 0.0790596167
H  H363  1  0.93980000  0.64560000  0.58210000  1.0 0.0790596167
H  H364  1  0.93980000  0.58210000  0.35440000  1.0 0.0790596167
H  H365  1  0.93980000  0.41790000  0.64560000  1.0 0.0790596167
H  H366  1  0.06020000  0.58210000  0.64560000  1.0 0.0790596167
H  H367  1  0.58210000  0.64560000  0.06020000  1.0 0.0790596167
H  H368  1  0.41790000  0.64560000  0.93980000  1.0 0.0790596167
H  H369  1  0.58210000  0.35440000  0.93980000  1.0 0.0790596167
H  H370  1  0.64560000  0.93980000  0.41790000  1.0 0.0790596167
H  H371  1  0.64560000  0.06020000  0.58210000  1.0 0.0790596167
H  H372  1  0.35440000  0.93980000  0.58210000  1.0 0.0790596167
H  H373  1  0.41790000  0.06020000  0.64560000  1.0 0.0790596167
H  H374  1  0.41790000  0.93980000  0.35440000  1.0 0.0790596167
H  H375  1  0.58210000  0.06020000  0.35440000  1.0 0.0790596167
H  H376  1  0.64560000  0.41790000  0.06020000  1.0 0.0790596167
H  H377  1  0.35440000  0.41790000  0.93980000  1.0 0.0790596167
H  H378  1  0.35440000  0.58210000  0.06020000  1.0 0.0790596167
H  H379  1  0.06020000  0.64560000  0.41790000  1.0 0.0790596167
H  H380  1  0.93980000  0.35440000  0.41790000  1.0 0.0790596167
H  H381  1  0.06020000  0.35440000  0.58210000  1.0 0.0790596167
H  H382  1  0.06020000  0.41790000  0.35440000  1.0 0.0790596167
H  H383  1  0.41790000  0.35440000  0.06020000  1.0 0.0790596167
H  H384  1  0.35440000  0.06020000  0.41790000  1.0 0.0790596167
H  H385  1  0.46150000  0.01620000  0.40840000  1.0 0.0790596167
H  H386  1  0.40840000  0.46150000  0.01620000  1.0 0.0790596167
H  H387  1  0.01620000  0.40840000  0.46150000  1.0 0.0790596167
H  H388  1  0.01620000  0.46150000  0.59160000  1.0 0.0790596167
H  H389  1  0.01620000  0.53850000  0.40840000  1.0 0.0790596167
H  H390  1  0.98380000  0.46150000  0.40840000  1.0 0.0790596167
H  H391  1  0.46150000  0.40840000  0.98380000  1.0 0.0790596167
H  H392  1  0.53850000  0.40840000  0.01620000  1.0 0.0790596167
H  H393  1  0.46150000  0.59160000  0.01620000  1.0 0.0790596167
H  H394  1  0.40840000  0.01620000  0.53850000  1.0 0.0790596167
H  H395  1  0.40840000  0.98380000  0.46150000  1.0 0.0790596167
H  H396  1  0.59160000  0.01620000  0.46150000  1.0 0.0790596167
H  H397  1  0.53850000  0.98380000  0.40840000  1.0 0.0790596167
H  H398  1  0.53850000  0.01620000  0.59160000  1.0 0.0790596167
H  H399  1  0.46150000  0.98380000  0.59160000  1.0 0.0790596167
H  H400  1  0.40840000  0.53850000  0.98380000  1.0 0.0790596167
H  H401  1  0.59160000  0.53850000  0.01620000  1.0 0.0790596167
H  H402  1  0.59160000  0.46150000  0.98380000  1.0 0.0790596167
H  H403  1  0.98380000  0.40840000  0.53850000  1.0 0.0790596167
H  H404  1  0.01620000  0.59160000  0.53850000  1.0 0.0790596167
H  H405  1  0.98380000  0.59160000  0.46150000  1.0 0.0790596167
H  H406  1  0.98380000  0.53850000  0.59160000  1.0 0.0790596167
H  H407  1  0.53850000  0.59160000  0.98380000  1.0 0.0790596167
H  H408  1  0.59160000  0.98380000  0.53850000  1.0 0.0790596167
H  H409  1  0.53850000  0.98380000  0.59160000  1.0 0.0790596167
H  H410  1  0.59160000  0.53850000  0.98380000  1.0 0.0790596167
H  H411  1  0.98380000  0.59160000  0.53850000  1.0 0.0790596167
H  H412  1  0.98380000  0.53850000  0.40840000  1.0 0.0790596167
H  H413  1  0.98380000  0.46150000  0.59160000  1.0 0.0790596167
H  H414  1  0.01620000  0.53850000  0.59160000  1.0 0.0790596167
H  H415  1  0.53850000  0.59160000  0.01620000  1.0 0.0790596167
H  H416  1  0.46150000  0.59160000  0.98380000  1.0 0.0790596167
H  H417  1  0.53850000  0.40840000  0.98380000  1.0 0.0790596167
H  H418  1  0.59160000  0.98380000  0.46150000  1.0 0.0790596167
H  H419  1  0.59160000  0.01620000  0.53850000  1.0 0.0790596167
H  H420  1  0.40840000  0.98380000  0.53850000  1.0 0.0790596167
H  H421  1  0.46150000  0.01620000  0.59160000  1.0 0.0790596167
H  H422  1  0.46150000  0.98380000  0.40840000  1.0 0.0790596167
H  H423  1  0.53850000  0.01620000  0.40840000  1.0 0.0790596167
H  H424  1  0.59160000  0.46150000  0.01620000  1.0 0.0790596167
H  H425  1  0.40840000  0.46150000  0.98380000  1.0 0.0790596167
H  H426  1  0.40840000  0.53850000  0.01620000  1.0 0.0790596167
H  H427  1  0.01620000  0.59160000  0.46150000  1.0 0.0790596167
H  H428  1  0.98380000  0.40840000  0.46150000  1.0 0.0790596167
H  H429  1  0.01620000  0.40840000  0.53850000  1.0 0.0790596167
H  H430  1  0.01620000  0.46150000  0.40840000  1.0 0.0790596167
H  H431  1  0.46150000  0.40840000  0.01620000  1.0 0.0790596167
H  H432  1  0.40840000  0.01620000  0.46150000  1.0 0.0790596167
H  H433  1  0.50000000  0.12150000  0.22280000  1.0 0.1124782607
H  H434  1  0.22280000  0.50000000  0.12150000  1.0 0.1124782607
H  H435  1  0.12150000  0.22280000  0.50000000  1.0 0.1124782607
H  H436  1  0.12150000  0.50000000  0.77720000  1.0 0.1124782607
H  H437  1  0.12150000  0.50000000  0.22280000  1.0 0.1124782607
H  H438  1  0.87850000  0.50000000  0.22280000  1.0 0.1124782607
H  H439  1  0.50000000  0.22280000  0.87850000  1.0 0.1124782607
H  H440  1  0.50000000  0.22280000  0.12150000  1.0 0.1124782607
H  H441  1  0.50000000  0.77720000  0.12150000  1.0 0.1124782607
H  H442  1  0.22280000  0.12150000  0.50000000  1.0 0.1124782607
H  H443  1  0.22280000  0.87850000  0.50000000  1.0 0.1124782607
H  H444  1  0.77720000  0.12150000  0.50000000  1.0 0.1124782607
H  H445  1  0.50000000  0.87850000  0.22280000  1.0 0.1124782607
H  H446  1  0.50000000  0.12150000  0.77720000  1.0 0.1124782607
H  H447  1  0.50000000  0.87850000  0.77720000  1.0 0.1124782607
H  H448  1  0.22280000  0.50000000  0.87850000  1.0 0.1124782607
H  H449  1  0.77720000  0.50000000  0.12150000  1.0 0.1124782607
H  H450  1  0.77720000  0.50000000  0.87850000  1.0 0.1124782607
H  H451  1  0.87850000  0.22280000  0.50000000  1.0 0.1124782607
H  H452  1  0.12150000  0.77720000  0.50000000  1.0 0.1124782607
H  H453  1  0.87850000  0.77720000  0.50000000  1.0 0.1124782607
H  H454  1  0.87850000  0.50000000  0.77720000  1.0 0.1124782607
H  H455  1  0.50000000  0.77720000  0.87850000  1.0 0.1124782607
H  H456  1  0.77720000  0.87850000  0.50000000  1.0 0.1124782607
H  H457  1  0.44180000  0.05020000  0.16800000  1.0 0.0889224441
H  H458  1  0.16800000  0.44180000  0.05020000  1.0 0.0889224441
H  H459  1  0.05020000  0.16800000  0.44180000  1.0 0.0889224441
H  H460  1  0.05020000  0.44180000  0.83200000  1.0 0.0889224441
H  H461  1  0.05020000  0.55820000  0.16800000  1.0 0.0889224441
H  H462  1  0.94980000  0.44180000  0.16800000  1.0 0.0889224441
H  H463  1  0.44180000  0.16800000  0.94980000  1.0 0.0889224441
H  H464  1  0.55820000  0.16800000  0.05020000  1.0 0.0889224441
H  H465  1  0.44180000  0.83200000  0.05020000  1.0 0.0889224441
H  H466  1  0.16800000  0.05020000  0.55820000  1.0 0.0889224441
H  H467  1  0.16800000  0.94980000  0.44180000  1.0 0.0889224441
H  H468  1  0.83200000  0.05020000  0.44180000  1.0 0.0889224441
H  H469  1  0.55820000  0.94980000  0.16800000  1.0 0.0889224441
H  H470  1  0.55820000  0.05020000  0.83200000  1.0 0.0889224441
H  H471  1  0.44180000  0.94980000  0.83200000  1.0 0.0889224441
H  H472  1  0.16800000  0.55820000  0.94980000  1.0 0.0889224441
H  H473  1  0.83200000  0.55820000  0.05020000  1.0 0.0889224441
H  H474  1  0.83200000  0.44180000  0.94980000  1.0 0.0889224441
H  H475  1  0.94980000  0.16800000  0.55820000  1.0 0.0889224441
H  H476  1  0.05020000  0.83200000  0.55820000  1.0 0.0889224441
H  H477  1  0.94980000  0.83200000  0.44180000  1.0 0.0889224441
H  H478  1  0.94980000  0.55820000  0.83200000  1.0 0.0889224441
H  H479  1  0.55820000  0.83200000  0.94980000  1.0 0.0889224441
H  H480  1  0.83200000  0.94980000  0.55820000  1.0 0.0889224441
H  H481  1  0.55820000  0.94980000  0.83200000  1.0 0.0889224441
H  H482  1  0.83200000  0.55820000  0.94980000  1.0 0.0889224441
H  H483  1  0.94980000  0.83200000  0.55820000  1.0 0.0889224441
H  H484  1  0.94980000  0.55820000  0.16800000  1.0 0.0889224441
H  H485  1  0.94980000  0.44180000  0.83200000  1.0 0.0889224441
H  H486  1  0.05020000  0.55820000  0.83200000  1.0 0.0889224441
H  H487  1  0.55820000  0.83200000  0.05020000  1.0 0.0889224441
H  H488  1  0.44180000  0.83200000  0.94980000  1.0 0.0889224441
H  H489  1  0.55820000  0.16800000  0.94980000  1.0 0.0889224441
H  H490  1  0.83200000  0.94980000  0.44180000  1.0 0.0889224441
H  H491  1  0.83200000  0.05020000  0.55820000  1.0 0.0889224441
H  H492  1  0.16800000  0.94980000  0.55820000  1.0 0.0889224441
H  H493  1  0.44180000  0.05020000  0.83200000  1.0 0.0889224441
H  H494  1  0.44180000  0.94980000  0.16800000  1.0 0.0889224441
H  H495  1  0.55820000  0.05020000  0.16800000  1.0 0.0889224441
H  H496  1  0.83200000  0.44180000  0.05020000  1.0 0.0889224441
H  H497  1  0.16800000  0.44180000  0.94980000  1.0 0.0889224441
H  H498  1  0.16800000  0.55820000  0.05020000  1.0 0.0790596167
H  H499  1  0.05020000  0.83200000  0.44180000  1.0 0.0889224441
H  H500  1  0.94980000  0.16800000  0.44180000  1.0 0.0889224441
H  H501  1  0.05020000  0.16800000  0.55820000  1.0 0.0889224441
H  H502  1  0.05020000  0.44180000  0.16800000  1.0 0.0889224441
H  H503  1  0.44180000  0.16800000  0.05020000  1.0 0.0889224441
H  H504  1  0.16800000  0.05020000  0.44180000  1.0 0.0889224441
H  H505  1  0.47520000  0.04220000  0.09660000  1.0 0.0889224441
H  H506  1  0.09660000  0.47520000  0.04220000  1.0 0.0889224441
H  H507  1  0.04220000  0.09660000  0.47520000  1.0 0.0889224441
H  H508  1  0.04220000  0.47520000  0.90340000  1.0 0.0889224441
H  H509  1  0.04220000  0.52480000  0.09660000  1.0 0.0889224441
H  H510  1  0.95780000  0.47520000  0.09660000  1.0 0.0889224441
H  H511  1  0.47520000  0.09660000  0.95780000  1.0 0.0889224441
H  H512  1  0.52480000  0.09660000  0.04220000  1.0 0.0889224441
H  H513  1  0.47520000  0.90340000  0.04220000  1.0 0.0889224441
H  H514  1  0.09660000  0.04220000  0.52480000  1.0 0.0889224441
H  H515  1  0.09660000  0.95780000  0.47520000  1.0 0.0889224441
H  H516  1  0.90340000  0.04220000  0.47520000  1.0 0.0889224441
H  H517  1  0.52480000  0.95780000  0.09660000  1.0 0.0889224441
H  H518  1  0.52480000  0.04220000  0.90340000  1.0 0.0889224441
H  H519  1  0.47520000  0.95780000  0.90340000  1.0 0.0889224441
H  H520  1  0.09660000  0.52480000  0.95780000  1.0 0.0889224441
H  H521  1  0.90340000  0.52480000  0.04220000  1.0 0.0889224441
H  H522  1  0.90340000  0.47520000  0.95780000  1.0 0.0889224441
H  H523  1  0.95780000  0.09660000  0.52480000  1.0 0.0889224441
H  H524  1  0.04220000  0.90340000  0.52480000  1.0 0.0889224441
H  H525  1  0.95780000  0.90340000  0.47520000  1.0 0.0889224441
H  H526  1  0.95780000  0.52480000  0.90340000  1.0 0.0889224441
H  H527  1  0.52480000  0.90340000  0.95780000  1.0 0.0889224441
H  H528  1  0.90340000  0.95780000  0.52480000  1.0 0.0889224441
H  H529  1  0.52480000  0.95780000  0.90340000  1.0 0.0889224441
H  H530  1  0.90340000  0.52480000  0.95780000  1.0 0.0889224441
H  H531  1  0.95780000  0.90340000  0.52480000  1.0 0.0889224441
H  H532  1  0.95780000  0.52480000  0.09660000  1.0 0.0889224441
H  H533  1  0.95780000  0.47520000  0.90340000  1.0 0.0889224441
H  H534  1  0.04220000  0.52480000  0.90340000  1.0 0.0889224441
H  H535  1  0.52480000  0.90340000  0.04220000  1.0 0.0889224441
H  H536  1  0.47520000  0.90340000  0.95780000  1.0 0.0889224441
H  H537  1  0.52480000  0.09660000  0.95780000  1.0 0.0889224441
H  H538  1  0.90340000  0.95780000  0.47520000  1.0 0.0889224441
H  H539  1  0.90340000  0.04220000  0.52480000  1.0 0.0889224441
H  H540  1  0.09660000  0.95780000  0.52480000  1.0 0.0889224441
H  H541  1  0.47520000  0.04220000  0.90340000  1.0 0.0889224441
H  H542  1  0.47520000  0.95780000  0.09660000  1.0 0.0889224441
H  H543  1  0.52480000  0.04220000  0.09660000  1.0 0.0889224441
H  H544  1  0.90340000  0.47520000  0.04220000  1.0 0.0889224441
H  H545  1  0.09660000  0.47520000  0.95780000  1.0 0.0889224441
H  H546  1  0.09660000  0.52480000  0.04220000  1.0 0.0889224441
H  H547  1  0.04220000  0.90340000  0.47520000  1.0 0.0889224441
H  H548  1  0.95780000  0.09660000  0.47520000  1.0 0.0889224441
H  H549  1  0.04220000  0.09660000  0.52480000  1.0 0.0889224441
H  H550  1  0.04220000  0.47520000  0.09660000  1.0 0.0889224441
H  H551  1  0.47520000  0.09660000  0.04220000  1.0 0.0889224441
H  H552  1  0.09660000  0.04220000  0.47520000  1.0 0.0889224441
H  H553  1  0.30250000  0.08350000  0.31840000  1.0 0.0990850578
H  H554  1  0.31840000  0.30250000  0.08350000  1.0 0.0990850578
H  H555  1  0.08350000  0.31840000  0.30250000  1.0 0.0990850578
H  H556  1  0.08350000  0.30250000  0.68160000  1.0 0.0990850578
H  H557  1  0.08350000  0.69750000  0.31840000  1.0 0.0990850578
H  H558  1  0.91650000  0.30250000  0.31840000  1.0 0.0990850578
H  H559  1  0.30250000  0.31840000  0.91650000  1.0 0.0990850578
H  H560  1  0.69750000  0.31840000  0.08350000  1.0 0.0990850578
H  H561  1  0.30250000  0.68160000  0.08350000  1.0 0.0990850578
H  H562  1  0.31840000  0.08350000  0.69750000  1.0 0.0990850578
H  H563  1  0.31840000  0.91650000  0.30250000  1.0 0.0990850578
H  H564  1  0.68160000  0.08350000  0.30250000  1.0 0.0990850578
H  H565  1  0.69750000  0.91650000  0.31840000  1.0 0.0990850578
H  H566  1  0.69750000  0.08350000  0.68160000  1.0 0.0990850578
H  H567  1  0.30250000  0.91650000  0.68160000  1.0 0.0990850578
H  H568  1  0.31840000  0.69750000  0.91650000  1.0 0.0990850578
H  H569  1  0.68160000  0.69750000  0.08350000  1.0 0.0990850578
H  H570  1  0.68160000  0.30250000  0.91650000  1.0 0.0990850578
H  H571  1  0.91650000  0.31840000  0.69750000  1.0 0.0990850578
H  H572  1  0.08350000  0.68160000  0.69750000  1.0 0.0990850578
H  H573  1  0.91650000  0.68160000  0.30250000  1.0 0.0990850578
H  H574  1  0.91650000  0.69750000  0.68160000  1.0 0.0990850578
H  H575  1  0.69750000  0.68160000  0.91650000  1.0 0.0990850578
H  H576  1  0.68160000  0.91650000  0.69750000  1.0 0.0990850578
H  H577  1  0.69750000  0.91650000  0.68160000  1.0 0.0990850578
H  H578  1  0.68160000  0.69750000  0.91650000  1.0 0.0990850578
H  H579  1  0.91650000  0.68160000  0.69750000  1.0 0.0990850578
H  H580  1  0.91650000  0.69750000  0.31840000  1.0 0.0990850578
H  H581  1  0.91650000  0.30250000  0.68160000  1.0 0.0990850578
H  H582  1  0.08350000  0.69750000  0.68160000  1.0 0.0990850578
H  H583  1  0.69750000  0.68160000  0.08350000  1.0 0.0990850578
H  H584  1  0.30250000  0.68160000  0.91650000  1.0 0.0990850578
H  H585  1  0.69750000  0.31840000  0.91650000  1.0 0.0990850578
H  H586  1  0.68160000  0.91650000  0.30250000  1.0 0.0990850578
H  H587  1  0.68160000  0.08350000  0.69750000  1.0 0.0990850578
H  H588  1  0.31840000  0.91650000  0.69750000  1.0 0.0990850578
H  H589  1  0.30250000  0.08350000  0.68160000  1.0 0.0990850578
H  H590  1  0.30250000  0.91650000  0.31840000  1.0 0.0990850578
H  H591  1  0.69750000  0.08350000  0.31840000  1.0 0.0990850578
H  H592  1  0.68160000  0.30250000  0.08350000  1.0 0.0990850578
H  H593  1  0.31840000  0.30250000  0.91650000  1.0 0.0990850578
H  H594  1  0.31840000  0.69750000  0.08350000  1.0 0.0990850578
H  H595  1  0.08350000  0.68160000  0.30250000  1.0 0.0990850578
H  H596  1  0.91650000  0.31840000  0.30250000  1.0 0.0990850578
H  H597  1  0.08350000  0.31840000  0.69750000  1.0 0.0990850578
H  H598  1  0.08350000  0.30250000  0.31840000  1.0 0.0990850578
H  H599  1  0.30250000  0.31840000  0.08350000  1.0 0.0990850578
H  H600  1  0.31840000  0.08350000  0.30250000  1.0 0.0990850578
H  H601  1  0.41760000  0.09490000  0.36520000  1.0 0.0889224441
H  H602  1  0.36520000  0.41760000  0.09490000  1.0 0.0889224441
H  H603  1  0.09490000  0.36520000  0.41760000  1.0 0.0889224441
H  H604  1  0.09490000  0.41760000  0.63480000  1.0 0.0889224441
H  H605  1  0.09490000  0.58240000  0.36520000  1.0 0.0889224441
H  H606  1  0.90510000  0.41760000  0.36520000  1.0 0.0889224441
H  H607  1  0.41760000  0.36520000  0.90510000  1.0 0.0889224441
H  H608  1  0.58240000  0.36520000  0.09490000  1.0 0.0889224441
H  H609  1  0.41760000  0.63480000  0.09490000  1.0 0.0889224441
H  H610  1  0.36520000  0.09490000  0.58240000  1.0 0.0889224441
H  H611  1  0.36520000  0.90510000  0.41760000  1.0 0.0889224441
H  H612  1  0.63480000  0.09490000  0.41760000  1.0 0.0889224441
H  H613  1  0.58240000  0.90510000  0.36520000  1.0 0.0889224441
H  H614  1  0.58240000  0.09490000  0.63480000  1.0 0.0889224441
H  H615  1  0.41760000  0.90510000  0.63480000  1.0 0.0889224441
H  H616  1  0.36520000  0.58240000  0.90510000  1.0 0.0889224441
H  H617  1  0.63480000  0.58240000  0.09490000  1.0 0.0889224441
H  H618  1  0.63480000  0.41760000  0.90510000  1.0 0.0889224441
H  H619  1  0.90510000  0.36520000  0.58240000  1.0 0.0889224441
H  H620  1  0.09490000  0.63480000  0.58240000  1.0 0.0889224441
H  H621  1  0.90510000  0.63480000  0.41760000  1.0 0.0889224441
H  H622  1  0.90510000  0.58240000  0.63480000  1.0 0.0889224441
H  H623  1  0.58240000  0.63480000  0.90510000  1.0 0.0889224441
H  H624  1  0.63480000  0.90510000  0.58240000  1.0 0.0889224441
H  H625  1  0.58240000  0.90510000  0.63480000  1.0 0.0889224441
H  H626  1  0.63480000  0.58240000  0.90510000  1.0 0.0889224441
H  H627  1  0.90510000  0.63480000  0.58240000  1.0 0.0889224441
H  H628  1  0.90510000  0.58240000  0.36520000  1.0 0.0889224441
H  H629  1  0.90510000  0.41760000  0.63480000  1.0 0.0889224441
H  H630  1  0.09490000  0.58240000  0.63480000  1.0 0.0889224441
H  H631  1  0.58240000  0.63480000  0.09490000  1.0 0.0889224441
H  H632  1  0.41760000  0.63480000  0.90510000  1.0 0.0889224441
H  H633  1  0.58240000  0.36520000  0.90510000  1.0 0.0889224441
H  H634  1  0.63480000  0.90510000  0.41760000  1.0 0.0889224441
H  H635  1  0.63480000  0.09490000  0.58240000  1.0 0.0889224441
H  H636  1  0.36520000  0.90510000  0.58240000  1.0 0.0889224441
H  H637  1  0.41760000  0.09490000  0.63480000  1.0 0.0889224441
H  H638  1  0.41760000  0.90510000  0.36520000  1.0 0.0889224441
H  H639  1  0.58240000  0.09490000  0.36520000  1.0 0.0889224441
H  H640  1  0.63480000  0.41760000  0.09490000  1.0 0.0889224441
H  H641  1  0.36520000  0.41760000  0.90510000  1.0 0.0889224441
H  H642  1  0.36520000  0.58240000  0.09490000  1.0 0.0889224441
H  H643  1  0.09490000  0.63480000  0.41760000  1.0 0.0889224441
H  H644  1  0.90510000  0.36520000  0.41760000  1.0 0.0889224441
H  H645  1  0.09490000  0.36520000  0.58240000  1.0 0.0889224441
H  H646  1  0.09490000  0.41760000  0.36520000  1.0 0.0889224441
H  H647  1  0.41760000  0.36520000  0.09490000  1.0 0.0889224441
H  H648  1  0.36520000  0.09490000  0.41760000  1.0 0.0889224441
H  H649  1  0.46070000  0.08820000  0.43360000  1.0 0.0790596167
H  H650  1  0.43360000  0.46070000  0.08820000  1.0 0.0790596167
H  H651  1  0.08820000  0.43360000  0.46070000  1.0 0.0790596167
H  H652  1  0.08820000  0.46070000  0.56640000  1.0 0.0790596167
H  H653  1  0.08820000  0.53930000  0.43360000  1.0 0.0790596167
H  H654  1  0.91180000  0.46070000  0.43360000  1.0 0.0790596167
H  H655  1  0.46070000  0.43360000  0.91180000  1.0 0.0790596167
H  H656  1  0.53930000  0.43360000  0.08820000  1.0 0.0790596167
H  H657  1  0.46070000  0.56640000  0.08820000  1.0 0.0790596167
H  H658  1  0.43360000  0.08820000  0.53930000  1.0 0.0790596167
H  H659  1  0.43360000  0.91180000  0.46070000  1.0 0.0790596167
H  H660  1  0.56640000  0.08820000  0.46070000  1.0 0.0790596167
H  H661  1  0.53930000  0.91180000  0.43360000  1.0 0.0790596167
H  H662  1  0.53930000  0.08820000  0.56640000  1.0 0.0790596167
H  H663  1  0.46070000  0.91180000  0.56640000  1.0 0.0790596167
H  H664  1  0.43360000  0.53930000  0.91180000  1.0 0.0790596167
H  H665  1  0.56640000  0.53930000  0.08820000  1.0 0.0790596167
H  H666  1  0.56640000  0.46070000  0.91180000  1.0 0.0790596167
H  H667  1  0.91180000  0.43360000  0.53930000  1.0 0.0790596167
H  H668  1  0.08820000  0.56640000  0.53930000  1.0 0.0790596167
H  H669  1  0.91180000  0.56640000  0.46070000  1.0 0.0790596167
H  H670  1  0.91180000  0.53930000  0.56640000  1.0 0.0790596167
H  H671  1  0.53930000  0.56640000  0.91180000  1.0 0.0790596167
H  H672  1  0.56640000  0.91180000  0.53930000  1.0 0.0790596167
H  H673  1  0.53930000  0.91180000  0.56640000  1.0 0.0790596167
H  H674  1  0.56640000  0.53930000  0.91180000  1.0 0.0790596167
H  H675  1  0.91180000  0.56640000  0.53930000  1.0 0.0790596167
H  H676  1  0.91180000  0.53930000  0.43360000  1.0 0.0790596167
H  H677  1  0.91180000  0.46070000  0.56640000  1.0 0.0790596167
H  H678  1  0.08820000  0.53930000  0.56640000  1.0 0.0790596167
H  H679  1  0.53930000  0.56640000  0.08820000  1.0 0.0790596167
H  H680  1  0.46070000  0.56640000  0.91180000  1.0 0.0790596167
H  H681  1  0.53930000  0.43360000  0.91180000  1.0 0.0790596167
H  H682  1  0.56640000  0.91180000  0.46070000  1.0 0.0790596167
H  H683  1  0.56640000  0.08820000  0.53930000  1.0 0.0790596167
H  H684  1  0.43360000  0.91180000  0.53930000  1.0 0.0790596167
H  H685  1  0.46070000  0.08820000  0.56640000  1.0 0.0790596167
H  H686  1  0.46070000  0.91180000  0.43360000  1.0 0.0790596167
H  H687  1  0.53930000  0.08820000  0.43360000  1.0 0.0790596167
H  H688  1  0.56640000  0.46070000  0.08820000  1.0 0.0790596167
H  H689  1  0.43360000  0.46070000  0.91180000  1.0 0.0790596167
H  H690  1  0.43360000  0.53930000  0.08820000  1.0 0.0790596167
H  H691  1  0.08820000  0.56640000  0.46070000  1.0 0.0790596167
H  H692  1  0.91180000  0.43360000  0.46070000  1.0 0.0790596167
H  H693  1  0.08820000  0.43360000  0.53930000  1.0 0.0790596167
H  H694  1  0.08820000  0.46070000  0.43360000  1.0 0.0790596167
H  H695  1  0.46070000  0.43360000  0.08820000  1.0 0.0790596167
H  H696  1  0.43360000  0.08820000  0.46070000  1.0 0.0790596167
C  C1  1  0.40010000  0.00000000  0.25990000  1.0 -0.0792290214
C  C2  1  0.25990000  0.40010000  0.00000000  1.0 -0.0792290214
C  C3  1  0.00000000  0.25990000  0.40010000  1.0 -0.0792290214
C  C4  1  0.00000000  0.40010000  0.74010000  1.0 -0.0792290214
C  C5  1  0.00000000  0.59990000  0.25990000  1.0 -0.0792290214
C  C6  1  0.00000000  0.40010000  0.25990000  1.0 -0.0792290214
C  C7  1  0.40010000  0.25990000  0.00000000  1.0 -0.0792290214
C  C8  1  0.59990000  0.25990000  0.00000000  1.0 -0.0792290214
C  C9  1  0.40010000  0.74010000  0.00000000  1.0 -0.0792290214
C  C10  1  0.25990000  0.00000000  0.59990000  1.0 -0.0792290214
C  C11  1  0.25990000  0.00000000  0.40010000  1.0 -0.0792290214
C  C12  1  0.74010000  0.00000000  0.40010000  1.0 -0.0792290214
C  C13  1  0.59990000  0.00000000  0.25990000  1.0 -0.0792290214
C  C14  1  0.59990000  0.00000000  0.74010000  1.0 -0.0792290214
C  C15  1  0.40010000  0.00000000  0.74010000  1.0 -0.0792290214
C  C16  1  0.25990000  0.59990000  0.00000000  1.0 -0.0792290214
C  C17  1  0.74010000  0.59990000  0.00000000  1.0 -0.0792290214
C  C18  1  0.74010000  0.40010000  0.00000000  1.0 -0.0792290214
C  C19  1  0.00000000  0.25990000  0.59990000  1.0 -0.0792290214
C  C20  1  0.00000000  0.74010000  0.59990000  1.0 -0.0792290214
C  C21  1  0.00000000  0.74010000  0.40010000  1.0 -0.0792290214
C  C22  1  0.00000000  0.59990000  0.74010000  1.0 -0.0792290214
C  C23  1  0.59990000  0.74010000  0.00000000  1.0 -0.0792290214
C  C24  1  0.74010000  0.00000000  0.59990000  1.0 -0.0792290214
C  C25  1  0.33590000  0.02320000  0.22210000  1.0 0.1124782607
C  C26  1  0.22210000  0.33590000  0.02320000  1.0 0.1124782607
C  C27  1  0.02320000  0.22210000  0.33590000  1.0 0.1124782607
C  C28  1  0.02320000  0.33590000  0.77790000  1.0 0.1124782607
C  C29  1  0.02320000  0.66410000  0.22210000  1.0 0.1124782607
C  C30  1  0.97680000  0.33590000  0.22210000  1.0 0.1124782607
C  C31  1  0.33590000  0.22210000  0.97680000  1.0 0.1124782607
C  C32  1  0.66410000  0.22210000  0.02320000  1.0 0.1124782607
C  C33  1  0.33590000  0.77790000  0.02320000  1.0 0.1124782607
C  C34  1  0.22210000  0.02320000  0.66410000  1.0 0.1124782607
C  C35  1  0.22210000  0.97680000  0.33590000  1.0 0.1124782607
C  C36  1  0.77790000  0.02320000  0.33590000  1.0 0.1124782607
C  C37  1  0.66410000  0.97680000  0.22210000  1.0 0.1124782607
C  C38  1  0.66410000  0.02320000  0.77790000  1.0 0.1124782607
C  C39  1  0.33590000  0.97680000  0.77790000  1.0 0.1124782607
C  C40  1  0.22210000  0.66410000  0.97680000  1.0 0.1124782607
C  C41  1  0.77790000  0.66410000  0.02320000  1.0 0.1124782607
C  C42  1  0.77790000  0.33590000  0.97680000  1.0 0.1124782607
C  C43  1  0.97680000  0.22210000  0.66410000  1.0 0.1124782607
C  C44  1  0.02320000  0.77790000  0.66410000  1.0 0.1124782607
C  C45  1  0.97680000  0.77790000  0.33590000  1.0 0.1124782607
C  C46  1  0.97680000  0.66410000  0.77790000  1.0 0.1124782607
C  C47  1  0.66410000  0.77790000  0.97680000  1.0 0.1124782607
C  C48  1  0.77790000  0.97680000  0.66410000  1.0 0.1124782607
C  C49  1  0.66410000  0.97680000  0.77790000  1.0 0.1124782607
C  C50  1  0.77790000  0.66410000  0.97680000  1.0 0.1124782607
C  C51  1  0.97680000  0.77790000  0.66410000  1.0 0.1124782607
C  C52  1  0.97680000  0.66410000  0.22210000  1.0 0.1124782607
C  C53  1  0.97680000  0.33590000  0.77790000  1.0 0.1124782607
C  C54  1  0.02320000  0.66410000  0.77790000  1.0 0.1124782607
C  C55  1  0.66410000  0.77790000  0.02320000  1.0 0.1124782607
C  C56  1  0.33590000  0.77790000  0.97680000  1.0 0.1124782607
C  C57  1  0.66410000  0.22210000  0.97680000  1.0 0.1124782607
C  C58  1  0.77790000  0.97680000  0.33590000  1.0 0.1124782607
C  C59  1  0.77790000  0.02320000  0.66410000  1.0 0.1124782607
C  C60  1  0.22210000  0.97680000  0.66410000  1.0 0.1124782607
C  C61  1  0.33590000  0.02320000  0.77790000  1.0 0.1124782607
C  C62  1  0.33590000  0.97680000  0.22210000  1.0 0.1124782607
C  C63  1  0.66410000  0.02320000  0.22210000  1.0 0.1124782607
C  C64  1  0.77790000  0.33590000  0.02320000  1.0 0.1124782607
C  C65  1  0.22210000  0.33590000  0.97680000  1.0 0.1124782607
C  C66  1  0.22210000  0.66410000  0.02320000  1.0 0.1124782607
C  C67  1  0.02320000  0.77790000  0.33590000  1.0 0.1124782607
C  C68  1  0.97680000  0.22210000  0.33590000  1.0 0.1124782607
C  C69  1  0.02320000  0.22210000  0.66410000  1.0 0.1124782607
C  C70  1  0.02320000  0.33590000  0.22210000  1.0 0.1124782607
C  C71  1  0.33590000  0.22210000  0.02320000  1.0 0.1124782607
C  C72  1  0.22210000  0.02320000  0.33590000  1.0 0.1124782607
C  C73  1  0.30900000  0.05350000  0.20100000  1.0 -0.2011856866
C  C74  1  0.20100000  0.30900000  0.05350000  1.0 -0.2011856866
C  C75  1  0.05350000  0.20100000  0.30900000  1.0 -0.2011856866
C  C76  1  0.05350000  0.30900000  0.79900000  1.0 -0.2011856866
C  C77  1  0.05350000  0.69100000  0.20100000  1.0 -0.2011856866
C  C78  1  0.94650000  0.30900000  0.20100000  1.0 -0.2011856866
C  C79  1  0.30900000  0.20100000  0.94650000  1.0 -0.2011856866
C  C80  1  0.69100000  0.20100000  0.05350000  1.0 -0.2011856866
C  C81  1  0.30900000  0.79900000  0.05350000  1.0 -0.2011856866
C  C82  1  0.20100000  0.05350000  0.69100000  1.0 -0.2011856866
C  C83  1  0.20100000  0.94650000  0.30900000  1.0 -0.2011856866
C  C84  1  0.79900000  0.05350000  0.30900000  1.0 -0.2011856866
C  C85  1  0.69100000  0.94650000  0.20100000  1.0 -0.2011856866
C  C86  1  0.69100000  0.05350000  0.79900000  1.0 -0.2011856866
C  C87  1  0.30900000  0.94650000  0.79900000  1.0 -0.2011856866
C  C88  1  0.20100000  0.69100000  0.94650000  1.0 -0.2011856866
C  C89  1  0.79900000  0.69100000  0.05350000  1.0 -0.2011856866
C  C90  1  0.79900000  0.30900000  0.94650000  1.0 -0.2011856866
C  C91  1  0.94650000  0.20100000  0.69100000  1.0 -0.2011856866
C  C92  1  0.05350000  0.79900000  0.69100000  1.0 -0.2011856866
C  C93  1  0.94650000  0.79900000  0.30900000  1.0 -0.2011856866
C  C94  1  0.94650000  0.69100000  0.79900000  1.0 -0.2011856866
C  C95  1  0.69100000  0.79900000  0.94650000  1.0 -0.2011856866
C  C96  1  0.79900000  0.94650000  0.69100000  1.0 -0.2011856866
C  C97  1  0.69100000  0.94650000  0.79900000  1.0 -0.2011856866
C  C98  1  0.79900000  0.69100000  0.94650000  1.0 -0.2011856866
C  C99  1  0.94650000  0.79900000  0.69100000  1.0 -0.2011856866
C  C100  1  0.94650000  0.69100000  0.20100000  1.0 -0.2011856866
C  C101  1  0.94650000  0.30900000  0.79900000  1.0 -0.2011856866
C  C102  1  0.05350000  0.69100000  0.79900000  1.0 -0.2011856866
C  C103  1  0.69100000  0.79900000  0.05350000  1.0 -0.2011856866
C  C104  1  0.30900000  0.79900000  0.94650000  1.0 -0.2011856866
C  C105  1  0.69100000  0.20100000  0.94650000  1.0 -0.2011856866
C  C106  1  0.79900000  0.94650000  0.30900000  1.0 -0.2011856866
C  C107  1  0.79900000  0.05350000  0.69100000  1.0 -0.2011856866
C  C108  1  0.20100000  0.94650000  0.69100000  1.0 -0.2011856866
C  C109  1  0.30900000  0.05350000  0.79900000  1.0 -0.2011856866
C  C110  1  0.30900000  0.94650000  0.20100000  1.0 -0.2011856866
C  C111  1  0.69100000  0.05350000  0.20100000  1.0 -0.2011856866
C  C112  1  0.79900000  0.30900000  0.05350000  1.0 -0.2011856866
C  C113  1  0.20100000  0.30900000  0.94650000  1.0 -0.2011856866
C  C114  1  0.20100000  0.69100000  0.05350000  1.0 -0.2011856866
C  C115  1  0.05350000  0.79900000  0.30900000  1.0 -0.2011856866
C  C116  1  0.94650000  0.20100000  0.30900000  1.0 -0.2011856866
C  C117  1  0.05350000  0.20100000  0.69100000  1.0 -0.2011856866
C  C118  1  0.05350000  0.30900000  0.20100000  1.0 -0.2011856866
C  C119  1  0.30900000  0.20100000  0.05350000  1.0 -0.2011856866
C  C120  1  0.20100000  0.05350000  0.30900000  1.0 -0.2011856866
C  C121  1  0.26630000  0.02900000  0.18000000  1.0 -0.0792290214
C  C122  1  0.18000000  0.26630000  0.02900000  1.0 -0.0792290214
C  C123  1  0.02900000  0.18000000  0.26630000  1.0 -0.0792290214
C  C124  1  0.02900000  0.26630000  0.82000000  1.0 -0.0792290214
C  C125  1  0.02900000  0.73370000  0.18000000  1.0 -0.0792290214
C  C126  1  0.97100000  0.26630000  0.18000000  1.0 -0.0792290214
C  C127  1  0.26630000  0.18000000  0.97100000  1.0 -0.0792290214
C  C128  1  0.73370000  0.18000000  0.02900000  1.0 -0.0792290214
C  C129  1  0.26630000  0.82000000  0.02900000  1.0 -0.0792290214
C  C130  1  0.18000000  0.02900000  0.73370000  1.0 -0.0792290214
C  C131  1  0.18000000  0.97100000  0.26630000  1.0 -0.0792290214
C  C132  1  0.82000000  0.02900000  0.26630000  1.0 -0.0792290214
C  C133  1  0.73370000  0.97100000  0.18000000  1.0 -0.0792290214
C  C134  1  0.73370000  0.02900000  0.82000000  1.0 -0.0792290214
C  C135  1  0.26630000  0.97100000  0.82000000  1.0 -0.0792290214
C  C136  1  0.18000000  0.73370000  0.97100000  1.0 -0.0792290214
C  C137  1  0.82000000  0.73370000  0.02900000  1.0 -0.0792290214
C  C138  1  0.82000000  0.26630000  0.97100000  1.0 -0.0792290214
C  C139  1  0.97100000  0.18000000  0.73370000  1.0 -0.0792290214
C  C140  1  0.02900000  0.82000000  0.73370000  1.0 -0.0792290214
C  C141  1  0.97100000  0.82000000  0.26630000  1.0 -0.0792290214
C  C142  1  0.97100000  0.73370000  0.82000000  1.0 -0.0792290214
C  C143  1  0.73370000  0.82000000  0.97100000  1.0 -0.0792290214
C  C144  1  0.82000000  0.97100000  0.73370000  1.0 -0.0792290214
C  C145  1  0.73370000  0.97100000  0.82000000  1.0 -0.0792290214
C  C146  1  0.82000000  0.73370000  0.97100000  1.0 -0.0792290214
C  C147  1  0.97100000  0.82000000  0.73370000  1.0 -0.0792290214
C  C148  1  0.97100000  0.73370000  0.18000000  1.0 -0.0792290214
C  C149  1  0.97100000  0.26630000  0.82000000  1.0 -0.0792290214
C  C150  1  0.02900000  0.73370000  0.82000000  1.0 -0.0792290214
C  C151  1  0.73370000  0.82000000  0.02900000  1.0 -0.0792290214
C  C152  1  0.26630000  0.82000000  0.97100000  1.0 -0.0792290214
C  C153  1  0.73370000  0.18000000  0.97100000  1.0 -0.0792290214
C  C154  1  0.82000000  0.97100000  0.26630000  1.0 -0.0792290214
C  C155  1  0.82000000  0.02900000  0.73370000  1.0 -0.0792290214
C  C156  1  0.18000000  0.97100000  0.73370000  1.0 -0.0792290214
C  C157  1  0.26630000  0.02900000  0.82000000  1.0 -0.0792290214
C  C158  1  0.26630000  0.97100000  0.18000000  1.0 -0.0792290214
C  C159  1  0.73370000  0.02900000  0.18000000  1.0 -0.0792290214
C  C160  1  0.82000000  0.26630000  0.02900000  1.0 -0.0792290214
C  C161  1  0.18000000  0.26630000  0.97100000  1.0 -0.0792290214
C  C162  1  0.18000000  0.73370000  0.02900000  1.0 -0.0792290214
C  C163  1  0.02900000  0.82000000  0.26630000  1.0 -0.0792290214
C  C164  1  0.97100000  0.18000000  0.26630000  1.0 -0.0792290214
C  C165  1  0.02900000  0.18000000  0.73370000  1.0 -0.0792290214
C  C166  1  0.02900000  0.26630000  0.18000000  1.0 -0.0792290214
C  C167  1  0.26630000  0.18000000  0.02900000  1.0 -0.0792290214
C  C168  1  0.18000000  0.02900000  0.26630000  1.0 -0.0792290214
C  C169  1  0.39300000  0.17930000  0.17930000  1.0 0.0096043664
C  C170  1  0.17930000  0.39300000  0.17930000  1.0 0.0096043664
C  C171  1  0.17930000  0.17930000  0.39300000  1.0 0.0096043664
C  C172  1  0.17930000  0.39300000  0.82070000  1.0 0.0096043664
C  C173  1  0.17930000  0.60700000  0.17930000  1.0 0.0096043664
C  C174  1  0.82070000  0.39300000  0.17930000  1.0 0.0096043664
C  C175  1  0.39300000  0.17930000  0.82070000  1.0 0.0096043664
C  C176  1  0.60700000  0.17930000  0.17930000  1.0 0.0096043664
C  C177  1  0.39300000  0.82070000  0.17930000  1.0 0.0096043664
C  C178  1  0.17930000  0.17930000  0.60700000  1.0 0.0096043664
C  C179  1  0.17930000  0.82070000  0.39300000  1.0 0.0096043664
C  C180  1  0.82070000  0.17930000  0.39300000  1.0 0.0096043664
C  C181  1  0.60700000  0.82070000  0.17930000  1.0 0.0096043664
C  C182  1  0.60700000  0.17930000  0.82070000  1.0 0.0096043664
C  C183  1  0.39300000  0.82070000  0.82070000  1.0 0.0096043664
C  C184  1  0.17930000  0.60700000  0.82070000  1.0 0.0096043664
C  C185  1  0.82070000  0.60700000  0.17930000  1.0 0.0096043664
C  C186  1  0.82070000  0.39300000  0.82070000  1.0 0.0096043664
C  C187  1  0.82070000  0.17930000  0.60700000  1.0 0.0096043664
C  C188  1  0.17930000  0.82070000  0.60700000  1.0 0.0096043664
C  C189  1  0.82070000  0.82070000  0.39300000  1.0 0.0096043664
C  C190  1  0.82070000  0.60700000  0.82070000  1.0 0.0096043664
C  C191  1  0.60700000  0.82070000  0.82070000  1.0 0.0096043664
C  C192  1  0.82070000  0.82070000  0.60700000  1.0 0.0096043664
C  C193  1  0.40200000  0.11400000  0.14800000  1.0 0.0790596167
C  C194  1  0.14800000  0.40200000  0.11400000  1.0 0.0790596167
C  C195  1  0.11400000  0.14800000  0.40200000  1.0 0.0790596167
C  C196  1  0.11400000  0.40200000  0.85200000  1.0 0.0790596167
C  C197  1  0.11400000  0.59800000  0.14800000  1.0 0.0790596167
C  C198  1  0.88600000  0.40200000  0.14800000  1.0 0.0790596167
C  C199  1  0.40200000  0.14800000  0.88600000  1.0 0.0790596167
C  C200  1  0.59800000  0.14800000  0.11400000  1.0 0.0790596167
C  C201  1  0.40200000  0.85200000  0.11400000  1.0 0.0790596167
C  C202  1  0.14800000  0.11400000  0.59800000  1.0 0.0790596167
C  C203  1  0.14800000  0.88600000  0.40200000  1.0 0.0790596167
C  C204  1  0.85200000  0.11400000  0.40200000  1.0 0.0790596167
C  C205  1  0.59800000  0.88600000  0.14800000  1.0 0.0790596167
C  C206  1  0.59800000  0.11400000  0.85200000  1.0 0.0790596167
C  C207  1  0.40200000  0.88600000  0.85200000  1.0 0.0790596167
C  C208  1  0.14800000  0.59800000  0.88600000  1.0 0.0790596167
C  C209  1  0.85200000  0.59800000  0.11400000  1.0 0.0790596167
C  C210  1  0.85200000  0.40200000  0.88600000  1.0 0.0790596167
C  C211  1  0.88600000  0.14800000  0.59800000  1.0 0.0790596167
C  C212  1  0.11400000  0.85200000  0.59800000  1.0 0.0790596167
C  C213  1  0.88600000  0.85200000  0.40200000  1.0 0.0790596167
C  C214  1  0.88600000  0.59800000  0.85200000  1.0 0.0790596167
C  C215  1  0.59800000  0.85200000  0.88600000  1.0 0.0790596167
C  C216  1  0.85200000  0.88600000  0.59800000  1.0 0.0790596167
C  C217  1  0.59800000  0.88600000  0.85200000  1.0 0.0790596167
C  C218  1  0.85200000  0.59800000  0.88600000  1.0 0.0790596167
C  C219  1  0.88600000  0.85200000  0.59800000  1.0 0.0790596167
C  C220  1  0.88600000  0.59800000  0.14800000  1.0 0.0790596167
C  C221  1  0.88600000  0.40200000  0.85200000  1.0 0.0790596167
C  C222  1  0.11400000  0.59800000  0.85200000  1.0 0.0790596167
C  C223  1  0.59800000  0.85200000  0.11400000  1.0 0.0790596167
C  C224  1  0.40200000  0.85200000  0.88600000  1.0 0.0790596167
C  C225  1  0.59800000  0.14800000  0.88600000  1.0 0.0790596167
C  C226  1  0.85200000  0.88600000  0.40200000  1.0 0.0790596167
C  C227  1  0.85200000  0.11400000  0.59800000  1.0 0.0790596167
C  C228  1  0.14800000  0.88600000  0.59800000  1.0 0.0790596167
C  C229  1  0.40200000  0.11400000  0.85200000  1.0 0.0790596167
C  C230  1  0.40200000  0.88600000  0.14800000  1.0 0.0790596167
C  C231  1  0.59800000  0.11400000  0.14800000  1.0 0.0790596167
C  C232  1  0.85200000  0.40200000  0.11400000  1.0 0.0790596167
C  C233  1  0.14800000  0.40200000  0.88600000  1.0 0.0790596167
C  C234  1  0.14800000  0.59800000  0.11400000  1.0 0.0790596167
C  C235  1  0.11400000  0.85200000  0.40200000  1.0 0.0790596167
C  C236  1  0.88600000  0.14800000  0.40200000  1.0 0.0790596167
C  C237  1  0.11400000  0.14800000  0.59800000  1.0 0.0790596167
C  C238  1  0.11400000  0.40200000  0.14800000  1.0 0.0790596167
C  C239  1  0.40200000  0.14800000  0.11400000  1.0 0.0790596167
C  C240  1  0.14800000  0.11400000  0.40200000  1.0 0.0790596167
C  C241  1  0.41000000  0.06900000  0.13900000  1.0 -0.022638069
C  C242  1  0.13900000  0.41000000  0.06900000  1.0 -0.022638069
C  C243  1  0.06900000  0.13900000  0.41000000  1.0 -0.022638069
C  C244  1  0.06900000  0.41000000  0.86100000  1.0 -0.022638069
C  C245  1  0.06900000  0.59000000  0.13900000  1.0 -0.022638069
C  C246  1  0.93100000  0.41000000  0.13900000  1.0 -0.022638069
C  C247  1  0.41000000  0.13900000  0.93100000  1.0 -0.022638069
C  C248  1  0.59000000  0.13900000  0.06900000  1.0 -0.022638069
C  C249  1  0.41000000  0.86100000  0.06900000  1.0 -0.022638069
C  C250  1  0.13900000  0.06900000  0.59000000  1.0 -0.022638069
C  C251  1  0.13900000  0.93100000  0.41000000  1.0 -0.022638069
C  C252  1  0.86100000  0.06900000  0.41000000  1.0 -0.022638069
C  C253  1  0.59000000  0.93100000  0.13900000  1.0 -0.022638069
C  C254  1  0.59000000  0.06900000  0.86100000  1.0 -0.022638069
C  C255  1  0.41000000  0.93100000  0.86100000  1.0 -0.022638069
C  C256  1  0.13900000  0.59000000  0.93100000  1.0 -0.022638069
C  C257  1  0.86100000  0.59000000  0.06900000  1.0 -0.022638069
C  C258  1  0.86100000  0.41000000  0.93100000  1.0 -0.022638069
C  C259  1  0.93100000  0.13900000  0.59000000  1.0 -0.022638069
C  C260  1  0.06900000  0.86100000  0.59000000  1.0 -0.022638069
C  C261  1  0.93100000  0.86100000  0.41000000  1.0 -0.022638069
C  C262  1  0.93100000  0.59000000  0.86100000  1.0 -0.022638069
C  C263  1  0.59000000  0.86100000  0.93100000  1.0 -0.022638069
C  C264  1  0.86100000  0.93100000  0.59000000  1.0 -0.022638069
C  C265  1  0.59000000  0.93100000  0.86100000  1.0 -0.022638069
C  C266  1  0.86100000  0.59000000  0.93100000  1.0 -0.022638069
C  C267  1  0.93100000  0.86100000  0.59000000  1.0 -0.022638069
C  C268  1  0.93100000  0.59000000  0.13900000  1.0 -0.022638069
C  C269  1  0.93100000  0.41000000  0.86100000  1.0 -0.022638069
C  C270  1  0.06900000  0.59000000  0.86100000  1.0 -0.022638069
C  C271  1  0.59000000  0.86100000  0.06900000  1.0 -0.022638069
C  C272  1  0.41000000  0.86100000  0.93100000  1.0 -0.022638069
C  C273  1  0.59000000  0.13900000  0.93100000  1.0 -0.022638069
C  C274  1  0.86100000  0.93100000  0.41000000  1.0 -0.022638069
C  C275  1  0.86100000  0.06900000  0.59000000  1.0 -0.022638069
C  C276  1  0.13900000  0.93100000  0.59000000  1.0 -0.022638069
C  C277  1  0.41000000  0.06900000  0.86100000  1.0 -0.022638069
C  C278  1  0.41000000  0.93100000  0.13900000  1.0 -0.022638069
C  C279  1  0.59000000  0.06900000  0.13900000  1.0 -0.022638069
C  C280  1  0.86100000  0.41000000  0.06900000  1.0 -0.022638069
C  C281  1  0.13900000  0.41000000  0.93100000  1.0 -0.022638069
C  C282  1  0.13900000  0.59000000  0.06900000  1.0 -0.022638069
C  C283  1  0.06900000  0.86100000  0.41000000  1.0 -0.022638069
C  C284  1  0.93100000  0.13900000  0.41000000  1.0 -0.022638069
C  C285  1  0.06900000  0.13900000  0.59000000  1.0 -0.022638069
C  C286  1  0.06900000  0.41000000  0.13900000  1.0 -0.022638069
C  C287  1  0.41000000  0.13900000  0.06900000  1.0 -0.022638069
C  C288  1  0.13900000  0.06900000  0.41000000  1.0 -0.022638069
C  C289  1  0.41400000  0.05400000  0.08800000  1.0 -0.120161062
C  C290  1  0.08800000  0.41400000  0.05400000  1.0 -0.120161062
C  C291  1  0.05400000  0.08800000  0.41400000  1.0 -0.120161062
C  C292  1  0.05400000  0.41400000  0.91200000  1.0 -0.120161062
C  C293  1  0.05400000  0.58600000  0.08800000  1.0 -0.120161062
C  C294  1  0.94600000  0.41400000  0.08800000  1.0 -0.120161062
C  C295  1  0.41400000  0.08800000  0.94600000  1.0 -0.120161062
C  C296  1  0.58600000  0.08800000  0.05400000  1.0 -0.120161062
C  C297  1  0.41400000  0.91200000  0.05400000  1.0 -0.120161062
C  C298  1  0.08800000  0.05400000  0.58600000  1.0 -0.120161062
C  C299  1  0.08800000  0.94600000  0.41400000  1.0 -0.120161062
C  C300  1  0.91200000  0.05400000  0.41400000  1.0 -0.120161062
C  C301  1  0.58600000  0.94600000  0.08800000  1.0 -0.120161062
C  C302  1  0.58600000  0.05400000  0.91200000  1.0 -0.120161062
C  C303  1  0.41400000  0.94600000  0.91200000  1.0 -0.120161062
C  C304  1  0.08800000  0.58600000  0.94600000  1.0 -0.120161062
C  C305  1  0.91200000  0.58600000  0.05400000  1.0 -0.120161062
C  C306  1  0.91200000  0.41400000  0.94600000  1.0 -0.120161062
C  C307  1  0.94600000  0.08800000  0.58600000  1.0 -0.120161062
C  C308  1  0.05400000  0.91200000  0.58600000  1.0 -0.120161062
C  C309  1  0.94600000  0.91200000  0.41400000  1.0 -0.120161062
C  C310  1  0.94600000  0.58600000  0.91200000  1.0 -0.120161062
C  C311  1  0.58600000  0.91200000  0.94600000  1.0 -0.120161062
C  C312  1  0.91200000  0.94600000  0.58600000  1.0 -0.120161062
C  C313  1  0.58600000  0.94600000  0.91200000  1.0 -0.120161062
C  C314  1  0.91200000  0.58600000  0.94600000  1.0 -0.120161062
C  C315  1  0.94600000  0.91200000  0.58600000  1.0 -0.120161062
C  C316  1  0.94600000  0.58600000  0.08800000  1.0 -0.120161062
C  C317  1  0.94600000  0.41400000  0.91200000  1.0 -0.120161062
C  C318  1  0.05400000  0.58600000  0.91200000  1.0 -0.120161062
C  C319  1  0.58600000  0.91200000  0.05400000  1.0 -0.120161062
C  C320  1  0.41400000  0.91200000  0.94600000  1.0 -0.120161062
C  C321  1  0.58600000  0.08800000  0.94600000  1.0 -0.120161062
C  C322  1  0.91200000  0.94600000  0.41400000  1.0 -0.120161062
C  C323  1  0.91200000  0.05400000  0.58600000  1.0 -0.120161062
C  C324  1  0.08800000  0.94600000  0.58600000  1.0 -0.120161062
C  C325  1  0.41400000  0.05400000  0.91200000  1.0 -0.120161062
C  C326  1  0.41400000  0.94600000  0.08800000  1.0 -0.120161062
C  C327  1  0.58600000  0.05400000  0.08800000  1.0 -0.120161062
C  C328  1  0.91200000  0.41400000  0.05400000  1.0 -0.120161062
C  C329  1  0.08800000  0.41400000  0.94600000  1.0 -0.120161062
C  C330  1  0.08800000  0.58600000  0.05400000  1.0 -0.120161062
C  C331  1  0.05400000  0.91200000  0.41400000  1.0 -0.120161062
C  C332  1  0.94600000  0.08800000  0.41400000  1.0 -0.120161062
C  C333  1  0.05400000  0.08800000  0.58600000  1.0 -0.120161062
C  C334  1  0.05400000  0.41400000  0.08800000  1.0 -0.120161062
C  C335  1  0.41400000  0.08800000  0.05400000  1.0 -0.120161062
C  C336  1  0.08800000  0.05400000  0.41400000  1.0 -0.120161062
C  C337  1  0.32030000  0.10900000  0.32030000  1.0 0.0790596167
C  C338  1  0.32030000  0.32030000  0.10900000  1.0 0.0790596167
C  C339  1  0.10900000  0.32030000  0.32030000  1.0 0.0790596167
C  C340  1  0.10900000  0.32030000  0.67970000  1.0 0.0790596167
C  C341  1  0.10900000  0.67970000  0.32030000  1.0 0.0790596167
C  C342  1  0.89100000  0.32030000  0.32030000  1.0 0.0790596167
C  C343  1  0.32030000  0.32030000  0.89100000  1.0 0.0790596167
C  C344  1  0.67970000  0.32030000  0.10900000  1.0 0.0790596167
C  C345  1  0.32030000  0.67970000  0.10900000  1.0 0.0790596167
C  C346  1  0.32030000  0.10900000  0.67970000  1.0 0.0790596167
C  C347  1  0.32030000  0.89100000  0.32030000  1.0 0.0790596167
C  C348  1  0.67970000  0.10900000  0.32030000  1.0 0.0790596167
C  C349  1  0.67970000  0.89100000  0.32030000  1.0 0.0790596167
C  C350  1  0.67970000  0.10900000  0.67970000  1.0 0.0790596167
C  C351  1  0.32030000  0.89100000  0.67970000  1.0 0.0790596167
C  C352  1  0.32030000  0.67970000  0.89100000  1.0 0.0790596167
C  C353  1  0.67970000  0.67970000  0.10900000  1.0 0.0790596167
C  C354  1  0.67970000  0.32030000  0.89100000  1.0 0.0790596167
C  C355  1  0.89100000  0.32030000  0.67970000  1.0 0.0790596167
C  C356  1  0.10900000  0.67970000  0.67970000  1.0 0.0790596167
C  C357  1  0.89100000  0.67970000  0.32030000  1.0 0.0790596167
C  C358  1  0.89100000  0.67970000  0.67970000  1.0 0.0790596167
C  C359  1  0.67970000  0.67970000  0.89100000  1.0 0.0790596167
C  C360  1  0.67970000  0.89100000  0.67970000  1.0 0.0790596167
C  C361  1  0.35540000  0.17290000  0.31940000  1.0 0.1480875524
C  C362  1  0.31940000  0.35540000  0.17290000  1.0 0.1480875524
C  C363  1  0.17290000  0.31940000  0.35540000  1.0 0.1480875524
C  C364  1  0.17290000  0.35540000  0.68060000  1.0 0.1480875524
C  C365  1  0.17290000  0.64460000  0.31940000  1.0 0.1480875524
C  C366  1  0.82710000  0.35540000  0.31940000  1.0 0.1480875524
C  C367  1  0.35540000  0.31940000  0.82710000  1.0 0.1480875524
C  C368  1  0.64460000  0.31940000  0.17290000  1.0 0.1480875524
C  C369  1  0.35540000  0.68060000  0.17290000  1.0 0.1480875524
C  C370  1  0.31940000  0.17290000  0.64460000  1.0 0.1480875524
C  C371  1  0.31940000  0.82710000  0.35540000  1.0 0.1480875524
C  C372  1  0.68060000  0.17290000  0.35540000  1.0 0.1480875524
C  C373  1  0.64460000  0.82710000  0.31940000  1.0 0.1480875524
C  C374  1  0.64460000  0.17290000  0.68060000  1.0 0.1480875524
C  C375  1  0.35540000  0.82710000  0.68060000  1.0 0.1480875524
C  C376  1  0.31940000  0.64460000  0.82710000  1.0 0.1480875524
C  C377  1  0.68060000  0.64460000  0.17290000  1.0 0.1480875524
C  C378  1  0.68060000  0.35540000  0.82710000  1.0 0.1480875524
C  C379  1  0.82710000  0.31940000  0.64460000  1.0 0.1480875524
C  C380  1  0.17290000  0.68060000  0.64460000  1.0 0.1480875524
C  C381  1  0.82710000  0.68060000  0.35540000  1.0 0.1480875524
C  C382  1  0.82710000  0.64460000  0.68060000  1.0 0.1480875524
C  C383  1  0.64460000  0.68060000  0.82710000  1.0 0.1480875524
C  C384  1  0.68060000  0.82710000  0.64460000  1.0 0.1480875524
C  C385  1  0.64460000  0.82710000  0.68060000  1.0 0.1480875524
C  C386  1  0.68060000  0.64460000  0.82710000  1.0 0.1480875524
C  C387  1  0.82710000  0.68060000  0.64460000  1.0 0.1480875524
C  C388  1  0.82710000  0.64460000  0.31940000  1.0 0.1480875524
C  C389  1  0.82710000  0.35540000  0.68060000  1.0 0.1480875524
C  C390  1  0.17290000  0.64460000  0.68060000  1.0 0.1480875524
C  C391  1  0.64460000  0.68060000  0.17290000  1.0 0.1480875524
C  C392  1  0.35540000  0.68060000  0.82710000  1.0 0.1480875524
C  C393  1  0.64460000  0.31940000  0.82710000  1.0 0.1480875524
C  C394  1  0.68060000  0.82710000  0.35540000  1.0 0.1480875524
C  C395  1  0.68060000  0.17290000  0.64460000  1.0 0.1480875524
C  C396  1  0.31940000  0.82710000  0.64460000  1.0 0.1480875524
C  C397  1  0.35540000  0.17290000  0.68060000  1.0 0.1480875524
C  C398  1  0.35540000  0.82710000  0.31940000  1.0 0.1480875524
C  C399  1  0.64460000  0.17290000  0.31940000  1.0 0.1480875524
C  C400  1  0.68060000  0.35540000  0.17290000  1.0 0.1480875524
C  C401  1  0.31940000  0.35540000  0.82710000  1.0 0.1480875524
C  C402  1  0.31940000  0.64460000  0.17290000  1.0 0.1480875524
C  C403  1  0.17290000  0.68060000  0.35540000  1.0 0.1480875524
C  C404  1  0.82710000  0.31940000  0.35540000  1.0 0.1480875524
C  C405  1  0.17290000  0.31940000  0.64460000  1.0 0.1480875524
C  C406  1  0.17290000  0.35540000  0.31940000  1.0 0.1480875524
C  C407  1  0.35540000  0.31940000  0.17290000  1.0 0.1480875524
C  C408  1  0.31940000  0.17290000  0.35540000  1.0 0.1480875524
C  C409  1  0.38480000  0.21170000  0.31440000  1.0 -0.1873708381
C  C410  1  0.31440000  0.38480000  0.21170000  1.0 -0.1873708381
C  C411  1  0.21170000  0.31440000  0.38480000  1.0 -0.1873708381
C  C412  1  0.21170000  0.38480000  0.68560000  1.0 -0.1873708381
C  C413  1  0.21170000  0.61520000  0.31440000  1.0 -0.1873708381
C  C414  1  0.78830000  0.38480000  0.31440000  1.0 -0.1873708381
C  C415  1  0.38480000  0.31440000  0.78830000  1.0 -0.1873708381
C  C416  1  0.61520000  0.31440000  0.21170000  1.0 -0.1873708381
C  C417  1  0.38480000  0.68560000  0.21170000  1.0 -0.1873708381
C  C418  1  0.31440000  0.21170000  0.61520000  1.0 -0.1873708381
C  C419  1  0.31440000  0.78830000  0.38480000  1.0 -0.1873708381
C  C420  1  0.68560000  0.21170000  0.38480000  1.0 -0.1873708381
C  C421  1  0.61520000  0.78830000  0.31440000  1.0 -0.1873708381
C  C422  1  0.61520000  0.21170000  0.68560000  1.0 -0.1873708381
C  C423  1  0.38480000  0.78830000  0.68560000  1.0 -0.1873708381
C  C424  1  0.31440000  0.61520000  0.78830000  1.0 -0.1873708381
C  C425  1  0.68560000  0.61520000  0.21170000  1.0 -0.1873708381
C  C426  1  0.68560000  0.38480000  0.78830000  1.0 -0.1873708381
C  C427  1  0.78830000  0.31440000  0.61520000  1.0 -0.1873708381
C  C428  1  0.21170000  0.68560000  0.61520000  1.0 -0.1873708381
C  C429  1  0.78830000  0.68560000  0.38480000  1.0 -0.1873708381
C  C430  1  0.78830000  0.61520000  0.68560000  1.0 -0.1873708381
C  C431  1  0.61520000  0.68560000  0.78830000  1.0 -0.1873708381
C  C432  1  0.68560000  0.78830000  0.61520000  1.0 -0.1873708381
C  C433  1  0.61520000  0.78830000  0.68560000  1.0 -0.1873708381
C  C434  1  0.68560000  0.61520000  0.78830000  1.0 -0.1873708381
C  C435  1  0.78830000  0.68560000  0.61520000  1.0 -0.1873708381
C  C436  1  0.78830000  0.61520000  0.31440000  1.0 -0.1873708381
C  C437  1  0.78830000  0.38480000  0.68560000  1.0 -0.1873708381
C  C438  1  0.21170000  0.61520000  0.68560000  1.0 -0.1873708381
C  C439  1  0.61520000  0.68560000  0.21170000  1.0 -0.1873708381
C  C440  1  0.38480000  0.68560000  0.78830000  1.0 -0.1873708381
C  C441  1  0.61520000  0.31440000  0.78830000  1.0 -0.1873708381
C  C442  1  0.68560000  0.78830000  0.38480000  1.0 -0.1873708381
C  C443  1  0.68560000  0.21170000  0.61520000  1.0 -0.1873708381
C  C444  1  0.31440000  0.78830000  0.61520000  1.0 -0.1873708381
C  C445  1  0.38480000  0.21170000  0.68560000  1.0 -0.1873708381
C  C446  1  0.38480000  0.78830000  0.31440000  1.0 -0.1873708381
C  C447  1  0.61520000  0.21170000  0.31440000  1.0 -0.1873708381
C  C448  1  0.68560000  0.38480000  0.21170000  1.0 -0.1873708381
C  C449  1  0.31440000  0.38480000  0.78830000  1.0 -0.1873708381
C  C450  1  0.31440000  0.61520000  0.21170000  1.0 -0.1873708381
C  C451  1  0.21170000  0.68560000  0.38480000  1.0 -0.1873708381
C  C452  1  0.78830000  0.31440000  0.38480000  1.0 -0.1873708381
C  C453  1  0.21170000  0.31440000  0.61520000  1.0 -0.1873708381
C  C454  1  0.21170000  0.38480000  0.31440000  1.0 -0.1873708381
C  C455  1  0.38480000  0.31440000  0.21170000  1.0 -0.1873708381
C  C456  1  0.31440000  0.21170000  0.38480000  1.0 -0.1873708381
C  C457  1  0.37470000  0.24990000  0.34280000  1.0 -0.0880049753
C  C458  1  0.34280000  0.37470000  0.24990000  1.0 -0.0880049753
C  C459  1  0.24990000  0.34280000  0.37470000  1.0 -0.0880049753
C  C460  1  0.24990000  0.37470000  0.65720000  1.0 -0.0880049753
C  C461  1  0.24990000  0.62530000  0.34280000  1.0 -0.0880049753
C  C462  1  0.75010000  0.37470000  0.34280000  1.0 -0.0880049753
C  C463  1  0.37470000  0.34280000  0.75010000  1.0 -0.0880049753
C  C464  1  0.62530000  0.34280000  0.24990000  1.0 -0.0880049753
C  C465  1  0.37470000  0.65720000  0.24990000  1.0 -0.0880049753
C  C466  1  0.34280000  0.24990000  0.62530000  1.0 -0.0880049753
C  C467  1  0.34280000  0.75010000  0.37470000  1.0 -0.0880049753
C  C468  1  0.65720000  0.24990000  0.37470000  1.0 -0.0880049753
C  C469  1  0.62530000  0.75010000  0.34280000  1.0 -0.0880049753
C  C470  1  0.62530000  0.24990000  0.65720000  1.0 -0.0880049753
C  C471  1  0.37470000  0.75010000  0.65720000  1.0 -0.0880049753
C  C472  1  0.34280000  0.62530000  0.75010000  1.0 -0.0880049753
C  C473  1  0.65720000  0.62530000  0.24990000  1.0 -0.0880049753
C  C474  1  0.65720000  0.37470000  0.75010000  1.0 -0.0880049753
C  C475  1  0.75010000  0.34280000  0.62530000  1.0 -0.0880049753
C  C476  1  0.24990000  0.65720000  0.62530000  1.0 -0.0880049753
C  C477  1  0.75010000  0.65720000  0.37470000  1.0 -0.0880049753
C  C478  1  0.75010000  0.62530000  0.65720000  1.0 -0.0880049753
C  C479  1  0.62530000  0.65720000  0.75010000  1.0 -0.0880049753
C  C480  1  0.65720000  0.75010000  0.62530000  1.0 -0.0880049753
C  C481  1  0.62530000  0.75010000  0.65720000  1.0 -0.0880049753
C  C482  1  0.65720000  0.62530000  0.75010000  1.0 -0.0880049753
C  C483  1  0.75010000  0.65720000  0.62530000  1.0 -0.0880049753
C  C484  1  0.75010000  0.62530000  0.34280000  1.0 -0.0880049753
C  C485  1  0.75010000  0.37470000  0.65720000  1.0 -0.0880049753
C  C486  1  0.24990000  0.62530000  0.65720000  1.0 -0.0880049753
C  C487  1  0.62530000  0.65720000  0.24990000  1.0 -0.0880049753
C  C488  1  0.37470000  0.65720000  0.75010000  1.0 -0.0880049753
C  C489  1  0.62530000  0.34280000  0.75010000  1.0 -0.0880049753
C  C490  1  0.65720000  0.75010000  0.37470000  1.0 -0.0880049753
C  C491  1  0.65720000  0.24990000  0.62530000  1.0 -0.0880049753
C  C492  1  0.34280000  0.75010000  0.62530000  1.0 -0.0880049753
C  C493  1  0.37470000  0.24990000  0.65720000  1.0 -0.0880049753
C  C494  1  0.37470000  0.75010000  0.34280000  1.0 -0.0880049753
C  C495  1  0.62530000  0.24990000  0.34280000  1.0 -0.0880049753
C  C496  1  0.65720000  0.37470000  0.24990000  1.0 -0.0880049753
C  C497  1  0.34280000  0.37470000  0.75010000  1.0 -0.0880049753
C  C498  1  0.34280000  0.62530000  0.24990000  1.0 -0.0880049753
C  C499  1  0.24990000  0.65720000  0.37470000  1.0 -0.0880049753
C  C500  1  0.75010000  0.34280000  0.37470000  1.0 -0.0880049753
C  C501  1  0.24990000  0.34280000  0.62530000  1.0 -0.0880049753
C  C502  1  0.24990000  0.37470000  0.34280000  1.0 -0.0880049753
C  C503  1  0.37470000  0.34280000  0.24990000  1.0 -0.0880049753
C  C504  1  0.34280000  0.24990000  0.37470000  1.0 -0.0880049753
C  C505  1  0.47700000  0.07700000  0.31400000  1.0 0.069383089
C  C506  1  0.31400000  0.47700000  0.07700000  1.0 0.069383089
C  C507  1  0.07700000  0.31400000  0.47700000  1.0 0.069383089
C  C508  1  0.07700000  0.47700000  0.68600000  1.0 0.069383089
C  C509  1  0.07700000  0.52300000  0.31400000  1.0 0.069383089
C  C510  1  0.92300000  0.47700000  0.31400000  1.0 0.069383089
C  C511  1  0.47700000  0.31400000  0.92300000  1.0 0.069383089
C  C512  1  0.52300000  0.31400000  0.07700000  1.0 0.069383089
C  C513  1  0.47700000  0.68600000  0.07700000  1.0 0.069383089
C  C514  1  0.31400000  0.07700000  0.52300000  1.0 0.069383089
C  C515  1  0.31400000  0.92300000  0.47700000  1.0 0.069383089
C  C516  1  0.68600000  0.07700000  0.47700000  1.0 0.069383089
C  C517  1  0.52300000  0.92300000  0.31400000  1.0 0.069383089
C  C518  1  0.52300000  0.07700000  0.68600000  1.0 0.069383089
C  C519  1  0.47700000  0.92300000  0.68600000  1.0 0.069383089
C  C520  1  0.31400000  0.52300000  0.92300000  1.0 0.069383089
C  C521  1  0.68600000  0.52300000  0.07700000  1.0 0.069383089
C  C522  1  0.68600000  0.47700000  0.92300000  1.0 0.069383089
C  C523  1  0.92300000  0.31400000  0.52300000  1.0 0.069383089
C  C524  1  0.07700000  0.68600000  0.52300000  1.0 0.069383089
C  C525  1  0.92300000  0.68600000  0.47700000  1.0 0.069383089
C  C526  1  0.92300000  0.52300000  0.68600000  1.0 0.069383089
C  C527  1  0.52300000  0.68600000  0.92300000  1.0 0.069383089
C  C528  1  0.68600000  0.92300000  0.52300000  1.0 0.069383089
C  C529  1  0.52300000  0.92300000  0.68600000  1.0 0.069383089
C  C530  1  0.68600000  0.52300000  0.92300000  1.0 0.069383089
C  C531  1  0.92300000  0.68600000  0.52300000  1.0 0.069383089
C  C532  1  0.92300000  0.52300000  0.31400000  1.0 0.069383089
C  C533  1  0.92300000  0.47700000  0.68600000  1.0 0.069383089
C  C534  1  0.07700000  0.52300000  0.68600000  1.0 0.069383089
C  C535  1  0.52300000  0.68600000  0.07700000  1.0 0.069383089
C  C536  1  0.47700000  0.68600000  0.92300000  1.0 0.069383089
C  C537  1  0.52300000  0.31400000  0.92300000  1.0 0.069383089
C  C538  1  0.68600000  0.92300000  0.47700000  1.0 0.069383089
C  C539  1  0.68600000  0.07700000  0.52300000  1.0 0.069383089
C  C540  1  0.31400000  0.92300000  0.52300000  1.0 0.069383089
C  C541  1  0.47700000  0.07700000  0.68600000  1.0 0.069383089
C  C542  1  0.47700000  0.92300000  0.31400000  1.0 0.069383089
C  C543  1  0.52300000  0.07700000  0.31400000  1.0 0.069383089
C  C544  1  0.68600000  0.47700000  0.07700000  1.0 0.069383089
C  C545  1  0.31400000  0.47700000  0.92300000  1.0 0.069383089
C  C546  1  0.31400000  0.52300000  0.07700000  1.0 0.069383089
C  C547  1  0.07700000  0.68600000  0.47700000  1.0 0.069383089
C  C548  1  0.92300000  0.31400000  0.47700000  1.0 0.069383089
C  C549  1  0.07700000  0.31400000  0.52300000  1.0 0.069383089
C  C550  1  0.07700000  0.47700000  0.31400000  1.0 0.069383089
C  C551  1  0.47700000  0.31400000  0.07700000  1.0 0.069383089
C  C552  1  0.31400000  0.07700000  0.47700000  1.0 0.069383089
C  C553  1  0.45300000  0.05800000  0.34800000  1.0 -0.0699673383
C  C554  1  0.34800000  0.45300000  0.05800000  1.0 -0.0699673383
C  C555  1  0.05800000  0.34800000  0.45300000  1.0 -0.0699673383
C  C556  1  0.05800000  0.45300000  0.65200000  1.0 -0.0699673383
C  C557  1  0.05800000  0.54700000  0.34800000  1.0 -0.0699673383
C  C558  1  0.94200000  0.45300000  0.34800000  1.0 -0.0699673383
C  C559  1  0.45300000  0.34800000  0.94200000  1.0 -0.0699673383
C  C560  1  0.54700000  0.34800000  0.05800000  1.0 -0.0699673383
C  C561  1  0.45300000  0.65200000  0.05800000  1.0 -0.0699673383
C  C562  1  0.34800000  0.05800000  0.54700000  1.0 -0.0699673383
C  C563  1  0.34800000  0.94200000  0.45300000  1.0 -0.0699673383
C  C564  1  0.65200000  0.05800000  0.45300000  1.0 -0.0699673383
C  C565  1  0.54700000  0.94200000  0.34800000  1.0 -0.0699673383
C  C566  1  0.54700000  0.05800000  0.65200000  1.0 -0.0699673383
C  C567  1  0.45300000  0.94200000  0.65200000  1.0 -0.0699673383
C  C568  1  0.34800000  0.54700000  0.94200000  1.0 -0.0699673383
C  C569  1  0.65200000  0.54700000  0.05800000  1.0 -0.0699673383
C  C570  1  0.65200000  0.45300000  0.94200000  1.0 -0.0699673383
C  C571  1  0.94200000  0.34800000  0.54700000  1.0 -0.0699673383
C  C572  1  0.05800000  0.65200000  0.54700000  1.0 -0.0699673383
C  C573  1  0.94200000  0.65200000  0.45300000  1.0 -0.0699673383
C  C574  1  0.94200000  0.54700000  0.65200000  1.0 -0.0699673383
C  C575  1  0.54700000  0.65200000  0.94200000  1.0 -0.0699673383
C  C576  1  0.65200000  0.94200000  0.54700000  1.0 -0.0699673383
C  C577  1  0.54700000  0.94200000  0.65200000  1.0 -0.0699673383
C  C578  1  0.65200000  0.54700000  0.94200000  1.0 -0.0699673383
C  C579  1  0.94200000  0.65200000  0.54700000  1.0 -0.0699673383
C  C580  1  0.94200000  0.54700000  0.34800000  1.0 -0.0699673383
C  C581  1  0.94200000  0.45300000  0.65200000  1.0 -0.0699673383
C  C582  1  0.05800000  0.54700000  0.65200000  1.0 -0.0699673383
C  C583  1  0.54700000  0.65200000  0.05800000  1.0 -0.0699673383
C  C584  1  0.45300000  0.65200000  0.94200000  1.0 -0.0699673383
C  C585  1  0.54700000  0.34800000  0.94200000  1.0 -0.0699673383
C  C586  1  0.65200000  0.94200000  0.45300000  1.0 -0.0699673383
C  C587  1  0.65200000  0.05800000  0.54700000  1.0 -0.0699673383
C  C588  1  0.34800000  0.94200000  0.54700000  1.0 -0.0699673383
C  C589  1  0.45300000  0.05800000  0.65200000  1.0 -0.0699673383
C  C590  1  0.45300000  0.94200000  0.34800000  1.0 -0.0699673383
C  C591  1  0.54700000  0.05800000  0.34800000  1.0 -0.0699673383
C  C592  1  0.65200000  0.45300000  0.05800000  1.0 -0.0699673383
C  C593  1  0.34800000  0.45300000  0.94200000  1.0 -0.0699673383
C  C594  1  0.34800000  0.54700000  0.05800000  1.0 -0.0699673383
C  C595  1  0.05800000  0.65200000  0.45300000  1.0 -0.0699673383
C  C596  1  0.94200000  0.34800000  0.45300000  1.0 -0.0699673383
C  C597  1  0.05800000  0.34800000  0.54700000  1.0 -0.0699673383
C  C598  1  0.05800000  0.45300000  0.34800000  1.0 -0.0699673383
C  C599  1  0.45300000  0.34800000  0.05800000  1.0 -0.0699673383
C  C600  1  0.34800000  0.05800000  0.45300000  1.0 -0.0699673383
C  C601  1  0.47800000  0.03200000  0.38700000  1.0 -0.1320131409
C  C602  1  0.38700000  0.47800000  0.03200000  1.0 -0.1320131409
C  C603  1  0.03200000  0.38700000  0.47800000  1.0 -0.1320131409
C  C604  1  0.03200000  0.47800000  0.61300000  1.0 -0.1320131409
C  C605  1  0.03200000  0.52200000  0.38700000  1.0 -0.1320131409
C  C606  1  0.96800000  0.47800000  0.38700000  1.0 -0.1320131409
C  C607  1  0.47800000  0.38700000  0.96800000  1.0 -0.1320131409
C  C608  1  0.52200000  0.38700000  0.03200000  1.0 -0.1320131409
C  C609  1  0.47800000  0.61300000  0.03200000  1.0 -0.1320131409
C  C610  1  0.38700000  0.03200000  0.52200000  1.0 -0.1320131409
C  C611  1  0.38700000  0.96800000  0.47800000  1.0 -0.1320131409
C  C612  1  0.61300000  0.03200000  0.47800000  1.0 -0.1320131409
C  C613  1  0.52200000  0.96800000  0.38700000  1.0 -0.1320131409
C  C614  1  0.52200000  0.03200000  0.61300000  1.0 -0.1320131409
C  C615  1  0.47800000  0.96800000  0.61300000  1.0 -0.1320131409
C  C616  1  0.38700000  0.52200000  0.96800000  1.0 -0.1320131409
C  C617  1  0.61300000  0.52200000  0.03200000  1.0 -0.1320131409
C  C618  1  0.61300000  0.47800000  0.96800000  1.0 -0.1320131409
C  C619  1  0.96800000  0.38700000  0.52200000  1.0 -0.1320131409
C  C620  1  0.03200000  0.61300000  0.52200000  1.0 -0.1320131409
C  C621  1  0.96800000  0.61300000  0.47800000  1.0 -0.1320131409
C  C622  1  0.96800000  0.52200000  0.61300000  1.0 -0.1320131409
C  C623  1  0.52200000  0.61300000  0.96800000  1.0 -0.1320131409
C  C624  1  0.61300000  0.96800000  0.52200000  1.0 -0.1320131409
C  C625  1  0.52200000  0.96800000  0.61300000  1.0 -0.1320131409
C  C626  1  0.61300000  0.52200000  0.96800000  1.0 -0.1320131409
C  C627  1  0.96800000  0.61300000  0.52200000  1.0 -0.1320131409
C  C628  1  0.96800000  0.52200000  0.38700000  1.0 -0.1320131409
C  C629  1  0.96800000  0.47800000  0.61300000  1.0 -0.1320131409
C  C630  1  0.03200000  0.52200000  0.61300000  1.0 -0.1320131409
C  C631  1  0.52200000  0.61300000  0.03200000  1.0 -0.1320131409
C  C632  1  0.47800000  0.61300000  0.96800000  1.0 -0.1320131409
C  C633  1  0.52200000  0.38700000  0.96800000  1.0 -0.1320131409
C  C634  1  0.61300000  0.96800000  0.47800000  1.0 -0.1320131409
C  C635  1  0.61300000  0.03200000  0.52200000  1.0 -0.1320131409
C  C636  1  0.38700000  0.96800000  0.52200000  1.0 -0.1320131409
C  C637  1  0.47800000  0.03200000  0.61300000  1.0 -0.1320131409
C  C638  1  0.47800000  0.96800000  0.38700000  1.0 -0.1320131409
C  C639  1  0.52200000  0.03200000  0.38700000  1.0 -0.1320131409
C  C640  1  0.61300000  0.47800000  0.03200000  1.0 -0.1320131409
C  C641  1  0.38700000  0.47800000  0.96800000  1.0 -0.1320131409
C  C642  1  0.38700000  0.52200000  0.03200000  1.0 -0.1320131409
C  C643  1  0.03200000  0.61300000  0.47800000  1.0 -0.1320131409
C  C644  1  0.96800000  0.38700000  0.47800000  1.0 -0.1320131409
C  C645  1  0.03200000  0.38700000  0.52200000  1.0 -0.1320131409
C  C646  1  0.03200000  0.47800000  0.38700000  1.0 -0.1320131409
C  C647  1  0.47800000  0.38700000  0.03200000  1.0 -0.1320131409
C  C648  1  0.38700000  0.03200000  0.47800000  1.0 -0.1320131409
C  C649  1  0.50000000  0.10650000  0.25340000  1.0 0.0096043664
C  C650  1  0.25340000  0.50000000  0.10650000  1.0 0.0096043664
C  C651  1  0.10650000  0.25340000  0.50000000  1.0 0.0096043664
C  C652  1  0.10650000  0.50000000  0.74660000  1.0 0.0096043664
C  C653  1  0.10650000  0.50000000  0.25340000  1.0 0.0096043664
C  C654  1  0.89350000  0.50000000  0.25340000  1.0 0.0096043664
C  C655  1  0.50000000  0.25340000  0.89350000  1.0 0.0096043664
C  C656  1  0.50000000  0.25340000  0.10650000  1.0 0.0096043664
C  C657  1  0.50000000  0.74660000  0.10650000  1.0 0.0096043664
C  C658  1  0.25340000  0.10650000  0.50000000  1.0 0.0096043664
C  C659  1  0.25340000  0.89350000  0.50000000  1.0 0.0096043664
C  C660  1  0.74660000  0.10650000  0.50000000  1.0 0.0096043664
C  C661  1  0.50000000  0.89350000  0.25340000  1.0 0.0096043664
C  C662  1  0.50000000  0.10650000  0.74660000  1.0 0.0096043664
C  C663  1  0.50000000  0.89350000  0.74660000  1.0 0.0096043664
C  C664  1  0.25340000  0.50000000  0.89350000  1.0 0.0096043664
C  C665  1  0.74660000  0.50000000  0.10650000  1.0 0.0096043664
C  C666  1  0.74660000  0.50000000  0.89350000  1.0 0.0096043664
C  C667  1  0.89350000  0.25340000  0.50000000  1.0 0.0096043664
C  C668  1  0.10650000  0.74660000  0.50000000  1.0 0.0096043664
C  C669  1  0.89350000  0.74660000  0.50000000  1.0 0.0096043664
C  C670  1  0.89350000  0.50000000  0.74660000  1.0 0.0096043664
C  C671  1  0.50000000  0.74660000  0.89350000  1.0 0.0096043664
C  C672  1  0.74660000  0.89350000  0.50000000  1.0 0.0096043664
C  C673  1  0.42700000  0.11800000  0.15300000  1.0 0.0622980135
C  C674  1  0.15300000  0.42700000  0.11800000  1.0 0.0622980135
C  C675  1  0.11800000  0.15300000  0.42700000  1.0 0.0622980135
C  C676  1  0.11800000  0.42700000  0.84700000  1.0 0.0622980135
C  C677  1  0.11800000  0.57300000  0.15300000  1.0 0.0622980135
C  C678  1  0.88200000  0.42700000  0.15300000  1.0 0.0622980135
C  C679  1  0.42700000  0.15300000  0.88200000  1.0 0.0622980135
C  C680  1  0.57300000  0.15300000  0.11800000  1.0 0.0622980135
C  C681  1  0.42700000  0.84700000  0.11800000  1.0 0.0622980135
C  C682  1  0.15300000  0.11800000  0.57300000  1.0 0.0622980135
C  C683  1  0.15300000  0.88200000  0.42700000  1.0 0.0622980135
C  C684  1  0.84700000  0.11800000  0.42700000  1.0 0.0622980135
C  C685  1  0.57300000  0.88200000  0.15300000  1.0 0.0622980135
C  C686  1  0.57300000  0.11800000  0.84700000  1.0 0.0622980135
C  C687  1  0.42700000  0.88200000  0.84700000  1.0 0.0622980135
C  C688  1  0.15300000  0.57300000  0.88200000  1.0 0.0622980135
C  C689  1  0.84700000  0.57300000  0.11800000  1.0 0.0622980135
C  C690  1  0.84700000  0.42700000  0.88200000  1.0 0.0622980135
C  C691  1  0.88200000  0.15300000  0.57300000  1.0 0.0622980135
C  C692  1  0.11800000  0.84700000  0.57300000  1.0 0.0622980135
C  C693  1  0.88200000  0.84700000  0.42700000  1.0 0.0622980135
C  C694  1  0.88200000  0.57300000  0.84700000  1.0 0.0622980135
C  C695  1  0.57300000  0.84700000  0.88200000  1.0 0.0622980135
C  C696  1  0.84700000  0.88200000  0.57300000  1.0 0.0622980135
C  C697  1  0.57300000  0.88200000  0.84700000  1.0 0.0622980135
C  C698  1  0.84700000  0.57300000  0.88200000  1.0 0.0622980135
C  C699  1  0.88200000  0.84700000  0.57300000  1.0 0.0622980135
C  C700  1  0.88200000  0.57300000  0.15300000  1.0 0.0622980135
C  C701  1  0.88200000  0.42700000  0.84700000  1.0 0.0622980135
C  C702  1  0.11800000  0.57300000  0.84700000  1.0 0.0622980135
C  C703  1  0.57300000  0.84700000  0.11800000  1.0 0.0622980135
C  C704  1  0.42700000  0.84700000  0.88200000  1.0 0.0622980135
C  C705  1  0.57300000  0.15300000  0.88200000  1.0 0.0622980135
C  C706  1  0.84700000  0.88200000  0.42700000  1.0 0.0622980135
C  C707  1  0.84700000  0.11800000  0.57300000  1.0 0.0622980135
C  C708  1  0.15300000  0.88200000  0.57300000  1.0 0.0622980135
C  C709  1  0.42700000  0.11800000  0.84700000  1.0 0.0622980135
C  C710  1  0.42700000  0.88200000  0.15300000  1.0 0.0622980135
C  C711  1  0.57300000  0.11800000  0.15300000  1.0 0.0622980135
C  C712  1  0.84700000  0.42700000  0.11800000  1.0 0.0622980135
C  C713  1  0.15300000  0.42700000  0.88200000  1.0 0.0622980135
C  C714  1  0.15300000  0.57300000  0.11800000  1.0 0.0622980135
C  C715  1  0.11800000  0.84700000  0.42700000  1.0 0.0622980135
C  C716  1  0.88200000  0.15300000  0.42700000  1.0 0.0622980135
C  C717  1  0.11800000  0.15300000  0.57300000  1.0 0.0622980135
C  C718  1  0.11800000  0.42700000  0.15300000  1.0 0.0622980135
C  C719  1  0.42700000  0.15300000  0.11800000  1.0 0.0622980135
C  C720  1  0.15300000  0.11800000  0.42700000  1.0 0.0622980135
C  C721  1  0.44500000  0.07600000  0.14600000  1.0 -0.0792290214
C  C722  1  0.14600000  0.44500000  0.07600000  1.0 -0.0792290214
C  C723  1  0.07600000  0.14600000  0.44500000  1.0 -0.0792290214
C  C724  1  0.07600000  0.44500000  0.85400000  1.0 -0.0792290214
C  C725  1  0.07600000  0.55500000  0.14600000  1.0 -0.0792290214
C  C726  1  0.92400000  0.44500000  0.14600000  1.0 -0.0792290214
C  C727  1  0.44500000  0.14600000  0.92400000  1.0 -0.0792290214
C  C728  1  0.55500000  0.14600000  0.07600000  1.0 -0.0792290214
C  C729  1  0.44500000  0.85400000  0.07600000  1.0 -0.0792290214
C  C730  1  0.14600000  0.07600000  0.55500000  1.0 -0.0792290214
C  C731  1  0.14600000  0.92400000  0.44500000  1.0 -0.0792290214
C  C732  1  0.85400000  0.07600000  0.44500000  1.0 -0.0792290214
C  C733  1  0.55500000  0.92400000  0.14600000  1.0 -0.0792290214
C  C734  1  0.55500000  0.07600000  0.85400000  1.0 -0.0792290214
C  C735  1  0.44500000  0.92400000  0.85400000  1.0 -0.0792290214
C  C736  1  0.14600000  0.55500000  0.92400000  1.0 -0.0792290214
C  C737  1  0.85400000  0.55500000  0.07600000  1.0 -0.0792290214
C  C738  1  0.85400000  0.44500000  0.92400000  1.0 -0.0792290214
C  C739  1  0.92400000  0.14600000  0.55500000  1.0 -0.0792290214
C  C740  1  0.07600000  0.85400000  0.55500000  1.0 -0.0792290214
C  C741  1  0.92400000  0.85400000  0.44500000  1.0 -0.0792290214
C  C742  1  0.92400000  0.55500000  0.85400000  1.0 -0.0792290214
C  C743  1  0.55500000  0.85400000  0.92400000  1.0 -0.0792290214
C  C744  1  0.85400000  0.92400000  0.55500000  1.0 -0.0792290214
C  C745  1  0.55500000  0.92400000  0.85400000  1.0 -0.0792290214
C  C746  1  0.85400000  0.55500000  0.92400000  1.0 -0.0792290214
C  C747  1  0.92400000  0.85400000  0.55500000  1.0 -0.0792290214
C  C748  1  0.92400000  0.55500000  0.14600000  1.0 -0.0792290214
C  C749  1  0.92400000  0.44500000  0.85400000  1.0 -0.0792290214
C  C750  1  0.07600000  0.55500000  0.85400000  1.0 -0.0792290214
C  C751  1  0.55500000  0.85400000  0.07600000  1.0 -0.0792290214
C  C752  1  0.44500000  0.85400000  0.92400000  1.0 -0.0792290214
C  C753  1  0.55500000  0.14600000  0.92400000  1.0 -0.0792290214
C  C754  1  0.85400000  0.92400000  0.44500000  1.0 -0.0792290214
C  C755  1  0.85400000  0.07600000  0.55500000  1.0 -0.0792290214
C  C756  1  0.14600000  0.92400000  0.55500000  1.0 -0.0792290214
C  C757  1  0.44500000  0.07600000  0.85400000  1.0 -0.0792290214
C  C758  1  0.44500000  0.92400000  0.14600000  1.0 -0.0792290214
C  C759  1  0.55500000  0.07600000  0.14600000  1.0 -0.0792290214
C  C760  1  0.85400000  0.44500000  0.07600000  1.0 -0.0792290214
C  C761  1  0.14600000  0.44500000  0.92400000  1.0 -0.0792290214
C  C762  1  0.14600000  0.55500000  0.07600000  1.0 -0.0792290214
C  C763  1  0.07600000  0.85400000  0.44500000  1.0 -0.0792290214
C  C764  1  0.92400000  0.14600000  0.44500000  1.0 -0.0792290214
C  C765  1  0.07600000  0.14600000  0.55500000  1.0 -0.0792290214
C  C766  1  0.07600000  0.44500000  0.14600000  1.0 -0.0792290214
C  C767  1  0.44500000  0.14600000  0.07600000  1.0 -0.0792290214
C  C768  1  0.14600000  0.07600000  0.44500000  1.0 -0.0792290214
C  C769  1  0.46100000  0.07100000  0.10300000  1.0 -0.1116839064
C  C770  1  0.10300000  0.46100000  0.07100000  1.0 -0.1116839064
C  C771  1  0.07100000  0.10300000  0.46100000  1.0 -0.1116839064
C  C772  1  0.07100000  0.46100000  0.89700000  1.0 -0.1116839064
C  C773  1  0.07100000  0.53900000  0.10300000  1.0 -0.1116839064
C  C774  1  0.92900000  0.46100000  0.10300000  1.0 -0.1116839064
C  C775  1  0.46100000  0.10300000  0.92900000  1.0 -0.1116839064
C  C776  1  0.53900000  0.10300000  0.07100000  1.0 -0.1116839064
C  C777  1  0.46100000  0.89700000  0.07100000  1.0 -0.1116839064
C  C778  1  0.10300000  0.07100000  0.53900000  1.0 -0.1116839064
C  C779  1  0.10300000  0.92900000  0.46100000  1.0 -0.1116839064
C  C780  1  0.89700000  0.07100000  0.46100000  1.0 -0.1116839064
C  C781  1  0.53900000  0.92900000  0.10300000  1.0 -0.1116839064
C  C782  1  0.53900000  0.07100000  0.89700000  1.0 -0.1116839064
C  C783  1  0.46100000  0.92900000  0.89700000  1.0 -0.1116839064
C  C784  1  0.10300000  0.53900000  0.92900000  1.0 -0.1116839064
C  C785  1  0.89700000  0.53900000  0.07100000  1.0 -0.1116839064
C  C786  1  0.89700000  0.46100000  0.92900000  1.0 -0.1116839064
C  C787  1  0.92900000  0.10300000  0.53900000  1.0 -0.1116839064
C  C788  1  0.07100000  0.89700000  0.53900000  1.0 -0.1116839064
C  C789  1  0.92900000  0.89700000  0.46100000  1.0 -0.1116839064
C  C790  1  0.92900000  0.53900000  0.89700000  1.0 -0.1116839064
C  C791  1  0.53900000  0.89700000  0.92900000  1.0 -0.1116839064
C  C792  1  0.89700000  0.92900000  0.53900000  1.0 -0.1116839064
C  C793  1  0.53900000  0.92900000  0.89700000  1.0 -0.1116839064
C  C794  1  0.89700000  0.53900000  0.92900000  1.0 -0.1116839064
C  C795  1  0.92900000  0.89700000  0.53900000  1.0 -0.1116839064
C  C796  1  0.92900000  0.53900000  0.10300000  1.0 -0.1116839064
C  C797  1  0.92900000  0.46100000  0.89700000  1.0 -0.1116839064
C  C798  1  0.07100000  0.53900000  0.89700000  1.0 -0.1116839064
C  C799  1  0.53900000  0.89700000  0.07100000  1.0 -0.1116839064
C  C800  1  0.46100000  0.89700000  0.92900000  1.0 -0.1116839064
C  C801  1  0.53900000  0.10300000  0.92900000  1.0 -0.1116839064
C  C802  1  0.89700000  0.92900000  0.46100000  1.0 -0.1116839064
C  C803  1  0.89700000  0.07100000  0.53900000  1.0 -0.1116839064
C  C804  1  0.10300000  0.92900000  0.53900000  1.0 -0.1116839064
C  C805  1  0.46100000  0.07100000  0.89700000  1.0 -0.1116839064
C  C806  1  0.46100000  0.92900000  0.10300000  1.0 -0.1116839064
C  C807  1  0.53900000  0.07100000  0.10300000  1.0 -0.1116839064
C  C808  1  0.89700000  0.46100000  0.07100000  1.0 -0.1116839064
C  C809  1  0.10300000  0.46100000  0.92900000  1.0 -0.1116839064
C  C810  1  0.10300000  0.53900000  0.07100000  1.0 -0.1116839064
C  C811  1  0.07100000  0.89700000  0.46100000  1.0 -0.1116839064
C  C812  1  0.92900000  0.10300000  0.46100000  1.0 -0.1116839064
C  C813  1  0.07100000  0.10300000  0.53900000  1.0 -0.1116839064
C  C814  1  0.07100000  0.46100000  0.10300000  1.0 -0.1116839064
C  C815  1  0.46100000  0.10300000  0.07100000  1.0 -0.1116839064
C  C816  1  0.10300000  0.07100000  0.46100000  1.0 -0.1116839064
C  C817  1  0.47470000  0.10150000  0.32310000  1.0 0.0990850578
C  C818  1  0.32310000  0.47470000  0.10150000  1.0 0.0990850578
C  C819  1  0.10150000  0.32310000  0.47470000  1.0 0.0990850578
C  C820  1  0.10150000  0.47470000  0.67690000  1.0 0.0990850578
C  C821  1  0.10150000  0.52530000  0.32310000  1.0 0.0990850578
C  C822  1  0.89850000  0.47470000  0.32310000  1.0 0.0990850578
C  C823  1  0.47470000  0.32310000  0.89850000  1.0 0.0990850578
C  C824  1  0.52530000  0.32310000  0.10150000  1.0 0.0990850578
C  C825  1  0.47470000  0.67690000  0.10150000  1.0 0.0990850578
C  C826  1  0.32310000  0.10150000  0.52530000  1.0 0.0990850578
C  C827  1  0.32310000  0.89850000  0.47470000  1.0 0.0990850578
C  C828  1  0.67690000  0.10150000  0.47470000  1.0 0.0990850578
C  C829  1  0.52530000  0.89850000  0.32310000  1.0 0.0990850578
C  C830  1  0.52530000  0.10150000  0.67690000  1.0 0.0990850578
C  C831  1  0.47470000  0.89850000  0.67690000  1.0 0.0990850578
C  C832  1  0.32310000  0.52530000  0.89850000  1.0 0.0990850578
C  C833  1  0.67690000  0.52530000  0.10150000  1.0 0.0990850578
C  C834  1  0.67690000  0.47470000  0.89850000  1.0 0.0990850578
C  C835  1  0.89850000  0.32310000  0.52530000  1.0 0.0990850578
C  C836  1  0.10150000  0.67690000  0.52530000  1.0 0.0990850578
C  C837  1  0.89850000  0.67690000  0.47470000  1.0 0.0990850578
C  C838  1  0.89850000  0.52530000  0.67690000  1.0 0.0990850578
C  C839  1  0.52530000  0.67690000  0.89850000  1.0 0.0990850578
C  C840  1  0.67690000  0.89850000  0.52530000  1.0 0.0990850578
C  C841  1  0.52530000  0.89850000  0.67690000  1.0 0.0990850578
C  C842  1  0.67690000  0.52530000  0.89850000  1.0 0.0990850578
C  C843  1  0.89850000  0.67690000  0.52530000  1.0 0.0990850578
C  C844  1  0.89850000  0.52530000  0.32310000  1.0 0.0990850578
C  C845  1  0.89850000  0.47470000  0.67690000  1.0 0.0990850578
C  C846  1  0.10150000  0.52530000  0.67690000  1.0 0.0990850578
C  C847  1  0.52530000  0.67690000  0.10150000  1.0 0.0990850578
C  C848  1  0.47470000  0.67690000  0.89850000  1.0 0.0990850578
C  C849  1  0.52530000  0.32310000  0.89850000  1.0 0.0990850578
C  C850  1  0.67690000  0.89850000  0.47470000  1.0 0.0990850578
C  C851  1  0.67690000  0.10150000  0.52530000  1.0 0.0990850578
C  C852  1  0.32310000  0.89850000  0.52530000  1.0 0.0990850578
C  C853  1  0.47470000  0.10150000  0.67690000  1.0 0.0990850578
C  C854  1  0.47470000  0.89850000  0.32310000  1.0 0.0990850578
C  C855  1  0.52530000  0.10150000  0.32310000  1.0 0.0990850578
C  C856  1  0.67690000  0.47470000  0.10150000  1.0 0.0990850578
C  C857  1  0.32310000  0.47470000  0.89850000  1.0 0.0990850578
C  C858  1  0.32310000  0.52530000  0.10150000  1.0 0.0990850578
C  C859  1  0.10150000  0.67690000  0.47470000  1.0 0.0990850578
C  C860  1  0.89850000  0.32310000  0.47470000  1.0 0.0990850578
C  C861  1  0.10150000  0.32310000  0.52530000  1.0 0.0990850578
C  C862  1  0.10150000  0.47470000  0.32310000  1.0 0.0990850578
C  C863  1  0.47470000  0.32310000  0.10150000  1.0 0.0990850578
C  C864  1  0.32310000  0.10150000  0.47470000  1.0 0.0990850578
C  C865  1  0.44990000  0.09570000  0.36470000  1.0 -0.0880049753
C  C866  1  0.36470000  0.44990000  0.09570000  1.0 -0.0880049753
C  C867  1  0.09570000  0.36470000  0.44990000  1.0 -0.0880049753
C  C868  1  0.09570000  0.44990000  0.63530000  1.0 -0.0880049753
C  C869  1  0.09570000  0.55010000  0.36470000  1.0 -0.0880049753
C  C870  1  0.90430000  0.44990000  0.36470000  1.0 -0.0880049753
C  C871  1  0.44990000  0.36470000  0.90430000  1.0 -0.0880049753
C  C872  1  0.55010000  0.36470000  0.09570000  1.0 -0.0880049753
C  C873  1  0.44990000  0.63530000  0.09570000  1.0 -0.0880049753
C  C874  1  0.36470000  0.09570000  0.55010000  1.0 -0.0880049753
C  C875  1  0.36470000  0.90430000  0.44990000  1.0 -0.0880049753
C  C876  1  0.63530000  0.09570000  0.44990000  1.0 -0.0880049753
C  C877  1  0.55010000  0.90430000  0.36470000  1.0 -0.0880049753
C  C878  1  0.55010000  0.09570000  0.63530000  1.0 -0.0880049753
C  C879  1  0.44990000  0.90430000  0.63530000  1.0 -0.0880049753
C  C880  1  0.36470000  0.55010000  0.90430000  1.0 -0.0880049753
C  C881  1  0.63530000  0.55010000  0.09570000  1.0 -0.0880049753
C  C882  1  0.63530000  0.44990000  0.90430000  1.0 -0.0880049753
C  C883  1  0.90430000  0.36470000  0.55010000  1.0 -0.0880049753
C  C884  1  0.09570000  0.63530000  0.55010000  1.0 -0.0880049753
C  C885  1  0.90430000  0.63530000  0.44990000  1.0 -0.0880049753
C  C886  1  0.90430000  0.55010000  0.63530000  1.0 -0.0880049753
C  C887  1  0.55010000  0.63530000  0.90430000  1.0 -0.0880049753
C  C888  1  0.63530000  0.90430000  0.55010000  1.0 -0.0880049753
C  C889  1  0.55010000  0.90430000  0.63530000  1.0 -0.0880049753
C  C890  1  0.63530000  0.55010000  0.90430000  1.0 -0.0880049753
C  C891  1  0.90430000  0.63530000  0.55010000  1.0 -0.0880049753
C  C892  1  0.90430000  0.55010000  0.36470000  1.0 -0.0880049753
C  C893  1  0.90430000  0.44990000  0.63530000  1.0 -0.0880049753
C  C894  1  0.09570000  0.55010000  0.63530000  1.0 -0.0880049753
C  C895  1  0.55010000  0.63530000  0.09570000  1.0 -0.0880049753
C  C896  1  0.44990000  0.63530000  0.90430000  1.0 -0.0880049753
C  C897  1  0.55010000  0.36470000  0.90430000  1.0 -0.0880049753
C  C898  1  0.63530000  0.90430000  0.44990000  1.0 -0.0880049753
C  C899  1  0.63530000  0.09570000  0.55010000  1.0 -0.0880049753
C  C900  1  0.36470000  0.90430000  0.55010000  1.0 -0.0880049753
C  C901  1  0.44990000  0.09570000  0.63530000  1.0 -0.0880049753
C  C902  1  0.44990000  0.90430000  0.36470000  1.0 -0.0880049753
C  C903  1  0.55010000  0.09570000  0.36470000  1.0 -0.0880049753
C  C904  1  0.63530000  0.44990000  0.09570000  1.0 -0.0880049753
C  C905  1  0.36470000  0.44990000  0.90430000  1.0 -0.0880049753
C  C906  1  0.36470000  0.55010000  0.09570000  1.0 -0.0880049753
C  C907  1  0.09570000  0.63530000  0.44990000  1.0 -0.0880049753
C  C908  1  0.90430000  0.36470000  0.44990000  1.0 -0.0880049753
C  C909  1  0.09570000  0.36470000  0.55010000  1.0 -0.0880049753
C  C910  1  0.09570000  0.44990000  0.36470000  1.0 -0.0880049753
C  C911  1  0.44990000  0.36470000  0.09570000  1.0 -0.0880049753
C  C912  1  0.36470000  0.09570000  0.44990000  1.0 -0.0880049753
C  C913  1  0.47500000  0.09300000  0.40600000  1.0 -0.1381474458
C  C914  1  0.40600000  0.47500000  0.09300000  1.0 -0.1381474458
C  C915  1  0.09300000  0.40600000  0.47500000  1.0 -0.1381474458
C  C916  1  0.09300000  0.47500000  0.59400000  1.0 -0.1381474458
C  C917  1  0.09300000  0.52500000  0.40600000  1.0 -0.1381474458
C  C918  1  0.90700000  0.47500000  0.40600000  1.0 -0.1381474458
C  C919  1  0.47500000  0.40600000  0.90700000  1.0 -0.1381474458
C  C920  1  0.52500000  0.40600000  0.09300000  1.0 -0.1381474458
C  C921  1  0.47500000  0.59400000  0.09300000  1.0 -0.1381474458
C  C922  1  0.40600000  0.09300000  0.52500000  1.0 -0.1381474458
C  C923  1  0.40600000  0.90700000  0.47500000  1.0 -0.1381474458
C  C924  1  0.59400000  0.09300000  0.47500000  1.0 -0.1381474458
C  C925  1  0.52500000  0.90700000  0.40600000  1.0 -0.1381474458
C  C926  1  0.52500000  0.09300000  0.59400000  1.0 -0.1381474458
C  C927  1  0.47500000  0.90700000  0.59400000  1.0 -0.1381474458
C  C928  1  0.40600000  0.52500000  0.90700000  1.0 -0.1381474458
C  C929  1  0.59400000  0.52500000  0.09300000  1.0 -0.1381474458
C  C930  1  0.59400000  0.47500000  0.90700000  1.0 -0.1381474458
C  C931  1  0.90700000  0.40600000  0.52500000  1.0 -0.1381474458
C  C932  1  0.09300000  0.59400000  0.52500000  1.0 -0.1381474458
C  C933  1  0.90700000  0.59400000  0.47500000  1.0 -0.1381474458
C  C934  1  0.90700000  0.52500000  0.59400000  1.0 -0.1381474458
C  C935  1  0.52500000  0.59400000  0.90700000  1.0 -0.1381474458
C  C936  1  0.59400000  0.90700000  0.52500000  1.0 -0.1381474458
C  C937  1  0.52500000  0.90700000  0.59400000  1.0 -0.1381474458
C  C938  1  0.59400000  0.52500000  0.90700000  1.0 -0.1381474458
C  C939  1  0.90700000  0.59400000  0.52500000  1.0 -0.1381474458
C  C940  1  0.90700000  0.52500000  0.40600000  1.0 -0.1381474458
C  C941  1  0.90700000  0.47500000  0.59400000  1.0 -0.1381474458
C  C942  1  0.09300000  0.52500000  0.59400000  1.0 -0.1381474458
C  C943  1  0.52500000  0.59400000  0.09300000  1.0 -0.1381474458
C  C944  1  0.47500000  0.59400000  0.90700000  1.0 -0.1381474458
C  C945  1  0.52500000  0.40600000  0.90700000  1.0 -0.1381474458
C  C946  1  0.59400000  0.90700000  0.47500000  1.0 -0.1381474458
C  C947  1  0.59400000  0.09300000  0.52500000  1.0 -0.1381474458
C  C948  1  0.40600000  0.90700000  0.52500000  1.0 -0.1381474458
C  C949  1  0.47500000  0.09300000  0.59400000  1.0 -0.1381474458
C  C950  1  0.47500000  0.90700000  0.40600000  1.0 -0.1381474458
C  C951  1  0.52500000  0.09300000  0.40600000  1.0 -0.1381474458
C  C952  1  0.59400000  0.47500000  0.09300000  1.0 -0.1381474458
C  C953  1  0.40600000  0.47500000  0.90700000  1.0 -0.1381474458
C  C954  1  0.40600000  0.52500000  0.09300000  1.0 -0.1381474458
C  C955  1  0.09300000  0.59400000  0.47500000  1.0 -0.1381474458
C  C956  1  0.90700000  0.40600000  0.47500000  1.0 -0.1381474458
C  C957  1  0.09300000  0.40600000  0.52500000  1.0 -0.1381474458
C  C958  1  0.09300000  0.47500000  0.40600000  1.0 -0.1381474458
C  C959  1  0.47500000  0.40600000  0.09300000  1.0 -0.1381474458
C  C960  1  0.40600000  0.09300000  0.47500000  1.0 -0.1381474458
N  N1  1  0.37670000  0.03850000  0.24270000  1.0 -0.3675314927
N  N2  1  0.24270000  0.37670000  0.03850000  1.0 -0.3675314927
N  N3  1  0.03850000  0.24270000  0.37670000  1.0 -0.3675314927
N  N4  1  0.03850000  0.37670000  0.75730000  1.0 -0.3675314927
N  N5  1  0.03850000  0.62330000  0.24270000  1.0 -0.3675314927
N  N6  1  0.96150000  0.37670000  0.24270000  1.0 -0.3675314927
N  N7  1  0.37670000  0.24270000  0.96150000  1.0 -0.3675314927
N  N8  1  0.62330000  0.24270000  0.03850000  1.0 -0.3675314927
N  N9  1  0.37670000  0.75730000  0.03850000  1.0 -0.3675314927
N  N10  1  0.24270000  0.03850000  0.62330000  1.0 -0.3675314927
N  N11  1  0.24270000  0.96150000  0.37670000  1.0 -0.3675314927
N  N12  1  0.75730000  0.03850000  0.37670000  1.0 -0.3675314927
N  N13  1  0.62330000  0.96150000  0.24270000  1.0 -0.3675314927
N  N14  1  0.62330000  0.03850000  0.75730000  1.0 -0.3675314927
N  N15  1  0.37670000  0.96150000  0.75730000  1.0 -0.3675314927
N  N16  1  0.24270000  0.62330000  0.96150000  1.0 -0.3675314927
N  N17  1  0.75730000  0.62330000  0.03850000  1.0 -0.3675314927
N  N18  1  0.75730000  0.37670000  0.96150000  1.0 -0.3675314927
N  N19  1  0.96150000  0.24270000  0.62330000  1.0 -0.3675314927
N  N20  1  0.03850000  0.75730000  0.62330000  1.0 -0.3675314927
N  N21  1  0.96150000  0.75730000  0.37670000  1.0 -0.3675314927
N  N22  1  0.96150000  0.62330000  0.75730000  1.0 -0.3675314927
N  N23  1  0.62330000  0.75730000  0.96150000  1.0 -0.3675314927
N  N24  1  0.75730000  0.96150000  0.62330000  1.0 -0.3675314927
N  N25  1  0.62330000  0.96150000  0.75730000  1.0 -0.3675314927
N  N26  1  0.75730000  0.62330000  0.96150000  1.0 -0.3675314927
N  N27  1  0.96150000  0.75730000  0.62330000  1.0 -0.3675314927
N  N28  1  0.96150000  0.62330000  0.24270000  1.0 -0.3675314927
N  N29  1  0.96150000  0.37670000  0.75730000  1.0 -0.3675314927
N  N30  1  0.03850000  0.62330000  0.75730000  1.0 -0.3675314927
N  N31  1  0.62330000  0.75730000  0.03850000  1.0 -0.3675314927
N  N32  1  0.37670000  0.75730000  0.96150000  1.0 -0.3675314927
N  N33  1  0.62330000  0.24270000  0.96150000  1.0 -0.3675314927
N  N34  1  0.75730000  0.96150000  0.37670000  1.0 -0.3675314927
N  N35  1  0.75730000  0.03850000  0.62330000  1.0 -0.3675314927
N  N36  1  0.24270000  0.96150000  0.62330000  1.0 -0.3675314927
N  N37  1  0.37670000  0.03850000  0.75730000  1.0 -0.3675314927
N  N38  1  0.37670000  0.96150000  0.24270000  1.0 -0.3675314927
N  N39  1  0.62330000  0.03850000  0.24270000  1.0 -0.3675314927
N  N40  1  0.75730000  0.37670000  0.03850000  1.0 -0.3675314927
N  N41  1  0.24270000  0.37670000  0.96150000  1.0 -0.3675314927
N  N42  1  0.24270000  0.62330000  0.03850000  1.0 -0.3675314927
N  N43  1  0.03850000  0.75730000  0.37670000  1.0 -0.3675314927
N  N44  1  0.96150000  0.24270000  0.37670000  1.0 -0.3675314927
N  N45  1  0.03850000  0.24270000  0.62330000  1.0 -0.3675314927
N  N46  1  0.03850000  0.37670000  0.24270000  1.0 -0.3675314927
N  N47  1  0.37670000  0.24270000  0.03850000  1.0 -0.3675314927
N  N48  1  0.24270000  0.03850000  0.37670000  1.0 -0.3675314927
N  N49  1  0.39860000  0.13390000  0.19030000  1.0 -0.2705422802
N  N50  1  0.19030000  0.39860000  0.13390000  1.0 -0.2705422802
N  N51  1  0.13390000  0.19030000  0.39860000  1.0 -0.2705422802
N  N52  1  0.13390000  0.39860000  0.80970000  1.0 -0.2705422802
N  N53  1  0.13390000  0.60140000  0.19030000  1.0 -0.2705422802
N  N54  1  0.86610000  0.39860000  0.19030000  1.0 -0.2705422802
N  N55  1  0.39860000  0.19030000  0.86610000  1.0 -0.2705422802
N  N56  1  0.60140000  0.19030000  0.13390000  1.0 -0.2705422802
N  N57  1  0.39860000  0.80970000  0.13390000  1.0 -0.2705422802
N  N58  1  0.19030000  0.13390000  0.60140000  1.0 -0.2705422802
N  N59  1  0.19030000  0.86610000  0.39860000  1.0 -0.2705422802
N  N60  1  0.80970000  0.13390000  0.39860000  1.0 -0.2705422802
N  N61  1  0.60140000  0.86610000  0.19030000  1.0 -0.2705422802
N  N62  1  0.60140000  0.13390000  0.80970000  1.0 -0.2705422802
N  N63  1  0.39860000  0.86610000  0.80970000  1.0 -0.2705422802
N  N64  1  0.19030000  0.60140000  0.86610000  1.0 -0.2705422802
N  N65  1  0.80970000  0.60140000  0.13390000  1.0 -0.2705422802
N  N66  1  0.80970000  0.39860000  0.86610000  1.0 -0.2705422802
N  N67  1  0.86610000  0.19030000  0.60140000  1.0 -0.2705422802
N  N68  1  0.13390000  0.80970000  0.60140000  1.0 -0.2705422802
N  N69  1  0.86610000  0.80970000  0.39860000  1.0 -0.2705422802
N  N70  1  0.86610000  0.60140000  0.80970000  1.0 -0.2705422802
N  N71  1  0.60140000  0.80970000  0.86610000  1.0 -0.2705422802
N  N72  1  0.80970000  0.86610000  0.60140000  1.0 -0.2705422802
N  N73  1  0.60140000  0.86610000  0.80970000  1.0 -0.2705422802
N  N74  1  0.80970000  0.60140000  0.86610000  1.0 -0.2705422802
N  N75  1  0.86610000  0.80970000  0.60140000  1.0 -0.2705422802
N  N76  1  0.86610000  0.60140000  0.19030000  1.0 -0.2705422802
N  N77  1  0.86610000  0.39860000  0.80970000  1.0 -0.2705422802
N  N78  1  0.13390000  0.60140000  0.80970000  1.0 -0.2705422802
N  N79  1  0.60140000  0.80970000  0.13390000  1.0 -0.2705422802
N  N80  1  0.39860000  0.80970000  0.86610000  1.0 -0.2705422802
N  N81  1  0.60140000  0.19030000  0.86610000  1.0 -0.2705422802
N  N82  1  0.80970000  0.86610000  0.39860000  1.0 -0.2705422802
N  N83  1  0.80970000  0.13390000  0.60140000  1.0 -0.2705422802
N  N84  1  0.19030000  0.86610000  0.60140000  1.0 -0.2705422802
N  N85  1  0.39860000  0.13390000  0.80970000  1.0 -0.2705422802
N  N86  1  0.39860000  0.86610000  0.19030000  1.0 -0.2705422802
N  N87  1  0.60140000  0.13390000  0.19030000  1.0 -0.2705422802
N  N88  1  0.80970000  0.39860000  0.13390000  1.0 -0.2705422802
N  N89  1  0.19030000  0.39860000  0.86610000  1.0 -0.2705422802
N  N90  1  0.19030000  0.60140000  0.13390000  1.0 -0.2705422802
N  N91  1  0.13390000  0.80970000  0.39860000  1.0 -0.2705422802
N  N92  1  0.86610000  0.19030000  0.39860000  1.0 -0.2705422802
N  N93  1  0.13390000  0.19030000  0.60140000  1.0 -0.2705422802
N  N94  1  0.13390000  0.39860000  0.19030000  1.0 -0.2705422802
N  N95  1  0.39860000  0.19030000  0.13390000  1.0 -0.2705422802
N  N96  1  0.19030000  0.13390000  0.39860000  1.0 -0.2705422802
N  N97  1  0.35360000  0.13010000  0.29720000  1.0 -0.3370287525
N  N98  1  0.29720000  0.35360000  0.13010000  1.0 -0.3370287525
N  N99  1  0.13010000  0.29720000  0.35360000  1.0 -0.3370287525
N  N100  1  0.13010000  0.35360000  0.70280000  1.0 -0.3370287525
N  N101  1  0.13010000  0.64640000  0.29720000  1.0 -0.3370287525
N  N102  1  0.86990000  0.35360000  0.29720000  1.0 -0.3370287525
N  N103  1  0.35360000  0.29720000  0.86990000  1.0 -0.3370287525
N  N104  1  0.64640000  0.29720000  0.13010000  1.0 -0.3370287525
N  N105  1  0.35360000  0.70280000  0.13010000  1.0 -0.3370287525
N  N106  1  0.29720000  0.13010000  0.64640000  1.0 -0.3370287525
N  N107  1  0.29720000  0.86990000  0.35360000  1.0 -0.3370287525
N  N108  1  0.70280000  0.13010000  0.35360000  1.0 -0.3370287525
N  N109  1  0.64640000  0.86990000  0.29720000  1.0 -0.3370287525
N  N110  1  0.64640000  0.13010000  0.70280000  1.0 -0.3370287525
N  N111  1  0.35360000  0.86990000  0.70280000  1.0 -0.3370287525
N  N112  1  0.29720000  0.64640000  0.86990000  1.0 -0.3370287525
N  N113  1  0.70280000  0.64640000  0.13010000  1.0 -0.3370287525
N  N114  1  0.70280000  0.35360000  0.86990000  1.0 -0.3370287525
N  N115  1  0.86990000  0.29720000  0.64640000  1.0 -0.3370287525
N  N116  1  0.13010000  0.70280000  0.64640000  1.0 -0.3370287525
N  N117  1  0.86990000  0.70280000  0.35360000  1.0 -0.3370287525
N  N118  1  0.86990000  0.64640000  0.70280000  1.0 -0.3370287525
N  N119  1  0.64640000  0.70280000  0.86990000  1.0 -0.3370287525
N  N120  1  0.70280000  0.86990000  0.64640000  1.0 -0.3370287525
N  N121  1  0.64640000  0.86990000  0.70280000  1.0 -0.3370287525
N  N122  1  0.70280000  0.64640000  0.86990000  1.0 -0.3370287525
N  N123  1  0.86990000  0.70280000  0.64640000  1.0 -0.3370287525
N  N124  1  0.86990000  0.64640000  0.29720000  1.0 -0.3370287525
N  N125  1  0.86990000  0.35360000  0.70280000  1.0 -0.3370287525
N  N126  1  0.13010000  0.64640000  0.70280000  1.0 -0.3370287525
N  N127  1  0.64640000  0.70280000  0.13010000  1.0 -0.3370287525
N  N128  1  0.35360000  0.70280000  0.86990000  1.0 -0.3370287525
N  N129  1  0.64640000  0.29720000  0.86990000  1.0 -0.3370287525
N  N130  1  0.70280000  0.86990000  0.35360000  1.0 -0.3370287525
N  N131  1  0.70280000  0.13010000  0.64640000  1.0 -0.3370287525
N  N132  1  0.29720000  0.86990000  0.64640000  1.0 -0.3370287525
N  N133  1  0.35360000  0.13010000  0.70280000  1.0 -0.3370287525
N  N134  1  0.35360000  0.86990000  0.29720000  1.0 -0.3370287525
N  N135  1  0.64640000  0.13010000  0.29720000  1.0 -0.3370287525
N  N136  1  0.70280000  0.35360000  0.13010000  1.0 -0.3370287525
N  N137  1  0.29720000  0.35360000  0.86990000  1.0 -0.3370287525
N  N138  1  0.29720000  0.64640000  0.13010000  1.0 -0.3370287525
N  N139  1  0.13010000  0.70280000  0.35360000  1.0 -0.3370287525
N  N140  1  0.86990000  0.29720000  0.35360000  1.0 -0.3370287525
N  N141  1  0.13010000  0.29720000  0.64640000  1.0 -0.3370287525
N  N142  1  0.13010000  0.35360000  0.29720000  1.0 -0.3370287525
N  N143  1  0.35360000  0.29720000  0.13010000  1.0 -0.3370287525
N  N144  1  0.29720000  0.13010000  0.35360000  1.0 -0.3370287525
N  N145  1  0.46060000  0.10060000  0.27680000  1.0 -0.2705422802
N  N146  1  0.27680000  0.46060000  0.10060000  1.0 -0.2705422802
N  N147  1  0.10060000  0.27680000  0.46060000  1.0 -0.2705422802
N  N148  1  0.10060000  0.46060000  0.72320000  1.0 -0.2705422802
N  N149  1  0.10060000  0.53940000  0.27680000  1.0 -0.2705422802
N  N150  1  0.89940000  0.46060000  0.27680000  1.0 -0.2705422802
N  N151  1  0.46060000  0.27680000  0.89940000  1.0 -0.2705422802
N  N152  1  0.53940000  0.27680000  0.10060000  1.0 -0.2705422802
N  N153  1  0.46060000  0.72320000  0.10060000  1.0 -0.2705422802
N  N154  1  0.27680000  0.10060000  0.53940000  1.0 -0.2705422802
N  N155  1  0.27680000  0.89940000  0.46060000  1.0 -0.2705422802
N  N156  1  0.72320000  0.10060000  0.46060000  1.0 -0.2705422802
N  N157  1  0.53940000  0.89940000  0.27680000  1.0 -0.2705422802
N  N158  1  0.53940000  0.10060000  0.72320000  1.0 -0.2705422802
N  N159  1  0.46060000  0.89940000  0.72320000  1.0 -0.2705422802
N  N160  1  0.27680000  0.53940000  0.89940000  1.0 -0.2705422802
N  N161  1  0.72320000  0.53940000  0.10060000  1.0 -0.2705422802
N  N162  1  0.72320000  0.46060000  0.89940000  1.0 -0.2705422802
N  N163  1  0.89940000  0.27680000  0.53940000  1.0 -0.2705422802
N  N164  1  0.10060000  0.72320000  0.53940000  1.0 -0.2705422802
N  N165  1  0.89940000  0.72320000  0.46060000  1.0 -0.2705422802
N  N166  1  0.89940000  0.53940000  0.72320000  1.0 -0.2705422802
N  N167  1  0.53940000  0.72320000  0.89940000  1.0 -0.2705422802
N  N168  1  0.72320000  0.89940000  0.53940000  1.0 -0.2705422802
N  N169  1  0.53940000  0.89940000  0.72320000  1.0 -0.2705422802
N  N170  1  0.72320000  0.53940000  0.89940000  1.0 -0.2705422802
N  N171  1  0.89940000  0.72320000  0.53940000  1.0 -0.2705422802
N  N172  1  0.89940000  0.53940000  0.27680000  1.0 -0.2705422802
N  N173  1  0.89940000  0.46060000  0.72320000  1.0 -0.2705422802
N  N174  1  0.10060000  0.53940000  0.72320000  1.0 -0.2705422802
N  N175  1  0.53940000  0.72320000  0.10060000  1.0 -0.2705422802
N  N176  1  0.46060000  0.72320000  0.89940000  1.0 -0.2705422802
N  N177  1  0.53940000  0.27680000  0.89940000  1.0 -0.2705422802
N  N178  1  0.72320000  0.89940000  0.46060000  1.0 -0.2705422802
N  N179  1  0.72320000  0.10060000  0.53940000  1.0 -0.2705422802
N  N180  1  0.27680000  0.89940000  0.53940000  1.0 -0.2705422802
N  N181  1  0.46060000  0.10060000  0.72320000  1.0 -0.2705422802
N  N182  1  0.46060000  0.89940000  0.27680000  1.0 -0.2705422802
N  N183  1  0.53940000  0.10060000  0.27680000  1.0 -0.2705422802
N  N184  1  0.72320000  0.46060000  0.10060000  1.0 -0.2705422802
N  N185  1  0.27680000  0.46060000  0.89940000  1.0 -0.2705422802
N  N186  1  0.27680000  0.53940000  0.10060000  1.0 -0.2705422802
N  N187  1  0.10060000  0.72320000  0.46060000  1.0 -0.2705422802
N  N188  1  0.89940000  0.27680000  0.46060000  1.0 -0.2705422802
N  N189  1  0.10060000  0.27680000  0.53940000  1.0 -0.2705422802
N  N190  1  0.10060000  0.46060000  0.27680000  1.0 -0.2705422802
N  N191  1  0.46060000  0.27680000  0.10060000  1.0 -0.2705422802
N  N192  1  0.27680000  0.10060000  0.46060000  1.0 -0.2705422802
