# DDEC6 charges by PACMAN v1.1 (https://github.com/mtap-research/PACMAN-charge/)
data_VELVOY_ASR_pacman
_symmetry_space_group_name_H-M   'P 1'
_cell_length_a   14.71460000
_cell_length_b   14.71460000
_cell_length_c   14.71460000
_cell_angle_alpha   109.47100000
_cell_angle_beta   109.47100000
_cell_angle_gamma   109.47100000
_symmetry_Int_Tables_number   1
_chemical_formula_structural   ZnH16(C2N)4
_chemical_formula_sum   'Zn6 H96 C48 N24'
_cell_volume   2452.60178049
_cell_formula_units_Z   6
loop_
 _symmetry_equiv_pos_site_id
 _symmetry_equiv_pos_as_xyz
  1  'x, y, z'
loop_
 _atom_site_type_symbol
 _atom_site_label
 _atom_site_symmetry_multiplicity
 _atom_site_fract_x
 _atom_site_fract_y
 _atom_site_fract_z
 _atom_site_occupancy
 _atom_site_charge
Zn  Zn1  1  0.75000000  0.25000000  0.50000000  1.0 0.6373692621
Zn  Zn2  1  0.25000000  0.75000000  0.50000000  1.0 0.6347213615
Zn  Zn3  1  0.50000000  0.75000000  0.25000000  1.0 0.6373692621
Zn  Zn4  1  0.50000000  0.25000000  0.75000000  1.0 0.6373692621
Zn  Zn5  1  0.25000000  0.50000000  0.75000000  1.0 0.6373692621
Zn  Zn6  1  0.75000000  0.50000000  0.25000000  1.0 0.6373692621
H  H1  1  0.58230000  0.10110000  0.23660000  1.0 0.1258906304
H  H2  1  0.86450000  0.34570000  0.76340000  1.0 0.1258906304
H  H3  1  0.13550000  0.89890000  0.48120000  1.0 0.1258906304
H  H4  1  0.41770000  0.65430000  0.51880000  1.0 0.1258906304
H  H5  1  0.23660000  0.58230000  0.10110000  1.0 0.1258906304
H  H6  1  0.76340000  0.86450000  0.34570000  1.0 0.1258906304
H  H7  1  0.48120000  0.13550000  0.89890000  1.0 0.1258906304
H  H8  1  0.51880000  0.41770000  0.65430000  1.0 0.1258906304
H  H9  1  0.10110000  0.23660000  0.58230000  1.0 0.1258906304
H  H10  1  0.34570000  0.76340000  0.86450000  1.0 0.1258906304
H  H11  1  0.89890000  0.48120000  0.13550000  1.0 0.1258906304
H  H12  1  0.65430000  0.51880000  0.41770000  1.0 0.1258906304
H  H13  1  0.10110000  0.58230000  0.23660000  1.0 0.1258906304
H  H14  1  0.34570000  0.86450000  0.76340000  1.0 0.1258906304
H  H15  1  0.89890000  0.13550000  0.48120000  1.0 0.1258906304
H  H16  1  0.65430000  0.41770000  0.51880000  1.0 0.1258906304
H  H17  1  0.58230000  0.23660000  0.10110000  1.0 0.1258906304
H  H18  1  0.86450000  0.76340000  0.34570000  1.0 0.1258906304
H  H19  1  0.13550000  0.48120000  0.89890000  1.0 0.1258906304
H  H20  1  0.41770000  0.51880000  0.65430000  1.0 0.1258906304
H  H21  1  0.23660000  0.10110000  0.58230000  1.0 0.1258906304
H  H22  1  0.76340000  0.34570000  0.86450000  1.0 0.1258906304
H  H23  1  0.48120000  0.89890000  0.13550000  1.0 0.1258906304
H  H24  1  0.51880000  0.65430000  0.41770000  1.0 0.1258906304
H  H25  1  0.65410000  0.03300000  0.53850000  1.0 0.060315712
H  H26  1  0.49450000  0.11560000  0.46150000  1.0 0.060315712
H  H27  1  0.50550000  0.96700000  0.62110000  1.0 0.060315712
H  H28  1  0.34590000  0.88440000  0.37890000  1.0 0.060315712
H  H29  1  0.53850000  0.65410000  0.03300000  1.0 0.060315712
H  H30  1  0.46150000  0.49450000  0.11560000  1.0 0.060315712
H  H31  1  0.62110000  0.50550000  0.96700000  1.0 0.060315712
H  H32  1  0.37890000  0.34590000  0.88440000  1.0 0.060315712
H  H33  1  0.03300000  0.53850000  0.65410000  1.0 0.060315712
H  H34  1  0.11560000  0.46150000  0.49450000  1.0 0.060315712
H  H35  1  0.96700000  0.62110000  0.50550000  1.0 0.060315712
H  H36  1  0.88440000  0.37890000  0.34590000  1.0 0.060315712
H  H37  1  0.03300000  0.65410000  0.53850000  1.0 0.060315712
H  H38  1  0.11560000  0.49450000  0.46150000  1.0 0.060315712
H  H39  1  0.96700000  0.50550000  0.62110000  1.0 0.060315712
H  H40  1  0.88440000  0.34590000  0.37890000  1.0 0.060315712
H  H41  1  0.65410000  0.53850000  0.03300000  1.0 0.060315712
H  H42  1  0.49450000  0.46150000  0.11560000  1.0 0.060315712
H  H43  1  0.50550000  0.62110000  0.96700000  1.0 0.060315712
H  H44  1  0.34590000  0.37890000  0.88440000  1.0 0.060315712
H  H45  1  0.53850000  0.03300000  0.65410000  1.0 0.060315712
H  H46  1  0.46150000  0.11560000  0.49450000  1.0 0.060315712
H  H47  1  0.62110000  0.96700000  0.50550000  1.0 0.060315712
H  H48  1  0.37890000  0.88440000  0.34590000  1.0 0.060315712
H  H49  1  0.75920000  0.04220000  0.52860000  1.0 0.060315712
H  H50  1  0.51360000  0.23060000  0.47140000  1.0 0.060315712
H  H51  1  0.48640000  0.95780000  0.71700000  1.0 0.060315712
H  H52  1  0.24080000  0.76940000  0.28300000  1.0 0.060315712
H  H53  1  0.52860000  0.75920000  0.04220000  1.0 0.060315712
H  H54  1  0.47140000  0.51360000  0.23060000  1.0 0.060315712
H  H55  1  0.71700000  0.48640000  0.95780000  1.0 0.060315712
H  H56  1  0.28300000  0.24080000  0.76940000  1.0 0.060315712
H  H57  1  0.04220000  0.52860000  0.75920000  1.0 0.060315712
H  H58  1  0.23060000  0.47140000  0.51360000  1.0 0.060315712
H  H59  1  0.95780000  0.71700000  0.48640000  1.0 0.060315712
H  H60  1  0.76940000  0.28300000  0.24080000  1.0 0.060315712
H  H61  1  0.04220000  0.75920000  0.52860000  1.0 0.060315712
H  H62  1  0.23060000  0.51360000  0.47140000  1.0 0.060315712
H  H63  1  0.95780000  0.48640000  0.71700000  1.0 0.060315712
H  H64  1  0.76940000  0.24080000  0.28300000  1.0 0.060315712
H  H65  1  0.75920000  0.52860000  0.04220000  1.0 0.060315712
H  H66  1  0.51360000  0.47140000  0.23060000  1.0 0.060315712
H  H67  1  0.48640000  0.71700000  0.95780000  1.0 0.060315712
H  H68  1  0.24080000  0.28300000  0.76940000  1.0 0.060315712
H  H69  1  0.52860000  0.04220000  0.75920000  1.0 0.060315712
H  H70  1  0.47140000  0.23060000  0.51360000  1.0 0.060315712
H  H71  1  0.71700000  0.95780000  0.48640000  1.0 0.060315712
H  H72  1  0.28300000  0.76940000  0.24080000  1.0 0.060315712
H  H73  1  0.65640000  0.92490000  0.47630000  1.0 0.060315712
H  H74  1  0.44860000  0.18010000  0.52370000  1.0 0.060315712
H  H75  1  0.55140000  0.07510000  0.73150000  1.0 0.060315712
H  H76  1  0.34360000  0.81990000  0.26850000  1.0 0.060315712
H  H77  1  0.47630000  0.65640000  0.92490000  1.0 0.060315712
H  H78  1  0.52370000  0.44860000  0.18010000  1.0 0.060315712
H  H79  1  0.73150000  0.55140000  0.07510000  1.0 0.060315712
H  H80  1  0.26850000  0.34360000  0.81990000  1.0 0.060315712
H  H81  1  0.92490000  0.47630000  0.65640000  1.0 0.060315712
H  H82  1  0.18010000  0.52370000  0.44860000  1.0 0.060315712
H  H83  1  0.07510000  0.73150000  0.55140000  1.0 0.060315712
H  H84  1  0.81990000  0.26850000  0.34360000  1.0 0.060315712
H  H85  1  0.92490000  0.65640000  0.47630000  1.0 0.060315712
H  H86  1  0.18010000  0.44860000  0.52370000  1.0 0.060315712
H  H87  1  0.07510000  0.55140000  0.73150000  1.0 0.060315712
H  H88  1  0.81990000  0.34360000  0.26850000  1.0 0.060315712
H  H89  1  0.65640000  0.47630000  0.92490000  1.0 0.060315712
H  H90  1  0.44860000  0.52370000  0.18010000  1.0 0.060315712
H  H91  1  0.55140000  0.73150000  0.07510000  1.0 0.060315712
H  H92  1  0.34360000  0.26850000  0.81990000  1.0 0.060315712
H  H93  1  0.47630000  0.92490000  0.65640000  1.0 0.060315712
H  H94  1  0.52370000  0.18010000  0.44860000  1.0 0.060315712
H  H95  1  0.73150000  0.07510000  0.55140000  1.0 0.060315712
H  H96  1  0.26850000  0.81990000  0.34360000  1.0 0.060315712
C  C1  1  0.63085000  0.00000000  0.38495000  1.0 0.2702216212
C  C2  1  0.61505000  0.24590000  0.61505000  1.0 0.2702216212
C  C3  1  0.38495000  0.00000000  0.63085000  1.0 0.2702216212
C  C4  1  0.36915000  0.75410000  0.36915000  1.0 0.2702216212
C  C5  1  0.38495000  0.63085000  0.00000000  1.0 0.2702216212
C  C6  1  0.61505000  0.61505000  0.24590000  1.0 0.2702216212
C  C7  1  0.63085000  0.38495000  0.00000000  1.0 0.2702216212
C  C8  1  0.36915000  0.36915000  0.75410000  1.0 0.2702216212
C  C9  1  0.00000000  0.38495000  0.63085000  1.0 0.2702216212
C  C10  1  0.24590000  0.61505000  0.61505000  1.0 0.2702216212
C  C11  1  0.00000000  0.63085000  0.38495000  1.0 0.2702216212
C  C12  1  0.75410000  0.36915000  0.36915000  1.0 0.2702216212
C  C13  1  0.58664000  0.05601000  0.26765000  1.0 -0.0679733251
C  C14  1  0.78836000  0.31899000  0.73235000  1.0 -0.0679733251
C  C15  1  0.21164000  0.94399000  0.53063000  1.0 -0.0679733251
C  C16  1  0.41336000  0.68101000  0.46937000  1.0 -0.0679733251
C  C17  1  0.26765000  0.58664000  0.05601000  1.0 -0.0679733251
C  C18  1  0.73235000  0.78836000  0.31899000  1.0 -0.0679733251
C  C19  1  0.53063000  0.21164000  0.94399000  1.0 -0.0679733251
C  C20  1  0.46937000  0.41336000  0.68101000  1.0 -0.0679733251
C  C21  1  0.05601000  0.26765000  0.58664000  1.0 -0.0679733251
C  C22  1  0.31899000  0.73235000  0.78836000  1.0 -0.0679733251
C  C23  1  0.94399000  0.53063000  0.21164000  1.0 -0.0679733251
C  C24  1  0.68101000  0.46937000  0.41336000  1.0 -0.0679733251
C  C25  1  0.05601000  0.58664000  0.26765000  1.0 -0.0679733251
C  C26  1  0.31899000  0.78836000  0.73235000  1.0 -0.0679733251
C  C27  1  0.94399000  0.21164000  0.53063000  1.0 -0.0679733251
C  C28  1  0.68101000  0.41336000  0.46937000  1.0 -0.0679733251
C  C29  1  0.58664000  0.26765000  0.05601000  1.0 -0.0679733251
C  C30  1  0.78836000  0.73235000  0.31899000  1.0 -0.0679733251
C  C31  1  0.21164000  0.53063000  0.94399000  1.0 -0.0679733251
C  C32  1  0.41336000  0.46937000  0.68101000  1.0 -0.0679733251
C  C33  1  0.26765000  0.05601000  0.58664000  1.0 -0.0679733251
C  C34  1  0.73235000  0.31899000  0.78836000  1.0 -0.0679733251
C  C35  1  0.53063000  0.94399000  0.21164000  1.0 -0.0679733251
C  C36  1  0.46937000  0.68101000  0.41336000  1.0 -0.0679733251
C  C37  1  0.67940000  0.00000000  0.49160000  1.0 -0.4004516821
C  C38  1  0.50840000  0.18780000  0.50840000  1.0 -0.4004516821
C  C39  1  0.49160000  0.00000000  0.67940000  1.0 -0.4004516821
C  C40  1  0.32060000  0.81220000  0.32060000  1.0 -0.4004516821
C  C41  1  0.49160000  0.67940000  0.00000000  1.0 -0.4004516821
C  C42  1  0.50840000  0.50840000  0.18780000  1.0 -0.4004516821
C  C43  1  0.67940000  0.49160000  0.00000000  1.0 -0.4004516821
C  C44  1  0.32060000  0.32060000  0.81220000  1.0 -0.4004516821
C  C45  1  0.00000000  0.49160000  0.67940000  1.0 -0.4004516821
C  C46  1  0.18780000  0.50840000  0.50840000  1.0 -0.4004516821
C  C47  1  0.00000000  0.67940000  0.49160000  1.0 -0.4004516821
C  C48  1  0.81220000  0.32060000  0.32060000  1.0 -0.4004516821
N  N1  1  0.65110000  0.09251000  0.37805000  1.0 -0.3329813973
N  N2  1  0.71446000  0.27305000  0.62195000  1.0 -0.3329813973
N  N3  1  0.28554000  0.90749000  0.55859000  1.0 -0.3329813973
N  N4  1  0.34890000  0.72695000  0.44141000  1.0 -0.3329813973
N  N5  1  0.37805000  0.65110000  0.09251000  1.0 -0.3329813973
N  N6  1  0.62195000  0.71446000  0.27305000  1.0 -0.3329813973
N  N7  1  0.55859000  0.28554000  0.90749000  1.0 -0.3329813973
N  N8  1  0.44141000  0.34890000  0.72695000  1.0 -0.3329813973
N  N9  1  0.09251000  0.37805000  0.65110000  1.0 -0.3329813973
N  N10  1  0.27305000  0.62195000  0.71446000  1.0 -0.3329813973
N  N11  1  0.90749000  0.55859000  0.28554000  1.0 -0.3329813973
N  N12  1  0.72695000  0.44141000  0.34890000  1.0 -0.3329813973
N  N13  1  0.09251000  0.65110000  0.37805000  1.0 -0.3329813973
N  N14  1  0.27305000  0.71446000  0.62195000  1.0 -0.3329813973
N  N15  1  0.90749000  0.28554000  0.55859000  1.0 -0.3329813973
N  N16  1  0.72695000  0.34890000  0.44141000  1.0 -0.3329813973
N  N17  1  0.65110000  0.37805000  0.09251000  1.0 -0.3329813973
N  N18  1  0.71446000  0.62195000  0.27305000  1.0 -0.3329813973
N  N19  1  0.28554000  0.55859000  0.90749000  1.0 -0.3329813973
N  N20  1  0.34890000  0.44141000  0.72695000  1.0 -0.3329813973
N  N21  1  0.37805000  0.09251000  0.65110000  1.0 -0.3329813973
N  N22  1  0.62195000  0.27305000  0.71446000  1.0 -0.3329813973
N  N23  1  0.55859000  0.90749000  0.28554000  1.0 -0.3329813973
N  N24  1  0.44141000  0.72695000  0.34890000  1.0 -0.3329813973
