# DDEC6 charges by PACMAN v1.1 (https://github.com/mtap-research/PACMAN-charge/)
data_VEMHIF_FSR_pacman
_symmetry_space_group_name_H-M   'P 1'
_cell_length_a   26.33970000
_cell_length_b   26.33970000
_cell_length_c   13.24330000
_cell_angle_alpha   90.00000000
_cell_angle_beta   90.00000000
_cell_angle_gamma   120.00000000
_symmetry_Int_Tables_number   1
_chemical_formula_structural   Cd10H12C15(N25O)3
_chemical_formula_sum   'Cd40 H48 C60 N300 O12'
_cell_volume   7956.98422940
_cell_formula_units_Z   4
loop_
 _symmetry_equiv_pos_site_id
 _symmetry_equiv_pos_as_xyz
  1  'x, y, z'
loop_
 _atom_site_type_symbol
 _atom_site_label
 _atom_site_symmetry_multiplicity
 _atom_site_fract_x
 _atom_site_fract_y
 _atom_site_fract_z
 _atom_site_occupancy
 _atom_site_charge
Cd  Cd1  1  0.33333333  0.66666667  0.34436000  1.0 0.5839944629
Cd  Cd2  1  0.66666667  0.33333333  0.34436000  1.0 0.5839944629
Cd  Cd3  1  0.66666667  0.33333333  0.65564000  1.0 0.5839944629
Cd  Cd4  1  0.33333333  0.66666667  0.65564000  1.0 0.5839944629
Cd  Cd5  1  0.24896000  0.49793000  0.24624000  1.0 0.6303015995
Cd  Cd6  1  0.75103000  0.24896000  0.24624000  1.0 0.6303015995
Cd  Cd7  1  0.50207000  0.75103000  0.24624000  1.0 0.6303015995
Cd  Cd8  1  0.24897000  0.75104000  0.24624000  1.0 0.6303015995
Cd  Cd9  1  0.49793000  0.24897000  0.24624000  1.0 0.6303015995
Cd  Cd10  1  0.49793000  0.24897000  0.75376000  1.0 0.6303015995
Cd  Cd11  1  0.24896000  0.49793000  0.75376000  1.0 0.6303015995
Cd  Cd12  1  0.24897000  0.75104000  0.75376000  1.0 0.6303015995
Cd  Cd13  1  0.75104000  0.50207000  0.24624000  1.0 0.6303015995
Cd  Cd14  1  0.75104000  0.50207000  0.75376000  1.0 0.6303015995
Cd  Cd15  1  0.75103000  0.24896000  0.75376000  1.0 0.6303015995
Cd  Cd16  1  0.50207000  0.75103000  0.75376000  1.0 0.6303015995
Cd  Cd17  1  0.00000000  0.34182000  0.50000000  1.0 0.6733417161
Cd  Cd18  1  0.65818000  0.00000000  0.50000000  1.0 0.6733417161
Cd  Cd19  1  0.65818000  0.65818000  0.50000000  1.0 0.6733417161
Cd  Cd20  1  0.34182000  0.00000000  0.50000000  1.0 0.6733417161
Cd  Cd21  1  0.34182000  0.34182000  0.50000000  1.0 0.6733417161
Cd  Cd22  1  0.00000000  0.65818000  0.50000000  1.0 0.6733417161
Cd  Cd23  1  0.00000000  0.24939000  0.24880000  1.0 0.5928753596
Cd  Cd24  1  0.75061000  0.00000000  0.24880000  1.0 0.5928753596
Cd  Cd25  1  0.75061000  0.75061000  0.24880000  1.0 0.5928753596
Cd  Cd26  1  0.24939000  0.00000000  0.24880000  1.0 0.5928753596
Cd  Cd27  1  0.24939000  0.24939000  0.24880000  1.0 0.5928753596
Cd  Cd28  1  0.24939000  0.00000000  0.75120000  1.0 0.5928753596
Cd  Cd29  1  0.24939000  0.24939000  0.75120000  1.0 0.5928753596
Cd  Cd30  1  0.00000000  0.75061000  0.75120000  1.0 0.5928753596
Cd  Cd31  1  0.00000000  0.75061000  0.24880000  1.0 0.5928753596
Cd  Cd32  1  0.75061000  0.75061000  0.75120000  1.0 0.5928753596
Cd  Cd33  1  0.00000000  0.24939000  0.75120000  1.0 0.5928753596
Cd  Cd34  1  0.75061000  0.00000000  0.75120000  1.0 0.5928753596
Cd  Cd35  1  0.00000000  0.15888000  0.00000000  1.0 0.5928753596
Cd  Cd36  1  0.84112000  0.00000000  0.00000000  1.0 0.5928753596
Cd  Cd37  1  0.84112000  0.84112000  0.00000000  1.0 0.5928753596
Cd  Cd38  1  0.15888000  0.00000000  0.00000000  1.0 0.5928753596
Cd  Cd39  1  0.15888000  0.15888000  0.00000000  1.0 0.5928753596
Cd  Cd40  1  0.00000000  0.84112000  0.00000000  1.0 0.5928753596
H  H1  1  0.13460000  0.45640000  0.41950000  1.0 0.1013718138
H  H2  1  0.67820000  0.13460000  0.41950000  1.0 0.1013718138
H  H3  1  0.54360000  0.67820000  0.41950000  1.0 0.1013718138
H  H4  1  0.32180000  0.86540000  0.41950000  1.0 0.1013718138
H  H5  1  0.45640000  0.32180000  0.41950000  1.0 0.1013718138
H  H6  1  0.45640000  0.13460000  0.58050000  1.0 0.1013718138
H  H7  1  0.32180000  0.45640000  0.58050000  1.0 0.1013718138
H  H8  1  0.13460000  0.67820000  0.58050000  1.0 0.1013718138
H  H9  1  0.86540000  0.54360000  0.41950000  1.0 0.1013718138
H  H10  1  0.67820000  0.54360000  0.58050000  1.0 0.1013718138
H  H11  1  0.86540000  0.32180000  0.58050000  1.0 0.1013718138
H  H12  1  0.54360000  0.86540000  0.58050000  1.0 0.1013718138
H  H13  1  0.86540000  0.54360000  0.58050000  1.0 0.1013718138
H  H14  1  0.32180000  0.86540000  0.58050000  1.0 0.1013718138
H  H15  1  0.45640000  0.32180000  0.58050000  1.0 0.1013718138
H  H16  1  0.67820000  0.13460000  0.58050000  1.0 0.1013718138
H  H17  1  0.54360000  0.67820000  0.58050000  1.0 0.1013718138
H  H18  1  0.54360000  0.86540000  0.41950000  1.0 0.1013718138
H  H19  1  0.67820000  0.54360000  0.41950000  1.0 0.1013718138
H  H20  1  0.86540000  0.32180000  0.41950000  1.0 0.1013718138
H  H21  1  0.13460000  0.45640000  0.58050000  1.0 0.1013718138
H  H22  1  0.32180000  0.45640000  0.41950000  1.0 0.1013718138
H  H23  1  0.13460000  0.67820000  0.41950000  1.0 0.1013718138
H  H24  1  0.45640000  0.13460000  0.41950000  1.0 0.1013718138
H  H25  1  0.22690000  0.45390000  0.50000000  1.0 0.1013718138
H  H26  1  0.77300000  0.22690000  0.50000000  1.0 0.1013718138
H  H27  1  0.54610000  0.77300000  0.50000000  1.0 0.1013718138
H  H28  1  0.22700000  0.77310000  0.50000000  1.0 0.1013718138
H  H29  1  0.45390000  0.22700000  0.50000000  1.0 0.1013718138
H  H30  1  0.77310000  0.54610000  0.50000000  1.0 0.1013718138
H  H31  1  0.27250000  0.54490000  0.00000000  1.0 0.1176888593
H  H32  1  0.72760000  0.27250000  0.00000000  1.0 0.1176888593
H  H33  1  0.45510000  0.72760000  0.00000000  1.0 0.1176888593
H  H34  1  0.27240000  0.72750000  0.00000000  1.0 0.1176888593
H  H35  1  0.54490000  0.27240000  0.00000000  1.0 0.1176888593
H  H36  1  0.72750000  0.45510000  0.00000000  1.0 0.1176888593
H  H37  1  0.13220000  0.26440000  0.31960000  1.0 0.1176888593
H  H38  1  0.86780000  0.13220000  0.31960000  1.0 0.1176888593
H  H39  1  0.73560000  0.86780000  0.31960000  1.0 0.1176888593
H  H40  1  0.13220000  0.86780000  0.31960000  1.0 0.1176888593
H  H41  1  0.26440000  0.13220000  0.31960000  1.0 0.1176888593
H  H42  1  0.26440000  0.13220000  0.68040000  1.0 0.1176888593
H  H43  1  0.13220000  0.26440000  0.68040000  1.0 0.1176888593
H  H44  1  0.13220000  0.86780000  0.68040000  1.0 0.1176888593
H  H45  1  0.86780000  0.73560000  0.31960000  1.0 0.1176888593
H  H46  1  0.86780000  0.73560000  0.68040000  1.0 0.1176888593
H  H47  1  0.86780000  0.13220000  0.68040000  1.0 0.1176888593
H  H48  1  0.73560000  0.86780000  0.68040000  1.0 0.1176888593
C  C1  1  0.00000000  0.17270000  0.45140000  1.0 0.0412935612
C  C2  1  0.82730000  0.00000000  0.45140000  1.0 0.0412935612
C  C3  1  0.82730000  0.82730000  0.45140000  1.0 0.0412935612
C  C4  1  0.17270000  0.00000000  0.45140000  1.0 0.0412935612
C  C5  1  0.17270000  0.17270000  0.45140000  1.0 0.0412935612
C  C6  1  0.17270000  0.00000000  0.54860000  1.0 0.0412935612
C  C7  1  0.17270000  0.17270000  0.54860000  1.0 0.0412935612
C  C8  1  0.00000000  0.82730000  0.54860000  1.0 0.0412935612
C  C9  1  0.00000000  0.82730000  0.45140000  1.0 0.0412935612
C  C10  1  0.82730000  0.82730000  0.54860000  1.0 0.0412935612
C  C11  1  0.00000000  0.17270000  0.54860000  1.0 0.0412935612
C  C12  1  0.82730000  0.00000000  0.54860000  1.0 0.0412935612
C  C13  1  0.12210000  0.42620000  0.37030000  1.0 0.1013718138
C  C14  1  0.69590000  0.12210000  0.37030000  1.0 0.1013718138
C  C15  1  0.57380000  0.69590000  0.37030000  1.0 0.1013718138
C  C16  1  0.30410000  0.87790000  0.37030000  1.0 0.1013718138
C  C17  1  0.42620000  0.30410000  0.37030000  1.0 0.1013718138
C  C18  1  0.42620000  0.12210000  0.62970000  1.0 0.1013718138
C  C19  1  0.30410000  0.42620000  0.62970000  1.0 0.1013718138
C  C20  1  0.12210000  0.69590000  0.62970000  1.0 0.1013718138
C  C21  1  0.87790000  0.57380000  0.37030000  1.0 0.1013718138
C  C22  1  0.69590000  0.57380000  0.62970000  1.0 0.1013718138
C  C23  1  0.87790000  0.30410000  0.62970000  1.0 0.1013718138
C  C24  1  0.57380000  0.87790000  0.62970000  1.0 0.1013718138
C  C25  1  0.87790000  0.57380000  0.62970000  1.0 0.1013718138
C  C26  1  0.30410000  0.87790000  0.62970000  1.0 0.1013718138
C  C27  1  0.42620000  0.30410000  0.62970000  1.0 0.1013718138
C  C28  1  0.69590000  0.12210000  0.62970000  1.0 0.1013718138
C  C29  1  0.57380000  0.69590000  0.62970000  1.0 0.1013718138
C  C30  1  0.57380000  0.87790000  0.37030000  1.0 0.1013718138
C  C31  1  0.69590000  0.57380000  0.37030000  1.0 0.1013718138
C  C32  1  0.87790000  0.30410000  0.37030000  1.0 0.1013718138
C  C33  1  0.12210000  0.42620000  0.62970000  1.0 0.1013718138
C  C34  1  0.30410000  0.42620000  0.37030000  1.0 0.1013718138
C  C35  1  0.12210000  0.69590000  0.37030000  1.0 0.1013718138
C  C36  1  0.42620000  0.12210000  0.37030000  1.0 0.1013718138
C  C37  1  0.24780000  0.49550000  0.50000000  1.0 0.1110368369
C  C38  1  0.75230000  0.24780000  0.50000000  1.0 0.1110368369
C  C39  1  0.50450000  0.75230000  0.50000000  1.0 0.1110368369
C  C40  1  0.24770000  0.75220000  0.50000000  1.0 0.1110368369
C  C41  1  0.49550000  0.24770000  0.50000000  1.0 0.1110368369
C  C42  1  0.75220000  0.50450000  0.50000000  1.0 0.1110368369
C  C43  1  0.25160000  0.50330000  0.00000000  1.0 0.1013718138
C  C44  1  0.74830000  0.25160000  0.00000000  1.0 0.1013718138
C  C45  1  0.49670000  0.74830000  0.00000000  1.0 0.1013718138
C  C46  1  0.25170000  0.74840000  0.00000000  1.0 0.1013718138
C  C47  1  0.50330000  0.25170000  0.00000000  1.0 0.1013718138
C  C48  1  0.74840000  0.49670000  0.00000000  1.0 0.1013718138
C  C49  1  0.12170000  0.24340000  0.25760000  1.0 0.1255310921
C  C50  1  0.87830000  0.12170000  0.25760000  1.0 0.1255310921
C  C51  1  0.75660000  0.87830000  0.25760000  1.0 0.1255310921
C  C52  1  0.12170000  0.87830000  0.25760000  1.0 0.1255310921
C  C53  1  0.24340000  0.12170000  0.25760000  1.0 0.1255310921
C  C54  1  0.24340000  0.12170000  0.74240000  1.0 0.1255310921
C  C55  1  0.12170000  0.24340000  0.74240000  1.0 0.1255310921
C  C56  1  0.12170000  0.87830000  0.74240000  1.0 0.1255310921
C  C57  1  0.87830000  0.75660000  0.25760000  1.0 0.1255310921
C  C58  1  0.87830000  0.75660000  0.74240000  1.0 0.1255310921
C  C59  1  0.87830000  0.12170000  0.74240000  1.0 0.1255310921
C  C60  1  0.75660000  0.87830000  0.74240000  1.0 0.1255310921
N  N1  1  0.07230000  0.22660000  0.20830000  1.0 -0.1687797211
N  N2  1  0.84570000  0.07230000  0.20830000  1.0 -0.1687797211
N  N3  1  0.77340000  0.84570000  0.20830000  1.0 -0.1687797211
N  N4  1  0.15430000  0.92770000  0.20830000  1.0 -0.1687797211
N  N5  1  0.22660000  0.15430000  0.20830000  1.0 -0.1687797211
N  N6  1  0.22660000  0.07230000  0.79170000  1.0 -0.1687797211
N  N7  1  0.15430000  0.22660000  0.79170000  1.0 -0.1687797211
N  N8  1  0.07230000  0.84570000  0.79170000  1.0 -0.1687797211
N  N9  1  0.92770000  0.77340000  0.20830000  1.0 -0.1687797211
N  N10  1  0.84570000  0.77340000  0.79170000  1.0 -0.1687797211
N  N11  1  0.92770000  0.15430000  0.79170000  1.0 -0.1687797211
N  N12  1  0.77340000  0.92770000  0.79170000  1.0 -0.1687797211
N  N13  1  0.92770000  0.77340000  0.79170000  1.0 -0.1687797211
N  N14  1  0.15430000  0.92770000  0.79170000  1.0 -0.1687797211
N  N15  1  0.22660000  0.15430000  0.79170000  1.0 -0.1687797211
N  N16  1  0.84570000  0.07230000  0.79170000  1.0 -0.1687797211
N  N17  1  0.77340000  0.84570000  0.79170000  1.0 -0.1687797211
N  N18  1  0.77340000  0.92770000  0.20830000  1.0 -0.1687797211
N  N19  1  0.84570000  0.77340000  0.20830000  1.0 -0.1687797211
N  N20  1  0.92770000  0.15430000  0.20830000  1.0 -0.1687797211
N  N21  1  0.07230000  0.22660000  0.79170000  1.0 -0.1687797211
N  N22  1  0.15430000  0.22660000  0.20830000  1.0 -0.1687797211
N  N23  1  0.07230000  0.84570000  0.20830000  1.0 -0.1687797211
N  N24  1  0.22660000  0.07230000  0.20830000  1.0 -0.1687797211
N  N25  1  0.07420000  0.19830000  0.12760000  1.0 -0.0500400784
N  N26  1  0.87590000  0.07420000  0.12760000  1.0 -0.0500400784
N  N27  1  0.80170000  0.87590000  0.12760000  1.0 -0.0500400784
N  N28  1  0.12410000  0.92580000  0.12760000  1.0 -0.0500400784
N  N29  1  0.19830000  0.12410000  0.12760000  1.0 -0.0500400784
N  N30  1  0.19830000  0.07420000  0.87240000  1.0 -0.0500400784
N  N31  1  0.12410000  0.19830000  0.87240000  1.0 -0.0500400784
N  N32  1  0.07420000  0.87590000  0.87240000  1.0 -0.0500400784
N  N33  1  0.92580000  0.80170000  0.12760000  1.0 -0.0500400784
N  N34  1  0.87590000  0.80170000  0.87240000  1.0 -0.0500400784
N  N35  1  0.92580000  0.12410000  0.87240000  1.0 -0.0500400784
N  N36  1  0.80170000  0.92580000  0.87240000  1.0 -0.0500400784
N  N37  1  0.92580000  0.80170000  0.87240000  1.0 -0.0500400784
N  N38  1  0.12410000  0.92580000  0.87240000  1.0 -0.0500400784
N  N39  1  0.19830000  0.12410000  0.87240000  1.0 -0.0500400784
N  N40  1  0.87590000  0.07420000  0.87240000  1.0 -0.0500400784
N  N41  1  0.80170000  0.87590000  0.87240000  1.0 -0.0500400784
N  N42  1  0.80170000  0.92580000  0.12760000  1.0 -0.0500400784
N  N43  1  0.87590000  0.80170000  0.12760000  1.0 -0.0500400784
N  N44  1  0.92580000  0.12410000  0.12760000  1.0 -0.0500400784
N  N45  1  0.07420000  0.19830000  0.87240000  1.0 -0.0500400784
N  N46  1  0.12410000  0.19830000  0.12760000  1.0 -0.0500400784
N  N47  1  0.07420000  0.87590000  0.12760000  1.0 -0.0500400784
N  N48  1  0.19830000  0.07420000  0.12760000  1.0 -0.0500400784
N  N49  1  0.15230000  0.42860000  0.28950000  1.0 -0.176444277
N  N50  1  0.72370000  0.15230000  0.28950000  1.0 -0.176444277
N  N51  1  0.57140000  0.72370000  0.28950000  1.0 -0.176444277
N  N52  1  0.27630000  0.84770000  0.28950000  1.0 -0.176444277
N  N53  1  0.42860000  0.27630000  0.28950000  1.0 -0.176444277
N  N54  1  0.42860000  0.15230000  0.71050000  1.0 -0.176444277
N  N55  1  0.27630000  0.42860000  0.71050000  1.0 -0.176444277
N  N56  1  0.15230000  0.72370000  0.71050000  1.0 -0.176444277
N  N57  1  0.84770000  0.57140000  0.28950000  1.0 -0.176444277
N  N58  1  0.72370000  0.57140000  0.71050000  1.0 -0.176444277
N  N59  1  0.84770000  0.27630000  0.71050000  1.0 -0.176444277
N  N60  1  0.57140000  0.84770000  0.71050000  1.0 -0.176444277
N  N61  1  0.84770000  0.57140000  0.71050000  1.0 -0.176444277
N  N62  1  0.27630000  0.84770000  0.71050000  1.0 -0.176444277
N  N63  1  0.42860000  0.27630000  0.71050000  1.0 -0.176444277
N  N64  1  0.72370000  0.15230000  0.71050000  1.0 -0.176444277
N  N65  1  0.57140000  0.72370000  0.71050000  1.0 -0.176444277
N  N66  1  0.57140000  0.84770000  0.28950000  1.0 -0.176444277
N  N67  1  0.72370000  0.57140000  0.28950000  1.0 -0.176444277
N  N68  1  0.84770000  0.27630000  0.28950000  1.0 -0.176444277
N  N69  1  0.15230000  0.42860000  0.71050000  1.0 -0.176444277
N  N70  1  0.27630000  0.42860000  0.28950000  1.0 -0.176444277
N  N71  1  0.15230000  0.72370000  0.28950000  1.0 -0.176444277
N  N72  1  0.42860000  0.15230000  0.28950000  1.0 -0.176444277
N  N73  1  0.12120000  0.37710000  0.24510000  1.0 -0.0500400784
N  N74  1  0.74410000  0.12120000  0.24510000  1.0 -0.0500400784
N  N75  1  0.62290000  0.74410000  0.24510000  1.0 -0.0500400784
N  N76  1  0.25590000  0.87880000  0.24510000  1.0 -0.0500400784
N  N77  1  0.37710000  0.25590000  0.24510000  1.0 -0.0500400784
N  N78  1  0.37710000  0.12120000  0.75490000  1.0 -0.0500400784
N  N79  1  0.25590000  0.37710000  0.75490000  1.0 -0.0500400784
N  N80  1  0.12120000  0.74410000  0.75490000  1.0 -0.0500400784
N  N81  1  0.87880000  0.62290000  0.24510000  1.0 -0.0500400784
N  N82  1  0.74410000  0.62290000  0.75490000  1.0 -0.0500400784
N  N83  1  0.87880000  0.25590000  0.75490000  1.0 -0.0500400784
N  N84  1  0.62290000  0.87880000  0.75490000  1.0 -0.0500400784
N  N85  1  0.87880000  0.62290000  0.75490000  1.0 -0.0500400784
N  N86  1  0.25590000  0.87880000  0.75490000  1.0 -0.0500400784
N  N87  1  0.37710000  0.25590000  0.75490000  1.0 -0.0500400784
N  N88  1  0.74410000  0.12120000  0.75490000  1.0 -0.0500400784
N  N89  1  0.62290000  0.74410000  0.75490000  1.0 -0.0500400784
N  N90  1  0.62290000  0.87880000  0.24510000  1.0 -0.0500400784
N  N91  1  0.74410000  0.62290000  0.24510000  1.0 -0.0500400784
N  N92  1  0.87880000  0.25590000  0.24510000  1.0 -0.0500400784
N  N93  1  0.12120000  0.37710000  0.75490000  1.0 -0.0500400784
N  N94  1  0.25590000  0.37710000  0.24510000  1.0 -0.0500400784
N  N95  1  0.12120000  0.74410000  0.24510000  1.0 -0.0500400784
N  N96  1  0.37710000  0.12120000  0.24510000  1.0 -0.0500400784
N  N97  1  0.07160000  0.34420000  0.29360000  1.0 -0.0500400784
N  N98  1  0.72740000  0.07160000  0.29360000  1.0 -0.0500400784
N  N99  1  0.65580000  0.72740000  0.29360000  1.0 -0.0500400784
N  N100  1  0.27260000  0.92840000  0.29360000  1.0 -0.0500400784
N  N101  1  0.34420000  0.27260000  0.29360000  1.0 -0.0500400784
N  N102  1  0.34420000  0.07160000  0.70640000  1.0 -0.0500400784
N  N103  1  0.27260000  0.34420000  0.70640000  1.0 -0.0500400784
N  N104  1  0.07160000  0.72740000  0.70640000  1.0 -0.0500400784
N  N105  1  0.92840000  0.65580000  0.29360000  1.0 -0.0500400784
N  N106  1  0.72740000  0.65580000  0.70640000  1.0 -0.0500400784
N  N107  1  0.92840000  0.27260000  0.70640000  1.0 -0.0500400784
N  N108  1  0.65580000  0.92840000  0.70640000  1.0 -0.0500400784
N  N109  1  0.92840000  0.65580000  0.70640000  1.0 -0.0500400784
N  N110  1  0.27260000  0.92840000  0.70640000  1.0 -0.0500400784
N  N111  1  0.34420000  0.27260000  0.70640000  1.0 -0.0500400784
N  N112  1  0.72740000  0.07160000  0.70640000  1.0 -0.0500400784
N  N113  1  0.65580000  0.72740000  0.70640000  1.0 -0.0500400784
N  N114  1  0.65580000  0.92840000  0.29360000  1.0 -0.0500400784
N  N115  1  0.72740000  0.65580000  0.29360000  1.0 -0.0500400784
N  N116  1  0.92840000  0.27260000  0.29360000  1.0 -0.0500400784
N  N117  1  0.07160000  0.34420000  0.70640000  1.0 -0.0500400784
N  N118  1  0.27260000  0.34420000  0.29360000  1.0 -0.0500400784
N  N119  1  0.07160000  0.72740000  0.29360000  1.0 -0.0500400784
N  N120  1  0.34420000  0.07160000  0.29360000  1.0 -0.0500400784
N  N121  1  0.07170000  0.37570000  0.37350000  1.0 -0.1991075205
N  N122  1  0.69600000  0.07170000  0.37350000  1.0 -0.1991075205
N  N123  1  0.62430000  0.69600000  0.37350000  1.0 -0.1991075205
N  N124  1  0.30400000  0.92830000  0.37350000  1.0 -0.1991075205
N  N125  1  0.37570000  0.30400000  0.37350000  1.0 -0.1991075205
N  N126  1  0.37570000  0.07170000  0.62650000  1.0 -0.1991075205
N  N127  1  0.30400000  0.37570000  0.62650000  1.0 -0.1991075205
N  N128  1  0.07170000  0.69600000  0.62650000  1.0 -0.1991075205
N  N129  1  0.92830000  0.62430000  0.37350000  1.0 -0.1991075205
N  N130  1  0.69600000  0.62430000  0.62650000  1.0 -0.1991075205
N  N131  1  0.92830000  0.30400000  0.62650000  1.0 -0.1991075205
N  N132  1  0.62430000  0.92830000  0.62650000  1.0 -0.1991075205
N  N133  1  0.92830000  0.62430000  0.62650000  1.0 -0.1991075205
N  N134  1  0.30400000  0.92830000  0.62650000  1.0 -0.1991075205
N  N135  1  0.37570000  0.30400000  0.62650000  1.0 -0.1991075205
N  N136  1  0.69600000  0.07170000  0.62650000  1.0 -0.1991075205
N  N137  1  0.62430000  0.69600000  0.62650000  1.0 -0.1991075205
N  N138  1  0.62430000  0.92830000  0.37350000  1.0 -0.1991075205
N  N139  1  0.69600000  0.62430000  0.37350000  1.0 -0.1991075205
N  N140  1  0.92830000  0.30400000  0.37350000  1.0 -0.1991075205
N  N141  1  0.07170000  0.37570000  0.62650000  1.0 -0.1991075205
N  N142  1  0.30400000  0.37570000  0.37350000  1.0 -0.1991075205
N  N143  1  0.07170000  0.69600000  0.37350000  1.0 -0.1991075205
N  N144  1  0.37570000  0.07170000  0.37350000  1.0 -0.1991075205
N  N145  1  0.26380000  0.52760000  0.41760000  1.0 -0.2107674407
N  N146  1  0.73620000  0.26380000  0.41760000  1.0 -0.2107674407
N  N147  1  0.47240000  0.73620000  0.41760000  1.0 -0.2107674407
N  N148  1  0.26380000  0.73620000  0.41760000  1.0 -0.2107674407
N  N149  1  0.52760000  0.26380000  0.41760000  1.0 -0.2107674407
N  N150  1  0.52760000  0.26380000  0.58240000  1.0 -0.2107674407
N  N151  1  0.26380000  0.52760000  0.58240000  1.0 -0.2107674407
N  N152  1  0.26380000  0.73620000  0.58240000  1.0 -0.2107674407
N  N153  1  0.73620000  0.47240000  0.41760000  1.0 -0.2107674407
N  N154  1  0.73620000  0.47240000  0.58240000  1.0 -0.2107674407
N  N155  1  0.73620000  0.26380000  0.58240000  1.0 -0.2107674407
N  N156  1  0.47240000  0.73620000  0.58240000  1.0 -0.2107674407
N  N157  1  0.29185000  0.58370000  0.45040000  1.0 -0.0500400784
N  N158  1  0.70815000  0.29185000  0.45040000  1.0 -0.0500400784
N  N159  1  0.41630000  0.70815000  0.45040000  1.0 -0.0500400784
N  N160  1  0.29185000  0.70815000  0.45040000  1.0 -0.0500400784
N  N161  1  0.58370000  0.29185000  0.45040000  1.0 -0.0500400784
N  N162  1  0.58370000  0.29185000  0.54960000  1.0 -0.0500400784
N  N163  1  0.29185000  0.58370000  0.54960000  1.0 -0.0500400784
N  N164  1  0.29185000  0.70815000  0.54960000  1.0 -0.0500400784
N  N165  1  0.70815000  0.41630000  0.45040000  1.0 -0.0500400784
N  N166  1  0.70815000  0.41630000  0.54960000  1.0 -0.0500400784
N  N167  1  0.70815000  0.29185000  0.54960000  1.0 -0.0500400784
N  N168  1  0.41630000  0.70815000  0.54960000  1.0 -0.0500400784
N  N169  1  0.20720000  0.41430000  0.04920000  1.0 -0.0409940058
N  N170  1  0.79290000  0.20720000  0.04920000  1.0 -0.0500400784
N  N171  1  0.58570000  0.79290000  0.04920000  1.0 -0.0500400784
N  N172  1  0.20710000  0.79280000  0.04920000  1.0 -0.0409940058
N  N173  1  0.41430000  0.20710000  0.04920000  1.0 -0.0500400784
N  N174  1  0.41430000  0.20710000  0.95080000  1.0 -0.0500400784
N  N175  1  0.20720000  0.41430000  0.95080000  1.0 -0.0500400784
N  N176  1  0.20710000  0.79280000  0.95080000  1.0 -0.0500400784
N  N177  1  0.79280000  0.58570000  0.04920000  1.0 -0.0409940058
N  N178  1  0.79280000  0.58570000  0.95080000  1.0 -0.0500400784
N  N179  1  0.79290000  0.20720000  0.95080000  1.0 -0.0500400784
N  N180  1  0.58570000  0.79290000  0.95080000  1.0 -0.0500400784
N  N181  1  0.23500000  0.46990000  0.08120000  1.0 -0.1991075205
N  N182  1  0.76510000  0.23500000  0.08120000  1.0 -0.1991075205
N  N183  1  0.53010000  0.76510000  0.08120000  1.0 -0.1991075205
N  N184  1  0.23490000  0.76500000  0.08120000  1.0 -0.1991075205
N  N185  1  0.46990000  0.23490000  0.08120000  1.0 -0.1991075205
N  N186  1  0.46990000  0.23490000  0.91880000  1.0 -0.1991075205
N  N187  1  0.23500000  0.46990000  0.91880000  1.0 -0.1991075205
N  N188  1  0.23490000  0.76500000  0.91880000  1.0 -0.1991075205
N  N189  1  0.76500000  0.53010000  0.08120000  1.0 -0.1991075205
N  N190  1  0.76500000  0.53010000  0.91880000  1.0 -0.1991075205
N  N191  1  0.76510000  0.23500000  0.91880000  1.0 -0.1991075205
N  N192  1  0.53010000  0.76510000  0.91880000  1.0 -0.1991075205
N  N193  1  0.00000000  0.25050000  0.00000000  1.0 -0.0664301138
N  N194  1  0.74950000  0.00000000  0.00000000  1.0 -0.0664301138
N  N195  1  0.74950000  0.74950000  0.00000000  1.0 -0.0664301138
N  N196  1  0.25050000  0.00000000  0.00000000  1.0 -0.0664301138
N  N197  1  0.25050000  0.25050000  0.00000000  1.0 -0.0664301138
N  N198  1  0.00000000  0.74950000  0.00000000  1.0 -0.0664301138
N  N199  1  0.00000000  0.27830000  0.08140000  1.0 -0.1030485787
N  N200  1  0.72170000  0.00000000  0.08140000  1.0 -0.1030485787
N  N201  1  0.72170000  0.72170000  0.08140000  1.0 -0.1030485787
N  N202  1  0.27830000  0.00000000  0.08140000  1.0 -0.1030485787
N  N203  1  0.27830000  0.27830000  0.08140000  1.0 -0.1030485787
N  N204  1  0.27830000  0.00000000  0.91860000  1.0 -0.1030485787
N  N205  1  0.27830000  0.27830000  0.91860000  1.0 -0.1030485787
N  N206  1  0.00000000  0.72170000  0.91860000  1.0 -0.1030485787
N  N207  1  0.00000000  0.72170000  0.08140000  1.0 -0.1030485787
N  N208  1  0.72170000  0.72170000  0.91860000  1.0 -0.1030485787
N  N209  1  0.00000000  0.27830000  0.91860000  1.0 -0.1030485787
N  N210  1  0.72170000  0.00000000  0.91860000  1.0 -0.1030485787
N  N211  1  0.00000000  0.32650000  0.04910000  1.0 -0.0338144588
N  N212  1  0.67350000  0.00000000  0.04910000  1.0 -0.0338144588
N  N213  1  0.67350000  0.67350000  0.04910000  1.0 -0.0338144588
N  N214  1  0.32650000  0.00000000  0.04910000  1.0 -0.0338144588
N  N215  1  0.32650000  0.32650000  0.04910000  1.0 -0.0338144588
N  N216  1  0.32650000  0.00000000  0.95090000  1.0 -0.0409940058
N  N217  1  0.32650000  0.32650000  0.95090000  1.0 -0.0338144588
N  N218  1  0.00000000  0.67350000  0.95090000  1.0 -0.0338144588
N  N219  1  0.00000000  0.67350000  0.04910000  1.0 -0.0338144588
N  N220  1  0.67350000  0.67350000  0.95090000  1.0 -0.0338144588
N  N221  1  0.00000000  0.32650000  0.95090000  1.0 -0.0338144588
N  N222  1  0.67350000  0.00000000  0.95090000  1.0 -0.0409940058
N  N223  1  0.37530000  0.62470000  0.24680000  1.0 -0.0757199826
N  N224  1  0.75060000  0.37530000  0.24680000  1.0 -0.0757199826
N  N225  1  0.37530000  0.75060000  0.24680000  1.0 -0.0757199826
N  N226  1  0.24940000  0.62470000  0.24680000  1.0 -0.0757199826
N  N227  1  0.62470000  0.24940000  0.24680000  1.0 -0.0757199826
N  N228  1  0.62470000  0.37530000  0.75320000  1.0 -0.0757199826
N  N229  1  0.24940000  0.62470000  0.75320000  1.0 -0.0757199826
N  N230  1  0.37530000  0.75060000  0.75320000  1.0 -0.0757199826
N  N231  1  0.62470000  0.37530000  0.24680000  1.0 -0.0757199826
N  N232  1  0.75060000  0.37530000  0.75320000  1.0 -0.0757199826
N  N233  1  0.62470000  0.24940000  0.75320000  1.0 -0.0757199826
N  N234  1  0.37530000  0.62470000  0.75320000  1.0 -0.0757199826
N  N235  1  0.34790000  0.56970000  0.21340000  1.0 -0.087772228
N  N236  1  0.77820000  0.34790000  0.21340000  1.0 -0.087772228
N  N237  1  0.43030000  0.77820000  0.21340000  1.0 -0.087772228
N  N238  1  0.22180000  0.65210000  0.21340000  1.0 -0.087772228
N  N239  1  0.56970000  0.22180000  0.21340000  1.0 -0.087772228
N  N240  1  0.56970000  0.34790000  0.78660000  1.0 -0.087772228
N  N241  1  0.22180000  0.56970000  0.78660000  1.0 -0.087772228
N  N242  1  0.34790000  0.77820000  0.78660000  1.0 -0.087772228
N  N243  1  0.65210000  0.43030000  0.21340000  1.0 -0.087772228
N  N244  1  0.77820000  0.43030000  0.78660000  1.0 -0.087772228
N  N245  1  0.65210000  0.22180000  0.78660000  1.0 -0.087772228
N  N246  1  0.43030000  0.65210000  0.78660000  1.0 -0.087772228
N  N247  1  0.65210000  0.43030000  0.78660000  1.0 -0.087772228
N  N248  1  0.22180000  0.65210000  0.78660000  1.0 -0.087772228
N  N249  1  0.56970000  0.22180000  0.78660000  1.0 -0.087772228
N  N250  1  0.77820000  0.34790000  0.78660000  1.0 -0.087772228
N  N251  1  0.43030000  0.77820000  0.78660000  1.0 -0.087772228
N  N252  1  0.43030000  0.65210000  0.21340000  1.0 -0.087772228
N  N253  1  0.77820000  0.43030000  0.21340000  1.0 -0.087772228
N  N254  1  0.65210000  0.22180000  0.21340000  1.0 -0.087772228
N  N255  1  0.34790000  0.56970000  0.78660000  1.0 -0.087772228
N  N256  1  0.22180000  0.56970000  0.21340000  1.0 -0.087772228
N  N257  1  0.34790000  0.77820000  0.21340000  1.0 -0.087772228
N  N258  1  0.56970000  0.34790000  0.21340000  1.0 -0.087772228
N  N259  1  0.38650000  0.56210000  0.15840000  1.0 -0.0589336258
N  N260  1  0.82440000  0.38650000  0.15840000  1.0 -0.0589336258
N  N261  1  0.43790000  0.82440000  0.15840000  1.0 -0.0589336258
N  N262  1  0.17560000  0.61350000  0.15840000  1.0 -0.0589336258
N  N263  1  0.56210000  0.17560000  0.15840000  1.0 -0.0589336258
N  N264  1  0.56210000  0.38650000  0.84160000  1.0 -0.0589336258
N  N265  1  0.17560000  0.56210000  0.84160000  1.0 -0.0589336258
N  N266  1  0.38650000  0.82440000  0.84160000  1.0 -0.0589336258
N  N267  1  0.61350000  0.43790000  0.15840000  1.0 -0.0589336258
N  N268  1  0.82440000  0.43790000  0.84160000  1.0 -0.0589336258
N  N269  1  0.61350000  0.17560000  0.84160000  1.0 -0.0589336258
N  N270  1  0.43790000  0.61350000  0.84160000  1.0 -0.0589336258
N  N271  1  0.61350000  0.43790000  0.84160000  1.0 -0.0589336258
N  N272  1  0.17560000  0.61350000  0.84160000  1.0 -0.0589336258
N  N273  1  0.56210000  0.17560000  0.84160000  1.0 -0.0589336258
N  N274  1  0.82440000  0.38650000  0.84160000  1.0 -0.0589336258
N  N275  1  0.43790000  0.82440000  0.84160000  1.0 -0.0589336258
N  N276  1  0.43790000  0.61350000  0.15840000  1.0 -0.0589336258
N  N277  1  0.82440000  0.43790000  0.15840000  1.0 -0.0589336258
N  N278  1  0.61350000  0.17560000  0.15840000  1.0 -0.0589336258
N  N279  1  0.38650000  0.56210000  0.84160000  1.0 -0.0589336258
N  N280  1  0.17560000  0.56210000  0.15840000  1.0 -0.0589336258
N  N281  1  0.38650000  0.82440000  0.15840000  1.0 -0.0589336258
N  N282  1  0.56210000  0.38650000  0.15840000  1.0 -0.0589336258
N  N283  1  0.00000000  0.25060000  0.50000000  1.0 -0.0664301138
N  N284  1  0.74940000  0.00000000  0.50000000  1.0 -0.0664301138
N  N285  1  0.74940000  0.74940000  0.50000000  1.0 -0.0664301138
N  N286  1  0.25060000  0.00000000  0.50000000  1.0 -0.0664301138
N  N287  1  0.25060000  0.25060000  0.50000000  1.0 -0.0664301138
N  N288  1  0.00000000  0.74940000  0.50000000  1.0 -0.0664301138
N  N289  1  0.00000000  0.22090000  0.41840000  1.0 -0.176444277
N  N290  1  0.77910000  0.00000000  0.41840000  1.0 -0.176444277
N  N291  1  0.77910000  0.77910000  0.41840000  1.0 -0.176444277
N  N292  1  0.22090000  0.00000000  0.41840000  1.0 -0.176444277
N  N293  1  0.22090000  0.22090000  0.41840000  1.0 -0.176444277
N  N294  1  0.22090000  0.00000000  0.58160000  1.0 -0.176444277
N  N295  1  0.22090000  0.22090000  0.58160000  1.0 -0.176444277
N  N296  1  0.00000000  0.77910000  0.58160000  1.0 -0.176444277
N  N297  1  0.00000000  0.77910000  0.41840000  1.0 -0.176444277
N  N298  1  0.77910000  0.77910000  0.58160000  1.0 -0.176444277
N  N299  1  0.00000000  0.22090000  0.58160000  1.0 -0.176444277
N  N300  1  0.77910000  0.00000000  0.58160000  1.0 -0.176444277
O  O1  1  0.00000000  0.43100000  0.50000000  1.0 -0.4600722717
O  O2  1  0.56900000  0.00000000  0.50000000  1.0 -0.4660823496
O  O3  1  0.56900000  0.56900000  0.50000000  1.0 -0.4600722717
O  O4  1  0.43100000  0.00000000  0.50000000  1.0 -0.4660823496
O  O5  1  0.43100000  0.43100000  0.50000000  1.0 -0.4600722717
O  O6  1  0.00000000  0.56900000  0.50000000  1.0 -0.4600722717
O  O7  1  0.00000000  0.06800000  0.00000000  1.0 -0.1596925149
O  O8  1  0.93200000  0.00000000  0.00000000  1.0 -0.1545256602
O  O9  1  0.93200000  0.93200000  0.00000000  1.0 -0.1596925149
O  O10  1  0.06800000  0.00000000  0.00000000  1.0 -0.1545256602
O  O11  1  0.06800000  0.06800000  0.00000000  1.0 -0.1596925149
O  O12  1  0.00000000  0.93200000  0.00000000  1.0 -0.1596925149
