# DDEC6 charges by PACMAN v1.1 (https://github.com/mtap-research/PACMAN-charge/)
data_VEMMEG_FSR_pacman
_symmetry_space_group_name_H-M   'P 1'
_cell_length_a   11.69300000
_cell_length_b   11.99400000
_cell_length_c   13.75300000
_cell_angle_alpha   92.97000000
_cell_angle_beta   114.36000000
_cell_angle_gamma   108.35400000
_symmetry_Int_Tables_number   1
_chemical_formula_structural   Mn3H12C54(N17O4)2
_chemical_formula_sum   'Mn3 H12 C54 N34 O8'
_cell_volume   1630.46121610
_cell_formula_units_Z   1
loop_
 _symmetry_equiv_pos_site_id
 _symmetry_equiv_pos_as_xyz
  1  'x, y, z'
loop_
 _atom_site_type_symbol
 _atom_site_label
 _atom_site_symmetry_multiplicity
 _atom_site_fract_x
 _atom_site_fract_y
 _atom_site_fract_z
 _atom_site_occupancy
 _atom_site_charge
Mn  Mn1  1  0.10740000  0.72846000  0.95357000  1.0 0.7544542837
Mn  Mn2  1  0.89260000  0.27154000  0.04643000  1.0 0.7544542837
Mn  Mn3  1  0.00000000  0.00000000  0.00000000  1.0 0.4875290978
H  H1  1  0.67680000  0.43840000  0.03750000  1.0 0.1097082633
H  H2  1  0.32320000  0.56160000  0.96250000  1.0 0.1097082633
H  H3  1  0.51020000  0.68180000  0.94860000  1.0 0.0986055571
H  H4  1  0.48980000  0.31820000  0.05140000  1.0 0.0986055571
H  H5  1  0.11360000  0.87380000  0.57020000  1.0 0.1165653306
H  H6  1  0.88640000  0.12620000  0.42980000  1.0 0.1165653306
H  H7  1  0.90220000  0.07070000  0.59210000  1.0 0.1165653306
H  H8  1  0.09780000  0.92930000  0.40790000  1.0 0.1165653306
H  H9  1  0.35900000  0.10600000  0.43680000  1.0 0.1165653306
H  H10  1  0.64100000  0.89400000  0.56320000  1.0 0.1165653306
H  H11  1  0.50910000  0.86840000  0.37800000  1.0 0.1097082633
H  H12  1  0.49090000  0.13160000  0.62200000  1.0 0.1097082633
C  C1  1  0.49100000  0.60100000  0.27000000  1.0 0.1686871859
C  C2  1  0.50900000  0.39900000  0.73000000  1.0 0.1686871859
C  C3  1  0.65000000  0.50200000  0.32200000  1.0 0.0116005942
C  C4  1  0.35000000  0.49800000  0.67800000  1.0 0.0116005942
C  C5  1  0.70700000  0.72400000  0.33700000  1.0 0.0201730716
C  C6  1  0.29300000  0.27600000  0.66300000  1.0 0.0201730716
C  C7  1  0.73350000  0.64890000  0.98150000  1.0 0.2206179115
C  C8  1  0.26650000  0.35110000  0.01850000  1.0 0.2206179115
C  C9  1  0.61350000  0.57060000  0.99000000  1.0 0.0291784775
C  C10  1  0.38650000  0.42940000  0.01000000  1.0 0.0291784775
C  C11  1  0.60480000  0.46380000  0.02160000  1.0 -0.1404050055
C  C12  1  0.39520000  0.53620000  0.97840000  1.0 -0.1404050055
C  C13  1  0.50680000  0.60850000  0.96890000  1.0 -0.1531546426
C  C14  1  0.49320000  0.39150000  0.03110000  1.0 -0.1531546426
C  C15  1  0.02570000  0.93940000  0.70380000  1.0 0.2094871688
C  C16  1  0.97430000  0.06060000  0.29620000  1.0 0.2094871688
C  C17  1  0.01140000  0.96920000  0.59900000  1.0 0.0291784775
C  C18  1  0.98860000  0.03080000  0.40100000  1.0 0.0291784775
C  C19  1  0.06840000  0.92500000  0.54240000  1.0 -0.1312740296
C  C20  1  0.93160000  0.07500000  0.45760000  1.0 -0.1312740296
C  C21  1  0.94230000  0.04250000  0.55550000  1.0 -0.1312740296
C  C22  1  0.05770000  0.95750000  0.44450000  1.0 -0.1312740296
C  C23  1  0.32870000  0.96040000  0.26990000  1.0 0.2206179115
C  C24  1  0.67130000  0.03960000  0.73010000  1.0 0.2206179115
C  C25  1  0.41870000  0.98300000  0.38720000  1.0 0.0201730716
C  C26  1  0.58130000  0.01700000  0.61280000  1.0 0.0201730716
C  C27  1  0.41520000  0.06280000  0.46150000  1.0 -0.1404050055
C  C28  1  0.58480000  0.93720000  0.53850000  1.0 -0.1404050055
C  C29  1  0.50470000  0.92140000  0.42680000  1.0 -0.1312740296
C  C30  1  0.49530000  0.07860000  0.57320000  1.0 -0.1312740296
C  C31  1  0.27460000  0.73960000  0.82510000  1.0 0.1292413983
C  C32  1  0.72540000  0.26040000  0.17490000  1.0 0.1292413983
C  C33  1  0.34700000  0.76730000  0.68190000  1.0 0.0116005942
C  C34  1  0.65300000  0.23270000  0.31810000  1.0 0.0116005942
C  C35  1  0.50300000  0.88110000  0.87760000  1.0 0.1097082633
C  C36  1  0.49700000  0.11890000  0.12240000  1.0 0.1097082633
C  C37  1  0.92030000  0.51670000  0.75820000  1.0 0.2392882991
C  C38  1  0.07970000  0.48330000  0.24180000  1.0 0.2392882991
C  C39  1  0.00100000  0.32000000  0.73700000  1.0 0.0502088766
C  C40  1  0.99900000  0.68000000  0.26300000  1.0 0.0502088766
C  C41  1  0.77500000  0.34000000  0.61200000  1.0 -0.0162590169
C  C42  1  0.22500000  0.66000000  0.38800000  1.0 -0.0094563161
C  C43  1  0.41430000  0.81830000  0.03120000  1.0 0.1422992709
C  C44  1  0.58570000  0.18170000  0.96880000  1.0 0.1422992709
C  C45  1  0.65900000  0.92100000  0.13200000  1.0 -0.1404050055
C  C46  1  0.34100000  0.07900000  0.86800000  1.0 -0.1404050055
C  C47  1  0.52000000  0.91650000  0.92680000  1.0 0.0502088766
C  C48  1  0.48000000  0.08350000  0.07320000  1.0 0.0502088766
C  C49  1  0.01800000  0.49600000  0.81600000  1.0 0.1686871859
C  C50  1  0.98200000  0.50400000  0.18400000  1.0 0.1686871859
C  C51  1  0.46800000  0.69300000  0.21700000  1.0 -0.0031532382
C  C52  1  0.53200000  0.30700000  0.78300000  1.0 -0.0031532382
C  C53  1  0.65000000  0.84200000  0.19900000  1.0 -0.1531546426
C  C54  1  0.35000000  0.15800000  0.80100000  1.0 -0.1531546426
N  N1  1  0.61400000  0.62100000  0.32500000  1.0 -0.0094563161
N  N2  1  0.38600000  0.37900000  0.67500000  1.0 -0.0094563161
N  N3  1  0.82480000  0.61140000  0.97100000  1.0 -0.1892846984
N  N4  1  0.17520000  0.38860000  0.02900000  1.0 -0.1892846984
N  N5  1  0.91690000  0.71080000  0.96930000  1.0 -0.093634845
N  N6  1  0.08310000  0.28920000  0.03070000  1.0 -0.093634845
N  N7  1  0.88090000  0.80320000  0.97880000  1.0 -0.0162590169
N  N8  1  0.11910000  0.19680000  0.02120000  1.0 -0.0162590169
N  N9  1  0.76590000  0.76610000  0.98660000  1.0 -0.2288255107
N  N10  1  0.23410000  0.23390000  0.01340000  1.0 -0.2288255107
N  N11  1  0.01440000  0.00660000  0.77750000  1.0 -0.2288255107
N  N12  1  0.98560000  0.99340000  0.22250000  1.0 -0.2288255107
N  N13  1  0.03440000  0.94930000  0.86040000  1.0 -0.0162590169
N  N14  1  0.96560000  0.05070000  0.13960000  1.0 -0.0162590169
N  N15  1  0.05450000  0.85070000  0.83700000  1.0 -0.0816260514
N  N16  1  0.94550000  0.14930000  0.16300000  1.0 -0.0696351516
N  N17  1  0.05090000  0.84240000  0.73880000  1.0 -0.2490077701
N  N18  1  0.94910000  0.15760000  0.26120000  1.0 -0.2490077701
N  N19  1  0.30270000  0.86650000  0.19830000  1.0 -0.2383470734
N  N20  1  0.69730000  0.13350000  0.80170000  1.0 -0.2383470734
N  N21  1  0.21250000  0.87570000  0.10380000  1.0 -0.0816260514
N  N22  1  0.78750000  0.12430000  0.89620000  1.0 -0.0816260514
N  N23  1  0.18730000  0.97380000  0.11910000  1.0 -0.0318989207
N  N24  1  0.81270000  0.02620000  0.88090000  1.0 -0.0318989207
N  N25  1  0.26110000  0.03020000  0.22350000  1.0 -0.2383470734
N  N26  1  0.73890000  0.96980000  0.77650000  1.0 -0.2383470734
N  N27  1  0.37050000  0.79330000  0.79910000  1.0 -0.0696351516
N  N28  1  0.62950000  0.20670000  0.20090000  1.0 -0.0696351516
N  N29  1  0.90780000  0.39330000  0.70890000  1.0 0.0815097479
N  N30  1  0.09220000  0.60670000  0.29110000  1.0 0.0859195578
N  N31  1  0.52380000  0.88500000  0.02400000  1.0 -0.0479344849
N  N32  1  0.47620000  0.11500000  0.97600000  1.0 -0.0479344849
N  N33  1  0.61900000  0.74400000  0.24900000  1.0 0.0815097479
N  N34  1  0.38100000  0.25600000  0.75100000  1.0 0.0815097479
O  O1  1  0.42210000  0.64810000  0.24710000  1.0 -0.0625698877
O  O2  1  0.57790000  0.35190000  0.75290000  1.0 -0.0625698877
O  O3  1  0.29050000  0.77150000  0.93150000  1.0 -0.3697492492
O  O4  1  0.70950000  0.22850000  0.06850000  1.0 -0.3697492492
O  O5  1  0.01570000  0.57440000  0.82910000  1.0 -0.1243148271
O  O6  1  0.98430000  0.42560000  0.17090000  1.0 -0.1243148271
O  O7  1  0.16850000  0.61630000  0.06890000  1.0 -0.1531546426
O  O8  1  0.83150000  0.38370000  0.93110000  1.0 -0.1531546426
