# DDEC6 charges by PACMAN v1.1 (https://github.com/mtap-research/PACMAN-charge/)
data_VEMMAC_FSR_pacman
_symmetry_space_group_name_H-M   'P 1'
_cell_length_a   11.57130000
_cell_length_b   11.73600000
_cell_length_c   13.61900000
_cell_angle_alpha   92.86900000
_cell_angle_beta   114.44300000
_cell_angle_gamma   107.98800000
_symmetry_Int_Tables_number   1
_chemical_formula_structural   Zn3H26C42(N15O4)2
_chemical_formula_sum   'Zn3 H26 C42 N30 O8'
_cell_volume   1567.27131432
_cell_formula_units_Z   1
loop_
 _symmetry_equiv_pos_site_id
 _symmetry_equiv_pos_as_xyz
  1  'x, y, z'
loop_
 _atom_site_type_symbol
 _atom_site_label
 _atom_site_symmetry_multiplicity
 _atom_site_fract_x
 _atom_site_fract_y
 _atom_site_fract_z
 _atom_site_occupancy
 _atom_site_charge
Zn  Zn1  1  0.00000000  0.50000000  0.00000000  1.0 0.4662773984
Zn  Zn2  1  0.89561000  0.76608000  0.04639000  1.0 0.6851122457
Zn  Zn3  1  0.10439000  0.23392000  0.95361000  1.0 0.6851122457
H  H1  1  0.00760000  0.10810000  0.22650000  1.0 0.1401534924
H  H2  1  0.99240000  0.89190000  0.77350000  1.0 0.1401534924
H  H3  1  0.14480000  0.22020000  0.28990000  1.0 0.1310417933
H  H4  1  0.85520000  0.77980000  0.71010000  1.0 0.1310417933
H  H5  1  0.06670000  0.15390000  0.35370000  1.0 0.1401534924
H  H6  1  0.93330000  0.84610000  0.64630000  1.0 0.1401534924
H  H7  1  0.29810000  0.12590000  0.47280000  1.0 0.1310417933
H  H8  1  0.70190000  0.87410000  0.52720000  1.0 0.1310417933
H  H9  1  0.36330000  0.15040000  0.39170000  1.0 0.1310417933
H  H10  1  0.63670000  0.84960000  0.60830000  1.0 0.1310417933
H  H11  1  0.31670000  0.01860000  0.41500000  1.0 0.1310417933
H  H12  1  0.68330000  0.98140000  0.58500000  1.0 0.1401534924
H  H13  1  0.32770000  0.07070000  0.97500000  1.0 0.1216065301
H  H14  1  0.67230000  0.92930000  0.02500000  1.0 0.1216065301
H  H15  1  0.88050000  0.62460000  0.42500000  1.0 0.1216065301
H  H16  1  0.11950000  0.37540000  0.57500000  1.0 0.1216065301
H  H17  1  0.64880000  0.39770000  0.56280000  1.0 0.1310417933
H  H18  1  0.35120000  0.60230000  0.43720000  1.0 0.1310417933
H  H19  1  0.09230000  0.42090000  0.40560000  1.0 0.1216065301
H  H20  1  0.90770000  0.57910000  0.59440000  1.0 0.1216065301
H  H21  1  0.48700000  0.63170000  0.62230000  1.0 0.1310417933
H  H22  1  0.51300000  0.36830000  0.37770000  1.0 0.1310417933
H  H23  1  0.48020000  0.81020000  0.03860000  1.0 0.1123647394
H  H24  1  0.51980000  0.18980000  0.96140000  1.0 0.1216065301
H  H25  1  0.14350000  0.90160000  0.24790000  1.0 0.1123647394
H  H26  1  0.85650000  0.09840000  0.75210000  1.0 0.1123647394
C  C1  1  0.48100000  0.58640000  0.08280000  1.0 0.0566161203
C  C2  1  0.51900000  0.41360000  0.91720000  1.0 0.0566161203
C  C3  1  0.34400000  0.57800000  0.86700000  1.0 0.0699597973
C  C4  1  0.65600000  0.42200000  0.13300000  1.0 0.0699597973
C  C5  1  0.58890000  0.68460000  0.96670000  1.0 0.1401534924
C  C6  1  0.41110000  0.31540000  0.03330000  1.0 0.1401534924
C  C7  1  0.26300000  0.84920000  0.01580000  1.0 0.2317450012
C  C8  1  0.73700000  0.15080000  0.98420000  1.0 0.2317450012
C  C9  1  0.08960000  0.14260000  0.29460000  1.0 -0.3042836857
C  C10  1  0.91040000  0.85740000  0.70540000  1.0 -0.3042836857
C  C11  1  0.29650000  0.09200000  0.40640000  1.0 -0.3192810339
C  C12  1  0.70350000  0.90800000  0.59360000  1.0 -0.3192810339
C  C13  1  0.97280000  0.55780000  0.29190000  1.0 0.2317450012
C  C14  1  0.02720000  0.44220000  0.70810000  1.0 0.2317450012
C  C15  1  0.67090000  0.53870000  0.73210000  1.0 0.2351002472
C  C16  1  0.32910000  0.46130000  0.26790000  1.0 0.2351002472
C  C17  1  0.98630000  0.52870000  0.39860000  1.0 0.0414729494
C  C18  1  0.01370000  0.47130000  0.60140000  1.0 0.0414729494
C  C19  1  0.58150000  0.51700000  0.61280000  1.0 0.0414729494
C  C20  1  0.41850000  0.48300000  0.38720000  1.0 0.0414729494
C  C21  1  0.39680000  0.04090000  0.98540000  1.0 -0.1372822222
C  C22  1  0.60320000  0.95910000  0.01460000  1.0 -0.1372822222
C  C23  1  0.92920000  0.57470000  0.45500000  1.0 -0.1220660219
C  C24  1  0.07080000  0.42530000  0.54500000  1.0 -0.1220660219
C  C25  1  0.58860000  0.43900000  0.53780000  1.0 -0.1269731444
C  C26  1  0.41140000  0.56100000  0.46220000  1.0 -0.1269731444
C  C27  1  0.05520000  0.45360000  0.44360000  1.0 -0.1220660219
C  C28  1  0.94480000  0.54640000  0.55640000  1.0 -0.1220660219
C  C29  1  0.38540000  0.92750000  0.00880000  1.0 0.046555471
C  C30  1  0.61460000  0.07250000  0.99120000  1.0 0.046555471
C  C31  1  0.49230000  0.57810000  0.57300000  1.0 -0.1220660219
C  C32  1  0.50770000  0.42190000  0.42700000  1.0 -0.1220660219
C  C33  1  0.48710000  0.88750000  0.02290000  1.0 -0.1269731444
C  C34  1  0.51290000  0.11250000  0.97710000  1.0 -0.1269731444
C  C35  1  0.09560000  0.95400000  0.23970000  1.0 0.2181973535
C  C36  1  0.90440000  0.04600000  0.76030000  1.0 0.2137128937
C  C37  1  0.51440000  0.62950000  0.13890000  1.0 -0.0280301331
C  C38  1  0.48560000  0.37050000  0.86110000  1.0 -0.0280301331
C  C39  1  0.64900000  0.73800000  0.30980000  1.0 0.0285292094
C  C40  1  0.35100000  0.26200000  0.69020000  1.0 0.0285292094
C  C41  1  0.73120000  0.76380000  0.17160000  1.0 0.1561874824
C  C42  1  0.26880000  0.23620000  0.82840000  1.0 0.1561874824
N  N1  1  0.47860000  0.61320000  0.97740000  1.0 -0.0797164114
N  N2  1  0.52140000  0.38680000  0.02260000  1.0 -0.0797164114
N  N3  1  0.69840000  0.63630000  0.80450000  1.0 -0.2426769247
N  N4  1  0.30160000  0.36370000  0.19550000  1.0 -0.2426769247
N  N5  1  0.17030000  0.88730000  0.02780000  1.0 -0.1905067151
N  N6  1  0.82970000  0.11270000  0.97220000  1.0 -0.1905067151
N  N7  1  0.94420000  0.64680000  0.15760000  1.0 -0.0698242073
N  N8  1  0.05580000  0.35320000  0.84240000  1.0 -0.0698242073
N  N9  1  0.98590000  0.48950000  0.21900000  1.0 -0.2315077108
N  N10  1  0.01410000  0.51050000  0.78100000  1.0 -0.2315077108
N  N11  1  0.79000000  0.62580000  0.90020000  1.0 -0.0605029238
N  N12  1  0.21000000  0.37420000  0.09980000  1.0 -0.0605029238
N  N13  1  0.96740000  0.54730000  0.13550000  1.0 -0.0043327738
N  N14  1  0.03260000  0.45270000  0.86450000  1.0 -0.0043327738
N  N15  1  0.07950000  0.78710000  0.02950000  1.0 -0.0797164114
N  N16  1  0.92050000  0.21290000  0.97050000  1.0 -0.0797164114
N  N17  1  0.11530000  0.69270000  0.01930000  1.0 -0.0280301331
N  N18  1  0.88470000  0.30730000  0.98070000  1.0 -0.0280301331
N  N19  1  0.81490000  0.52520000  0.88580000  1.0 -0.0183676366
N  N20  1  0.18510000  0.47480000  0.11420000  1.0 -0.0183676366
N  N21  1  0.23090000  0.72820000  0.01070000  1.0 -0.2426769247
N  N22  1  0.76910000  0.27180000  0.98930000  1.0 -0.2426769247
N  N23  1  0.94660000  0.65600000  0.25670000  1.0 -0.2504830656
N  N24  1  0.05340000  0.34400000  0.74330000  1.0 -0.2504830656
N  N25  1  0.16190000  0.06330000  0.31480000  1.0 0.0285292094
N  N26  1  0.83810000  0.93670000  0.68520000  1.0 0.0285292094
N  N27  1  0.73990000  0.46770000  0.77980000  1.0 -0.2504830656
N  N28  1  0.26010000  0.53230000  0.22020000  1.0 -0.2504830656
N  N29  1  0.63510000  0.71370000  0.20000000  1.0 0.046555471
N  N30  1  0.36490000  0.28630000  0.80000000  1.0 0.046555471
O  O1  1  0.71600000  0.72840000  0.06830000  1.0 -0.3437757415
O  O2  1  0.28400000  0.27160000  0.93170000  1.0 -0.3437757415
O  O3  1  0.83950000  0.88050000  0.93600000  1.0 -0.1905067151
O  O4  1  0.16050000  0.11950000  0.06400000  1.0 -0.1905067151
O  O5  1  0.98700000  0.92020000  0.16760000  1.0 -0.3822668266
O  O6  1  0.01300000  0.07980000  0.83240000  1.0 -0.3822668266
O  O7  1  0.71900000  0.79700000  0.33000000  1.0 -0.0797164114
O  O8  1  0.28100000  0.20300000  0.67000000  1.0 -0.0797164114
