# DDEC6 charges by PACMAN v1.1 (https://github.com/mtap-research/PACMAN-charge/)
data_VEMMAC_ASR_pacman
_symmetry_space_group_name_H-M   'P 1'
_cell_length_a   11.57130000
_cell_length_b   11.73600000
_cell_length_c   13.61900000
_cell_angle_alpha   92.86900000
_cell_angle_beta   114.44300000
_cell_angle_gamma   107.98800000
_symmetry_Int_Tables_number   1
_chemical_formula_structural   ZnH4(CN)8
_chemical_formula_sum   'Zn3 H12 C24 N24'
_cell_volume   1567.27131432
_cell_formula_units_Z   3
loop_
 _symmetry_equiv_pos_site_id
 _symmetry_equiv_pos_as_xyz
  1  'x, y, z'
loop_
 _atom_site_type_symbol
 _atom_site_label
 _atom_site_symmetry_multiplicity
 _atom_site_fract_x
 _atom_site_fract_y
 _atom_site_fract_z
 _atom_site_occupancy
 _atom_site_charge
Zn  Zn1  1  0.00000000  0.50000000  0.00000000  1.0 0.4397092111
Zn  Zn2  1  0.89561000  0.76608000  0.04639000  1.0 0.4397092111
Zn  Zn3  1  0.10439000  0.23392000  0.95361000  1.0 0.434377665
H  H1  1  0.32770000  0.07070000  0.97500000  1.0 0.1235498584
H  H2  1  0.67230000  0.92930000  0.02500000  1.0 0.1235498584
H  H3  1  0.88050000  0.62460000  0.42500000  1.0 0.1293894745
H  H4  1  0.11950000  0.37540000  0.57500000  1.0 0.1293894745
H  H5  1  0.64880000  0.39770000  0.56280000  1.0 0.1293894745
H  H6  1  0.35120000  0.60230000  0.43720000  1.0 0.1293894745
H  H7  1  0.09230000  0.42090000  0.40560000  1.0 0.1293894745
H  H8  1  0.90770000  0.57910000  0.59440000  1.0 0.1293894745
H  H9  1  0.48700000  0.63170000  0.62230000  1.0 0.1293894745
H  H10  1  0.51300000  0.36830000  0.37770000  1.0 0.1293894745
H  H11  1  0.48020000  0.81020000  0.03860000  1.0 0.1375645644
H  H12  1  0.51980000  0.18980000  0.96140000  1.0 0.1375645644
C  C1  1  0.26300000  0.84920000  0.01580000  1.0 0.2317814998
C  C2  1  0.73700000  0.15080000  0.98420000  1.0 0.2317814998
C  C3  1  0.97280000  0.55780000  0.29190000  1.0 0.2389115117
C  C4  1  0.02720000  0.44220000  0.70810000  1.0 0.2389115117
C  C5  1  0.67090000  0.53870000  0.73210000  1.0 0.2389115117
C  C6  1  0.32910000  0.46130000  0.26790000  1.0 0.2389115117
C  C7  1  0.98630000  0.52870000  0.39860000  1.0 0.0481011169
C  C8  1  0.01370000  0.47130000  0.60140000  1.0 0.0392136807
C  C9  1  0.58150000  0.51700000  0.61280000  1.0 0.0481011169
C  C10  1  0.41850000  0.48300000  0.38720000  1.0 0.0481011169
C  C11  1  0.39680000  0.04090000  0.98540000  1.0 -0.111018473
C  C12  1  0.60320000  0.95910000  0.01460000  1.0 -0.111018473
C  C13  1  0.92920000  0.57470000  0.45500000  1.0 -0.111018473
C  C14  1  0.07080000  0.42530000  0.54500000  1.0 -0.111018473
C  C15  1  0.58860000  0.43900000  0.53780000  1.0 -0.1213896476
C  C16  1  0.41140000  0.56100000  0.46220000  1.0 -0.1213896476
C  C17  1  0.05520000  0.45360000  0.44360000  1.0 -0.1213896476
C  C18  1  0.94480000  0.54640000  0.55640000  1.0 -0.1213896476
C  C19  1  0.38540000  0.92750000  0.00880000  1.0 0.0392136807
C  C20  1  0.61460000  0.07250000  0.99120000  1.0 0.0392136807
C  C21  1  0.49230000  0.57810000  0.57300000  1.0 -0.111018473
C  C22  1  0.50770000  0.42190000  0.42700000  1.0 -0.111018473
C  C23  1  0.48710000  0.88750000  0.02290000  1.0 -0.1035038956
C  C24  1  0.51290000  0.11250000  0.97710000  1.0 -0.1035038956
N  N1  1  0.69840000  0.63630000  0.80450000  1.0 -0.2674263123
N  N2  1  0.30160000  0.36370000  0.19550000  1.0 -0.2674263123
N  N3  1  0.17030000  0.88730000  0.02780000  1.0 -0.2674263123
N  N4  1  0.82970000  0.11270000  0.97220000  1.0 -0.2674263123
N  N5  1  0.94420000  0.64680000  0.15760000  1.0 -0.0185336132
N  N6  1  0.05580000  0.35320000  0.84240000  1.0 -0.0185336132
N  N7  1  0.98590000  0.48950000  0.21900000  1.0 -0.2221557402
N  N8  1  0.01410000  0.51050000  0.78100000  1.0 -0.2221557402
N  N9  1  0.79000000  0.62580000  0.90020000  1.0 -0.0185336132
N  N10  1  0.21000000  0.37420000  0.09980000  1.0 -0.0185336132
N  N11  1  0.96740000  0.54730000  0.13550000  1.0 -0.0116808282
N  N12  1  0.03260000  0.45270000  0.86450000  1.0 -0.0116808282
N  N13  1  0.07950000  0.78710000  0.02950000  1.0 -0.0116808282
N  N14  1  0.92050000  0.21290000  0.97050000  1.0 -0.0116808282
N  N15  1  0.11530000  0.69270000  0.01930000  1.0 -0.0185336132
N  N16  1  0.88470000  0.30730000  0.98070000  1.0 -0.0185336132
N  N17  1  0.81490000  0.52520000  0.88580000  1.0 -0.0185336132
N  N18  1  0.18510000  0.47480000  0.11420000  1.0 -0.0185336132
N  N19  1  0.23090000  0.72820000  0.01070000  1.0 -0.2384599351
N  N20  1  0.76910000  0.27180000  0.98930000  1.0 -0.2343755715
N  N21  1  0.94660000  0.65600000  0.25670000  1.0 -0.2674263123
N  N22  1  0.05340000  0.34400000  0.74330000  1.0 -0.2674263123
N  N23  1  0.73990000  0.46770000  0.77980000  1.0 -0.2384599351
N  N24  1  0.26010000  0.53230000  0.22020000  1.0 -0.2384599351
