# DDEC6 charges by PACMAN v1.1 (https://github.com/mtap-research/PACMAN-charge/)
data_VEPDEB_ASR_pacman
_symmetry_space_group_name_H-M   'P 1'
_cell_length_a   19.06820000
_cell_length_b   19.06820000
_cell_length_c   14.83440000
_cell_angle_alpha   71.88170000
_cell_angle_beta   108.11800000
_cell_angle_gamma   111.28900000
_symmetry_Int_Tables_number   1
_chemical_formula_structural   Fe3H72Au7C69N37
_chemical_formula_sum   'Fe6 H144 Au14 C138 N74'
_cell_volume   4655.47437279
_cell_formula_units_Z   2
loop_
 _symmetry_equiv_pos_site_id
 _symmetry_equiv_pos_as_xyz
  1  'x, y, z'
loop_
 _atom_site_type_symbol
 _atom_site_label
 _atom_site_symmetry_multiplicity
 _atom_site_fract_x
 _atom_site_fract_y
 _atom_site_fract_z
 _atom_site_occupancy
 _atom_site_charge
Fe  Fe1  1  0.60786000  0.95142000  0.37589000  1.0 0.4528650461
Fe  Fe2  1  0.95142000  0.60786000  0.62411000  1.0 0.4528650461
Fe  Fe3  1  0.39214000  0.04858000  0.62411000  1.0 0.4528650461
Fe  Fe4  1  0.04858000  0.39214000  0.37589000  1.0 0.4528650461
Fe  Fe5  1  0.50000000  0.00000000  0.50000000  1.0 0.3780213638
Fe  Fe6  1  0.00000000  0.50000000  0.50000000  1.0 0.3780213638
H  H1  1  0.43030000  0.10530000  0.30360000  1.0 0.1309319791
H  H2  1  0.10530000  0.43030000  0.69640000  1.0 0.1309319791
H  H3  1  0.56970000  0.89470000  0.69640000  1.0 0.1309319791
H  H4  1  0.89470000  0.56970000  0.30360000  1.0 0.1309319791
H  H5  1  0.55130000  0.05230000  0.17680000  1.0 0.1309319791
H  H6  1  0.05230000  0.55130000  0.82320000  1.0 0.1309319791
H  H7  1  0.44870000  0.94770000  0.82320000  1.0 0.1309319791
H  H8  1  0.94770000  0.44870000  0.17680000  1.0 0.1309319791
H  H9  1  0.54350000  0.23890000  0.12100000  1.0 0.1097112941
H  H10  1  0.23890000  0.54350000  0.87900000  1.0 0.1097112941
H  H11  1  0.45650000  0.76110000  0.87900000  1.0 0.1097112941
H  H12  1  0.76110000  0.45650000  0.12100000  1.0 0.1097112941
H  H13  1  0.47870000  0.24050000  0.16440000  1.0 0.1097112941
H  H14  1  0.24050000  0.47870000  0.83560000  1.0 0.1097112941
H  H15  1  0.52130000  0.75950000  0.83560000  1.0 0.1097112941
H  H16  1  0.75950000  0.52130000  0.16440000  1.0 0.1097112941
H  H17  1  0.33610000  0.07030000  0.09940000  1.0 0.119361331
H  H18  1  0.07030000  0.33610000  0.90060000  1.0 0.119361331
H  H19  1  0.66390000  0.92970000  0.90060000  1.0 0.119361331
H  H20  1  0.92970000  0.66390000  0.09940000  1.0 0.119361331
H  H21  1  0.35070000  0.13670000  0.15080000  1.0 0.119361331
H  H22  1  0.13670000  0.35070000  0.84920000  1.0 0.119361331
H  H23  1  0.64930000  0.86330000  0.84920000  1.0 0.119361331
H  H24  1  0.86330000  0.64930000  0.15080000  1.0 0.119361331
H  H25  1  0.65240000  0.06760000  0.64950000  1.0 0.1309319791
H  H26  1  0.06760000  0.65240000  0.35050000  1.0 0.1309319791
H  H27  1  0.34760000  0.93240000  0.35050000  1.0 0.1309319791
H  H28  1  0.93240000  0.34760000  0.64950000  1.0 0.1309319791
H  H29  1  0.76310000  0.00050000  0.52380000  1.0 0.1390908787
H  H30  1  0.00050000  0.76310000  0.47620000  1.0 0.1390908787
H  H31  1  0.23690000  0.99950000  0.47620000  1.0 0.1390908787
H  H32  1  0.99950000  0.23690000  0.52380000  1.0 0.1390908787
H  H33  1  0.83580000  0.97320000  0.74590000  1.0 0.1309319791
H  H34  1  0.97320000  0.83580000  0.25410000  1.0 0.1309319791
H  H35  1  0.16420000  0.02680000  0.25410000  1.0 0.1309319791
H  H36  1  0.02680000  0.16420000  0.74590000  1.0 0.1309319791
H  H37  1  0.86810000  0.01410000  0.65100000  1.0 0.1097112941
H  H38  1  0.01410000  0.86810000  0.34900000  1.0 0.1097112941
H  H39  1  0.13190000  0.98590000  0.34900000  1.0 0.1097112941
H  H40  1  0.98590000  0.13190000  0.65100000  1.0 0.1097112941
H  H41  1  0.97210000  0.02790000  0.78950000  1.0 0.081724398
H  H42  1  0.02790000  0.97210000  0.21050000  1.0 0.081724398
H  H43  1  0.97590000  0.09710000  0.89850000  1.0 0.1097112941
H  H44  1  0.09710000  0.97590000  0.10150000  1.0 0.1097112941
H  H45  1  0.02410000  0.90290000  0.10150000  1.0 0.1097112941
H  H46  1  0.90290000  0.02410000  0.89850000  1.0 0.1097112941
H  H47  1  0.86660000  0.13340000  0.88510000  1.0 0.081724398
H  H48  1  0.13340000  0.86660000  0.11490000  1.0 0.081724398
H  H49  1  0.76280000  0.11980000  0.74750000  1.0 0.119361331
H  H50  1  0.11980000  0.76280000  0.25250000  1.0 0.119361331
H  H51  1  0.23720000  0.88020000  0.25250000  1.0 0.119361331
H  H52  1  0.88020000  0.23720000  0.74750000  1.0 0.119361331
H  H53  1  0.77170000  0.03790000  0.80480000  1.0 0.119361331
H  H54  1  0.03790000  0.77170000  0.19520000  1.0 0.119361331
H  H55  1  0.22830000  0.96210000  0.19520000  1.0 0.119361331
H  H56  1  0.96210000  0.22830000  0.80480000  1.0 0.119361331
H  H57  1  0.81350000  0.18650000  0.59470000  1.0 0.1390908787
H  H58  1  0.18650000  0.81350000  0.40530000  1.0 0.1390908787
H  H59  1  0.85410000  0.14590000  0.55750000  1.0 0.1309319791
H  H60  1  0.14590000  0.85410000  0.44250000  1.0 0.1309319791
H  H61  1  0.40940000  0.82260000  0.56800000  1.0 0.1309319791
H  H62  1  0.82260000  0.40940000  0.43200000  1.0 0.1309319791
H  H63  1  0.59060000  0.17740000  0.43200000  1.0 0.1309319791
H  H64  1  0.17740000  0.59060000  0.56800000  1.0 0.1309319791
H  H65  1  0.53230000  0.77410000  0.44030000  1.0 0.1390908787
H  H66  1  0.77410000  0.53230000  0.55970000  1.0 0.1390908787
H  H67  1  0.46770000  0.22590000  0.55970000  1.0 0.1390908787
H  H68  1  0.22590000  0.46770000  0.44030000  1.0 0.1390908787
H  H69  1  0.47050000  0.64650000  0.48020000  1.0 0.1309319791
H  H70  1  0.64650000  0.47050000  0.51980000  1.0 0.1309319791
H  H71  1  0.52950000  0.35350000  0.51980000  1.0 0.1309319791
H  H72  1  0.35350000  0.52950000  0.48020000  1.0 0.1309319791
H  H73  1  0.53030000  0.66050000  0.57820000  1.0 0.1097112941
H  H74  1  0.66050000  0.53030000  0.42180000  1.0 0.1097112941
H  H75  1  0.46970000  0.33950000  0.42180000  1.0 0.1097112941
H  H76  1  0.33950000  0.46970000  0.57820000  1.0 0.1097112941
H  H77  1  0.47470000  0.52530000  0.58790000  1.0 0.1012747972
H  H78  1  0.52530000  0.47470000  0.41210000  1.0 0.1012747972
H  H79  1  0.50910000  0.56390000  0.73730000  1.0 0.1097112941
H  H80  1  0.56390000  0.50910000  0.26270000  1.0 0.1097112941
H  H81  1  0.49090000  0.43610000  0.26270000  1.0 0.1097112941
H  H82  1  0.43610000  0.49090000  0.73730000  1.0 0.1097112941
H  H83  1  0.41480000  0.58520000  0.78990000  1.0 0.081724398
H  H84  1  0.58520000  0.41480000  0.21010000  1.0 0.081724398
H  H85  1  0.41060000  0.70560000  0.68200000  1.0 0.1097112941
H  H86  1  0.70560000  0.41060000  0.31800000  1.0 0.1097112941
H  H87  1  0.58940000  0.29440000  0.31800000  1.0 0.1097112941
H  H88  1  0.29440000  0.58940000  0.68200000  1.0 0.1097112941
H  H89  1  0.49340000  0.69680000  0.70260000  1.0 0.119361331
H  H90  1  0.69680000  0.49340000  0.29740000  1.0 0.119361331
H  H91  1  0.50660000  0.30320000  0.29740000  1.0 0.119361331
H  H92  1  0.30320000  0.50660000  0.70260000  1.0 0.119361331
H  H93  1  0.31510000  0.68490000  0.52290000  1.0 0.1309319791
H  H94  1  0.68490000  0.31510000  0.47710000  1.0 0.1309319791
H  H95  1  0.33860000  0.66140000  0.44600000  1.0 0.1309319791
H  H96  1  0.66140000  0.33860000  0.55400000  1.0 0.1309319791
H  H97  1  0.56520000  0.18260000  0.87980000  1.0 0.119361331
H  H98  1  0.18260000  0.56520000  0.12020000  1.0 0.119361331
H  H99  1  0.43480000  0.81740000  0.12020000  1.0 0.119361331
H  H100  1  0.81740000  0.43480000  0.87980000  1.0 0.119361331
H  H101  1  0.34450000  0.09570000  0.77730000  1.0 0.1309319791
H  H102  1  0.09570000  0.34450000  0.22270000  1.0 0.1309319791
H  H103  1  0.65550000  0.90430000  0.22270000  1.0 0.1309319791
H  H104  1  0.90430000  0.65550000  0.77730000  1.0 0.1309319791
H  H105  1  0.32090000  0.09690000  0.92000000  1.0 0.119361331
H  H106  1  0.09690000  0.32090000  0.08000000  1.0 0.119361331
H  H107  1  0.67910000  0.90310000  0.08000000  1.0 0.119361331
H  H108  1  0.90310000  0.67910000  0.92000000  1.0 0.119361331
H  H109  1  0.32410000  0.18050000  0.85500000  1.0 0.119361331
H  H110  1  0.18050000  0.32410000  0.14500000  1.0 0.1097112941
H  H111  1  0.67590000  0.81950000  0.14500000  1.0 0.1097112941
H  H112  1  0.81950000  0.67590000  0.85500000  1.0 0.1097112941
H  H113  1  0.27510000  0.16370000  0.99140000  1.0 0.0886424604
H  H114  1  0.16370000  0.27510000  0.00860000  1.0 0.0886424604
H  H115  1  0.72490000  0.83630000  0.00860000  1.0 0.0886424604
H  H116  1  0.83630000  0.72490000  0.99140000  1.0 0.0886424604
H  H117  1  0.36310000  0.27490000  0.05220000  1.0 0.1097112941
H  H118  1  0.27490000  0.36310000  0.94780000  1.0 0.1097112941
H  H119  1  0.63690000  0.72510000  0.94780000  1.0 0.1097112941
H  H120  1  0.72510000  0.63690000  0.05220000  1.0 0.1097112941
H  H121  1  0.35280000  0.29320000  0.93860000  1.0 0.1097112941
H  H122  1  0.29320000  0.35280000  0.06140000  1.0 0.1097112941
H  H123  1  0.64720000  0.70680000  0.06140000  1.0 0.1097112941
H  H124  1  0.70680000  0.64720000  0.93860000  1.0 0.1097112941
H  H125  1  0.48150000  0.33070000  0.01240000  1.0 0.081724398
H  H126  1  0.33070000  0.48150000  0.98760000  1.0 0.081724398
H  H127  1  0.51850000  0.66930000  0.98760000  1.0 0.081724398
H  H128  1  0.66930000  0.51850000  0.01240000  1.0 0.081724398
H  H129  1  0.53060000  0.26560000  0.94350000  1.0 0.1012747972
H  H130  1  0.26560000  0.53060000  0.05650000  1.0 0.1012747972
H  H131  1  0.46940000  0.73440000  0.05650000  1.0 0.1012747972
H  H132  1  0.73440000  0.46940000  0.94350000  1.0 0.1012747972
H  H133  1  0.45890000  0.28850000  0.86860000  1.0 0.119361331
H  H134  1  0.28850000  0.45890000  0.13140000  1.0 0.119361331
H  H135  1  0.54110000  0.71150000  0.13140000  1.0 0.119361331
H  H136  1  0.71150000  0.54110000  0.86860000  1.0 0.119361331
H  H137  1  0.51980000  0.13320000  0.03900000  1.0 0.119361331
H  H138  1  0.13320000  0.51980000  0.96100000  1.0 0.119361331
H  H139  1  0.48020000  0.86680000  0.96100000  1.0 0.119361331
H  H140  1  0.86680000  0.48020000  0.03900000  1.0 0.119361331
H  H141  1  0.44030000  0.06790000  0.03130000  1.0 0.1390908787
H  H142  1  0.06790000  0.44030000  0.96870000  1.0 0.1390908787
H  H143  1  0.55970000  0.93210000  0.96870000  1.0 0.1390908787
H  H144  1  0.93210000  0.55970000  0.03130000  1.0 0.1390908787
Au  Au1  1  0.83451000  0.16549000  0.28041000  1.0 -0.0599820731
Au  Au2  1  0.16549000  0.83451000  0.71959000  1.0 -0.0599820731
Au  Au3  1  0.77498000  0.77498000  0.50000000  1.0 -0.018043537
Au  Au4  1  0.22502000  0.22502000  0.50000000  1.0 -0.018043537
Au  Au5  1  0.68519000  0.69839000  0.67377000  1.0 0.039649663
Au  Au6  1  0.69839000  0.68519000  0.32623000  1.0 0.039649663
Au  Au7  1  0.31481000  0.30161000  0.32623000  1.0 0.039649663
Au  Au8  1  0.30161000  0.31481000  0.67377000  1.0 0.039649663
Au  Au9  1  0.80195000  0.12945000  0.07061000  1.0 0.0285605223
Au  Au10  1  0.12945000  0.80195000  0.92939000  1.0 0.0285605223
Au  Au11  1  0.19805000  0.87055000  0.92939000  1.0 0.0285605223
Au  Au12  1  0.87055000  0.19805000  0.07061000  1.0 0.0285605223
Au  Au13  1  0.72780000  0.27220000  0.19849000  1.0 0.0119979444
Au  Au14  1  0.27220000  0.72780000  0.80151000  1.0 0.0119979444
C  C1  1  0.46312000  0.08408000  0.29300000  1.0 0.0606675092
C  C2  1  0.08408000  0.46312000  0.70700000  1.0 0.0606675092
C  C3  1  0.53688000  0.91592000  0.70700000  1.0 0.0606675092
C  C4  1  0.91592000  0.53688000  0.29300000  1.0 0.0606675092
C  C5  1  0.52952000  0.05488000  0.22330000  1.0 0.1012747972
C  C6  1  0.05488000  0.52952000  0.77670000  1.0 0.1012747972
C  C7  1  0.47048000  0.94512000  0.77670000  1.0 0.1012747972
C  C8  1  0.94512000  0.47048000  0.22330000  1.0 0.1012747972
C  C9  1  0.44850000  0.14250000  0.11220000  1.0 0.2680693722
C  C10  1  0.14250000  0.44850000  0.88780000  1.0 0.2680693722
C  C11  1  0.55150000  0.85750000  0.88780000  1.0 0.2680693722
C  C12  1  0.85750000  0.55150000  0.11220000  1.0 0.2680693722
C  C13  1  0.48820000  0.22760000  0.11180000  1.0 -0.3007944276
C  C14  1  0.22760000  0.48820000  0.88820000  1.0 -0.3007944276
C  C15  1  0.51180000  0.77240000  0.88820000  1.0 -0.3007944276
C  C16  1  0.77240000  0.51180000  0.11180000  1.0 -0.3007944276
C  C17  1  0.36130000  0.12470000  0.09840000  1.0 -0.3074757563
C  C18  1  0.12470000  0.36130000  0.90160000  1.0 -0.3074757563
C  C19  1  0.63870000  0.87530000  0.90160000  1.0 -0.3074757563
C  C20  1  0.87530000  0.63870000  0.09840000  1.0 -0.3074757563
C  C21  1  0.66349000  0.04731000  0.60790000  1.0 0.039649663
C  C22  1  0.04731000  0.66349000  0.39210000  1.0 0.0285605223
C  C23  1  0.33651000  0.95269000  0.39210000  1.0 0.0285605223
C  C24  1  0.95269000  0.33651000  0.60790000  1.0 0.039649663
C  C25  1  0.72434000  0.01086000  0.53850000  1.0 0.0886424604
C  C26  1  0.01086000  0.72434000  0.46150000  1.0 0.0886424604
C  C27  1  0.27566000  0.98914000  0.46150000  1.0 0.0886424604
C  C28  1  0.98914000  0.27566000  0.53850000  1.0 0.0886424604
C  C29  1  0.80893000  0.07567000  0.67650000  1.0 0.256467153
C  C30  1  0.07567000  0.80893000  0.32350000  1.0 0.256467153
C  C31  1  0.19107000  0.92433000  0.32350000  1.0 0.256467153
C  C32  1  0.92433000  0.19107000  0.67650000  1.0 0.256467153
C  C33  1  0.86029000  0.02271000  0.70790000  1.0 -0.31912309
C  C34  1  0.02271000  0.86029000  0.29210000  1.0 -0.31912309
C  C35  1  0.13971000  0.97729000  0.29210000  1.0 -0.31912309
C  C36  1  0.97729000  0.13971000  0.70790000  1.0 -0.31912309
C  C37  1  0.93870000  0.06130000  0.76940000  1.0 0.0744461424
C  C38  1  0.06130000  0.93870000  0.23060000  1.0 0.0744461424
C  C39  1  0.92660000  0.07340000  0.85940000  1.0 -0.2725782798
C  C40  1  0.07340000  0.92660000  0.14060000  1.0 -0.2725782798
C  C41  1  0.87460000  0.12540000  0.82740000  1.0 0.081724398
C  C42  1  0.12540000  0.87460000  0.17260000  1.0 0.081724398
C  C43  1  0.79631000  0.08729000  0.76660000  1.0 -0.3252936111
C  C44  1  0.08729000  0.79631000  0.23340000  1.0 -0.31912309
C  C45  1  0.20369000  0.91271000  0.23340000  1.0 -0.31912309
C  C46  1  0.91271000  0.20369000  0.76660000  1.0 -0.3252936111
C  C47  1  0.84660000  0.15340000  0.61520000  1.0 -0.362331848
C  C48  1  0.15340000  0.84660000  0.38480000  1.0 -0.362331848
C  C49  1  0.44457000  0.82783000  0.53310000  1.0 0.0606675092
C  C50  1  0.82783000  0.44457000  0.46690000  1.0 0.0606675092
C  C51  1  0.55543000  0.17217000  0.46690000  1.0 0.0606675092
C  C52  1  0.17217000  0.55543000  0.53310000  1.0 0.0606675092
C  C53  1  0.51170000  0.80110000  0.46260000  1.0 0.1012747972
C  C54  1  0.80110000  0.51170000  0.53740000  1.0 0.1012747972
C  C55  1  0.48830000  0.19890000  0.53740000  1.0 0.1012747972
C  C56  1  0.19890000  0.48830000  0.46260000  1.0 0.1012747972
C  C57  1  0.47600000  0.64060000  0.54920000  1.0 -0.3074757563
C  C58  1  0.64060000  0.47600000  0.45080000  1.0 -0.3074757563
C  C59  1  0.52400000  0.35940000  0.45080000  1.0 -0.3074757563
C  C60  1  0.35940000  0.52400000  0.54920000  1.0 -0.3074757563
C  C61  1  0.44550000  0.55450000  0.59740000  1.0 0.0886424604
C  C62  1  0.55450000  0.44550000  0.40260000  1.0 0.0886424604
C  C63  1  0.45490000  0.54510000  0.70680000  1.0 -0.2640588687
C  C64  1  0.54510000  0.45490000  0.29320000  1.0 -0.2640588687
C  C65  1  0.40920000  0.59080000  0.72030000  1.0 0.0886424604
C  C66  1  0.59080000  0.40920000  0.27970000  1.0 0.0886424604
C  C67  1  0.43927000  0.67653000  0.67260000  1.0 -0.3074757563
C  C68  1  0.67653000  0.43927000  0.32740000  1.0 -0.3074757563
C  C69  1  0.56073000  0.32347000  0.32740000  1.0 -0.3074757563
C  C70  1  0.32347000  0.56073000  0.67260000  1.0 -0.3074757563
C  C71  1  0.42989000  0.68531000  0.56380000  1.0 0.256467153
C  C72  1  0.68531000  0.42989000  0.43620000  1.0 0.256467153
C  C73  1  0.57011000  0.31469000  0.43620000  1.0 0.256467153
C  C74  1  0.31469000  0.57011000  0.56380000  1.0 0.256467153
C  C75  1  0.34440000  0.65560000  0.51500000  1.0 -0.3430055932
C  C76  1  0.65560000  0.34440000  0.48500000  1.0 -0.3430055932
C  C77  1  0.51870000  0.15790000  0.84270000  1.0 0.1097112941
C  C78  1  0.15790000  0.51870000  0.15730000  1.0 0.1097112941
C  C79  1  0.48130000  0.84210000  0.15730000  1.0 0.1097112941
C  C80  1  0.84210000  0.48130000  0.84270000  1.0 0.1097112941
C  C81  1  0.39804000  0.11076000  0.78690000  1.0 0.1012747972
C  C82  1  0.11076000  0.39804000  0.21310000  1.0 0.1012747972
C  C83  1  0.60196000  0.88924000  0.21310000  1.0 0.1012747972
C  C84  1  0.88924000  0.60196000  0.78690000  1.0 0.1012747972
C  C85  1  0.43240000  0.17100000  0.93240000  1.0 0.2680693722
C  C86  1  0.17100000  0.43240000  0.06760000  1.0 0.2680693722
C  C87  1  0.56760000  0.82900000  0.06760000  1.0 0.2680693722
C  C88  1  0.82900000  0.56760000  0.93240000  1.0 0.2680693722
C  C89  1  0.34530000  0.15170000  0.91770000  1.0 -0.3074757563
C  C90  1  0.15170000  0.34530000  0.08230000  1.0 -0.3074757563
C  C91  1  0.65470000  0.84830000  0.08230000  1.0 -0.3074757563
C  C92  1  0.84830000  0.65470000  0.91770000  1.0 -0.3007944276
C  C93  1  0.33080000  0.17380000  0.00030000  1.0 0.0886424604
C  C94  1  0.17380000  0.33080000  0.99970000  1.0 0.0886424604
C  C95  1  0.66920000  0.82620000  0.99970000  1.0 0.0886424604
C  C96  1  0.82620000  0.66920000  0.00030000  1.0 0.0886424604
C  C97  1  0.37260000  0.26160000  0.99980000  1.0 -0.2797522353
C  C98  1  0.26160000  0.37260000  0.00020000  1.0 -0.2797522353
C  C99  1  0.62740000  0.73840000  0.00020000  1.0 -0.2797522353
C  C100  1  0.73840000  0.62740000  0.99980000  1.0 -0.2797522353
C  C101  1  0.45550000  0.27590000  0.01270000  1.0 0.081724398
C  C102  1  0.27590000  0.45550000  0.98730000  1.0 0.081724398
C  C103  1  0.54450000  0.72410000  0.98730000  1.0 0.081724398
C  C104  1  0.72410000  0.54450000  0.01270000  1.0 0.081724398
C  C105  1  0.47530000  0.25650000  0.93130000  1.0 -0.3007944276
C  C106  1  0.25650000  0.47530000  0.06870000  1.0 -0.3007944276
C  C107  1  0.52470000  0.74350000  0.06870000  1.0 -0.3007944276
C  C108  1  0.74350000  0.52470000  0.93130000  1.0 -0.3007944276
C  C109  1  0.46469000  0.12251000  0.03030000  1.0 -0.3469947794
C  C110  1  0.12251000  0.46469000  0.96970000  1.0 -0.3469947794
C  C111  1  0.53531000  0.87749000  0.96970000  1.0 -0.3469947794
C  C112  1  0.87749000  0.53531000  0.03030000  1.0 -0.3469947794
C  C113  1  0.74284000  0.07496000  0.29400000  1.0 0.039649663
C  C114  1  0.07496000  0.74284000  0.70600000  1.0 0.039649663
C  C115  1  0.25716000  0.92504000  0.70600000  1.0 0.039649663
C  C116  1  0.92504000  0.25716000  0.29400000  1.0 0.039649663
C  C117  1  0.70975000  0.84425000  0.45620000  1.0 0.0459199619
C  C118  1  0.84425000  0.70975000  0.54380000  1.0 0.0459199619
C  C119  1  0.29025000  0.15575000  0.54380000  1.0 0.0459199619
C  C120  1  0.15575000  0.29025000  0.45620000  1.0 0.0459199619
C  C121  1  0.67320000  0.79340000  0.68730000  1.0 -0.0387582335
C  C122  1  0.79340000  0.67320000  0.31270000  1.0 -0.0387582335
C  C123  1  0.32680000  0.20660000  0.31270000  1.0 -0.0387582335
C  C124  1  0.20660000  0.32680000  0.68730000  1.0 -0.0387582335
C  C125  1  0.69003000  0.59817000  0.66490000  1.0 -0.0312898237
C  C126  1  0.59817000  0.69003000  0.33510000  1.0 -0.0312898237
C  C127  1  0.30997000  0.40183000  0.33510000  1.0 -0.0312898237
C  C128  1  0.40183000  0.30997000  0.66490000  1.0 -0.0312898237
C  C129  1  0.67990000  0.08070000  0.05240000  1.0 -0.0599820731
C  C130  1  0.08070000  0.67990000  0.94760000  1.0 -0.0599820731
C  C131  1  0.32010000  0.91930000  0.94760000  1.0 -0.0599820731
C  C132  1  0.91930000  0.32010000  0.05240000  1.0 -0.0599820731
C  C133  1  0.69220000  0.26020000  0.05930000  1.0 0.0606675092
C  C134  1  0.26020000  0.69220000  0.94070000  1.0 0.0606675092
C  C135  1  0.30780000  0.73980000  0.94070000  1.0 0.0606675092
C  C136  1  0.73980000  0.30780000  0.05930000  1.0 0.0606675092
C  C137  1  0.73830000  0.26170000  0.33710000  1.0 -0.0498617226
C  C138  1  0.26170000  0.73830000  0.66290000  1.0 -0.0498617226
N  N1  1  0.54303000  0.02025000  0.31540000  1.0 -0.1160028888
N  N2  1  0.02025000  0.54303000  0.68460000  1.0 -0.1160028888
N  N3  1  0.45697000  0.97975000  0.68460000  1.0 -0.1160028888
N  N4  1  0.97975000  0.45697000  0.31540000  1.0 -0.1160028888
N  N5  1  0.65224000  0.99742000  0.48950000  1.0 -0.0916536705
N  N6  1  0.99742000  0.65224000  0.51050000  1.0 -0.0916536705
N  N7  1  0.34776000  0.00258000  0.51050000  1.0 -0.0916536705
N  N8  1  0.00258000  0.34776000  0.48950000  1.0 -0.0916536705
N  N9  1  0.52915000  0.87683000  0.44390000  1.0 -0.1119578754
N  N10  1  0.87683000  0.52915000  0.55610000  1.0 -0.1119578754
N  N11  1  0.47085000  0.12317000  0.55610000  1.0 -0.1119578754
N  N12  1  0.12317000  0.47085000  0.44390000  1.0 -0.1119578754
N  N13  1  0.43566000  0.09812000  0.73590000  1.0 -0.1160028888
N  N14  1  0.09812000  0.43566000  0.26410000  1.0 -0.1160028888
N  N15  1  0.56434000  0.90188000  0.26410000  1.0 -0.1160028888
N  N16  1  0.90188000  0.56434000  0.73590000  1.0 -0.1160028888
N  N17  1  0.68914000  0.02646000  0.31530000  1.0 -0.3007944276
N  N18  1  0.02646000  0.68914000  0.68470000  1.0 -0.3007944276
N  N19  1  0.31086000  0.97354000  0.68470000  1.0 -0.3007944276
N  N20  1  0.97354000  0.31086000  0.31530000  1.0 -0.3007944276
N  N21  1  0.67179000  0.88441000  0.43020000  1.0 -0.3007944276
N  N22  1  0.88441000  0.67179000  0.56980000  1.0 -0.3007944276
N  N23  1  0.32821000  0.11559000  0.56980000  1.0 -0.3007944276
N  N24  1  0.11559000  0.32821000  0.43020000  1.0 -0.3074757563
N  N25  1  0.50093000  0.03883000  0.36030000  1.0 -0.1277619408
N  N26  1  0.03883000  0.50093000  0.63970000  1.0 -0.1277619408
N  N27  1  0.49907000  0.96117000  0.63970000  1.0 -0.1277619408
N  N28  1  0.96117000  0.49907000  0.36030000  1.0 -0.1277619408
N  N29  1  0.47906000  0.09514000  0.20600000  1.0 -0.0498617226
N  N30  1  0.09514000  0.47906000  0.79400000  1.0 -0.0498617226
N  N31  1  0.52094000  0.90486000  0.79400000  1.0 -0.0498617226
N  N32  1  0.90486000  0.52094000  0.20600000  1.0 -0.0498617226
N  N33  1  0.61330000  0.01938000  0.53430000  1.0 -0.1119578754
N  N34  1  0.01938000  0.61330000  0.46570000  1.0 -0.1119578754
N  N35  1  0.38670000  0.98062000  0.46570000  1.0 -0.1119578754
N  N36  1  0.98062000  0.38670000  0.53430000  1.0 -0.1119578754
N  N37  1  0.73374000  0.04192000  0.61350000  1.0 -0.0599820731
N  N38  1  0.04192000  0.73374000  0.38650000  1.0 -0.0599820731
N  N39  1  0.26626000  0.95808000  0.38650000  1.0 -0.0599820731
N  N40  1  0.95808000  0.26626000  0.61350000  1.0 -0.0599820731
N  N41  1  0.48697000  0.89425000  0.49010000  1.0 -0.1277619408
N  N42  1  0.89425000  0.48697000  0.50990000  1.0 -0.1277619408
N  N43  1  0.51303000  0.10575000  0.50990000  1.0 -0.1277619408
N  N44  1  0.10575000  0.51303000  0.49010000  1.0 -0.1277619408
N  N45  1  0.45957000  0.76861000  0.51910000  1.0 -0.0498617226
N  N46  1  0.76861000  0.45957000  0.48090000  1.0 -0.0498617226
N  N47  1  0.54043000  0.23139000  0.48090000  1.0 -0.0498617226
N  N48  1  0.23139000  0.54043000  0.51910000  1.0 -0.0498617226
N  N49  1  0.51311000  0.12789000  0.77200000  1.0 -0.2292109982
N  N50  1  0.12789000  0.51311000  0.22800000  1.0 -0.2292109982
N  N51  1  0.48689000  0.87211000  0.22800000  1.0 -0.2292109982
N  N52  1  0.87211000  0.48689000  0.77200000  1.0 -0.2292109982
N  N53  1  0.44832000  0.14868000  0.85530000  1.0 -0.0673120519
N  N54  1  0.14868000  0.44832000  0.14470000  1.0 -0.0673120519
N  N55  1  0.55168000  0.85132000  0.14470000  1.0 -0.0673120519
N  N56  1  0.85132000  0.55168000  0.85530000  1.0 -0.0673120519
N  N57  1  0.66211000  0.84709000  0.69300000  1.0 -0.3986937609
N  N58  1  0.84709000  0.66211000  0.30700000  1.0 -0.3986937609
N  N59  1  0.33789000  0.15291000  0.30700000  1.0 -0.3986937609
N  N60  1  0.15291000  0.33789000  0.69300000  1.0 -0.3986937609
N  N61  1  0.69111000  0.53909000  0.66410000  1.0 -0.3469947794
N  N62  1  0.53909000  0.69111000  0.33590000  1.0 -0.3469947794
N  N63  1  0.30889000  0.46091000  0.33590000  1.0 -0.3469947794
N  N64  1  0.46091000  0.30889000  0.66410000  1.0 -0.3469947794
N  N65  1  0.61500000  0.05580000  0.06080000  1.0 -0.3727177189
N  N66  1  0.05580000  0.61500000  0.93920000  1.0 -0.3727177189
N  N67  1  0.38500000  0.94420000  0.93920000  1.0 -0.3727177189
N  N68  1  0.94420000  0.38500000  0.06080000  1.0 -0.3727177189
N  N69  1  0.67920000  0.25840000  0.98230000  1.0 -0.0312898237
N  N70  1  0.25840000  0.67920000  0.01770000  1.0 -0.0312898237
N  N71  1  0.32080000  0.74160000  0.01770000  1.0 -0.0312898237
N  N72  1  0.74160000  0.32080000  0.98230000  1.0 -0.0312898237
N  N73  1  0.74540000  0.25460000  0.41780000  1.0 -0.3986937609
N  N74  1  0.25460000  0.74540000  0.58220000  1.0 -0.3986937609
