# DDEC6 charges by PACMAN v1.1 (https://github.com/mtap-research/PACMAN-charge/)
data_VEQBOJ_ion_pacman
_symmetry_space_group_name_H-M   'P 1'
_cell_length_a   10.54700000
_cell_length_b   22.65100000
_cell_length_c   24.62700000
_cell_angle_alpha   90.00000000
_cell_angle_beta   98.16800000
_cell_angle_gamma   90.00000000
_symmetry_Int_Tables_number   1
_chemical_formula_structural   Ba2DyH18C30S6N6ClO31
_chemical_formula_sum   'Ba8 Dy4 H72 C120 S24 N24 Cl4 O124'
_cell_volume   5823.70999757
_cell_formula_units_Z   4
loop_
 _symmetry_equiv_pos_site_id
 _symmetry_equiv_pos_as_xyz
  1  'x, y, z'
loop_
 _atom_site_type_symbol
 _atom_site_label
 _atom_site_symmetry_multiplicity
 _atom_site_fract_x
 _atom_site_fract_y
 _atom_site_fract_z
 _atom_site_occupancy
 _atom_site_charge
Ba  Ba1  1  0.93712000  0.28993000  0.99703000  1.0 1.4357188809
Ba  Ba2  1  0.56288000  0.78993000  0.00297000  1.0 1.4357188809
Ba  Ba3  1  0.06288000  0.71007000  0.00297000  1.0 1.4357188809
Ba  Ba4  1  0.43712000  0.21007000  0.99703000  1.0 1.4357188809
Ba  Ba5  1  0.76689000  0.25036000  0.53439000  1.0 1.5024143327
Ba  Ba6  1  0.73311000  0.75036000  0.46561000  1.0 1.5024143327
Ba  Ba7  1  0.23311000  0.74964000  0.46561000  1.0 1.5024143327
Ba  Ba8  1  0.26689000  0.24964000  0.53439000  1.0 1.5024143327
Dy  Dy1  1  0.66906000  0.49256000  0.25697000  1.0 1.9340075422
Dy  Dy2  1  0.83094000  0.99256000  0.74303000  1.0 1.9340075422
Dy  Dy3  1  0.33094000  0.50744000  0.74303000  1.0 1.9340075422
Dy  Dy4  1  0.16906000  0.00744000  0.25697000  1.0 1.9340075422
H  H1  1  0.34440000  0.40380000  0.24610000  1.0 0.1507521534
H  H2  1  0.15560000  0.90380000  0.75390000  1.0 0.1507521534
H  H3  1  0.65560000  0.59620000  0.75390000  1.0 0.1507521534
H  H4  1  0.84440000  0.09620000  0.24610000  1.0 0.1507521534
H  H5  1  0.25250000  0.32500000  0.19400000  1.0 0.1507521534
H  H6  1  0.24750000  0.82500000  0.80600000  1.0 0.1507521534
H  H7  1  0.74750000  0.67500000  0.80600000  1.0 0.1507521534
H  H8  1  0.75250000  0.17500000  0.19400000  1.0 0.1507521534
H  H9  1  0.35660000  0.40080000  0.05890000  1.0 0.1617244273
H  H10  1  0.14340000  0.90080000  0.94110000  1.0 0.1617244273
H  H11  1  0.64340000  0.59920000  0.94110000  1.0 0.1617244273
H  H12  1  0.85660000  0.09920000  0.05890000  1.0 0.1617244273
H  H13  1  0.32200000  0.52720000  0.05350000  1.0 0.1617244273
H  H14  1  0.17800000  0.02720000  0.94650000  1.0 0.1617244273
H  H15  1  0.67800000  0.47280000  0.94650000  1.0 0.1617244273
H  H16  1  0.82200000  0.97280000  0.05350000  1.0 0.1617244273
H  H17  1  0.65000000  0.62010000  0.05040000  1.0 0.1617244273
H  H18  1  0.85000000  0.12010000  0.94960000  1.0 0.1617244273
H  H19  1  0.35000000  0.37990000  0.94960000  1.0 0.1617244273
H  H20  1  0.15000000  0.87990000  0.05040000  1.0 0.1617244273
H  H21  1  0.75310000  0.55810000  0.11850000  1.0 0.1507521534
H  H22  1  0.74690000  0.05810000  0.88150000  1.0 0.1507521534
H  H23  1  0.24690000  0.44190000  0.88150000  1.0 0.1507521534
H  H24  1  0.25310000  0.94190000  0.11850000  1.0 0.1507521534
H  H25  1  0.16640000  0.08240000  0.76920000  1.0 0.1507521534
H  H26  1  0.33360000  0.58240000  0.23080000  1.0 0.1507521534
H  H27  1  0.83360000  0.91760000  0.23080000  1.0 0.1507521534
H  H28  1  0.66640000  0.41760000  0.76920000  1.0 0.1507521534
H  H29  1  0.26040000  0.15190000  0.83240000  1.0 0.1507521534
H  H30  1  0.23960000  0.65190000  0.16760000  1.0 0.1617244273
H  H31  1  0.73960000  0.84810000  0.16760000  1.0 0.1507521534
H  H32  1  0.76040000  0.34810000  0.83240000  1.0 0.1507521534
H  H33  1  0.91480000  0.23130000  0.82750000  1.0 0.1617244273
H  H34  1  0.58520000  0.73130000  0.17250000  1.0 0.1617244273
H  H35  1  0.08520000  0.76870000  0.17250000  1.0 0.1617244273
H  H36  1  0.41480000  0.26870000  0.82750000  1.0 0.1617244273
H  H37  1  0.80580000  0.24590000  0.71900000  1.0 0.1507521534
H  H38  1  0.69420000  0.74590000  0.28100000  1.0 0.1507521534
H  H39  1  0.19420000  0.75410000  0.28100000  1.0 0.1507521534
H  H40  1  0.30580000  0.25410000  0.71900000  1.0 0.1507521534
H  H41  1  0.45640000  0.17440000  0.67150000  1.0 0.1670890301
H  H42  1  0.04360000  0.67440000  0.32850000  1.0 0.1670890301
H  H43  1  0.54360000  0.82560000  0.32850000  1.0 0.1670890301
H  H44  1  0.95640000  0.32560000  0.67150000  1.0 0.1670890301
H  H45  1  0.51720000  0.09310000  0.72630000  1.0 0.1507521534
H  H46  1  0.98280000  0.59310000  0.27370000  1.0 0.1507521534
H  H47  1  0.48280000  0.90690000  0.27370000  1.0 0.1507521534
H  H48  1  0.01720000  0.40690000  0.72630000  1.0 0.1507521534
H  H49  1  0.12020000  0.03010000  0.65820000  1.0 0.1507521534
H  H50  1  0.37980000  0.53010000  0.34180000  1.0 0.1507521534
H  H51  1  0.87980000  0.96990000  0.34180000  1.0 0.1507521534
H  H52  1  0.62020000  0.46990000  0.65820000  1.0 0.1507521534
H  H53  1  0.15520000  0.09030000  0.58610000  1.0 0.1670890301
H  H54  1  0.34480000  0.59030000  0.41390000  1.0 0.1670890301
H  H55  1  0.84480000  0.90970000  0.41390000  1.0 0.1670890301
H  H56  1  0.65520000  0.40970000  0.58610000  1.0 0.1670890301
H  H57  1  0.79930000  0.05170000  0.50980000  1.0 0.1507521534
H  H58  1  0.70070000  0.55170000  0.49020000  1.0 0.1507521534
H  H59  1  0.20070000  0.94830000  0.49020000  1.0 0.1507521534
H  H60  1  0.29930000  0.44830000  0.50980000  1.0 0.1507521534
H  H61  1  0.72880000  0.93380000  0.51400000  1.0 0.1670890301
H  H62  1  0.77120000  0.43380000  0.48600000  1.0 0.1670890301
H  H63  1  0.27120000  0.06620000  0.48600000  1.0 0.1670890301
H  H64  1  0.22880000  0.56620000  0.51400000  1.0 0.1670890301
H  H65  1  0.40170000  0.91630000  0.58000000  1.0 0.1670890301
H  H66  1  0.09830000  0.41630000  0.42000000  1.0 0.1670890301
H  H67  1  0.59830000  0.08370000  0.42000000  1.0 0.1670890301
H  H68  1  0.90170000  0.58370000  0.58000000  1.0 0.1670890301
H  H69  1  0.48510000  0.97940000  0.65030000  1.0 0.1507521534
H  H70  1  0.01490000  0.47940000  0.34970000  1.0 0.1507521534
H  H71  1  0.51490000  0.02060000  0.34970000  1.0 0.1507521534
H  H72  1  0.98510000  0.52060000  0.65030000  1.0 0.1507521534
C  C1  1  0.34760000  0.40270000  0.20780000  1.0 0.0393235453
C  C2  1  0.15240000  0.90270000  0.79220000  1.0 0.0393235453
C  C3  1  0.65240000  0.59730000  0.79220000  1.0 0.0452976245
C  C4  1  0.84760000  0.09730000  0.20780000  1.0 0.0452976245
C  C5  1  0.29280000  0.35610000  0.17700000  1.0 -0.1094044567
C  C6  1  0.20720000  0.85610000  0.82300000  1.0 -0.1094044567
C  C7  1  0.70720000  0.64390000  0.82300000  1.0 -0.1094044567
C  C8  1  0.79280000  0.14390000  0.17700000  1.0 -0.1094044567
C  C9  1  0.29700000  0.35510000  0.12126000  1.0 -0.0220588255
C  C10  1  0.20300000  0.85510000  0.87874000  1.0 -0.0220588255
C  C11  1  0.70300000  0.64490000  0.87874000  1.0 -0.0220588255
C  C12  1  0.79700000  0.14490000  0.12126000  1.0 -0.0220588255
C  C13  1  0.35540000  0.40070000  0.09737000  1.0 -0.1285935454
C  C14  1  0.14460000  0.90070000  0.90263000  1.0 -0.1285935454
C  C15  1  0.64460000  0.59930000  0.90263000  1.0 -0.1285935454
C  C16  1  0.85540000  0.09930000  0.09737000  1.0 -0.1285935454
C  C17  1  0.41210000  0.44610000  0.12904000  1.0 0.1032597917
C  C18  1  0.08790000  0.94610000  0.87096000  1.0 0.1032597917
C  C19  1  0.58790000  0.55390000  0.87096000  1.0 0.1032597917
C  C20  1  0.91210000  0.05390000  0.12904000  1.0 0.1032597917
C  C21  1  0.47460000  0.49724000  0.10630000  1.0 0.1120278745
C  C22  1  0.02540000  0.99724000  0.89370000  1.0 0.1120278745
C  C23  1  0.52540000  0.50276000  0.89370000  1.0 0.1120278745
C  C24  1  0.97460000  0.00276000  0.10630000  1.0 0.1120278745
C  C25  1  0.41010000  0.53360000  0.06640000  1.0 -0.1631802861
C  C26  1  0.08990000  0.03360000  0.93360000  1.0 -0.1631802861
C  C27  1  0.58990000  0.46640000  0.93360000  1.0 -0.1631802861
C  C28  1  0.91010000  0.96640000  0.06640000  1.0 -0.1631802861
C  C29  1  0.47660000  0.58020000  0.04539000  1.0 -0.0605790411
C  C30  1  0.02340000  0.08020000  0.95461000  1.0 -0.0605790411
C  C31  1  0.52340000  0.41980000  0.95461000  1.0 -0.0605790411
C  C32  1  0.97660000  0.91980000  0.04539000  1.0 -0.0605790411
C  C33  1  0.60420000  0.58890000  0.06460000  1.0 -0.117582842
C  C34  1  0.89580000  0.08890000  0.93540000  1.0 -0.117582842
C  C35  1  0.39580000  0.41110000  0.93540000  1.0 -0.117582842
C  C36  1  0.10420000  0.91110000  0.06460000  1.0 -0.117582842
C  C37  1  0.66530000  0.55180000  0.10480000  1.0 0.0190532331
C  C38  1  0.83470000  0.05180000  0.89520000  1.0 0.0190532331
C  C39  1  0.33470000  0.44820000  0.89520000  1.0 0.0190532331
C  C40  1  0.16530000  0.94820000  0.10480000  1.0 0.0190532331
C  C41  1  0.11570000  0.11300000  0.78140000  1.0 0.0190532331
C  C42  1  0.38430000  0.61300000  0.21860000  1.0 0.0190532331
C  C43  1  0.88430000  0.88700000  0.21860000  1.0 0.0190532331
C  C44  1  0.61570000  0.38700000  0.78140000  1.0 0.0190532331
C  C45  1  0.17180000  0.15430000  0.81850000  1.0 -0.1094044567
C  C46  1  0.32820000  0.65430000  0.18150000  1.0 -0.1094044567
C  C47  1  0.82820000  0.84570000  0.18150000  1.0 -0.1094044567
C  C48  1  0.67180000  0.34570000  0.81850000  1.0 -0.1094044567
C  C49  1  0.09720000  0.19940000  0.83526000  1.0 -0.03788368
C  C50  1  0.40280000  0.69940000  0.16474000  1.0 -0.03788368
C  C51  1  0.90280000  0.80060000  0.16474000  1.0 -0.03788368
C  C52  1  0.59720000  0.30060000  0.83526000  1.0 -0.03788368
C  C53  1  0.96730000  0.20110000  0.81571000  1.0 -0.1394176167
C  C54  1  0.53270000  0.70110000  0.18429000  1.0 -0.1394176167
C  C55  1  0.03270000  0.79890000  0.18429000  1.0 -0.1394176167
C  C56  1  0.46730000  0.29890000  0.81571000  1.0 -0.1394176167
C  C57  1  0.91440000  0.15832000  0.77874000  1.0 0.1178735749
C  C58  1  0.58560000  0.65832000  0.22126000  1.0 0.1178735749
C  C59  1  0.08560000  0.84168000  0.22126000  1.0 0.1178735749
C  C60  1  0.41440000  0.34168000  0.77874000  1.0 0.1178735749
C  C61  1  0.78230000  0.16414000  0.74987000  1.0 0.1120278745
C  C62  1  0.71770000  0.66414000  0.25013000  1.0 0.1120278745
C  C63  1  0.21770000  0.83586000  0.25013000  1.0 0.1120278745
C  C64  1  0.28230000  0.33586000  0.74987000  1.0 0.1120278745
C  C65  1  0.74710000  0.21407000  0.71919000  1.0 -0.1510037128
C  C66  1  0.75290000  0.71407000  0.28081000  1.0 -0.1510037128
C  C67  1  0.25290000  0.78593000  0.28081000  1.0 -0.1510037128
C  C68  1  0.24710000  0.28593000  0.71919000  1.0 -0.1510037128
C  C69  1  0.62740000  0.21780000  0.68885000  1.0 -0.0304447978
C  C70  1  0.87260000  0.71780000  0.31115000  1.0 -0.03788368
C  C71  1  0.37260000  0.78220000  0.31115000  1.0 -0.0304447978
C  C72  1  0.12740000  0.28220000  0.68885000  1.0 -0.03788368
C  C73  1  0.54020000  0.17220000  0.69160000  1.0 -0.1094044567
C  C74  1  0.95980000  0.67220000  0.30840000  1.0 -0.1094044567
C  C75  1  0.45980000  0.82780000  0.30840000  1.0 -0.1094044567
C  C76  1  0.04020000  0.32780000  0.69160000  1.0 -0.1094044567
C  C77  1  0.57680000  0.12400000  0.72350000  1.0 0.0327338068
C  C78  1  0.92320000  0.62400000  0.27650000  1.0 0.0327338068
C  C79  1  0.42320000  0.87600000  0.27650000  1.0 0.0327338068
C  C80  1  0.07680000  0.37600000  0.72350000  1.0 0.0327338068
C  C81  1  0.05520000  0.03460000  0.62760000  1.0 0.0327338068
C  C82  1  0.44480000  0.53460000  0.37240000  1.0 0.0327338068
C  C83  1  0.94480000  0.96540000  0.37240000  1.0 0.0327338068
C  C84  1  0.55520000  0.46540000  0.62760000  1.0 0.0327338068
C  C85  1  0.07570000  0.07040000  0.58520000  1.0 -0.1094044567
C  C86  1  0.42430000  0.57040000  0.41480000  1.0 -0.1094044567
C  C87  1  0.92430000  0.92960000  0.41480000  1.0 -0.1094044567
C  C88  1  0.57570000  0.42960000  0.58520000  1.0 -0.1094044567
C  C89  1  0.97980000  0.07788000  0.54050000  1.0 -0.03788368
C  C90  1  0.52020000  0.57788000  0.45950000  1.0 -0.03788368
C  C91  1  0.02020000  0.92212000  0.45950000  1.0 -0.03788368
C  C92  1  0.47980000  0.42212000  0.54050000  1.0 -0.03788368
C  C93  1  0.86530000  0.04780000  0.54011000  1.0 -0.1394176167
C  C94  1  0.63470000  0.54780000  0.45989000  1.0 -0.1394176167
C  C95  1  0.13470000  0.95220000  0.45989000  1.0 -0.1394176167
C  C96  1  0.36530000  0.45220000  0.54011000  1.0 -0.1394176167
C  C97  1  0.84760000  0.01223000  0.58389000  1.0 0.1178735749
C  C98  1  0.65240000  0.51223000  0.41611000  1.0 0.1178735749
C  C99  1  0.15240000  0.98777000  0.41611000  1.0 0.1178735749
C  C100  1  0.34760000  0.48777000  0.58389000  1.0 0.1178735749
C  C101  1  0.72620000  0.98010000  0.58420000  1.0 0.1178735749
C  C102  1  0.77380000  0.48010000  0.41580000  1.0 0.1178735749
C  C103  1  0.27380000  0.01990000  0.41580000  1.0 0.1178735749
C  C104  1  0.22620000  0.51990000  0.58420000  1.0 0.1178735749
C  C105  1  0.67840000  0.94270000  0.54200000  1.0 -0.1394176167
C  C106  1  0.82160000  0.44270000  0.45800000  1.0 -0.1394176167
C  C107  1  0.32160000  0.05730000  0.45800000  1.0 -0.1394176167
C  C108  1  0.17840000  0.55730000  0.54200000  1.0 -0.1394176167
C  C109  1  0.55830000  0.91830000  0.54000000  1.0 -0.0304447978
C  C110  1  0.94170000  0.41830000  0.46000000  1.0 -0.0304447978
C  C111  1  0.44170000  0.08170000  0.46000000  1.0 -0.0304447978
C  C112  1  0.05830000  0.58170000  0.54000000  1.0 -0.0304447978
C  C113  1  0.48520000  0.93230000  0.58080000  1.0 -0.1094044567
C  C114  1  0.01480000  0.43230000  0.41920000  1.0 -0.1094044567
C  C115  1  0.51480000  0.06770000  0.41920000  1.0 -0.1094044567
C  C116  1  0.98520000  0.56770000  0.58080000  1.0 -0.1094044567
C  C117  1  0.53500000  0.96950000  0.62240000  1.0 0.0393235453
C  C118  1  0.96500000  0.46950000  0.37760000  1.0 0.0393235453
C  C119  1  0.46500000  0.03050000  0.37760000  1.0 0.0393235453
C  C120  1  0.03500000  0.53050000  0.62240000  1.0 0.0393235453
S  S1  1  0.23379000  0.29337000  0.08197000  1.0 1.1712674666
S  S2  1  0.26621000  0.79337000  0.91803000  1.0 1.1712674666
S  S3  1  0.76621000  0.70663000  0.91803000  1.0 1.1712674666
S  S4  1  0.73379000  0.20663000  0.08197000  1.0 1.1712674666
S  S5  1  0.39210000  0.62670000  0.99430000  1.0 1.2006716896
S  S6  1  0.10790000  0.12670000  0.00570000  1.0 1.2006716896
S  S7  1  0.60790000  0.37330000  0.00570000  1.0 1.2006716896
S  S8  1  0.89210000  0.87330000  0.99430000  1.0 1.2006716896
S  S9  1  0.16133000  0.25706000  0.88003000  1.0 1.2006716896
S  S10  1  0.33867000  0.75706000  0.11997000  1.0 1.2006716896
S  S11  1  0.83867000  0.74294000  0.11997000  1.0 1.2006716896
S  S12  1  0.66133000  0.24294000  0.88003000  1.0 1.2006716896
S  S13  1  0.59292000  0.27928000  0.64391000  1.0 1.1508277822
S  S14  1  0.90708000  0.77928000  0.35609000  1.0 1.1508277822
S  S15  1  0.40708000  0.72072000  0.35609000  1.0 1.1508277822
S  S16  1  0.09292000  0.22072000  0.64391000  1.0 1.1508277822
S  S17  1  0.99426000  0.12663000  0.48488000  1.0 1.1917322446
S  S18  1  0.50574000  0.62663000  0.51512000  1.0 1.1917322446
S  S19  1  0.00574000  0.87337000  0.51512000  1.0 1.1917322446
S  S20  1  0.49426000  0.37337000  0.48488000  1.0 1.1917322446
S  S21  1  0.49821000  0.87167000  0.48424000  1.0 1.1712674666
S  S22  1  0.00179000  0.37167000  0.51576000  1.0 1.1712674666
S  S23  1  0.50179000  0.12833000  0.51576000  1.0 1.1712674666
S  S24  1  0.99821000  0.62833000  0.48424000  1.0 1.1712674666
N  N1  1  0.40540000  0.44634000  0.18390000  1.0 0.2907708292
N  N2  1  0.09460000  0.94634000  0.81610000  1.0 0.2907708292
N  N3  1  0.59460000  0.55366000  0.81610000  1.0 0.2907708292
N  N4  1  0.90540000  0.05366000  0.18390000  1.0 0.2907708292
N  N5  1  0.60140000  0.50686000  0.12475000  1.0 0.2978583833
N  N6  1  0.89860000  0.00686000  0.87525000  1.0 0.2978583833
N  N7  1  0.39860000  0.49314000  0.87525000  1.0 0.2978583833
N  N8  1  0.10140000  0.99314000  0.12475000  1.0 0.2978583833
N  N9  1  0.99020000  0.11571000  0.76247000  1.0 0.2978583833
N  N10  1  0.50980000  0.61571000  0.23753000  1.0 0.2978583833
N  N11  1  0.00980000  0.88429000  0.23753000  1.0 0.2978583833
N  N12  1  0.49020000  0.38429000  0.76247000  1.0 0.2978583833
N  N13  1  0.69620000  0.11991000  0.75084000  1.0 0.2907708292
N  N14  1  0.80380000  0.61991000  0.24916000  1.0 0.2907708292
N  N15  1  0.30380000  0.88009000  0.24916000  1.0 0.2907708292
N  N16  1  0.19620000  0.38009000  0.75084000  1.0 0.2978583833
N  N17  1  0.94270000  0.00543000  0.62631000  1.0 0.2978583833
N  N18  1  0.55730000  0.50543000  0.37369000  1.0 0.2978583833
N  N19  1  0.05730000  0.99457000  0.37369000  1.0 0.2978583833
N  N20  1  0.44270000  0.49457000  0.62631000  1.0 0.2978583833
N  N21  1  0.65380000  0.99245000  0.62427000  1.0 0.2907708292
N  N22  1  0.84620000  0.49245000  0.37573000  1.0 0.2907708292
N  N23  1  0.34620000  0.00755000  0.37573000  1.0 0.2907708292
N  N24  1  0.15380000  0.50755000  0.62427000  1.0 0.2907708292
Cl  Cl1  1  0.85468000  0.49567000  0.73672000  1.0 -0.5188442897
Cl  Cl2  1  0.64532000  0.99567000  0.26328000  1.0 -0.5188442897
Cl  Cl3  1  0.14532000  0.50433000  0.26328000  1.0 -0.5188442897
Cl  Cl4  1  0.35468000  0.00433000  0.73672000  1.0 -0.5188442897
O  O1  1  0.45620000  0.49067000  0.21432000  1.0 -0.5325754515
O  O2  1  0.04380000  0.99067000  0.78568000  1.0 -0.5325754515
O  O3  1  0.54380000  0.50933000  0.78568000  1.0 -0.5325754515
O  O4  1  0.95620000  0.00933000  0.21432000  1.0 -0.5325754515
O  O5  1  0.66290000  0.47126000  0.16227000  1.0 -0.4271655735
O  O6  1  0.83710000  0.97126000  0.83773000  1.0 -0.4271655735
O  O7  1  0.33710000  0.52874000  0.83773000  1.0 -0.4271655735
O  O8  1  0.16290000  0.02874000  0.16227000  1.0 -0.4271655735
O  O9  1  0.93880000  0.07839000  0.72375000  1.0 -0.5325754515
O  O10  1  0.56120000  0.57839000  0.27625000  1.0 -0.5325754515
O  O11  1  0.06120000  0.92161000  0.27625000  1.0 -0.5325754515
O  O12  1  0.43880000  0.42161000  0.72375000  1.0 -0.5325754515
O  O13  1  0.72940000  0.07131000  0.78017000  1.0 -0.5517706852
O  O14  1  0.77060000  0.57131000  0.21983000  1.0 -0.5517706852
O  O15  1  0.27060000  0.92869000  0.21983000  1.0 -0.5517706852
O  O16  1  0.22940000  0.42869000  0.78017000  1.0 -0.5517706852
O  O17  1  0.92780000  0.96730000  0.66604000  1.0 -0.4538671207
O  O18  1  0.57220000  0.46730000  0.33396000  1.0 -0.4538671207
O  O19  1  0.07220000  0.03270000  0.33396000  1.0 -0.4554021787
O  O20  1  0.42780000  0.53270000  0.66604000  1.0 -0.4554021787
O  O21  1  0.69820000  0.02894000  0.66398000  1.0 -0.4810755781
O  O22  1  0.80180000  0.52894000  0.33602000  1.0 -0.4810755781
O  O23  1  0.30180000  0.97106000  0.33602000  1.0 -0.4810755781
O  O24  1  0.19820000  0.47106000  0.66398000  1.0 -0.4858281147
O  O25  1  0.21200000  0.31330000  0.02556000  1.0 -0.6308373642
O  O26  1  0.28800000  0.81330000  0.97444000  1.0 -0.6308373642
O  O27  1  0.78800000  0.68670000  0.97444000  1.0 -0.6308373642
O  O28  1  0.71200000  0.18670000  0.02556000  1.0 -0.6308373642
O  O29  1  0.11650000  0.27839000  0.10294000  1.0 -0.5677279663
O  O30  1  0.38350000  0.77839000  0.89706000  1.0 -0.5677279663
O  O31  1  0.88350000  0.72161000  0.89706000  1.0 -0.5677279663
O  O32  1  0.61650000  0.22161000  0.10294000  1.0 -0.5677279663
O  O33  1  0.32960000  0.24776000  0.09160000  1.0 -0.5620229375
O  O34  1  0.17040000  0.74776000  0.90840000  1.0 -0.5620229375
O  O35  1  0.67040000  0.75224000  0.90840000  1.0 -0.5620229375
O  O36  1  0.82960000  0.25224000  0.09160000  1.0 -0.5620229375
O  O37  1  0.35930000  0.58911000  0.94705000  1.0 -0.5409470927
O  O38  1  0.14070000  0.08911000  0.05295000  1.0 -0.5409470927
O  O39  1  0.64070000  0.41089000  0.05295000  1.0 -0.5409470927
O  O40  1  0.85930000  0.91089000  0.94705000  1.0 -0.5409470927
O  O41  1  0.28190000  0.64611000  0.01784000  1.0 -0.6392763537
O  O42  1  0.21810000  0.14611000  0.98216000  1.0 -0.6392763537
O  O43  1  0.71810000  0.35389000  0.98216000  1.0 -0.6392763537
O  O44  1  0.78190000  0.85389000  0.01784000  1.0 -0.6392763537
O  O45  1  0.48230000  0.67290000  0.98587000  1.0 -0.6232283273
O  O46  1  0.01770000  0.17290000  0.01413000  1.0 -0.6232283273
O  O47  1  0.51770000  0.32710000  0.01413000  1.0 -0.6232283273
O  O48  1  0.98230000  0.82710000  0.98587000  1.0 -0.6232283273
O  O49  1  0.08190000  0.25694000  0.92294000  1.0 -0.6392763537
O  O50  1  0.41810000  0.75694000  0.07706000  1.0 -0.6392763537
O  O51  1  0.91810000  0.74306000  0.07706000  1.0 -0.6392763537
O  O52  1  0.58190000  0.24306000  0.92294000  1.0 -0.6392763537
O  O53  1  0.29400000  0.24093000  0.89867000  1.0 -0.645168705
O  O54  1  0.20600000  0.74093000  0.10133000  1.0 -0.645168705
O  O55  1  0.70600000  0.75907000  0.10133000  1.0 -0.645168705
O  O56  1  0.79400000  0.25907000  0.89867000  1.0 -0.645168705
O  O57  1  0.14940000  0.30991000  0.84748000  1.0 -0.5826715575
O  O58  1  0.35060000  0.80991000  0.15252000  1.0 -0.5826715575
O  O59  1  0.85060000  0.69009000  0.15252000  1.0 -0.5826715575
O  O60  1  0.64940000  0.19009000  0.84748000  1.0 -0.5826715575
O  O61  1  0.52050000  0.31962000  0.67243000  1.0 -0.5046836567
O  O62  1  0.97950000  0.81962000  0.32757000  1.0 -0.5055902433
O  O63  1  0.47950000  0.68038000  0.32757000  1.0 -0.5046836567
O  O64  1  0.02050000  0.18038000  0.67243000  1.0 -0.5046836567
O  O65  1  0.71760000  0.30194000  0.63512000  1.0 -0.6232283273
O  O66  1  0.78240000  0.80194000  0.36488000  1.0 -0.6232283273
O  O67  1  0.28240000  0.69806000  0.36488000  1.0 -0.6232283273
O  O68  1  0.21760000  0.19806000  0.63512000  1.0 -0.6232283273
O  O69  1  0.52240000  0.25538000  0.59391000  1.0 -0.6392763537
O  O70  1  0.97760000  0.75538000  0.40609000  1.0 -0.6392763537
O  O71  1  0.47760000  0.74462000  0.40609000  1.0 -0.6392763537
O  O72  1  0.02240000  0.24462000  0.59391000  1.0 -0.6392763537
O  O73  1  0.88720000  0.16656000  0.48348000  1.0 -0.6068009865
O  O74  1  0.61280000  0.66656000  0.51652000  1.0 -0.6068009865
O  O75  1  0.11280000  0.83344000  0.51652000  1.0 -0.6068009865
O  O76  1  0.38720000  0.33344000  0.48348000  1.0 -0.6068009865
O  O77  1  0.11670000  0.15471000  0.49836000  1.0 -0.6232283273
O  O78  1  0.38330000  0.65471000  0.50164000  1.0 -0.6232283273
O  O79  1  0.88330000  0.84529000  0.50164000  1.0 -0.6232283273
O  O80  1  0.61670000  0.34529000  0.49836000  1.0 -0.6308373642
O  O81  1  0.98600000  0.08993000  0.43662000  1.0 -0.5620229375
O  O82  1  0.51400000  0.58993000  0.56338000  1.0 -0.5620229375
O  O83  1  0.01400000  0.91007000  0.56338000  1.0 -0.5620229375
O  O84  1  0.48600000  0.41007000  0.43662000  1.0 -0.5620229375
O  O85  1  0.40790000  0.90880000  0.44980000  1.0 -0.5325754515
O  O86  1  0.09210000  0.40880000  0.55020000  1.0 -0.5325754515
O  O87  1  0.59210000  0.09120000  0.55020000  1.0 -0.5325754515
O  O88  1  0.90790000  0.59120000  0.44980000  1.0 -0.5325754515
O  O89  1  0.60540000  0.85790000  0.45710000  1.0 -0.6068009865
O  O90  1  0.89460000  0.35790000  0.54290000  1.0 -0.6068009865
O  O91  1  0.39460000  0.14210000  0.54290000  1.0 -0.6068009865
O  O92  1  0.10540000  0.64210000  0.45710000  1.0 -0.6068009865
O  O93  1  0.43620000  0.82410000  0.50750000  1.0 -0.5987441521
O  O94  1  0.06380000  0.32410000  0.49250000  1.0 -0.5987441521
O  O95  1  0.56380000  0.17590000  0.49250000  1.0 -0.5987441521
O  O96  1  0.93620000  0.67590000  0.50750000  1.0 -0.5987441521
O  O97  1  0.78710000  0.15904000  0.60761000  1.0 -0.1285935454
O  O98  1  0.71290000  0.65904000  0.39239000  1.0 -0.1285935454
O  O99  1  0.21290000  0.84096000  0.39239000  1.0 -0.1394176167
O  O100  1  0.28710000  0.34096000  0.60761000  1.0 -0.1285935454
O  O101  1  0.87250000  0.44694000  0.25122000  1.0 -0.5409470927
O  O102  1  0.62750000  0.94694000  0.74878000  1.0 -0.5409470927
O  O103  1  0.12750000  0.55306000  0.74878000  1.0 -0.5409470927
O  O104  1  0.37250000  0.05306000  0.25122000  1.0 -0.5409470927
O  O105  1  0.63500000  0.38874000  0.25538000  1.0 -0.5924860668
O  O106  1  0.86500000  0.88874000  0.74462000  1.0 -0.5826715575
O  O107  1  0.36500000  0.61126000  0.74462000  1.0 -0.5826715575
O  O108  1  0.13500000  0.11126000  0.25538000  1.0 -0.5826715575
O  O109  1  0.99450000  0.38180000  0.92030000  1.0 0.068707982
O  O110  1  0.50550000  0.88180000  0.07970000  1.0 0.075765552
O  O111  1  0.00550000  0.61820000  0.07970000  1.0 0.068707982
O  O112  1  0.49450000  0.11820000  0.92030000  1.0 0.068707982
O  O113  1  0.93330000  0.39460000  0.07180000  1.0 -0.1285935454
O  O114  1  0.56670000  0.89460000  0.92820000  1.0 -0.117582842
O  O115  1  0.06670000  0.60540000  0.92820000  1.0 -0.117582842
O  O116  1  0.43330000  0.10540000  0.07180000  1.0 -0.117582842
O  O117  1  0.74840000  0.26320000  0.41960000  1.0 -0.2400853516
O  O118  1  0.75160000  0.76320000  0.58040000  1.0 -0.2400853516
O  O119  1  0.25160000  0.73680000  0.58040000  1.0 -0.2452481818
O  O120  1  0.24840000  0.23680000  0.41960000  1.0 -0.2400853516
O  O121  1  0.99400000  0.40360000  0.96180000  1.0 0.1120278745
O  O122  1  0.50600000  0.90360000  0.03820000  1.0 0.1120278745
O  O123  1  0.00600000  0.59640000  0.03820000  1.0 0.1032597917
O  O124  1  0.49400000  0.09640000  0.96180000  1.0 0.1120278745
