# DDEC6 charges by PACMAN v1.1 (https://github.com/mtap-research/PACMAN-charge/)
data_VESBUU_FSR_pacman
_symmetry_space_group_name_H-M   'P 1'
_cell_length_a   28.17540000
_cell_length_b   28.17540000
_cell_length_c   28.17540000
_cell_angle_alpha   60.00000000
_cell_angle_beta   60.00000000
_cell_angle_gamma   60.00000000
_symmetry_Int_Tables_number   1
_chemical_formula_structural   Zr3H24C72(O5F3)4
_chemical_formula_sum   'Zr12 H96 C288 O80 F48'
_cell_volume   15815.94963077
_cell_formula_units_Z   4
loop_
 _symmetry_equiv_pos_site_id
 _symmetry_equiv_pos_as_xyz
  1  'x, y, z'
loop_
 _atom_site_type_symbol
 _atom_site_label
 _atom_site_symmetry_multiplicity
 _atom_site_fract_x
 _atom_site_fract_y
 _atom_site_fract_z
 _atom_site_occupancy
 _atom_site_charge
Zr  Zr1  1  0.56217000  0.56217000  0.43783000  1.0 2.0402611242
Zr  Zr2  1  0.43783000  0.43783000  0.56217000  1.0 2.0402611242
Zr  Zr3  1  0.43783000  0.56217000  0.56217000  1.0 2.0402611242
Zr  Zr4  1  0.56217000  0.43783000  0.43783000  1.0 2.0402611242
Zr  Zr5  1  0.43783000  0.56217000  0.43783000  1.0 2.0402611242
Zr  Zr6  1  0.56217000  0.43783000  0.56217000  1.0 2.0402611242
Zr  Zr7  1  0.68783000  0.81217000  0.81217000  1.0 2.0402611242
Zr  Zr8  1  0.81217000  0.68783000  0.68783000  1.0 2.0402611242
Zr  Zr9  1  0.81217000  0.81217000  0.68783000  1.0 2.0402611242
Zr  Zr10  1  0.68783000  0.68783000  0.81217000  1.0 2.0402611242
Zr  Zr11  1  0.81217000  0.68783000  0.81217000  1.0 2.0402611242
Zr  Zr12  1  0.68783000  0.81217000  0.68783000  1.0 2.0402611242
H  H1  1  0.43950000  0.70750000  0.58150000  1.0 0.1128200475
H  H2  1  0.44880000  0.77920000  0.59100000  1.0 0.1128200475
H  H3  1  0.58150000  0.27150000  0.43950000  1.0 0.1128200475
H  H4  1  0.59100000  0.18100000  0.44880000  1.0 0.1128200475
H  H5  1  0.27150000  0.58150000  0.70750000  1.0 0.1128200475
H  H6  1  0.18100000  0.59100000  0.77920000  1.0 0.1128200475
H  H7  1  0.70750000  0.43950000  0.27150000  1.0 0.1128200475
H  H8  1  0.77920000  0.44880000  0.18100000  1.0 0.1128200475
H  H9  1  0.27150000  0.70750000  0.43950000  1.0 0.1128200475
H  H10  1  0.18100000  0.77920000  0.44880000  1.0 0.1128200475
H  H11  1  0.70750000  0.27150000  0.58150000  1.0 0.1128200475
H  H12  1  0.77920000  0.18100000  0.59100000  1.0 0.1128200475
H  H13  1  0.43950000  0.58150000  0.27150000  1.0 0.1128200475
H  H14  1  0.44880000  0.59100000  0.18100000  1.0 0.1128200475
H  H15  1  0.58150000  0.43950000  0.70750000  1.0 0.1128200475
H  H16  1  0.59100000  0.44880000  0.77920000  1.0 0.1128200475
H  H17  1  0.58150000  0.70750000  0.27150000  1.0 0.1128200475
H  H18  1  0.59100000  0.77920000  0.18100000  1.0 0.1128200475
H  H19  1  0.43950000  0.27150000  0.70750000  1.0 0.1128200475
H  H20  1  0.44880000  0.18100000  0.77920000  1.0 0.1128200475
H  H21  1  0.70750000  0.58150000  0.43950000  1.0 0.1128200475
H  H22  1  0.77920000  0.59100000  0.44880000  1.0 0.1128200475
H  H23  1  0.27150000  0.43950000  0.58150000  1.0 0.1128200475
H  H24  1  0.18100000  0.44880000  0.59100000  1.0 0.1128200475
H  H25  1  0.43950000  0.27150000  0.58150000  1.0 0.1128200475
H  H26  1  0.44880000  0.18100000  0.59100000  1.0 0.1128200475
H  H27  1  0.58150000  0.70750000  0.43950000  1.0 0.1128200475
H  H28  1  0.59100000  0.77920000  0.44880000  1.0 0.1128200475
H  H29  1  0.27150000  0.43950000  0.70750000  1.0 0.1128200475
H  H30  1  0.18100000  0.44880000  0.77920000  1.0 0.1128200475
H  H31  1  0.70750000  0.58150000  0.27150000  1.0 0.1128200475
H  H32  1  0.77920000  0.59100000  0.18100000  1.0 0.1128200475
H  H33  1  0.27150000  0.58150000  0.43950000  1.0 0.1128200475
H  H34  1  0.18100000  0.59100000  0.44880000  1.0 0.1128200475
H  H35  1  0.70750000  0.43950000  0.58150000  1.0 0.1128200475
H  H36  1  0.77920000  0.44880000  0.59100000  1.0 0.1128200475
H  H37  1  0.43950000  0.70750000  0.27150000  1.0 0.1128200475
H  H38  1  0.44880000  0.77920000  0.18100000  1.0 0.1128200475
H  H39  1  0.58150000  0.27150000  0.70750000  1.0 0.1128200475
H  H40  1  0.59100000  0.18100000  0.77920000  1.0 0.1128200475
H  H41  1  0.58150000  0.43950000  0.27150000  1.0 0.1128200475
H  H42  1  0.59100000  0.44880000  0.18100000  1.0 0.1128200475
H  H43  1  0.43950000  0.58150000  0.70750000  1.0 0.1128200475
H  H44  1  0.44880000  0.59100000  0.77920000  1.0 0.1128200475
H  H45  1  0.70750000  0.27150000  0.43950000  1.0 0.1128200475
H  H46  1  0.77920000  0.18100000  0.44880000  1.0 0.1128200475
H  H47  1  0.27150000  0.70750000  0.58150000  1.0 0.1128200475
H  H48  1  0.18100000  0.77920000  0.59100000  1.0 0.1128200475
H  H49  1  0.81050000  0.97850000  0.66850000  1.0 0.1128200475
H  H50  1  0.80120000  0.06900000  0.65900000  1.0 0.1128200475
H  H51  1  0.66850000  0.54250000  0.81050000  1.0 0.1128200475
H  H52  1  0.65900000  0.47080000  0.80120000  1.0 0.1128200475
H  H53  1  0.97850000  0.81050000  0.54250000  1.0 0.1128200475
H  H54  1  0.06900000  0.80120000  0.47080000  1.0 0.1128200475
H  H55  1  0.54250000  0.66850000  0.97850000  1.0 0.1128200475
H  H56  1  0.47080000  0.65900000  0.06900000  1.0 0.1128200475
H  H57  1  0.97850000  0.66850000  0.81050000  1.0 0.1128200475
H  H58  1  0.06900000  0.65900000  0.80120000  1.0 0.1128200475
H  H59  1  0.54250000  0.81050000  0.66850000  1.0 0.1128200475
H  H60  1  0.47080000  0.80120000  0.65900000  1.0 0.1128200475
H  H61  1  0.81050000  0.54250000  0.97850000  1.0 0.1128200475
H  H62  1  0.80120000  0.47080000  0.06900000  1.0 0.1128200475
H  H63  1  0.66850000  0.97850000  0.54250000  1.0 0.1128200475
H  H64  1  0.65900000  0.06900000  0.47080000  1.0 0.1128200475
H  H65  1  0.66850000  0.81050000  0.97850000  1.0 0.1128200475
H  H66  1  0.65900000  0.80120000  0.06900000  1.0 0.1128200475
H  H67  1  0.81050000  0.66850000  0.54250000  1.0 0.1128200475
H  H68  1  0.80120000  0.65900000  0.47080000  1.0 0.1128200475
H  H69  1  0.54250000  0.97850000  0.81050000  1.0 0.1128200475
H  H70  1  0.47080000  0.06900000  0.80120000  1.0 0.1128200475
H  H71  1  0.97850000  0.54250000  0.66850000  1.0 0.1128200475
H  H72  1  0.06900000  0.47080000  0.65900000  1.0 0.1128200475
H  H73  1  0.81050000  0.54250000  0.66850000  1.0 0.1128200475
H  H74  1  0.80120000  0.47080000  0.65900000  1.0 0.1128200475
H  H75  1  0.66850000  0.97850000  0.81050000  1.0 0.1128200475
H  H76  1  0.65900000  0.06900000  0.80120000  1.0 0.1128200475
H  H77  1  0.97850000  0.66850000  0.54250000  1.0 0.1128200475
H  H78  1  0.06900000  0.65900000  0.47080000  1.0 0.1128200475
H  H79  1  0.54250000  0.81050000  0.97850000  1.0 0.1128200475
H  H80  1  0.47080000  0.80120000  0.06900000  1.0 0.1128200475
H  H81  1  0.97850000  0.54250000  0.81050000  1.0 0.1128200475
H  H82  1  0.06900000  0.47080000  0.80120000  1.0 0.1128200475
H  H83  1  0.54250000  0.97850000  0.66850000  1.0 0.1128200475
H  H84  1  0.47080000  0.06900000  0.65900000  1.0 0.1128200475
H  H85  1  0.81050000  0.66850000  0.97850000  1.0 0.1128200475
H  H86  1  0.80120000  0.65900000  0.06900000  1.0 0.1128200475
H  H87  1  0.66850000  0.81050000  0.54250000  1.0 0.1128200475
H  H88  1  0.65900000  0.80120000  0.47080000  1.0 0.1128200475
H  H89  1  0.66850000  0.54250000  0.97850000  1.0 0.1128200475
H  H90  1  0.65900000  0.47080000  0.06900000  1.0 0.1128200475
H  H91  1  0.81050000  0.97850000  0.54250000  1.0 0.1128200475
H  H92  1  0.80120000  0.06900000  0.47080000  1.0 0.1128200475
H  H93  1  0.54250000  0.66850000  0.81050000  1.0 0.1128200475
H  H94  1  0.47080000  0.65900000  0.80120000  1.0 0.1128200475
H  H95  1  0.97850000  0.81050000  0.66850000  1.0 0.1128200475
H  H96  1  0.06900000  0.80120000  0.65900000  1.0 0.1128200475
C  C1  1  0.47000000  0.72188000  0.55482000  1.0 -0.0960335552
C  C2  1  0.47562000  0.76472000  0.56058000  1.0 -0.1514492011
C  C3  1  0.57542000  0.94154000  0.49222000  1.0 0.1528469941
C  C4  1  0.55482000  0.25330000  0.47000000  1.0 -0.0960335552
C  C5  1  0.56058000  0.19908000  0.47562000  1.0 -0.1514492011
C  C6  1  0.49222000  0.99082000  0.57542000  1.0 0.1528469941
C  C7  1  0.25330000  0.55482000  0.72188000  1.0 -0.0960335552
C  C8  1  0.19908000  0.56058000  0.76472000  1.0 -0.1514492011
C  C9  1  0.99082000  0.49222000  0.94154000  1.0 0.1528469941
C  C10  1  0.72188000  0.47000000  0.25330000  1.0 -0.0960335552
C  C11  1  0.76472000  0.47562000  0.19908000  1.0 -0.1514492011
C  C12  1  0.94154000  0.57542000  0.99082000  1.0 0.1528469941
C  C13  1  0.25330000  0.72188000  0.47000000  1.0 -0.0960335552
C  C14  1  0.19908000  0.76472000  0.47562000  1.0 -0.1514492011
C  C15  1  0.99082000  0.94154000  0.57542000  1.0 0.1528469941
C  C16  1  0.72188000  0.25330000  0.55482000  1.0 -0.0960335552
C  C17  1  0.76472000  0.19908000  0.56058000  1.0 -0.1514492011
C  C18  1  0.94154000  0.99082000  0.49222000  1.0 0.1528469941
C  C19  1  0.47000000  0.55482000  0.25330000  1.0 -0.0960335552
C  C20  1  0.47562000  0.56058000  0.19908000  1.0 -0.1514492011
C  C21  1  0.57542000  0.49222000  0.99082000  1.0 0.1528469941
C  C22  1  0.55482000  0.47000000  0.72188000  1.0 -0.0960335552
C  C23  1  0.56058000  0.47562000  0.76472000  1.0 -0.1514492011
C  C24  1  0.49222000  0.57542000  0.94154000  1.0 0.1528469941
C  C25  1  0.55482000  0.72188000  0.25330000  1.0 -0.0960335552
C  C26  1  0.56058000  0.76472000  0.19908000  1.0 -0.1514492011
C  C27  1  0.49222000  0.94154000  0.99082000  1.0 0.1528469941
C  C28  1  0.47000000  0.25330000  0.72188000  1.0 -0.0960335552
C  C29  1  0.47562000  0.19908000  0.76472000  1.0 -0.1514492011
C  C30  1  0.57542000  0.99082000  0.94154000  1.0 0.1528469941
C  C31  1  0.72188000  0.55482000  0.47000000  1.0 -0.0960335552
C  C32  1  0.76472000  0.56058000  0.47562000  1.0 -0.1514492011
C  C33  1  0.94154000  0.49222000  0.57542000  1.0 0.1528469941
C  C34  1  0.25330000  0.47000000  0.55482000  1.0 -0.0960335552
C  C35  1  0.19908000  0.47562000  0.56058000  1.0 -0.1514492011
C  C36  1  0.99082000  0.57542000  0.49222000  1.0 0.1528469941
C  C37  1  0.47000000  0.25330000  0.55482000  1.0 -0.0960335552
C  C38  1  0.47562000  0.19908000  0.56058000  1.0 -0.1514492011
C  C39  1  0.57542000  0.99082000  0.49222000  1.0 0.1528469941
C  C40  1  0.55482000  0.72188000  0.47000000  1.0 -0.0960335552
C  C41  1  0.56058000  0.76472000  0.47562000  1.0 -0.1514492011
C  C42  1  0.49222000  0.94154000  0.57542000  1.0 0.1528469941
C  C43  1  0.25330000  0.47000000  0.72188000  1.0 -0.0960335552
C  C44  1  0.19908000  0.47562000  0.76472000  1.0 -0.1514492011
C  C45  1  0.99082000  0.57542000  0.94154000  1.0 0.1528469941
C  C46  1  0.72188000  0.55482000  0.25330000  1.0 -0.0960335552
C  C47  1  0.76472000  0.56058000  0.19908000  1.0 -0.1514492011
C  C48  1  0.94154000  0.49222000  0.99082000  1.0 0.1528469941
C  C49  1  0.25330000  0.55482000  0.47000000  1.0 -0.0960335552
C  C50  1  0.19908000  0.56058000  0.47562000  1.0 -0.1514492011
C  C51  1  0.99082000  0.49222000  0.57542000  1.0 0.1528469941
C  C52  1  0.72188000  0.47000000  0.55482000  1.0 -0.0960335552
C  C53  1  0.76472000  0.47562000  0.56058000  1.0 -0.1514492011
C  C54  1  0.94154000  0.57542000  0.49222000  1.0 0.1528469941
C  C55  1  0.47000000  0.72188000  0.25330000  1.0 -0.0960335552
C  C56  1  0.47562000  0.76472000  0.19908000  1.0 -0.1514492011
C  C57  1  0.57542000  0.94154000  0.99082000  1.0 0.1528469941
C  C58  1  0.55482000  0.25330000  0.72188000  1.0 -0.0960335552
C  C59  1  0.56058000  0.19908000  0.76472000  1.0 -0.1514492011
C  C60  1  0.49222000  0.99082000  0.94154000  1.0 0.1528469941
C  C61  1  0.55482000  0.47000000  0.25330000  1.0 -0.0960335552
C  C62  1  0.56058000  0.47562000  0.19908000  1.0 -0.1514492011
C  C63  1  0.49222000  0.57542000  0.99082000  1.0 0.1528469941
C  C64  1  0.47000000  0.55482000  0.72188000  1.0 -0.0960335552
C  C65  1  0.47562000  0.56058000  0.76472000  1.0 -0.1514492011
C  C66  1  0.57542000  0.49222000  0.94154000  1.0 0.1528469941
C  C67  1  0.72188000  0.25330000  0.47000000  1.0 -0.0960335552
C  C68  1  0.76472000  0.19908000  0.47562000  1.0 -0.1514492011
C  C69  1  0.94154000  0.99082000  0.57542000  1.0 0.1528469941
C  C70  1  0.25330000  0.72188000  0.55482000  1.0 -0.0960335552
C  C71  1  0.19908000  0.76472000  0.56058000  1.0 -0.1514492011
C  C72  1  0.99082000  0.94154000  0.49222000  1.0 0.1528469941
C  C73  1  0.50332000  0.65436000  0.50332000  1.0 0.6410441544
C  C74  1  0.50949000  0.70039000  0.50949000  1.0 -0.0212228489
C  C75  1  0.52104000  0.78616000  0.52104000  1.0 0.1528469941
C  C76  1  0.52658000  0.83104000  0.52658000  1.0 -0.0711254109
C  C77  1  0.53038000  0.86904000  0.53038000  1.0 -0.0629073479
C  C78  1  0.53311000  0.91699000  0.53311000  1.0 -0.0960335552
C  C79  1  0.50332000  0.33900000  0.50332000  1.0 0.6410441544
C  C80  1  0.50949000  0.28063000  0.50949000  1.0 -0.0212228489
C  C81  1  0.52104000  0.17176000  0.52104000  1.0 0.1528469941
C  C82  1  0.52658000  0.11580000  0.52658000  1.0 -0.0711254109
C  C83  1  0.53038000  0.07020000  0.53038000  1.0 -0.0629073479
C  C84  1  0.53311000  0.01679000  0.53311000  1.0 -0.0960335552
C  C85  1  0.33900000  0.50332000  0.65436000  1.0 0.6410441544
C  C86  1  0.28063000  0.50949000  0.70039000  1.0 -0.0212228489
C  C87  1  0.17176000  0.52104000  0.78616000  1.0 0.1528469941
C  C88  1  0.11580000  0.52658000  0.83104000  1.0 -0.0711254109
C  C89  1  0.07020000  0.53038000  0.86904000  1.0 -0.0629073479
C  C90  1  0.01679000  0.53311000  0.91699000  1.0 -0.0960335552
C  C91  1  0.65436000  0.50332000  0.33900000  1.0 0.6410441544
C  C92  1  0.70039000  0.50949000  0.28063000  1.0 -0.0212228489
C  C93  1  0.78616000  0.52104000  0.17176000  1.0 0.1528469941
C  C94  1  0.83104000  0.52658000  0.11580000  1.0 -0.0711254109
C  C95  1  0.86904000  0.53038000  0.07020000  1.0 -0.0629073479
C  C96  1  0.91699000  0.53311000  0.01679000  1.0 -0.0960335552
C  C97  1  0.33900000  0.65436000  0.50332000  1.0 0.6410441544
C  C98  1  0.28063000  0.70039000  0.50949000  1.0 -0.0212228489
C  C99  1  0.17176000  0.78616000  0.52104000  1.0 0.1528469941
C  C100  1  0.11580000  0.83104000  0.52658000  1.0 -0.0711254109
C  C101  1  0.07020000  0.86904000  0.53038000  1.0 -0.0629073479
C  C102  1  0.01679000  0.91699000  0.53311000  1.0 -0.0960335552
C  C103  1  0.65436000  0.33900000  0.50332000  1.0 0.6410441544
C  C104  1  0.70039000  0.28063000  0.50949000  1.0 -0.0212228489
C  C105  1  0.78616000  0.17176000  0.52104000  1.0 0.1528469941
C  C106  1  0.83104000  0.11580000  0.52658000  1.0 -0.0711254109
C  C107  1  0.86904000  0.07020000  0.53038000  1.0 -0.0629073479
C  C108  1  0.91699000  0.01679000  0.53311000  1.0 -0.0960335552
C  C109  1  0.50332000  0.50332000  0.33900000  1.0 0.6410441544
C  C110  1  0.50949000  0.50949000  0.28063000  1.0 -0.0212228489
C  C111  1  0.52104000  0.52104000  0.17176000  1.0 0.1528469941
C  C112  1  0.52658000  0.52658000  0.11580000  1.0 -0.0711254109
C  C113  1  0.53038000  0.53038000  0.07020000  1.0 -0.0629073479
C  C114  1  0.53311000  0.53311000  0.01679000  1.0 -0.0960335552
C  C115  1  0.50332000  0.50332000  0.65436000  1.0 0.6410441544
C  C116  1  0.50949000  0.50949000  0.70039000  1.0 -0.0212228489
C  C117  1  0.52104000  0.52104000  0.78616000  1.0 0.1528469941
C  C118  1  0.52658000  0.52658000  0.83104000  1.0 -0.0711254109
C  C119  1  0.53038000  0.53038000  0.86904000  1.0 -0.0629073479
C  C120  1  0.53311000  0.53311000  0.91699000  1.0 -0.0960335552
C  C121  1  0.50332000  0.65436000  0.33900000  1.0 0.6410441544
C  C122  1  0.50949000  0.70039000  0.28063000  1.0 -0.0212228489
C  C123  1  0.52104000  0.78616000  0.17176000  1.0 0.1528469941
C  C124  1  0.52658000  0.83104000  0.11580000  1.0 -0.0711254109
C  C125  1  0.53038000  0.86904000  0.07020000  1.0 -0.0629073479
C  C126  1  0.53311000  0.91699000  0.01679000  1.0 -0.0960335552
C  C127  1  0.50332000  0.33900000  0.65436000  1.0 0.6410441544
C  C128  1  0.50949000  0.28063000  0.70039000  1.0 -0.0212228489
C  C129  1  0.52104000  0.17176000  0.78616000  1.0 0.1528469941
C  C130  1  0.52658000  0.11580000  0.83104000  1.0 -0.0711254109
C  C131  1  0.53038000  0.07020000  0.86904000  1.0 -0.0629073479
C  C132  1  0.53311000  0.01679000  0.91699000  1.0 -0.0960335552
C  C133  1  0.65436000  0.50332000  0.50332000  1.0 0.6410441544
C  C134  1  0.70039000  0.50949000  0.50949000  1.0 -0.0212228489
C  C135  1  0.78616000  0.52104000  0.52104000  1.0 0.1528469941
C  C136  1  0.83104000  0.52658000  0.52658000  1.0 -0.0711254109
C  C137  1  0.86904000  0.53038000  0.53038000  1.0 -0.0629073479
C  C138  1  0.91699000  0.53311000  0.53311000  1.0 -0.0960335552
C  C139  1  0.33900000  0.50332000  0.50332000  1.0 0.6410441544
C  C140  1  0.28063000  0.50949000  0.50949000  1.0 -0.0212228489
C  C141  1  0.17176000  0.52104000  0.52104000  1.0 0.1528469941
C  C142  1  0.11580000  0.52658000  0.52658000  1.0 -0.0711254109
C  C143  1  0.07020000  0.53038000  0.53038000  1.0 -0.0629073479
C  C144  1  0.01679000  0.53311000  0.53311000  1.0 -0.0960335552
C  C145  1  0.78000000  0.99670000  0.69518000  1.0 -0.0960335552
C  C146  1  0.77438000  0.05092000  0.68942000  1.0 -0.1514492011
C  C147  1  0.67458000  0.25918000  0.75778000  1.0 0.1528469941
C  C148  1  0.69518000  0.52812000  0.78000000  1.0 -0.0960335552
C  C149  1  0.68942000  0.48528000  0.77438000  1.0 -0.1514492011
C  C150  1  0.75778000  0.30846000  0.67458000  1.0 0.1528469941
C  C151  1  0.99670000  0.78000000  0.52812000  1.0 -0.0960335552
C  C152  1  0.05092000  0.77438000  0.48528000  1.0 -0.1514492011
C  C153  1  0.25918000  0.67458000  0.30846000  1.0 0.1528469941
C  C154  1  0.52812000  0.69518000  0.99670000  1.0 -0.0960335552
C  C155  1  0.48528000  0.68942000  0.05092000  1.0 -0.1514492011
C  C156  1  0.30846000  0.75778000  0.25918000  1.0 0.1528469941
C  C157  1  0.99670000  0.69518000  0.78000000  1.0 -0.0960335552
C  C158  1  0.05092000  0.68942000  0.77438000  1.0 -0.1514492011
C  C159  1  0.25918000  0.75778000  0.67458000  1.0 0.1528469941
C  C160  1  0.52812000  0.78000000  0.69518000  1.0 -0.0960335552
C  C161  1  0.48528000  0.77438000  0.68942000  1.0 -0.1514492011
C  C162  1  0.30846000  0.67458000  0.75778000  1.0 0.1528469941
C  C163  1  0.78000000  0.52812000  0.99670000  1.0 -0.0960335552
C  C164  1  0.77438000  0.48528000  0.05092000  1.0 -0.1514492011
C  C165  1  0.67458000  0.30846000  0.25918000  1.0 0.1528469941
C  C166  1  0.69518000  0.99670000  0.52812000  1.0 -0.0960335552
C  C167  1  0.68942000  0.05092000  0.48528000  1.0 -0.1514492011
C  C168  1  0.75778000  0.25918000  0.30846000  1.0 0.1528469941
C  C169  1  0.69518000  0.78000000  0.99670000  1.0 -0.0960335552
C  C170  1  0.68942000  0.77438000  0.05092000  1.0 -0.1514492011
C  C171  1  0.75778000  0.67458000  0.25918000  1.0 0.1528469941
C  C172  1  0.78000000  0.69518000  0.52812000  1.0 -0.0960335552
C  C173  1  0.77438000  0.68942000  0.48528000  1.0 -0.1514492011
C  C174  1  0.67458000  0.75778000  0.30846000  1.0 0.1528469941
C  C175  1  0.52812000  0.99670000  0.78000000  1.0 -0.0960335552
C  C176  1  0.48528000  0.05092000  0.77438000  1.0 -0.1514492011
C  C177  1  0.30846000  0.25918000  0.67458000  1.0 0.1528469941
C  C178  1  0.99670000  0.52812000  0.69518000  1.0 -0.0960335552
C  C179  1  0.05092000  0.48528000  0.68942000  1.0 -0.1514492011
C  C180  1  0.25918000  0.30846000  0.75778000  1.0 0.1528469941
C  C181  1  0.78000000  0.52812000  0.69518000  1.0 -0.0960335552
C  C182  1  0.77438000  0.48528000  0.68942000  1.0 -0.1514492011
C  C183  1  0.67458000  0.30846000  0.75778000  1.0 0.1528469941
C  C184  1  0.69518000  0.99670000  0.78000000  1.0 -0.0960335552
C  C185  1  0.68942000  0.05092000  0.77438000  1.0 -0.1514492011
C  C186  1  0.75778000  0.25918000  0.67458000  1.0 0.1528469941
C  C187  1  0.99670000  0.69518000  0.52812000  1.0 -0.0960335552
C  C188  1  0.05092000  0.68942000  0.48528000  1.0 -0.1514492011
C  C189  1  0.25918000  0.75778000  0.30846000  1.0 0.1528469941
C  C190  1  0.52812000  0.78000000  0.99670000  1.0 -0.0960335552
C  C191  1  0.48528000  0.77438000  0.05092000  1.0 -0.1514492011
C  C192  1  0.30846000  0.67458000  0.25918000  1.0 0.1528469941
C  C193  1  0.99670000  0.52812000  0.78000000  1.0 -0.0960335552
C  C194  1  0.05092000  0.48528000  0.77438000  1.0 -0.1514492011
C  C195  1  0.25918000  0.30846000  0.67458000  1.0 0.1528469941
C  C196  1  0.52812000  0.99670000  0.69518000  1.0 -0.0960335552
C  C197  1  0.48528000  0.05092000  0.68942000  1.0 -0.1514492011
C  C198  1  0.30846000  0.25918000  0.75778000  1.0 0.1528469941
C  C199  1  0.78000000  0.69518000  0.99670000  1.0 -0.0960335552
C  C200  1  0.77438000  0.68942000  0.05092000  1.0 -0.1514492011
C  C201  1  0.67458000  0.75778000  0.25918000  1.0 0.1528469941
C  C202  1  0.69518000  0.78000000  0.52812000  1.0 -0.0960335552
C  C203  1  0.68942000  0.77438000  0.48528000  1.0 -0.1514492011
C  C204  1  0.75778000  0.67458000  0.30846000  1.0 0.1528469941
C  C205  1  0.69518000  0.52812000  0.99670000  1.0 -0.0960335552
C  C206  1  0.68942000  0.48528000  0.05092000  1.0 -0.1514492011
C  C207  1  0.75778000  0.30846000  0.25918000  1.0 0.1528469941
C  C208  1  0.78000000  0.99670000  0.52812000  1.0 -0.0960335552
C  C209  1  0.77438000  0.05092000  0.48528000  1.0 -0.1514492011
C  C210  1  0.67458000  0.25918000  0.30846000  1.0 0.1528469941
C  C211  1  0.52812000  0.69518000  0.78000000  1.0 -0.0960335552
C  C212  1  0.48528000  0.68942000  0.77438000  1.0 -0.1514492011
C  C213  1  0.30846000  0.75778000  0.67458000  1.0 0.1528469941
C  C214  1  0.99670000  0.78000000  0.69518000  1.0 -0.0960335552
C  C215  1  0.05092000  0.77438000  0.68942000  1.0 -0.1514492011
C  C216  1  0.25918000  0.67458000  0.75778000  1.0 0.1528469941
C  C217  1  0.74668000  0.91100000  0.74668000  1.0 0.6410441544
C  C218  1  0.74051000  0.96937000  0.74051000  1.0 -0.0212228489
C  C219  1  0.72896000  0.07824000  0.72896000  1.0 0.1528469941
C  C220  1  0.72342000  0.13420000  0.72342000  1.0 -0.0711254109
C  C221  1  0.71962000  0.17980000  0.71962000  1.0 -0.0629073479
C  C222  1  0.71689000  0.23321000  0.71689000  1.0 -0.0960335552
C  C223  1  0.74668000  0.59564000  0.74668000  1.0 0.6410441544
C  C224  1  0.74051000  0.54961000  0.74051000  1.0 -0.0212228489
C  C225  1  0.72896000  0.46384000  0.72896000  1.0 0.1528469941
C  C226  1  0.72342000  0.41896000  0.72342000  1.0 -0.0711254109
C  C227  1  0.71962000  0.38096000  0.71962000  1.0 -0.0629073479
C  C228  1  0.71689000  0.33301000  0.71689000  1.0 -0.0960335552
C  C229  1  0.91100000  0.74668000  0.59564000  1.0 0.6410441544
C  C230  1  0.96937000  0.74051000  0.54961000  1.0 -0.0212228489
C  C231  1  0.07824000  0.72896000  0.46384000  1.0 0.1528469941
C  C232  1  0.13420000  0.72342000  0.41896000  1.0 -0.0711254109
C  C233  1  0.17980000  0.71962000  0.38096000  1.0 -0.0629073479
C  C234  1  0.23321000  0.71689000  0.33301000  1.0 -0.0960335552
C  C235  1  0.59564000  0.74668000  0.91100000  1.0 0.6410441544
C  C236  1  0.54961000  0.74051000  0.96937000  1.0 -0.0212228489
C  C237  1  0.46384000  0.72896000  0.07824000  1.0 0.1528469941
C  C238  1  0.41896000  0.72342000  0.13420000  1.0 -0.0711254109
C  C239  1  0.38096000  0.71962000  0.17980000  1.0 -0.0629073479
C  C240  1  0.33301000  0.71689000  0.23321000  1.0 -0.0960335552
C  C241  1  0.91100000  0.74668000  0.74668000  1.0 0.6410441544
C  C242  1  0.96937000  0.74051000  0.74051000  1.0 -0.0212228489
C  C243  1  0.07824000  0.72896000  0.72896000  1.0 0.1528469941
C  C244  1  0.13420000  0.72342000  0.72342000  1.0 -0.0711254109
C  C245  1  0.17980000  0.71962000  0.71962000  1.0 -0.0629073479
C  C246  1  0.23321000  0.71689000  0.71689000  1.0 -0.0960335552
C  C247  1  0.59564000  0.74668000  0.74668000  1.0 0.6410441544
C  C248  1  0.54961000  0.74051000  0.74051000  1.0 -0.0212228489
C  C249  1  0.46384000  0.72896000  0.72896000  1.0 0.1528469941
C  C250  1  0.41896000  0.72342000  0.72342000  1.0 -0.0711254109
C  C251  1  0.38096000  0.71962000  0.71962000  1.0 -0.0629073479
C  C252  1  0.33301000  0.71689000  0.71689000  1.0 -0.0960335552
C  C253  1  0.74668000  0.59564000  0.91100000  1.0 0.6410441544
C  C254  1  0.74051000  0.54961000  0.96937000  1.0 -0.0212228489
C  C255  1  0.72896000  0.46384000  0.07824000  1.0 0.1528469941
C  C256  1  0.72342000  0.41896000  0.13420000  1.0 -0.0711254109
C  C257  1  0.71962000  0.38096000  0.17980000  1.0 -0.0629073479
C  C258  1  0.71689000  0.33301000  0.23321000  1.0 -0.0960335552
C  C259  1  0.74668000  0.91100000  0.59564000  1.0 0.6410441544
C  C260  1  0.74051000  0.96937000  0.54961000  1.0 -0.0212228489
C  C261  1  0.72896000  0.07824000  0.46384000  1.0 0.1528469941
C  C262  1  0.72342000  0.13420000  0.41896000  1.0 -0.0711254109
C  C263  1  0.71962000  0.17980000  0.38096000  1.0 -0.0629073479
C  C264  1  0.71689000  0.23321000  0.33301000  1.0 -0.0960335552
C  C265  1  0.74668000  0.74668000  0.91100000  1.0 0.6410441544
C  C266  1  0.74051000  0.74051000  0.96937000  1.0 -0.0212228489
C  C267  1  0.72896000  0.72896000  0.07824000  1.0 0.1528469941
C  C268  1  0.72342000  0.72342000  0.13420000  1.0 -0.0711254109
C  C269  1  0.71962000  0.71962000  0.17980000  1.0 -0.0629073479
C  C270  1  0.71689000  0.71689000  0.23321000  1.0 -0.0960335552
C  C271  1  0.74668000  0.74668000  0.59564000  1.0 0.6410441544
C  C272  1  0.74051000  0.74051000  0.54961000  1.0 -0.0212228489
C  C273  1  0.72896000  0.72896000  0.46384000  1.0 0.1528469941
C  C274  1  0.72342000  0.72342000  0.41896000  1.0 -0.0711254109
C  C275  1  0.71962000  0.71962000  0.38096000  1.0 -0.0629073479
C  C276  1  0.71689000  0.71689000  0.33301000  1.0 -0.0960335552
C  C277  1  0.59564000  0.91100000  0.74668000  1.0 0.6410441544
C  C278  1  0.54961000  0.96937000  0.74051000  1.0 -0.0212228489
C  C279  1  0.46384000  0.07824000  0.72896000  1.0 0.1528469941
C  C280  1  0.41896000  0.13420000  0.72342000  1.0 -0.0711254109
C  C281  1  0.38096000  0.17980000  0.71962000  1.0 -0.0629073479
C  C282  1  0.33301000  0.23321000  0.71689000  1.0 -0.0960335552
C  C283  1  0.91100000  0.59564000  0.74668000  1.0 0.6410441544
C  C284  1  0.96937000  0.54961000  0.74051000  1.0 -0.0212228489
C  C285  1  0.07824000  0.46384000  0.72896000  1.0 0.1528469941
C  C286  1  0.13420000  0.41896000  0.72342000  1.0 -0.0711254109
C  C287  1  0.17980000  0.38096000  0.71962000  1.0 -0.0629073479
C  C288  1  0.23321000  0.33301000  0.71689000  1.0 -0.0960335552
O  O1  1  0.54095000  0.63667000  0.46099000  1.0 -0.6200198573
O  O2  1  0.46099000  0.36139000  0.54095000  1.0 -0.6200198573
O  O3  1  0.36139000  0.46099000  0.63667000  1.0 -0.6200198573
O  O4  1  0.63667000  0.54095000  0.36139000  1.0 -0.6200198573
O  O5  1  0.36139000  0.63667000  0.54095000  1.0 -0.6200198573
O  O6  1  0.63667000  0.36139000  0.46099000  1.0 -0.6200198573
O  O7  1  0.54095000  0.46099000  0.36139000  1.0 -0.6200198573
O  O8  1  0.46099000  0.54095000  0.63667000  1.0 -0.6200198573
O  O9  1  0.46099000  0.63667000  0.36139000  1.0 -0.6200198573
O  O10  1  0.54095000  0.36139000  0.63667000  1.0 -0.6200198573
O  O11  1  0.63667000  0.46099000  0.54095000  1.0 -0.6200198573
O  O12  1  0.36139000  0.54095000  0.46099000  1.0 -0.6200198573
O  O13  1  0.54095000  0.36139000  0.46099000  1.0 -0.6200198573
O  O14  1  0.46099000  0.63667000  0.54095000  1.0 -0.6200198573
O  O15  1  0.36139000  0.54095000  0.63667000  1.0 -0.6200198573
O  O16  1  0.63667000  0.46099000  0.36139000  1.0 -0.6200198573
O  O17  1  0.36139000  0.46099000  0.54095000  1.0 -0.6200198573
O  O18  1  0.63667000  0.54095000  0.46099000  1.0 -0.6200198573
O  O19  1  0.54095000  0.63667000  0.36139000  1.0 -0.6200198573
O  O20  1  0.46099000  0.36139000  0.63667000  1.0 -0.6200198573
O  O21  1  0.46099000  0.54095000  0.36139000  1.0 -0.6200198573
O  O22  1  0.54095000  0.46099000  0.63667000  1.0 -0.6200198573
O  O23  1  0.63667000  0.36139000  0.54095000  1.0 -0.6200198573
O  O24  1  0.36139000  0.63667000  0.46099000  1.0 -0.6200198573
O  O25  1  0.52608000  0.52608000  0.42176000  1.0 -0.3318205871
O  O26  1  0.53514000  0.53514000  0.39458000  1.0 -0.2743357946
O  O27  1  0.42176000  0.52608000  0.52608000  1.0 -0.3318205871
O  O28  1  0.39458000  0.53514000  0.53514000  1.0 -0.2743357946
O  O29  1  0.52608000  0.42176000  0.52608000  1.0 -0.3318205871
O  O30  1  0.53514000  0.39458000  0.53514000  1.0 -0.2743357946
O  O31  1  0.52608000  0.52608000  0.52608000  1.0 -0.3318205871
O  O32  1  0.53514000  0.53514000  0.53514000  1.0 -0.2743357946
O  O33  1  0.60497000  0.46501000  0.46501000  1.0 -0.2841766034
O  O34  1  0.57758000  0.47414000  0.47414000  1.0 -0.3318205871
O  O35  1  0.46501000  0.46501000  0.60497000  1.0 -0.2841766034
O  O36  1  0.47414000  0.47414000  0.57758000  1.0 -0.3318205871
O  O37  1  0.46501000  0.46501000  0.46501000  1.0 -0.2841766034
O  O38  1  0.47414000  0.47414000  0.47414000  1.0 -0.3318205871
O  O39  1  0.46501000  0.60497000  0.46501000  1.0 -0.2841766034
O  O40  1  0.47414000  0.57758000  0.47414000  1.0 -0.3318205871
O  O41  1  0.70905000  0.88861000  0.78901000  1.0 -0.6200198573
O  O42  1  0.78901000  0.61333000  0.70905000  1.0 -0.6200198573
O  O43  1  0.88861000  0.70905000  0.61333000  1.0 -0.6200198573
O  O44  1  0.61333000  0.78901000  0.88861000  1.0 -0.6200198573
O  O45  1  0.88861000  0.78901000  0.70905000  1.0 -0.6200198573
O  O46  1  0.61333000  0.70905000  0.78901000  1.0 -0.6200198573
O  O47  1  0.70905000  0.61333000  0.88861000  1.0 -0.6200198573
O  O48  1  0.78901000  0.88861000  0.61333000  1.0 -0.6200198573
O  O49  1  0.78901000  0.70905000  0.88861000  1.0 -0.6200198573
O  O50  1  0.70905000  0.78901000  0.61333000  1.0 -0.6200198573
O  O51  1  0.61333000  0.88861000  0.70905000  1.0 -0.6200198573
O  O52  1  0.88861000  0.61333000  0.78901000  1.0 -0.6200198573
O  O53  1  0.70905000  0.61333000  0.78901000  1.0 -0.6200198573
O  O54  1  0.78901000  0.88861000  0.70905000  1.0 -0.6200198573
O  O55  1  0.88861000  0.78901000  0.61333000  1.0 -0.6200198573
O  O56  1  0.61333000  0.70905000  0.88861000  1.0 -0.6200198573
O  O57  1  0.88861000  0.61333000  0.70905000  1.0 -0.6200198573
O  O58  1  0.61333000  0.88861000  0.78901000  1.0 -0.6200198573
O  O59  1  0.70905000  0.78901000  0.88861000  1.0 -0.6200198573
O  O60  1  0.78901000  0.70905000  0.61333000  1.0 -0.6200198573
O  O61  1  0.78901000  0.61333000  0.88861000  1.0 -0.6200198573
O  O62  1  0.70905000  0.88861000  0.61333000  1.0 -0.6200198573
O  O63  1  0.61333000  0.78901000  0.70905000  1.0 -0.6200198573
O  O64  1  0.88861000  0.70905000  0.78901000  1.0 -0.6200198573
O  O65  1  0.72392000  0.72392000  0.82824000  1.0 -0.3318205871
O  O66  1  0.71486000  0.71486000  0.85542000  1.0 -0.2743357946
O  O67  1  0.82824000  0.72392000  0.72392000  1.0 -0.3318205871
O  O68  1  0.85542000  0.71486000  0.71486000  1.0 -0.2743357946
O  O69  1  0.72392000  0.72392000  0.72392000  1.0 -0.3318205871
O  O70  1  0.71486000  0.71486000  0.71486000  1.0 -0.2743357946
O  O71  1  0.72392000  0.82824000  0.72392000  1.0 -0.3318205871
O  O72  1  0.71486000  0.85542000  0.71486000  1.0 -0.2743357946
O  O73  1  0.64503000  0.78499000  0.78499000  1.0 -0.2841766034
O  O74  1  0.67242000  0.77586000  0.77586000  1.0 -0.3318205871
O  O75  1  0.78499000  0.78499000  0.64503000  1.0 -0.2841766034
O  O76  1  0.77586000  0.77586000  0.67242000  1.0 -0.3318205871
O  O77  1  0.78499000  0.64503000  0.78499000  1.0 -0.2841766034
O  O78  1  0.77586000  0.67242000  0.77586000  1.0 -0.3318205871
O  O79  1  0.78499000  0.78499000  0.78499000  1.0 -0.2841766034
O  O80  1  0.77586000  0.77586000  0.77586000  1.0 -0.3318205871
F  F1  1  0.61264000  0.92110000  0.45108000  1.0 -0.0886584873
F  F2  1  0.45108000  0.01518000  0.61264000  1.0 -0.0886584873
F  F3  1  0.01518000  0.45108000  0.92110000  1.0 -0.0886584873
F  F4  1  0.92110000  0.61264000  0.01518000  1.0 -0.0886584873
F  F5  1  0.01518000  0.92110000  0.61264000  1.0 -0.0886584873
F  F6  1  0.92110000  0.01518000  0.45108000  1.0 -0.0886584873
F  F7  1  0.61264000  0.45108000  0.01518000  1.0 -0.0886584873
F  F8  1  0.45108000  0.61264000  0.92110000  1.0 -0.0886584873
F  F9  1  0.45108000  0.92110000  0.01518000  1.0 -0.0886584873
F  F10  1  0.61264000  0.01518000  0.92110000  1.0 -0.0886584873
F  F11  1  0.92110000  0.45108000  0.61264000  1.0 -0.0886584873
F  F12  1  0.01518000  0.61264000  0.45108000  1.0 -0.0886584873
F  F13  1  0.61264000  0.01518000  0.45108000  1.0 -0.0886584873
F  F14  1  0.45108000  0.92110000  0.61264000  1.0 -0.0886584873
F  F15  1  0.01518000  0.61264000  0.92110000  1.0 -0.0886584873
F  F16  1  0.92110000  0.45108000  0.01518000  1.0 -0.0886584873
F  F17  1  0.01518000  0.45108000  0.61264000  1.0 -0.0886584873
F  F18  1  0.92110000  0.61264000  0.45108000  1.0 -0.0886584873
F  F19  1  0.61264000  0.92110000  0.01518000  1.0 -0.0886584873
F  F20  1  0.45108000  0.01518000  0.92110000  1.0 -0.0886584873
F  F21  1  0.45108000  0.61264000  0.01518000  1.0 -0.0886584873
F  F22  1  0.61264000  0.45108000  0.92110000  1.0 -0.0886584873
F  F23  1  0.92110000  0.01518000  0.61264000  1.0 -0.0886584873
F  F24  1  0.01518000  0.92110000  0.45108000  1.0 -0.0886584873
F  F25  1  0.63736000  0.23482000  0.79892000  1.0 -0.0886584873
F  F26  1  0.79892000  0.32890000  0.63736000  1.0 -0.0886584873
F  F27  1  0.23482000  0.63736000  0.32890000  1.0 -0.0886584873
F  F28  1  0.32890000  0.79892000  0.23482000  1.0 -0.0886584873
F  F29  1  0.23482000  0.79892000  0.63736000  1.0 -0.0886584873
F  F30  1  0.32890000  0.63736000  0.79892000  1.0 -0.0886584873
F  F31  1  0.63736000  0.32890000  0.23482000  1.0 -0.0886584873
F  F32  1  0.79892000  0.23482000  0.32890000  1.0 -0.0886584873
F  F33  1  0.79892000  0.63736000  0.23482000  1.0 -0.0886584873
F  F34  1  0.63736000  0.79892000  0.32890000  1.0 -0.0886584873
F  F35  1  0.32890000  0.23482000  0.63736000  1.0 -0.0886584873
F  F36  1  0.23482000  0.32890000  0.79892000  1.0 -0.0886584873
F  F37  1  0.63736000  0.32890000  0.79892000  1.0 -0.0886584873
F  F38  1  0.79892000  0.23482000  0.63736000  1.0 -0.0886584873
F  F39  1  0.23482000  0.79892000  0.32890000  1.0 -0.0886584873
F  F40  1  0.32890000  0.63736000  0.23482000  1.0 -0.0886584873
F  F41  1  0.23482000  0.32890000  0.63736000  1.0 -0.0886584873
F  F42  1  0.32890000  0.23482000  0.79892000  1.0 -0.0886584873
F  F43  1  0.63736000  0.79892000  0.23482000  1.0 -0.0886584873
F  F44  1  0.79892000  0.63736000  0.32890000  1.0 -0.0886584873
F  F45  1  0.79892000  0.32890000  0.23482000  1.0 -0.0886584873
F  F46  1  0.63736000  0.23482000  0.32890000  1.0 -0.0886584873
F  F47  1  0.32890000  0.79892000  0.63736000  1.0 -0.0886584873
F  F48  1  0.23482000  0.63736000  0.79892000  1.0 -0.0886584873
