# DDEC6 charges by PACMAN v1.1 (https://github.com/mtap-research/PACMAN-charge/)
data_VESCAB_ASR_pacman
_symmetry_space_group_name_H-M   'P 1'
_cell_length_a   28.15910000
_cell_length_b   28.15910000
_cell_length_c   28.15910000
_cell_angle_alpha   60.00000000
_cell_angle_beta   60.00000000
_cell_angle_gamma   60.00000000
_symmetry_Int_Tables_number   1
_chemical_formula_structural   Zr3H24C72(O5F3)4
_chemical_formula_sum   'Zr12 H96 C288 O80 F48'
_cell_volume   15788.51603278
_cell_formula_units_Z   4
loop_
 _symmetry_equiv_pos_site_id
 _symmetry_equiv_pos_as_xyz
  1  'x, y, z'
loop_
 _atom_site_type_symbol
 _atom_site_label
 _atom_site_symmetry_multiplicity
 _atom_site_fract_x
 _atom_site_fract_y
 _atom_site_fract_z
 _atom_site_occupancy
 _atom_site_charge
Zr  Zr1  1  0.56220000  0.56220000  0.43780000  1.0 2.0344328801
Zr  Zr2  1  0.43780000  0.43780000  0.56220000  1.0 2.0401043283
Zr  Zr3  1  0.43780000  0.56220000  0.56220000  1.0 2.0401043283
Zr  Zr4  1  0.56220000  0.43780000  0.43780000  1.0 2.0344328801
Zr  Zr5  1  0.43780000  0.56220000  0.43780000  1.0 2.0344328801
Zr  Zr6  1  0.56220000  0.43780000  0.56220000  1.0 2.0401043283
Zr  Zr7  1  0.68780000  0.81220000  0.81220000  1.0 2.0401043283
Zr  Zr8  1  0.81220000  0.68780000  0.68780000  1.0 2.0401043283
Zr  Zr9  1  0.81220000  0.81220000  0.68780000  1.0 2.0401043283
Zr  Zr10  1  0.68780000  0.68780000  0.81220000  1.0 2.0401043283
Zr  Zr11  1  0.81220000  0.68780000  0.81220000  1.0 2.0401043283
Zr  Zr12  1  0.68780000  0.81220000  0.68780000  1.0 2.0401043283
H  H1  1  0.43930000  0.70830000  0.58050000  1.0 0.1175058815
H  H2  1  0.44810000  0.78070000  0.58910000  1.0 0.1126763369
H  H3  1  0.58050000  0.27190000  0.43930000  1.0 0.1175058815
H  H4  1  0.58910000  0.18210000  0.44810000  1.0 0.1126763369
H  H5  1  0.27190000  0.58050000  0.70830000  1.0 0.1175058815
H  H6  1  0.18210000  0.58910000  0.78070000  1.0 0.1126763369
H  H7  1  0.70830000  0.43930000  0.27190000  1.0 0.1175058815
H  H8  1  0.78070000  0.44810000  0.18210000  1.0 0.1126763369
H  H9  1  0.27190000  0.70830000  0.43930000  1.0 0.1175058815
H  H10  1  0.18210000  0.78070000  0.44810000  1.0 0.1126763369
H  H11  1  0.70830000  0.27190000  0.58050000  1.0 0.1175058815
H  H12  1  0.78070000  0.18210000  0.58910000  1.0 0.1126763369
H  H13  1  0.43930000  0.58050000  0.27190000  1.0 0.1175058815
H  H14  1  0.44810000  0.58910000  0.18210000  1.0 0.1126763369
H  H15  1  0.58050000  0.43930000  0.70830000  1.0 0.1175058815
H  H16  1  0.58910000  0.44810000  0.78070000  1.0 0.1126763369
H  H17  1  0.58050000  0.70830000  0.27190000  1.0 0.1175058815
H  H18  1  0.58910000  0.78070000  0.18210000  1.0 0.1126763369
H  H19  1  0.43930000  0.27190000  0.70830000  1.0 0.1175058815
H  H20  1  0.44810000  0.18210000  0.78070000  1.0 0.1126763369
H  H21  1  0.70830000  0.58050000  0.43930000  1.0 0.1175058815
H  H22  1  0.78070000  0.58910000  0.44810000  1.0 0.1126763369
H  H23  1  0.27190000  0.43930000  0.58050000  1.0 0.1175058815
H  H24  1  0.18210000  0.44810000  0.58910000  1.0 0.1126763369
H  H25  1  0.43930000  0.27190000  0.58050000  1.0 0.1175058815
H  H26  1  0.44810000  0.18210000  0.58910000  1.0 0.1126763369
H  H27  1  0.58050000  0.70830000  0.43930000  1.0 0.1175058815
H  H28  1  0.58910000  0.78070000  0.44810000  1.0 0.1126763369
H  H29  1  0.27190000  0.43930000  0.70830000  1.0 0.1175058815
H  H30  1  0.18210000  0.44810000  0.78070000  1.0 0.1126763369
H  H31  1  0.70830000  0.58050000  0.27190000  1.0 0.1175058815
H  H32  1  0.78070000  0.58910000  0.18210000  1.0 0.1126763369
H  H33  1  0.27190000  0.58050000  0.43930000  1.0 0.1175058815
H  H34  1  0.18210000  0.58910000  0.44810000  1.0 0.1126763369
H  H35  1  0.70830000  0.43930000  0.58050000  1.0 0.1175058815
H  H36  1  0.78070000  0.44810000  0.58910000  1.0 0.1126763369
H  H37  1  0.43930000  0.70830000  0.27190000  1.0 0.1175058815
H  H38  1  0.44810000  0.78070000  0.18210000  1.0 0.1126763369
H  H39  1  0.58050000  0.27190000  0.70830000  1.0 0.1175058815
H  H40  1  0.58910000  0.18210000  0.78070000  1.0 0.1126763369
H  H41  1  0.58050000  0.43930000  0.27190000  1.0 0.1175058815
H  H42  1  0.58910000  0.44810000  0.18210000  1.0 0.1126763369
H  H43  1  0.43930000  0.58050000  0.70830000  1.0 0.1175058815
H  H44  1  0.44810000  0.58910000  0.78070000  1.0 0.1126763369
H  H45  1  0.70830000  0.27190000  0.43930000  1.0 0.1175058815
H  H46  1  0.78070000  0.18210000  0.44810000  1.0 0.1126763369
H  H47  1  0.27190000  0.70830000  0.58050000  1.0 0.1175058815
H  H48  1  0.18210000  0.78070000  0.58910000  1.0 0.1126763369
H  H49  1  0.81070000  0.97810000  0.66950000  1.0 0.1175058815
H  H50  1  0.80190000  0.06790000  0.66090000  1.0 0.1126763369
H  H51  1  0.66950000  0.54170000  0.81070000  1.0 0.1175058815
H  H52  1  0.66090000  0.46930000  0.80190000  1.0 0.1126763369
H  H53  1  0.97810000  0.81070000  0.54170000  1.0 0.1175058815
H  H54  1  0.06790000  0.80190000  0.46930000  1.0 0.1126763369
H  H55  1  0.54170000  0.66950000  0.97810000  1.0 0.1175058815
H  H56  1  0.46930000  0.66090000  0.06790000  1.0 0.1126763369
H  H57  1  0.97810000  0.66950000  0.81070000  1.0 0.1175058815
H  H58  1  0.06790000  0.66090000  0.80190000  1.0 0.1126763369
H  H59  1  0.54170000  0.81070000  0.66950000  1.0 0.1175058815
H  H60  1  0.46930000  0.80190000  0.66090000  1.0 0.1126763369
H  H61  1  0.81070000  0.54170000  0.97810000  1.0 0.1175058815
H  H62  1  0.80190000  0.46930000  0.06790000  1.0 0.1126763369
H  H63  1  0.66950000  0.97810000  0.54170000  1.0 0.1175058815
H  H64  1  0.66090000  0.06790000  0.46930000  1.0 0.1126763369
H  H65  1  0.66950000  0.81070000  0.97810000  1.0 0.1175058815
H  H66  1  0.66090000  0.80190000  0.06790000  1.0 0.1126763369
H  H67  1  0.81070000  0.66950000  0.54170000  1.0 0.1175058815
H  H68  1  0.80190000  0.66090000  0.46930000  1.0 0.1126763369
H  H69  1  0.54170000  0.97810000  0.81070000  1.0 0.1175058815
H  H70  1  0.46930000  0.06790000  0.80190000  1.0 0.1126763369
H  H71  1  0.97810000  0.54170000  0.66950000  1.0 0.1175058815
H  H72  1  0.06790000  0.46930000  0.66090000  1.0 0.1126763369
H  H73  1  0.81070000  0.54170000  0.66950000  1.0 0.1175058815
H  H74  1  0.80190000  0.46930000  0.66090000  1.0 0.1126763369
H  H75  1  0.66950000  0.97810000  0.81070000  1.0 0.1175058815
H  H76  1  0.66090000  0.06790000  0.80190000  1.0 0.1126763369
H  H77  1  0.97810000  0.66950000  0.54170000  1.0 0.1175058815
H  H78  1  0.06790000  0.66090000  0.46930000  1.0 0.1126763369
H  H79  1  0.54170000  0.81070000  0.97810000  1.0 0.1175058815
H  H80  1  0.46930000  0.80190000  0.06790000  1.0 0.1126763369
H  H81  1  0.97810000  0.54170000  0.81070000  1.0 0.1175058815
H  H82  1  0.06790000  0.46930000  0.80190000  1.0 0.1126763369
H  H83  1  0.54170000  0.97810000  0.66950000  1.0 0.1175058815
H  H84  1  0.46930000  0.06790000  0.66090000  1.0 0.1126763369
H  H85  1  0.81070000  0.66950000  0.97810000  1.0 0.1175058815
H  H86  1  0.80190000  0.66090000  0.06790000  1.0 0.1126763369
H  H87  1  0.66950000  0.81070000  0.54170000  1.0 0.1175058815
H  H88  1  0.66090000  0.80190000  0.46930000  1.0 0.1126763369
H  H89  1  0.66950000  0.54170000  0.97810000  1.0 0.1175058815
H  H90  1  0.66090000  0.46930000  0.06790000  1.0 0.1126763369
H  H91  1  0.81070000  0.97810000  0.54170000  1.0 0.1175058815
H  H92  1  0.80190000  0.06790000  0.46930000  1.0 0.1126763369
H  H93  1  0.54170000  0.66950000  0.81070000  1.0 0.1175058815
H  H94  1  0.46930000  0.66090000  0.80190000  1.0 0.1126763369
H  H95  1  0.97810000  0.81070000  0.66950000  1.0 0.1175058815
H  H96  1  0.06790000  0.80190000  0.66090000  1.0 0.1126763369
C  C1  1  0.46968000  0.72284000  0.55356000  1.0 -0.0916517
C  C2  1  0.47505000  0.76615000  0.55871000  1.0 -0.1520859939
C  C3  1  0.57225000  0.94371000  0.49105000  1.0 0.1482947024
C  C4  1  0.55356000  0.25392000  0.46968000  1.0 -0.0916517
C  C5  1  0.55871000  0.20009000  0.47505000  1.0 -0.1520859939
C  C6  1  0.49105000  0.99299000  0.57225000  1.0 0.1482947024
C  C7  1  0.25392000  0.55356000  0.72284000  1.0 -0.0916517
C  C8  1  0.20009000  0.55871000  0.76615000  1.0 -0.1520859939
C  C9  1  0.99299000  0.49105000  0.94371000  1.0 0.1482947024
C  C10  1  0.72284000  0.46968000  0.25392000  1.0 -0.0916517
C  C11  1  0.76615000  0.47505000  0.20009000  1.0 -0.1520859939
C  C12  1  0.94371000  0.57225000  0.99299000  1.0 0.1482947024
C  C13  1  0.25392000  0.72284000  0.46968000  1.0 -0.0916517
C  C14  1  0.20009000  0.76615000  0.47505000  1.0 -0.1520859939
C  C15  1  0.99299000  0.94371000  0.57225000  1.0 0.1482947024
C  C16  1  0.72284000  0.25392000  0.55356000  1.0 -0.0916517
C  C17  1  0.76615000  0.20009000  0.55871000  1.0 -0.1520859939
C  C18  1  0.94371000  0.99299000  0.49105000  1.0 0.1482947024
C  C19  1  0.46968000  0.55356000  0.25392000  1.0 -0.0916517
C  C20  1  0.47505000  0.55871000  0.20009000  1.0 -0.1520859939
C  C21  1  0.57225000  0.49105000  0.99299000  1.0 0.1482947024
C  C22  1  0.55356000  0.46968000  0.72284000  1.0 -0.0916517
C  C23  1  0.55871000  0.47505000  0.76615000  1.0 -0.1520859939
C  C24  1  0.49105000  0.57225000  0.94371000  1.0 0.1482947024
C  C25  1  0.55356000  0.72284000  0.25392000  1.0 -0.0916517
C  C26  1  0.55871000  0.76615000  0.20009000  1.0 -0.1520859939
C  C27  1  0.49105000  0.94371000  0.99299000  1.0 0.1482947024
C  C28  1  0.46968000  0.25392000  0.72284000  1.0 -0.0916517
C  C29  1  0.47505000  0.20009000  0.76615000  1.0 -0.1520859939
C  C30  1  0.57225000  0.99299000  0.94371000  1.0 0.1482947024
C  C31  1  0.72284000  0.55356000  0.46968000  1.0 -0.0916517
C  C32  1  0.76615000  0.55871000  0.47505000  1.0 -0.1520859939
C  C33  1  0.94371000  0.49105000  0.57225000  1.0 0.1482947024
C  C34  1  0.25392000  0.46968000  0.55356000  1.0 -0.0916517
C  C35  1  0.20009000  0.47505000  0.55871000  1.0 -0.1520859939
C  C36  1  0.99299000  0.57225000  0.49105000  1.0 0.1482947024
C  C37  1  0.46968000  0.25392000  0.55356000  1.0 -0.0916517
C  C38  1  0.47505000  0.20009000  0.55871000  1.0 -0.1520859939
C  C39  1  0.57225000  0.99299000  0.49105000  1.0 0.1482947024
C  C40  1  0.55356000  0.72284000  0.46968000  1.0 -0.0916517
C  C41  1  0.55871000  0.76615000  0.47505000  1.0 -0.1520859939
C  C42  1  0.49105000  0.94371000  0.57225000  1.0 0.1482947024
C  C43  1  0.25392000  0.46968000  0.72284000  1.0 -0.0916517
C  C44  1  0.20009000  0.47505000  0.76615000  1.0 -0.1520859939
C  C45  1  0.99299000  0.57225000  0.94371000  1.0 0.1482947024
C  C46  1  0.72284000  0.55356000  0.25392000  1.0 -0.0916517
C  C47  1  0.76615000  0.55871000  0.20009000  1.0 -0.1520859939
C  C48  1  0.94371000  0.49105000  0.99299000  1.0 0.1482947024
C  C49  1  0.25392000  0.55356000  0.46968000  1.0 -0.0916517
C  C50  1  0.20009000  0.55871000  0.47505000  1.0 -0.1520859939
C  C51  1  0.99299000  0.49105000  0.57225000  1.0 0.1482947024
C  C52  1  0.72284000  0.46968000  0.55356000  1.0 -0.0916517
C  C53  1  0.76615000  0.47505000  0.55871000  1.0 -0.1520859939
C  C54  1  0.94371000  0.57225000  0.49105000  1.0 0.1482947024
C  C55  1  0.46968000  0.72284000  0.25392000  1.0 -0.0916517
C  C56  1  0.47505000  0.76615000  0.20009000  1.0 -0.1520859939
C  C57  1  0.57225000  0.94371000  0.99299000  1.0 0.1482947024
C  C58  1  0.55356000  0.25392000  0.72284000  1.0 -0.0916517
C  C59  1  0.55871000  0.20009000  0.76615000  1.0 -0.1520859939
C  C60  1  0.49105000  0.99299000  0.94371000  1.0 0.1482947024
C  C61  1  0.55356000  0.46968000  0.25392000  1.0 -0.0916517
C  C62  1  0.55871000  0.47505000  0.20009000  1.0 -0.1520859939
C  C63  1  0.49105000  0.57225000  0.99299000  1.0 0.1482947024
C  C64  1  0.46968000  0.55356000  0.72284000  1.0 -0.0916517
C  C65  1  0.47505000  0.55871000  0.76615000  1.0 -0.1520859939
C  C66  1  0.57225000  0.49105000  0.94371000  1.0 0.1482947024
C  C67  1  0.72284000  0.25392000  0.46968000  1.0 -0.0916517
C  C68  1  0.76615000  0.20009000  0.47505000  1.0 -0.1520859939
C  C69  1  0.94371000  0.99299000  0.57225000  1.0 0.1482947024
C  C70  1  0.25392000  0.72284000  0.55356000  1.0 -0.0916517
C  C71  1  0.20009000  0.76615000  0.55871000  1.0 -0.1520859939
C  C72  1  0.99299000  0.94371000  0.49105000  1.0 0.1482947024
C  C73  1  0.50312000  0.65464000  0.50312000  1.0 0.6437161337
C  C74  1  0.50892000  0.70120000  0.50892000  1.0 -0.0197371243
C  C75  1  0.51956000  0.78770000  0.51956000  1.0 0.1482947024
C  C76  1  0.52482000  0.83316000  0.52482000  1.0 -0.0775491671
C  C77  1  0.52836000  0.87108000  0.52836000  1.0 -0.0556204502
C  C78  1  0.53093000  0.91929000  0.53093000  1.0 -0.0978241884
C  C79  1  0.50312000  0.33912000  0.50312000  1.0 0.6437161337
C  C80  1  0.50892000  0.28096000  0.50892000  1.0 -0.0197371243
C  C81  1  0.51956000  0.17318000  0.51956000  1.0 0.1482947024
C  C82  1  0.52482000  0.11720000  0.52482000  1.0 -0.0775491671
C  C83  1  0.52836000  0.07220000  0.52836000  1.0 -0.0541200826
C  C84  1  0.53093000  0.01885000  0.53093000  1.0 -0.0978241884
C  C85  1  0.33912000  0.50312000  0.65464000  1.0 0.6437161337
C  C86  1  0.28096000  0.50892000  0.70120000  1.0 -0.0197371243
C  C87  1  0.17318000  0.51956000  0.78770000  1.0 0.1482947024
C  C88  1  0.11720000  0.52482000  0.83316000  1.0 -0.0775491671
C  C89  1  0.07220000  0.52836000  0.87108000  1.0 -0.0556204502
C  C90  1  0.01885000  0.53093000  0.91929000  1.0 -0.0978241884
C  C91  1  0.65464000  0.50312000  0.33912000  1.0 0.6437161337
C  C92  1  0.70120000  0.50892000  0.28096000  1.0 -0.0197371243
C  C93  1  0.78770000  0.51956000  0.17318000  1.0 0.1482947024
C  C94  1  0.83316000  0.52482000  0.11720000  1.0 -0.0775491671
C  C95  1  0.87108000  0.52836000  0.07220000  1.0 -0.0541200826
C  C96  1  0.91929000  0.53093000  0.01885000  1.0 -0.0978241884
C  C97  1  0.33912000  0.65464000  0.50312000  1.0 0.6437161337
C  C98  1  0.28096000  0.70120000  0.50892000  1.0 -0.0197371243
C  C99  1  0.17318000  0.78770000  0.51956000  1.0 0.1482947024
C  C100  1  0.11720000  0.83316000  0.52482000  1.0 -0.0775491671
C  C101  1  0.07220000  0.87108000  0.52836000  1.0 -0.0556204502
C  C102  1  0.01885000  0.91929000  0.53093000  1.0 -0.0978241884
C  C103  1  0.65464000  0.33912000  0.50312000  1.0 0.6437161337
C  C104  1  0.70120000  0.28096000  0.50892000  1.0 -0.0197371243
C  C105  1  0.78770000  0.17318000  0.51956000  1.0 0.1482947024
C  C106  1  0.83316000  0.11720000  0.52482000  1.0 -0.0775491671
C  C107  1  0.87108000  0.07220000  0.52836000  1.0 -0.0541200826
C  C108  1  0.91929000  0.01885000  0.53093000  1.0 -0.0978241884
C  C109  1  0.50312000  0.50312000  0.33912000  1.0 0.6437161337
C  C110  1  0.50892000  0.50892000  0.28096000  1.0 -0.0197371243
C  C111  1  0.51956000  0.51956000  0.17318000  1.0 0.1482947024
C  C112  1  0.52482000  0.52482000  0.11720000  1.0 -0.0775491671
C  C113  1  0.52836000  0.52836000  0.07220000  1.0 -0.0541200826
C  C114  1  0.53093000  0.53093000  0.01885000  1.0 -0.0978241884
C  C115  1  0.50312000  0.50312000  0.65464000  1.0 0.6437161337
C  C116  1  0.50892000  0.50892000  0.70120000  1.0 -0.0197371243
C  C117  1  0.51956000  0.51956000  0.78770000  1.0 0.1482947024
C  C118  1  0.52482000  0.52482000  0.83316000  1.0 -0.0775491671
C  C119  1  0.52836000  0.52836000  0.87108000  1.0 -0.0556204502
C  C120  1  0.53093000  0.53093000  0.91929000  1.0 -0.0978241884
C  C121  1  0.50312000  0.65464000  0.33912000  1.0 0.6437161337
C  C122  1  0.50892000  0.70120000  0.28096000  1.0 -0.0197371243
C  C123  1  0.51956000  0.78770000  0.17318000  1.0 0.1482947024
C  C124  1  0.52482000  0.83316000  0.11720000  1.0 -0.0775491671
C  C125  1  0.52836000  0.87108000  0.07220000  1.0 -0.0541200826
C  C126  1  0.53093000  0.91929000  0.01885000  1.0 -0.0978241884
C  C127  1  0.50312000  0.33912000  0.65464000  1.0 0.6437161337
C  C128  1  0.50892000  0.28096000  0.70120000  1.0 -0.0197371243
C  C129  1  0.51956000  0.17318000  0.78770000  1.0 0.1482947024
C  C130  1  0.52482000  0.11720000  0.83316000  1.0 -0.0775491671
C  C131  1  0.52836000  0.07220000  0.87108000  1.0 -0.0541200826
C  C132  1  0.53093000  0.01885000  0.91929000  1.0 -0.0978241884
C  C133  1  0.65464000  0.50312000  0.50312000  1.0 0.6437161337
C  C134  1  0.70120000  0.50892000  0.50892000  1.0 -0.0197371243
C  C135  1  0.78770000  0.51956000  0.51956000  1.0 0.1482947024
C  C136  1  0.83316000  0.52482000  0.52482000  1.0 -0.0775491671
C  C137  1  0.87108000  0.52836000  0.52836000  1.0 -0.0541200826
C  C138  1  0.91929000  0.53093000  0.53093000  1.0 -0.0978241884
C  C139  1  0.33912000  0.50312000  0.50312000  1.0 0.6437161337
C  C140  1  0.28096000  0.50892000  0.50892000  1.0 -0.0197371243
C  C141  1  0.17318000  0.51956000  0.51956000  1.0 0.1482947024
C  C142  1  0.11720000  0.52482000  0.52482000  1.0 -0.0775491671
C  C143  1  0.07220000  0.52836000  0.52836000  1.0 -0.0541200826
C  C144  1  0.01885000  0.53093000  0.53093000  1.0 -0.0978241884
C  C145  1  0.78032000  0.99608000  0.69644000  1.0 -0.0916517
C  C146  1  0.77495000  0.04991000  0.69129000  1.0 -0.1520859939
C  C147  1  0.67775000  0.25701000  0.75895000  1.0 0.1482947024
C  C148  1  0.69644000  0.52716000  0.78032000  1.0 -0.0916517
C  C149  1  0.69129000  0.48385000  0.77495000  1.0 -0.1520859939
C  C150  1  0.75895000  0.30629000  0.67775000  1.0 0.1482947024
C  C151  1  0.99608000  0.78032000  0.52716000  1.0 -0.0916517
C  C152  1  0.04991000  0.77495000  0.48385000  1.0 -0.1520859939
C  C153  1  0.25701000  0.67775000  0.30629000  1.0 0.1482947024
C  C154  1  0.52716000  0.69644000  0.99608000  1.0 -0.0916517
C  C155  1  0.48385000  0.69129000  0.04991000  1.0 -0.1520859939
C  C156  1  0.30629000  0.75895000  0.25701000  1.0 0.1482947024
C  C157  1  0.99608000  0.69644000  0.78032000  1.0 -0.0916517
C  C158  1  0.04991000  0.69129000  0.77495000  1.0 -0.1520859939
C  C159  1  0.25701000  0.75895000  0.67775000  1.0 0.1482947024
C  C160  1  0.52716000  0.78032000  0.69644000  1.0 -0.0916517
C  C161  1  0.48385000  0.77495000  0.69129000  1.0 -0.1520859939
C  C162  1  0.30629000  0.67775000  0.75895000  1.0 0.1482947024
C  C163  1  0.78032000  0.52716000  0.99608000  1.0 -0.0916517
C  C164  1  0.77495000  0.48385000  0.04991000  1.0 -0.1520859939
C  C165  1  0.67775000  0.30629000  0.25701000  1.0 0.1482947024
C  C166  1  0.69644000  0.99608000  0.52716000  1.0 -0.0916517
C  C167  1  0.69129000  0.04991000  0.48385000  1.0 -0.1520859939
C  C168  1  0.75895000  0.25701000  0.30629000  1.0 0.1482947024
C  C169  1  0.69644000  0.78032000  0.99608000  1.0 -0.0916517
C  C170  1  0.69129000  0.77495000  0.04991000  1.0 -0.1520859939
C  C171  1  0.75895000  0.67775000  0.25701000  1.0 0.1482947024
C  C172  1  0.78032000  0.69644000  0.52716000  1.0 -0.0916517
C  C173  1  0.77495000  0.69129000  0.48385000  1.0 -0.1520859939
C  C174  1  0.67775000  0.75895000  0.30629000  1.0 0.1482947024
C  C175  1  0.52716000  0.99608000  0.78032000  1.0 -0.0916517
C  C176  1  0.48385000  0.04991000  0.77495000  1.0 -0.1520859939
C  C177  1  0.30629000  0.25701000  0.67775000  1.0 0.1482947024
C  C178  1  0.99608000  0.52716000  0.69644000  1.0 -0.0916517
C  C179  1  0.04991000  0.48385000  0.69129000  1.0 -0.1520859939
C  C180  1  0.25701000  0.30629000  0.75895000  1.0 0.1482947024
C  C181  1  0.78032000  0.52716000  0.69644000  1.0 -0.0916517
C  C182  1  0.77495000  0.48385000  0.69129000  1.0 -0.1520859939
C  C183  1  0.67775000  0.30629000  0.75895000  1.0 0.1482947024
C  C184  1  0.69644000  0.99608000  0.78032000  1.0 -0.0916517
C  C185  1  0.69129000  0.04991000  0.77495000  1.0 -0.1520859939
C  C186  1  0.75895000  0.25701000  0.67775000  1.0 0.1482947024
C  C187  1  0.99608000  0.69644000  0.52716000  1.0 -0.0916517
C  C188  1  0.04991000  0.69129000  0.48385000  1.0 -0.1520859939
C  C189  1  0.25701000  0.75895000  0.30629000  1.0 0.1482947024
C  C190  1  0.52716000  0.78032000  0.99608000  1.0 -0.0916517
C  C191  1  0.48385000  0.77495000  0.04991000  1.0 -0.1520859939
C  C192  1  0.30629000  0.67775000  0.25701000  1.0 0.1482947024
C  C193  1  0.99608000  0.52716000  0.78032000  1.0 -0.0916517
C  C194  1  0.04991000  0.48385000  0.77495000  1.0 -0.1520859939
C  C195  1  0.25701000  0.30629000  0.67775000  1.0 0.1482947024
C  C196  1  0.52716000  0.99608000  0.69644000  1.0 -0.0916517
C  C197  1  0.48385000  0.04991000  0.69129000  1.0 -0.1520859939
C  C198  1  0.30629000  0.25701000  0.75895000  1.0 0.1482947024
C  C199  1  0.78032000  0.69644000  0.99608000  1.0 -0.0916517
C  C200  1  0.77495000  0.69129000  0.04991000  1.0 -0.1520859939
C  C201  1  0.67775000  0.75895000  0.25701000  1.0 0.1482947024
C  C202  1  0.69644000  0.78032000  0.52716000  1.0 -0.0916517
C  C203  1  0.69129000  0.77495000  0.48385000  1.0 -0.1520859939
C  C204  1  0.75895000  0.67775000  0.30629000  1.0 0.1482947024
C  C205  1  0.69644000  0.52716000  0.99608000  1.0 -0.0916517
C  C206  1  0.69129000  0.48385000  0.04991000  1.0 -0.1520859939
C  C207  1  0.75895000  0.30629000  0.25701000  1.0 0.1482947024
C  C208  1  0.78032000  0.99608000  0.52716000  1.0 -0.0916517
C  C209  1  0.77495000  0.04991000  0.48385000  1.0 -0.1520859939
C  C210  1  0.67775000  0.25701000  0.30629000  1.0 0.1482947024
C  C211  1  0.52716000  0.69644000  0.78032000  1.0 -0.0916517
C  C212  1  0.48385000  0.69129000  0.77495000  1.0 -0.1520859939
C  C213  1  0.30629000  0.75895000  0.67775000  1.0 0.1482947024
C  C214  1  0.99608000  0.78032000  0.69644000  1.0 -0.0916517
C  C215  1  0.04991000  0.77495000  0.69129000  1.0 -0.1520859939
C  C216  1  0.25701000  0.67775000  0.75895000  1.0 0.1482947024
C  C217  1  0.74688000  0.91088000  0.74688000  1.0 0.6437161337
C  C218  1  0.74108000  0.96904000  0.74108000  1.0 -0.0197371243
C  C219  1  0.73044000  0.07682000  0.73044000  1.0 0.1482947024
C  C220  1  0.72518000  0.13280000  0.72518000  1.0 -0.0775491671
C  C221  1  0.72164000  0.17780000  0.72164000  1.0 -0.0541200826
C  C222  1  0.71907000  0.23115000  0.71907000  1.0 -0.0978241884
C  C223  1  0.74688000  0.59536000  0.74688000  1.0 0.6437161337
C  C224  1  0.74108000  0.54880000  0.74108000  1.0 -0.0197371243
C  C225  1  0.73044000  0.46230000  0.73044000  1.0 0.1482947024
C  C226  1  0.72518000  0.41684000  0.72518000  1.0 -0.0775491671
C  C227  1  0.72164000  0.37892000  0.72164000  1.0 -0.0541200826
C  C228  1  0.71907000  0.33071000  0.71907000  1.0 -0.0978241884
C  C229  1  0.91088000  0.74688000  0.59536000  1.0 0.6437161337
C  C230  1  0.96904000  0.74108000  0.54880000  1.0 -0.0197371243
C  C231  1  0.07682000  0.73044000  0.46230000  1.0 0.1482947024
C  C232  1  0.13280000  0.72518000  0.41684000  1.0 -0.0775491671
C  C233  1  0.17780000  0.72164000  0.37892000  1.0 -0.0556204502
C  C234  1  0.23115000  0.71907000  0.33071000  1.0 -0.0978241884
C  C235  1  0.59536000  0.74688000  0.91088000  1.0 0.6437161337
C  C236  1  0.54880000  0.74108000  0.96904000  1.0 -0.0197371243
C  C237  1  0.46230000  0.73044000  0.07682000  1.0 0.1482947024
C  C238  1  0.41684000  0.72518000  0.13280000  1.0 -0.0775491671
C  C239  1  0.37892000  0.72164000  0.17780000  1.0 -0.0556204502
C  C240  1  0.33071000  0.71907000  0.23115000  1.0 -0.0978241884
C  C241  1  0.91088000  0.74688000  0.74688000  1.0 0.6437161337
C  C242  1  0.96904000  0.74108000  0.74108000  1.0 -0.0197371243
C  C243  1  0.07682000  0.73044000  0.73044000  1.0 0.1482947024
C  C244  1  0.13280000  0.72518000  0.72518000  1.0 -0.0775491671
C  C245  1  0.17780000  0.72164000  0.72164000  1.0 -0.0556204502
C  C246  1  0.23115000  0.71907000  0.71907000  1.0 -0.0978241884
C  C247  1  0.59536000  0.74688000  0.74688000  1.0 0.6437161337
C  C248  1  0.54880000  0.74108000  0.74108000  1.0 -0.0197371243
C  C249  1  0.46230000  0.73044000  0.73044000  1.0 0.1482947024
C  C250  1  0.41684000  0.72518000  0.72518000  1.0 -0.0775491671
C  C251  1  0.37892000  0.72164000  0.72164000  1.0 -0.0556204502
C  C252  1  0.33071000  0.71907000  0.71907000  1.0 -0.0978241884
C  C253  1  0.74688000  0.59536000  0.91088000  1.0 0.6437161337
C  C254  1  0.74108000  0.54880000  0.96904000  1.0 -0.0197371243
C  C255  1  0.73044000  0.46230000  0.07682000  1.0 0.1482947024
C  C256  1  0.72518000  0.41684000  0.13280000  1.0 -0.0775491671
C  C257  1  0.72164000  0.37892000  0.17780000  1.0 -0.0556204502
C  C258  1  0.71907000  0.33071000  0.23115000  1.0 -0.0978241884
C  C259  1  0.74688000  0.91088000  0.59536000  1.0 0.6437161337
C  C260  1  0.74108000  0.96904000  0.54880000  1.0 -0.0197371243
C  C261  1  0.73044000  0.07682000  0.46230000  1.0 0.1482947024
C  C262  1  0.72518000  0.13280000  0.41684000  1.0 -0.0775491671
C  C263  1  0.72164000  0.17780000  0.37892000  1.0 -0.0556204502
C  C264  1  0.71907000  0.23115000  0.33071000  1.0 -0.0978241884
C  C265  1  0.74688000  0.74688000  0.91088000  1.0 0.6437161337
C  C266  1  0.74108000  0.74108000  0.96904000  1.0 -0.0197371243
C  C267  1  0.73044000  0.73044000  0.07682000  1.0 0.1482947024
C  C268  1  0.72518000  0.72518000  0.13280000  1.0 -0.0775491671
C  C269  1  0.72164000  0.72164000  0.17780000  1.0 -0.0541200826
C  C270  1  0.71907000  0.71907000  0.23115000  1.0 -0.0978241884
C  C271  1  0.74688000  0.74688000  0.59536000  1.0 0.6437161337
C  C272  1  0.74108000  0.74108000  0.54880000  1.0 -0.0197371243
C  C273  1  0.73044000  0.73044000  0.46230000  1.0 0.1482947024
C  C274  1  0.72518000  0.72518000  0.41684000  1.0 -0.0775491671
C  C275  1  0.72164000  0.72164000  0.37892000  1.0 -0.0541200826
C  C276  1  0.71907000  0.71907000  0.33071000  1.0 -0.0978241884
C  C277  1  0.59536000  0.91088000  0.74688000  1.0 0.6437161337
C  C278  1  0.54880000  0.96904000  0.74108000  1.0 -0.0197371243
C  C279  1  0.46230000  0.07682000  0.73044000  1.0 0.1482947024
C  C280  1  0.41684000  0.13280000  0.72518000  1.0 -0.0775491671
C  C281  1  0.37892000  0.17780000  0.72164000  1.0 -0.0541200826
C  C282  1  0.33071000  0.23115000  0.71907000  1.0 -0.0978241884
C  C283  1  0.91088000  0.59536000  0.74688000  1.0 0.6437161337
C  C284  1  0.96904000  0.54880000  0.74108000  1.0 -0.0197371243
C  C285  1  0.07682000  0.46230000  0.73044000  1.0 0.1482947024
C  C286  1  0.13280000  0.41684000  0.72518000  1.0 -0.0775491671
C  C287  1  0.17780000  0.37892000  0.72164000  1.0 -0.0541200826
C  C288  1  0.23115000  0.33071000  0.71907000  1.0 -0.0978241884
O  O1  1  0.54089000  0.63675000  0.46101000  1.0 -0.6194896082
O  O2  1  0.46101000  0.36135000  0.54089000  1.0 -0.6194896082
O  O3  1  0.36135000  0.46101000  0.63675000  1.0 -0.6194896082
O  O4  1  0.63675000  0.54089000  0.36135000  1.0 -0.6194896082
O  O5  1  0.36135000  0.63675000  0.54089000  1.0 -0.6194896082
O  O6  1  0.63675000  0.36135000  0.46101000  1.0 -0.6194896082
O  O7  1  0.54089000  0.46101000  0.36135000  1.0 -0.6194896082
O  O8  1  0.46101000  0.54089000  0.63675000  1.0 -0.6194896082
O  O9  1  0.46101000  0.63675000  0.36135000  1.0 -0.6194896082
O  O10  1  0.54089000  0.36135000  0.63675000  1.0 -0.6194896082
O  O11  1  0.63675000  0.46101000  0.54089000  1.0 -0.6194896082
O  O12  1  0.36135000  0.54089000  0.46101000  1.0 -0.6194896082
O  O13  1  0.54089000  0.36135000  0.46101000  1.0 -0.6194896082
O  O14  1  0.46101000  0.63675000  0.54089000  1.0 -0.6194896082
O  O15  1  0.36135000  0.54089000  0.63675000  1.0 -0.6194896082
O  O16  1  0.63675000  0.46101000  0.36135000  1.0 -0.6194896082
O  O17  1  0.36135000  0.46101000  0.54089000  1.0 -0.6194896082
O  O18  1  0.63675000  0.54089000  0.46101000  1.0 -0.6194896082
O  O19  1  0.54089000  0.63675000  0.36135000  1.0 -0.6194896082
O  O20  1  0.46101000  0.36135000  0.63675000  1.0 -0.6194896082
O  O21  1  0.46101000  0.54089000  0.36135000  1.0 -0.6194896082
O  O22  1  0.54089000  0.46101000  0.63675000  1.0 -0.6194896082
O  O23  1  0.63675000  0.36135000  0.54089000  1.0 -0.6194896082
O  O24  1  0.36135000  0.63675000  0.46101000  1.0 -0.6194896082
O  O25  1  0.52599000  0.52599000  0.42203000  1.0 -0.3278404878
O  O26  1  0.53500000  0.53500000  0.39500000  1.0 -0.2868679965
O  O27  1  0.42203000  0.52599000  0.52599000  1.0 -0.3278404878
O  O28  1  0.39500000  0.53500000  0.53500000  1.0 -0.2868679965
O  O29  1  0.52599000  0.42203000  0.52599000  1.0 -0.3278404878
O  O30  1  0.53500000  0.39500000  0.53500000  1.0 -0.2868679965
O  O31  1  0.52599000  0.52599000  0.52599000  1.0 -0.3278404878
O  O32  1  0.53500000  0.53500000  0.53500000  1.0 -0.2840758194
O  O33  1  0.60497000  0.46501000  0.46501000  1.0 -0.2868679965
O  O34  1  0.57770000  0.47410000  0.47410000  1.0 -0.3247391959
O  O35  1  0.46501000  0.46501000  0.60497000  1.0 -0.2868679965
O  O36  1  0.47410000  0.47410000  0.57770000  1.0 -0.3278404878
O  O37  1  0.46501000  0.46501000  0.46501000  1.0 -0.2840758194
O  O38  1  0.47410000  0.47410000  0.47410000  1.0 -0.3247391959
O  O39  1  0.46501000  0.60497000  0.46501000  1.0 -0.2868679965
O  O40  1  0.47410000  0.57770000  0.47410000  1.0 -0.3247391959
O  O41  1  0.70911000  0.88865000  0.78899000  1.0 -0.6194896082
O  O42  1  0.78899000  0.61325000  0.70911000  1.0 -0.6194896082
O  O43  1  0.88865000  0.70911000  0.61325000  1.0 -0.6194896082
O  O44  1  0.61325000  0.78899000  0.88865000  1.0 -0.6194896082
O  O45  1  0.88865000  0.78899000  0.70911000  1.0 -0.6194896082
O  O46  1  0.61325000  0.70911000  0.78899000  1.0 -0.6194896082
O  O47  1  0.70911000  0.61325000  0.88865000  1.0 -0.6194896082
O  O48  1  0.78899000  0.88865000  0.61325000  1.0 -0.6194896082
O  O49  1  0.78899000  0.70911000  0.88865000  1.0 -0.6194896082
O  O50  1  0.70911000  0.78899000  0.61325000  1.0 -0.6194896082
O  O51  1  0.61325000  0.88865000  0.70911000  1.0 -0.6194896082
O  O52  1  0.88865000  0.61325000  0.78899000  1.0 -0.6194896082
O  O53  1  0.70911000  0.61325000  0.78899000  1.0 -0.6194896082
O  O54  1  0.78899000  0.88865000  0.70911000  1.0 -0.6194896082
O  O55  1  0.88865000  0.78899000  0.61325000  1.0 -0.6194896082
O  O56  1  0.61325000  0.70911000  0.88865000  1.0 -0.6194896082
O  O57  1  0.88865000  0.61325000  0.70911000  1.0 -0.6194896082
O  O58  1  0.61325000  0.88865000  0.78899000  1.0 -0.6194896082
O  O59  1  0.70911000  0.78899000  0.88865000  1.0 -0.6194896082
O  O60  1  0.78899000  0.70911000  0.61325000  1.0 -0.6194896082
O  O61  1  0.78899000  0.61325000  0.88865000  1.0 -0.6194896082
O  O62  1  0.70911000  0.88865000  0.61325000  1.0 -0.6194896082
O  O63  1  0.61325000  0.78899000  0.70911000  1.0 -0.6194896082
O  O64  1  0.88865000  0.70911000  0.78899000  1.0 -0.6194896082
O  O65  1  0.72401000  0.72401000  0.82797000  1.0 -0.3278404878
O  O66  1  0.71500000  0.71500000  0.85500000  1.0 -0.2868679965
O  O67  1  0.82797000  0.72401000  0.72401000  1.0 -0.3278404878
O  O68  1  0.85500000  0.71500000  0.71500000  1.0 -0.2868679965
O  O69  1  0.72401000  0.72401000  0.72401000  1.0 -0.3278404878
O  O70  1  0.71500000  0.71500000  0.71500000  1.0 -0.2868679965
O  O71  1  0.72401000  0.82797000  0.72401000  1.0 -0.3278404878
O  O72  1  0.71500000  0.85500000  0.71500000  1.0 -0.2840758194
O  O73  1  0.64503000  0.78499000  0.78499000  1.0 -0.2868679965
O  O74  1  0.67230000  0.77590000  0.77590000  1.0 -0.3247391959
O  O75  1  0.78499000  0.78499000  0.64503000  1.0 -0.2868679965
O  O76  1  0.77590000  0.77590000  0.67230000  1.0 -0.3278404878
O  O77  1  0.78499000  0.64503000  0.78499000  1.0 -0.2840758194
O  O78  1  0.77590000  0.67230000  0.77590000  1.0 -0.3247391959
O  O79  1  0.78499000  0.78499000  0.78499000  1.0 -0.2868679965
O  O80  1  0.77590000  0.77590000  0.77590000  1.0 -0.3278404878
F  F1  1  0.60989000  0.92285000  0.45035000  1.0 -0.0916517
F  F2  1  0.45035000  0.01691000  0.60989000  1.0 -0.0916517
F  F3  1  0.01691000  0.45035000  0.92285000  1.0 -0.0916517
F  F4  1  0.92285000  0.60989000  0.01691000  1.0 -0.0916517
F  F5  1  0.01691000  0.92285000  0.60989000  1.0 -0.0916517
F  F6  1  0.92285000  0.01691000  0.45035000  1.0 -0.0916517
F  F7  1  0.60989000  0.45035000  0.01691000  1.0 -0.0916517
F  F8  1  0.45035000  0.60989000  0.92285000  1.0 -0.0916517
F  F9  1  0.45035000  0.92285000  0.01691000  1.0 -0.0916517
F  F10  1  0.60989000  0.01691000  0.92285000  1.0 -0.0916517
F  F11  1  0.92285000  0.45035000  0.60989000  1.0 -0.0916517
F  F12  1  0.01691000  0.60989000  0.45035000  1.0 -0.0916517
F  F13  1  0.60989000  0.01691000  0.45035000  1.0 -0.0916517
F  F14  1  0.45035000  0.92285000  0.60989000  1.0 -0.0916517
F  F15  1  0.01691000  0.60989000  0.92285000  1.0 -0.0916517
F  F16  1  0.92285000  0.45035000  0.01691000  1.0 -0.0916517
F  F17  1  0.01691000  0.45035000  0.60989000  1.0 -0.0916517
F  F18  1  0.92285000  0.60989000  0.45035000  1.0 -0.0916517
F  F19  1  0.60989000  0.92285000  0.01691000  1.0 -0.0916517
F  F20  1  0.45035000  0.01691000  0.92285000  1.0 -0.0916517
F  F21  1  0.45035000  0.60989000  0.01691000  1.0 -0.0916517
F  F22  1  0.60989000  0.45035000  0.92285000  1.0 -0.0916517
F  F23  1  0.92285000  0.01691000  0.60989000  1.0 -0.0916517
F  F24  1  0.01691000  0.92285000  0.45035000  1.0 -0.0916517
F  F25  1  0.64011000  0.23309000  0.79965000  1.0 -0.0916517
F  F26  1  0.79965000  0.32715000  0.64011000  1.0 -0.0916517
F  F27  1  0.23309000  0.64011000  0.32715000  1.0 -0.0916517
F  F28  1  0.32715000  0.79965000  0.23309000  1.0 -0.0916517
F  F29  1  0.23309000  0.79965000  0.64011000  1.0 -0.0916517
F  F30  1  0.32715000  0.64011000  0.79965000  1.0 -0.0916517
F  F31  1  0.64011000  0.32715000  0.23309000  1.0 -0.0916517
F  F32  1  0.79965000  0.23309000  0.32715000  1.0 -0.0916517
F  F33  1  0.79965000  0.64011000  0.23309000  1.0 -0.0916517
F  F34  1  0.64011000  0.79965000  0.32715000  1.0 -0.0916517
F  F35  1  0.32715000  0.23309000  0.64011000  1.0 -0.0916517
F  F36  1  0.23309000  0.32715000  0.79965000  1.0 -0.0916517
F  F37  1  0.64011000  0.32715000  0.79965000  1.0 -0.0916517
F  F38  1  0.79965000  0.23309000  0.64011000  1.0 -0.0916517
F  F39  1  0.23309000  0.79965000  0.32715000  1.0 -0.0916517
F  F40  1  0.32715000  0.64011000  0.23309000  1.0 -0.0916517
F  F41  1  0.23309000  0.32715000  0.64011000  1.0 -0.0916517
F  F42  1  0.32715000  0.23309000  0.79965000  1.0 -0.0916517
F  F43  1  0.64011000  0.79965000  0.23309000  1.0 -0.0916517
F  F44  1  0.79965000  0.64011000  0.32715000  1.0 -0.0916517
F  F45  1  0.79965000  0.32715000  0.23309000  1.0 -0.0916517
F  F46  1  0.64011000  0.23309000  0.32715000  1.0 -0.0916517
F  F47  1  0.32715000  0.79965000  0.64011000  1.0 -0.0916517
F  F48  1  0.23309000  0.64011000  0.79965000  1.0 -0.0916517
