# DDEC6 charges by PACMAN v1.1 (https://github.com/mtap-research/PACMAN-charge/)
data_VESNOA_ASR_pacman
_symmetry_space_group_name_H-M   'P 1'
_cell_length_a   13.55550000
_cell_length_b   32.45920000
_cell_length_c   32.59340000
_cell_angle_alpha   90.00000000
_cell_angle_beta   90.00000000
_cell_angle_gamma   90.00000000
_symmetry_Int_Tables_number   1
_chemical_formula_structural   Zn7H100C116(N7O16)2
_chemical_formula_sum   'Zn28 H400 C464 N56 O128'
_cell_volume   14341.11834604
_cell_formula_units_Z   4
loop_
 _symmetry_equiv_pos_site_id
 _symmetry_equiv_pos_as_xyz
  1  'x, y, z'
loop_
 _atom_site_type_symbol
 _atom_site_label
 _atom_site_symmetry_multiplicity
 _atom_site_fract_x
 _atom_site_fract_y
 _atom_site_fract_z
 _atom_site_occupancy
 _atom_site_charge
Zn  Zn1  1  0.55636000  0.78118000  0.33715000  1.0 0.7985728423
Zn  Zn2  1  0.56579000  0.48254000  0.44758000  1.0 0.8423809896
Zn  Zn3  1  0.55017000  0.81609000  0.43689000  1.0 0.737814557
Zn  Zn4  1  0.44364000  0.78118000  0.16285000  1.0 0.7985728423
Zn  Zn5  1  0.43421000  0.48254000  0.05242000  1.0 0.8423809896
Zn  Zn6  1  0.44983000  0.81609000  0.06311000  1.0 0.737814557
Zn  Zn7  1  0.55636000  0.71882000  0.66285000  1.0 0.7985728423
Zn  Zn8  1  0.56579000  0.01746000  0.55242000  1.0 0.8423809896
Zn  Zn9  1  0.55017000  0.68391000  0.56311000  1.0 0.737814557
Zn  Zn10  1  0.44364000  0.71882000  0.83715000  1.0 0.7985728423
Zn  Zn11  1  0.43421000  0.01746000  0.94758000  1.0 0.8423809896
Zn  Zn12  1  0.44983000  0.68391000  0.93689000  1.0 0.737814557
Zn  Zn13  1  0.44364000  0.21882000  0.66285000  1.0 0.7985728423
Zn  Zn14  1  0.43421000  0.51746000  0.55242000  1.0 0.8423809896
Zn  Zn15  1  0.44983000  0.18391000  0.56311000  1.0 0.737814557
Zn  Zn16  1  0.55636000  0.21882000  0.83715000  1.0 0.7985728423
Zn  Zn17  1  0.56579000  0.51746000  0.94758000  1.0 0.8423809896
Zn  Zn18  1  0.55017000  0.18391000  0.93689000  1.0 0.737814557
Zn  Zn19  1  0.44364000  0.28118000  0.33715000  1.0 0.7985728423
Zn  Zn20  1  0.43421000  0.98254000  0.44758000  1.0 0.8423809896
Zn  Zn21  1  0.44983000  0.31609000  0.43689000  1.0 0.737814557
Zn  Zn22  1  0.55636000  0.28118000  0.16285000  1.0 0.7985728423
Zn  Zn23  1  0.56579000  0.98254000  0.05242000  1.0 0.8423809896
Zn  Zn24  1  0.55017000  0.31609000  0.06311000  1.0 0.737814557
Zn  Zn25  1  0.50000000  0.43970000  0.25000000  1.0 0.7673898752
Zn  Zn26  1  0.50000000  0.06030000  0.75000000  1.0 0.7673898752
Zn  Zn27  1  0.50000000  0.56030000  0.75000000  1.0 0.7673898752
Zn  Zn28  1  0.50000000  0.93970000  0.25000000  1.0 0.7673898752
H  H1  1  0.40157000  0.99014000  0.36617000  1.0 0.3148089277
H  H2  1  0.42612000  0.97458000  0.32440000  1.0 0.3148089277
H  H3  1  0.28874000  0.55556000  0.30766000  1.0 0.1208112892
H  H4  1  0.14614000  0.59373000  0.30290000  1.0 0.1114587077
H  H5  1  0.06685000  0.53022000  0.20337000  1.0 0.1208112892
H  H6  1  0.21247000  0.49252000  0.20790000  1.0 0.1208112892
H  H7  1  0.92677000  0.70091000  0.21422000  1.0 0.1208112892
H  H8  1  0.79555000  0.74231000  0.23325000  1.0 0.100023481
H  H9  1  0.73088000  0.66555000  0.32422000  1.0 0.1269102781
H  H10  1  0.85801000  0.62287000  0.30460000  1.0 0.1114587077
H  H11  1  0.24831000  0.77436000  0.45808000  1.0 0.1208112892
H  H12  1  0.11013000  0.73319000  0.46437000  1.0 0.1208112892
H  H13  1  0.18971000  0.67213000  0.36313000  1.0 0.1208112892
H  H14  1  0.32665000  0.71401000  0.35699000  1.0 0.100023481
H  H15  1  0.16345000  0.57449000  0.38489000  1.0 0.1208112892
H  H16  1  0.31072000  0.54364000  0.39884000  1.0 0.1269102781
H  H17  1  0.32742000  0.60300000  0.50546000  1.0 0.1114587077
H  H18  1  0.18519000  0.63853000  0.48909000  1.0 0.1208112892
H  H19  1  0.97180000  0.71848000  0.36330000  1.0 0.1208112892
H  H20  1  0.82878000  0.75740000  0.36336000  1.0 0.1208112892
H  H21  1  0.75979000  0.71429000  0.47390000  1.0 0.1208112892
H  H22  1  0.90090000  0.67443000  0.47375000  1.0 0.1208112892
H  H23  1  0.92668000  0.61266000  0.36999000  1.0 0.1208112892
H  H24  1  0.79579000  0.56815000  0.36991000  1.0 0.1208112892
H  H25  1  0.86524000  0.53174000  0.48333000  1.0 0.1269102781
H  H26  1  0.99841000  0.57614000  0.48362000  1.0 0.1269102781
H  H27  1  0.56441000  0.85043000  0.27315000  1.0 0.0817083812
H  H28  1  0.49225000  0.89937000  0.45125000  1.0 0.100023481
H  H29  1  0.44449000  0.80168000  0.55822000  1.0 0.0914507411
H  H30  1  0.39778000  0.81190000  0.51542000  1.0 0.071769182
H  H31  1  0.47864000  0.77756000  0.51905000  1.0 0.1114587077
H  H32  1  0.55963000  0.85605000  0.62007000  1.0 0.0914507411
H  H33  1  0.45850000  0.84609000  0.59894000  1.0 0.0817083812
H  H34  1  0.53933000  0.81177000  0.60281000  1.0 0.071769182
H  H35  1  0.66890000  0.89635000  0.57830000  1.0 0.071769182
H  H36  1  0.70472000  0.87269000  0.53911000  1.0 0.100023481
H  H37  1  0.62367000  0.90693000  0.53531000  1.0 0.0914507411
H  H38  1  0.45622000  0.75804000  0.27775000  1.0 0.1987457343
H  H39  1  0.39380000  0.77748000  0.30328000  1.0 0.1399250825
H  H40  1  0.37923000  0.79080000  0.31788000  1.0 0.1880451816
H  H41  1  0.39105000  0.76067000  0.29001000  1.0 0.1800018104
H  H42  1  0.47046000  0.82032000  0.57943000  1.0 0.0621511007
H  H43  1  0.39302000  0.83228000  0.54575000  1.0 0.071769182
H  H44  1  0.45064000  0.79054000  0.54247000  1.0 0.0914507411
H  H45  1  0.69992000  0.87406000  0.59612000  1.0 0.0621511007
H  H46  1  0.58647000  0.87440000  0.60544000  1.0 0.0914507411
H  H47  1  0.64331000  0.83244000  0.60250000  1.0 0.100023481
H  H48  1  0.74189000  0.88938000  0.53154000  1.0 0.100023481
H  H49  1  0.71107000  0.85699000  0.49824000  1.0 0.0914507411
H  H50  1  0.65350000  0.89871000  0.50194000  1.0 0.0817083812
H  H51  1  0.59843000  0.99014000  0.13383000  1.0 0.3148089277
H  H52  1  0.57388000  0.97458000  0.17560000  1.0 0.3155071254
H  H53  1  0.71126000  0.55556000  0.19234000  1.0 0.1208112892
H  H54  1  0.85386000  0.59373000  0.19710000  1.0 0.1114587077
H  H55  1  0.93315000  0.53022000  0.29663000  1.0 0.1208112892
H  H56  1  0.78753000  0.49252000  0.29210000  1.0 0.1208112892
H  H57  1  0.07323000  0.70091000  0.28578000  1.0 0.1208112892
H  H58  1  0.20445000  0.74231000  0.26675000  1.0 0.100023481
H  H59  1  0.26912000  0.66555000  0.17578000  1.0 0.1269102781
H  H60  1  0.14199000  0.62287000  0.19540000  1.0 0.1114587077
H  H61  1  0.75169000  0.77436000  0.04192000  1.0 0.1208112892
H  H62  1  0.88987000  0.73319000  0.03563000  1.0 0.1208112892
H  H63  1  0.81029000  0.67213000  0.13687000  1.0 0.1208112892
H  H64  1  0.67335000  0.71401000  0.14301000  1.0 0.100023481
H  H65  1  0.83655000  0.57449000  0.11511000  1.0 0.1208112892
H  H66  1  0.68928000  0.54364000  0.10116000  1.0 0.1269102781
H  H67  1  0.67258000  0.60300000  0.99454000  1.0 0.1114587077
H  H68  1  0.81481000  0.63853000  0.01091000  1.0 0.1208112892
H  H69  1  0.02820000  0.71848000  0.13670000  1.0 0.1208112892
H  H70  1  0.17122000  0.75740000  0.13664000  1.0 0.1208112892
H  H71  1  0.24021000  0.71429000  0.02610000  1.0 0.1208112892
H  H72  1  0.09910000  0.67443000  0.02625000  1.0 0.1208112892
H  H73  1  0.07332000  0.61266000  0.13001000  1.0 0.1208112892
H  H74  1  0.20421000  0.56815000  0.13009000  1.0 0.1208112892
H  H75  1  0.13476000  0.53174000  0.01667000  1.0 0.1269102781
H  H76  1  0.00159000  0.57614000  0.01638000  1.0 0.1269102781
H  H77  1  0.43559000  0.85043000  0.22685000  1.0 0.0817083812
H  H78  1  0.50775000  0.89937000  0.04875000  1.0 0.100023481
H  H79  1  0.55551000  0.80168000  0.94178000  1.0 0.0914507411
H  H80  1  0.60222000  0.81190000  0.98458000  1.0 0.071769182
H  H81  1  0.52136000  0.77756000  0.98095000  1.0 0.1114587077
H  H82  1  0.44037000  0.85605000  0.87993000  1.0 0.0914507411
H  H83  1  0.54150000  0.84609000  0.90106000  1.0 0.0817083812
H  H84  1  0.46067000  0.81177000  0.89719000  1.0 0.071769182
H  H85  1  0.33110000  0.89635000  0.92170000  1.0 0.071769182
H  H86  1  0.29528000  0.87269000  0.96089000  1.0 0.100023481
H  H87  1  0.37633000  0.90693000  0.96469000  1.0 0.0914507411
H  H88  1  0.54378000  0.75804000  0.22225000  1.0 0.1987457343
H  H89  1  0.60620000  0.77748000  0.19672000  1.0 0.1399250825
H  H90  1  0.62077000  0.79080000  0.18212000  1.0 0.1880451816
H  H91  1  0.60895000  0.76067000  0.20999000  1.0 0.1800018104
H  H92  1  0.52954000  0.82032000  0.92057000  1.0 0.0621511007
H  H93  1  0.60698000  0.83228000  0.95425000  1.0 0.071769182
H  H94  1  0.54936000  0.79054000  0.95753000  1.0 0.0914507411
H  H95  1  0.30008000  0.87406000  0.90388000  1.0 0.0621511007
H  H96  1  0.41353000  0.87440000  0.89456000  1.0 0.0914507411
H  H97  1  0.35669000  0.83244000  0.89750000  1.0 0.100023481
H  H98  1  0.25811000  0.88938000  0.96846000  1.0 0.100023481
H  H99  1  0.28893000  0.85699000  0.00176000  1.0 0.0914507411
H  H100  1  0.34650000  0.89871000  0.99806000  1.0 0.0817083812
H  H101  1  0.40157000  0.50986000  0.63383000  1.0 0.3155071254
H  H102  1  0.42612000  0.52542000  0.67560000  1.0 0.3155071254
H  H103  1  0.28874000  0.94444000  0.69234000  1.0 0.1208112892
H  H104  1  0.14614000  0.90627000  0.69710000  1.0 0.1114587077
H  H105  1  0.06685000  0.96978000  0.79663000  1.0 0.1208112892
H  H106  1  0.21247000  0.00748000  0.79210000  1.0 0.1208112892
H  H107  1  0.92677000  0.79909000  0.78578000  1.0 0.1208112892
H  H108  1  0.79555000  0.75769000  0.76675000  1.0 0.100023481
H  H109  1  0.73088000  0.83445000  0.67578000  1.0 0.1269102781
H  H110  1  0.85801000  0.87713000  0.69540000  1.0 0.1114587077
H  H111  1  0.24831000  0.72564000  0.54192000  1.0 0.1208112892
H  H112  1  0.11013000  0.76681000  0.53563000  1.0 0.1208112892
H  H113  1  0.18971000  0.82787000  0.63687000  1.0 0.1208112892
H  H114  1  0.32665000  0.78599000  0.64301000  1.0 0.100023481
H  H115  1  0.16345000  0.92551000  0.61511000  1.0 0.1208112892
H  H116  1  0.31072000  0.95636000  0.60116000  1.0 0.1269102781
H  H117  1  0.32742000  0.89700000  0.49454000  1.0 0.1114587077
H  H118  1  0.18519000  0.86147000  0.51091000  1.0 0.1208112892
H  H119  1  0.97180000  0.78152000  0.63670000  1.0 0.1208112892
H  H120  1  0.82878000  0.74260000  0.63664000  1.0 0.1208112892
H  H121  1  0.75979000  0.78571000  0.52610000  1.0 0.1208112892
H  H122  1  0.90090000  0.82557000  0.52625000  1.0 0.1208112892
H  H123  1  0.92668000  0.88734000  0.63001000  1.0 0.1208112892
H  H124  1  0.79579000  0.93185000  0.63009000  1.0 0.1208112892
H  H125  1  0.86524000  0.96826000  0.51667000  1.0 0.1269102781
H  H126  1  0.99841000  0.92386000  0.51638000  1.0 0.1269102781
H  H127  1  0.56441000  0.64957000  0.72685000  1.0 0.0817083812
H  H128  1  0.49225000  0.60063000  0.54875000  1.0 0.100023481
H  H129  1  0.44449000  0.69832000  0.44178000  1.0 0.0914507411
H  H130  1  0.39778000  0.68810000  0.48458000  1.0 0.071769182
H  H131  1  0.47864000  0.72244000  0.48095000  1.0 0.1114587077
H  H132  1  0.55963000  0.64395000  0.37993000  1.0 0.0914507411
H  H133  1  0.45850000  0.65391000  0.40106000  1.0 0.0817083812
H  H134  1  0.53933000  0.68823000  0.39719000  1.0 0.071769182
H  H135  1  0.66890000  0.60365000  0.42170000  1.0 0.071769182
H  H136  1  0.70472000  0.62731000  0.46089000  1.0 0.100023481
H  H137  1  0.62367000  0.59307000  0.46469000  1.0 0.0914507411
H  H138  1  0.45622000  0.74196000  0.72225000  1.0 0.1987457343
H  H139  1  0.39380000  0.72252000  0.69672000  1.0 0.1399250825
H  H140  1  0.37923000  0.70920000  0.68212000  1.0 0.1880451816
H  H141  1  0.39105000  0.73933000  0.70999000  1.0 0.1800018104
H  H142  1  0.47046000  0.67968000  0.42057000  1.0 0.0621511007
H  H143  1  0.39302000  0.66772000  0.45425000  1.0 0.071769182
H  H144  1  0.45064000  0.70946000  0.45753000  1.0 0.0914507411
H  H145  1  0.69992000  0.62594000  0.40388000  1.0 0.0621511007
H  H146  1  0.58647000  0.62560000  0.39456000  1.0 0.0914507411
H  H147  1  0.64331000  0.66756000  0.39750000  1.0 0.100023481
H  H148  1  0.74189000  0.61062000  0.46846000  1.0 0.100023481
H  H149  1  0.71107000  0.64301000  0.50176000  1.0 0.0914507411
H  H150  1  0.65350000  0.60129000  0.49806000  1.0 0.0817083812
H  H151  1  0.59843000  0.50986000  0.86617000  1.0 0.3155071254
H  H152  1  0.57388000  0.52542000  0.82440000  1.0 0.3155071254
H  H153  1  0.71126000  0.94444000  0.80766000  1.0 0.1208112892
H  H154  1  0.85386000  0.90627000  0.80290000  1.0 0.1114587077
H  H155  1  0.93315000  0.96978000  0.70337000  1.0 0.1208112892
H  H156  1  0.78753000  0.00748000  0.70790000  1.0 0.1208112892
H  H157  1  0.07323000  0.79909000  0.71422000  1.0 0.1208112892
H  H158  1  0.20445000  0.75769000  0.73325000  1.0 0.100023481
H  H159  1  0.26912000  0.83445000  0.82422000  1.0 0.1269102781
H  H160  1  0.14199000  0.87713000  0.80460000  1.0 0.1114587077
H  H161  1  0.75169000  0.72564000  0.95808000  1.0 0.1208112892
H  H162  1  0.88987000  0.76681000  0.96437000  1.0 0.1208112892
H  H163  1  0.81029000  0.82787000  0.86313000  1.0 0.1208112892
H  H164  1  0.67335000  0.78599000  0.85699000  1.0 0.100023481
H  H165  1  0.83655000  0.92551000  0.88489000  1.0 0.1208112892
H  H166  1  0.68928000  0.95636000  0.89884000  1.0 0.1269102781
H  H167  1  0.67258000  0.89700000  0.00546000  1.0 0.1114587077
H  H168  1  0.81481000  0.86147000  0.98909000  1.0 0.1208112892
H  H169  1  0.02820000  0.78152000  0.86330000  1.0 0.1208112892
H  H170  1  0.17122000  0.74260000  0.86336000  1.0 0.1208112892
H  H171  1  0.24021000  0.78571000  0.97390000  1.0 0.1208112892
H  H172  1  0.09910000  0.82557000  0.97375000  1.0 0.1208112892
H  H173  1  0.07332000  0.88734000  0.86999000  1.0 0.1208112892
H  H174  1  0.20421000  0.93185000  0.86991000  1.0 0.1208112892
H  H175  1  0.13476000  0.96826000  0.98333000  1.0 0.1269102781
H  H176  1  0.00159000  0.92386000  0.98362000  1.0 0.1269102781
H  H177  1  0.43559000  0.64957000  0.77315000  1.0 0.0817083812
H  H178  1  0.50775000  0.60063000  0.95125000  1.0 0.100023481
H  H179  1  0.55551000  0.69832000  0.05822000  1.0 0.0914507411
H  H180  1  0.60222000  0.68810000  0.01542000  1.0 0.071769182
H  H181  1  0.52136000  0.72244000  0.01905000  1.0 0.1114587077
H  H182  1  0.44037000  0.64395000  0.12007000  1.0 0.0914507411
H  H183  1  0.54150000  0.65391000  0.09894000  1.0 0.0817083812
H  H184  1  0.46067000  0.68823000  0.10281000  1.0 0.071769182
H  H185  1  0.33110000  0.60365000  0.07830000  1.0 0.071769182
H  H186  1  0.29528000  0.62731000  0.03911000  1.0 0.100023481
H  H187  1  0.37633000  0.59307000  0.03531000  1.0 0.0914507411
H  H188  1  0.54378000  0.74196000  0.77775000  1.0 0.1987457343
H  H189  1  0.60620000  0.72252000  0.80328000  1.0 0.1399250825
H  H190  1  0.62077000  0.70920000  0.81788000  1.0 0.1880451816
H  H191  1  0.60895000  0.73933000  0.79001000  1.0 0.1800018104
H  H192  1  0.52954000  0.67968000  0.07943000  1.0 0.0621511007
H  H193  1  0.60698000  0.66772000  0.04575000  1.0 0.071769182
H  H194  1  0.54936000  0.70946000  0.04247000  1.0 0.0914507411
H  H195  1  0.30008000  0.62594000  0.09612000  1.0 0.0621511007
H  H196  1  0.41353000  0.62560000  0.10544000  1.0 0.0914507411
H  H197  1  0.35669000  0.66756000  0.10250000  1.0 0.100023481
H  H198  1  0.25811000  0.61062000  0.03154000  1.0 0.100023481
H  H199  1  0.28893000  0.64301000  0.99824000  1.0 0.0914507411
H  H200  1  0.34650000  0.60129000  0.00194000  1.0 0.0817083812
H  H201  1  0.59843000  0.00986000  0.63383000  1.0 0.3148089277
H  H202  1  0.57388000  0.02542000  0.67560000  1.0 0.3148089277
H  H203  1  0.71126000  0.44444000  0.69234000  1.0 0.1208112892
H  H204  1  0.85386000  0.40627000  0.69710000  1.0 0.1114587077
H  H205  1  0.93315000  0.46978000  0.79663000  1.0 0.1208112892
H  H206  1  0.78753000  0.50748000  0.79210000  1.0 0.1208112892
H  H207  1  0.07323000  0.29909000  0.78578000  1.0 0.1208112892
H  H208  1  0.20445000  0.25769000  0.76675000  1.0 0.100023481
H  H209  1  0.26912000  0.33445000  0.67578000  1.0 0.1269102781
H  H210  1  0.14199000  0.37713000  0.69540000  1.0 0.1114587077
H  H211  1  0.75169000  0.22564000  0.54192000  1.0 0.1208112892
H  H212  1  0.88987000  0.26681000  0.53563000  1.0 0.1208112892
H  H213  1  0.81029000  0.32787000  0.63687000  1.0 0.1208112892
H  H214  1  0.67335000  0.28599000  0.64301000  1.0 0.100023481
H  H215  1  0.83655000  0.42551000  0.61511000  1.0 0.1208112892
H  H216  1  0.68928000  0.45636000  0.60116000  1.0 0.1269102781
H  H217  1  0.67258000  0.39700000  0.49454000  1.0 0.1114587077
H  H218  1  0.81481000  0.36147000  0.51091000  1.0 0.1208112892
H  H219  1  0.02820000  0.28152000  0.63670000  1.0 0.1208112892
H  H220  1  0.17122000  0.24260000  0.63664000  1.0 0.1208112892
H  H221  1  0.24021000  0.28571000  0.52610000  1.0 0.1208112892
H  H222  1  0.09910000  0.32557000  0.52625000  1.0 0.1208112892
H  H223  1  0.07332000  0.38734000  0.63001000  1.0 0.1208112892
H  H224  1  0.20421000  0.43185000  0.63009000  1.0 0.1208112892
H  H225  1  0.13476000  0.46826000  0.51667000  1.0 0.1269102781
H  H226  1  0.00159000  0.42386000  0.51638000  1.0 0.1269102781
H  H227  1  0.43559000  0.14957000  0.72685000  1.0 0.0817083812
H  H228  1  0.50775000  0.10063000  0.54875000  1.0 0.100023481
H  H229  1  0.55551000  0.19832000  0.44178000  1.0 0.0914507411
H  H230  1  0.60222000  0.18810000  0.48458000  1.0 0.071769182
H  H231  1  0.52136000  0.22244000  0.48095000  1.0 0.1114587077
H  H232  1  0.44037000  0.14395000  0.37993000  1.0 0.0914507411
H  H233  1  0.54150000  0.15391000  0.40106000  1.0 0.0817083812
H  H234  1  0.46067000  0.18823000  0.39719000  1.0 0.071769182
H  H235  1  0.33110000  0.10365000  0.42170000  1.0 0.071769182
H  H236  1  0.29528000  0.12731000  0.46089000  1.0 0.100023481
H  H237  1  0.37633000  0.09307000  0.46469000  1.0 0.0914507411
H  H238  1  0.54378000  0.24196000  0.72225000  1.0 0.1987457343
H  H239  1  0.60620000  0.22252000  0.69672000  1.0 0.1399250825
H  H240  1  0.62077000  0.20920000  0.68212000  1.0 0.1880451816
H  H241  1  0.60895000  0.23933000  0.70999000  1.0 0.1800018104
H  H242  1  0.52954000  0.17968000  0.42057000  1.0 0.0621511007
H  H243  1  0.60698000  0.16772000  0.45425000  1.0 0.071769182
H  H244  1  0.54936000  0.20946000  0.45753000  1.0 0.0914507411
H  H245  1  0.30008000  0.12594000  0.40388000  1.0 0.0621511007
H  H246  1  0.41353000  0.12560000  0.39456000  1.0 0.0914507411
H  H247  1  0.35669000  0.16756000  0.39750000  1.0 0.100023481
H  H248  1  0.25811000  0.11062000  0.46846000  1.0 0.100023481
H  H249  1  0.28893000  0.14301000  0.50176000  1.0 0.0914507411
H  H250  1  0.34650000  0.10129000  0.49806000  1.0 0.0817083812
H  H251  1  0.40157000  0.00986000  0.86617000  1.0 0.3155071254
H  H252  1  0.42612000  0.02542000  0.82440000  1.0 0.3148089277
H  H253  1  0.28874000  0.44444000  0.80766000  1.0 0.1208112892
H  H254  1  0.14614000  0.40627000  0.80290000  1.0 0.1114587077
H  H255  1  0.06685000  0.46978000  0.70337000  1.0 0.1208112892
H  H256  1  0.21247000  0.50748000  0.70790000  1.0 0.1208112892
H  H257  1  0.92677000  0.29909000  0.71422000  1.0 0.1208112892
H  H258  1  0.79555000  0.25769000  0.73325000  1.0 0.100023481
H  H259  1  0.73088000  0.33445000  0.82422000  1.0 0.1269102781
H  H260  1  0.85801000  0.37713000  0.80460000  1.0 0.1114587077
H  H261  1  0.24831000  0.22564000  0.95808000  1.0 0.1208112892
H  H262  1  0.11013000  0.26681000  0.96437000  1.0 0.1208112892
H  H263  1  0.18971000  0.32787000  0.86313000  1.0 0.1208112892
H  H264  1  0.32665000  0.28599000  0.85699000  1.0 0.100023481
H  H265  1  0.16345000  0.42551000  0.88489000  1.0 0.1208112892
H  H266  1  0.31072000  0.45636000  0.89884000  1.0 0.1269102781
H  H267  1  0.32742000  0.39700000  0.00546000  1.0 0.1114587077
H  H268  1  0.18519000  0.36147000  0.98909000  1.0 0.1208112892
H  H269  1  0.97180000  0.28152000  0.86330000  1.0 0.1208112892
H  H270  1  0.82878000  0.24260000  0.86336000  1.0 0.1208112892
H  H271  1  0.75979000  0.28571000  0.97390000  1.0 0.1208112892
H  H272  1  0.90090000  0.32557000  0.97375000  1.0 0.1208112892
H  H273  1  0.92668000  0.38734000  0.86999000  1.0 0.1208112892
H  H274  1  0.79579000  0.43185000  0.86991000  1.0 0.1208112892
H  H275  1  0.86524000  0.46826000  0.98333000  1.0 0.1269102781
H  H276  1  0.99841000  0.42386000  0.98362000  1.0 0.1269102781
H  H277  1  0.56441000  0.14957000  0.77315000  1.0 0.0817083812
H  H278  1  0.49225000  0.10063000  0.95125000  1.0 0.100023481
H  H279  1  0.44449000  0.19832000  0.05822000  1.0 0.0914507411
H  H280  1  0.39778000  0.18810000  0.01542000  1.0 0.071769182
H  H281  1  0.47864000  0.22244000  0.01905000  1.0 0.1114587077
H  H282  1  0.55963000  0.14395000  0.12007000  1.0 0.0914507411
H  H283  1  0.45850000  0.15391000  0.09894000  1.0 0.0817083812
H  H284  1  0.53933000  0.18823000  0.10281000  1.0 0.071769182
H  H285  1  0.66890000  0.10365000  0.07830000  1.0 0.071769182
H  H286  1  0.70472000  0.12731000  0.03911000  1.0 0.100023481
H  H287  1  0.62367000  0.09307000  0.03531000  1.0 0.0914507411
H  H288  1  0.45622000  0.24196000  0.77775000  1.0 0.1987457343
H  H289  1  0.39380000  0.22252000  0.80328000  1.0 0.1399250825
H  H290  1  0.37923000  0.20920000  0.81788000  1.0 0.1880451816
H  H291  1  0.39105000  0.23933000  0.79001000  1.0 0.1800018104
H  H292  1  0.47046000  0.17968000  0.07943000  1.0 0.0621511007
H  H293  1  0.39302000  0.16772000  0.04575000  1.0 0.071769182
H  H294  1  0.45064000  0.20946000  0.04247000  1.0 0.0914507411
H  H295  1  0.69992000  0.12594000  0.09612000  1.0 0.0621511007
H  H296  1  0.58647000  0.12560000  0.10544000  1.0 0.0914507411
H  H297  1  0.64331000  0.16756000  0.10250000  1.0 0.100023481
H  H298  1  0.74189000  0.11062000  0.03154000  1.0 0.100023481
H  H299  1  0.71107000  0.14301000  0.99824000  1.0 0.0914507411
H  H300  1  0.65350000  0.10129000  0.00194000  1.0 0.0817083812
H  H301  1  0.59843000  0.49014000  0.36617000  1.0 0.3155071254
H  H302  1  0.57388000  0.47458000  0.32440000  1.0 0.3148089277
H  H303  1  0.71126000  0.05556000  0.30766000  1.0 0.1208112892
H  H304  1  0.85386000  0.09373000  0.30290000  1.0 0.1114587077
H  H305  1  0.93315000  0.03022000  0.20337000  1.0 0.1208112892
H  H306  1  0.78753000  0.99252000  0.20790000  1.0 0.1208112892
H  H307  1  0.07323000  0.20091000  0.21422000  1.0 0.1208112892
H  H308  1  0.20445000  0.24231000  0.23325000  1.0 0.100023481
H  H309  1  0.26912000  0.16555000  0.32422000  1.0 0.1269102781
H  H310  1  0.14199000  0.12287000  0.30460000  1.0 0.1114587077
H  H311  1  0.75169000  0.27436000  0.45808000  1.0 0.1208112892
H  H312  1  0.88987000  0.23319000  0.46437000  1.0 0.1208112892
H  H313  1  0.81029000  0.17213000  0.36313000  1.0 0.1208112892
H  H314  1  0.67335000  0.21401000  0.35699000  1.0 0.100023481
H  H315  1  0.83655000  0.07449000  0.38489000  1.0 0.1208112892
H  H316  1  0.68928000  0.04364000  0.39884000  1.0 0.1269102781
H  H317  1  0.67258000  0.10300000  0.50546000  1.0 0.1114587077
H  H318  1  0.81481000  0.13853000  0.48909000  1.0 0.1208112892
H  H319  1  0.02820000  0.21848000  0.36330000  1.0 0.1208112892
H  H320  1  0.17122000  0.25740000  0.36336000  1.0 0.1208112892
H  H321  1  0.24021000  0.21429000  0.47390000  1.0 0.1208112892
H  H322  1  0.09910000  0.17443000  0.47375000  1.0 0.1208112892
H  H323  1  0.07332000  0.11266000  0.36999000  1.0 0.1208112892
H  H324  1  0.20421000  0.06815000  0.36991000  1.0 0.1208112892
H  H325  1  0.13476000  0.03174000  0.48333000  1.0 0.1269102781
H  H326  1  0.00159000  0.07614000  0.48362000  1.0 0.1269102781
H  H327  1  0.43559000  0.35043000  0.27315000  1.0 0.0817083812
H  H328  1  0.50775000  0.39937000  0.45125000  1.0 0.100023481
H  H329  1  0.55551000  0.30168000  0.55822000  1.0 0.0914507411
H  H330  1  0.60222000  0.31190000  0.51542000  1.0 0.071769182
H  H331  1  0.52136000  0.27756000  0.51905000  1.0 0.1114587077
H  H332  1  0.44037000  0.35605000  0.62007000  1.0 0.0914507411
H  H333  1  0.54150000  0.34609000  0.59894000  1.0 0.0817083812
H  H334  1  0.46067000  0.31177000  0.60281000  1.0 0.071769182
H  H335  1  0.33110000  0.39635000  0.57830000  1.0 0.071769182
H  H336  1  0.29528000  0.37269000  0.53911000  1.0 0.100023481
H  H337  1  0.37633000  0.40693000  0.53531000  1.0 0.0914507411
H  H338  1  0.54378000  0.25804000  0.27775000  1.0 0.1987457343
H  H339  1  0.60620000  0.27748000  0.30328000  1.0 0.1399250825
H  H340  1  0.62077000  0.29080000  0.31788000  1.0 0.1880451816
H  H341  1  0.60895000  0.26067000  0.29001000  1.0 0.1800018104
H  H342  1  0.52954000  0.32032000  0.57943000  1.0 0.0621511007
H  H343  1  0.60698000  0.33228000  0.54575000  1.0 0.071769182
H  H344  1  0.54936000  0.29054000  0.54247000  1.0 0.0914507411
H  H345  1  0.30008000  0.37406000  0.59612000  1.0 0.0621511007
H  H346  1  0.41353000  0.37440000  0.60544000  1.0 0.0914507411
H  H347  1  0.35669000  0.33244000  0.60250000  1.0 0.100023481
H  H348  1  0.25811000  0.38938000  0.53154000  1.0 0.100023481
H  H349  1  0.28893000  0.35699000  0.49824000  1.0 0.0914507411
H  H350  1  0.34650000  0.39871000  0.50194000  1.0 0.0817083812
H  H351  1  0.40157000  0.49014000  0.13383000  1.0 0.3155071254
H  H352  1  0.42612000  0.47458000  0.17560000  1.0 0.3148089277
H  H353  1  0.28874000  0.05556000  0.19234000  1.0 0.1208112892
H  H354  1  0.14614000  0.09373000  0.19710000  1.0 0.1114587077
H  H355  1  0.06685000  0.03022000  0.29663000  1.0 0.1208112892
H  H356  1  0.21247000  0.99252000  0.29210000  1.0 0.1208112892
H  H357  1  0.92677000  0.20091000  0.28578000  1.0 0.1208112892
H  H358  1  0.79555000  0.24231000  0.26675000  1.0 0.100023481
H  H359  1  0.73088000  0.16555000  0.17578000  1.0 0.1269102781
H  H360  1  0.85801000  0.12287000  0.19540000  1.0 0.1114587077
H  H361  1  0.24831000  0.27436000  0.04192000  1.0 0.1208112892
H  H362  1  0.11013000  0.23319000  0.03563000  1.0 0.1208112892
H  H363  1  0.18971000  0.17213000  0.13687000  1.0 0.1208112892
H  H364  1  0.32665000  0.21401000  0.14301000  1.0 0.100023481
H  H365  1  0.16345000  0.07449000  0.11511000  1.0 0.1208112892
H  H366  1  0.31072000  0.04364000  0.10116000  1.0 0.1269102781
H  H367  1  0.32742000  0.10300000  0.99454000  1.0 0.1114587077
H  H368  1  0.18519000  0.13853000  0.01091000  1.0 0.1208112892
H  H369  1  0.97180000  0.21848000  0.13670000  1.0 0.1208112892
H  H370  1  0.82878000  0.25740000  0.13664000  1.0 0.1208112892
H  H371  1  0.75979000  0.21429000  0.02610000  1.0 0.1208112892
H  H372  1  0.90090000  0.17443000  0.02625000  1.0 0.1208112892
H  H373  1  0.92668000  0.11266000  0.13001000  1.0 0.1208112892
H  H374  1  0.79579000  0.06815000  0.13009000  1.0 0.1208112892
H  H375  1  0.86524000  0.03174000  0.01667000  1.0 0.1269102781
H  H376  1  0.99841000  0.07614000  0.01638000  1.0 0.1269102781
H  H377  1  0.56441000  0.35043000  0.22685000  1.0 0.0817083812
H  H378  1  0.49225000  0.39937000  0.04875000  1.0 0.100023481
H  H379  1  0.44449000  0.30168000  0.94178000  1.0 0.0914507411
H  H380  1  0.39778000  0.31190000  0.98458000  1.0 0.071769182
H  H381  1  0.47864000  0.27756000  0.98095000  1.0 0.1114587077
H  H382  1  0.55963000  0.35605000  0.87993000  1.0 0.0914507411
H  H383  1  0.45850000  0.34609000  0.90106000  1.0 0.0817083812
H  H384  1  0.53933000  0.31177000  0.89719000  1.0 0.071769182
H  H385  1  0.66890000  0.39635000  0.92170000  1.0 0.071769182
H  H386  1  0.70472000  0.37269000  0.96089000  1.0 0.100023481
H  H387  1  0.62367000  0.40693000  0.96469000  1.0 0.0914507411
H  H388  1  0.45622000  0.25804000  0.22225000  1.0 0.1987457343
H  H389  1  0.39380000  0.27748000  0.19672000  1.0 0.1399250825
H  H390  1  0.37923000  0.29080000  0.18212000  1.0 0.1880451816
H  H391  1  0.39105000  0.26067000  0.20999000  1.0 0.1800018104
H  H392  1  0.47046000  0.32032000  0.92057000  1.0 0.0621511007
H  H393  1  0.39302000  0.33228000  0.95425000  1.0 0.071769182
H  H394  1  0.45064000  0.29054000  0.95753000  1.0 0.0914507411
H  H395  1  0.69992000  0.37406000  0.90388000  1.0 0.0621511007
H  H396  1  0.58647000  0.37440000  0.89456000  1.0 0.0914507411
H  H397  1  0.64331000  0.33244000  0.89750000  1.0 0.100023481
H  H398  1  0.74189000  0.38938000  0.96846000  1.0 0.100023481
H  H399  1  0.71107000  0.35699000  0.00176000  1.0 0.0914507411
H  H400  1  0.65350000  0.39871000  0.99806000  1.0 0.0817083812
C  C1  1  0.35750000  0.49470000  0.26280000  1.0 0.5595619719
C  C2  1  0.26440000  0.51978000  0.25822000  1.0 -0.01928835
C  C3  1  0.24440000  0.55040000  0.28650000  1.0 -0.0991003614
C  C4  1  0.15910000  0.57340000  0.28350000  1.0 -0.159803332
C  C5  1  0.09340000  0.56683000  0.25239000  1.0 0.0817083812
C  C6  1  0.11190000  0.53575000  0.22420000  1.0 -0.159803332
C  C7  1  0.19900000  0.51281000  0.22730000  1.0 -0.0923306252
C  C8  1  0.90940000  0.65803000  0.25828000  1.0 0.071769182
C  C9  1  0.88830000  0.69366000  0.23670000  1.0 -0.159803332
C  C10  1  0.80980000  0.71870000  0.24840000  1.0 -0.1094957321
C  C11  1  0.75350000  0.70910000  0.28170000  1.0 -0.0037017857
C  C12  1  0.77100000  0.67300000  0.30230000  1.0 -0.1094957321
C  C13  1  0.84760000  0.64750000  0.29061000  1.0 -0.1509615557
C  C14  1  0.67430000  0.73840000  0.29880000  1.0 0.5073711888
C  C15  1  0.39890000  0.76995000  0.40700000  1.0 0.504678827
C  C16  1  0.30400000  0.74670000  0.40814000  1.0 -0.0307085449
C  C17  1  0.23750000  0.75320000  0.43930000  1.0 -0.1285772489
C  C18  1  0.15440000  0.72850000  0.44310000  1.0 -0.1509615557
C  C19  1  0.13670000  0.69704000  0.41533000  1.0 0.071769182
C  C20  1  0.20170000  0.69229000  0.38279000  1.0 -0.1677126649
C  C21  1  0.28430000  0.71730000  0.37920000  1.0 -0.1509615557
C  C22  1  0.04920000  0.67033000  0.42042000  1.0 -0.01928835
C  C23  1  0.06040000  0.62973000  0.42708000  1.0 -0.0307085449
C  C24  1  0.15760000  0.61029000  0.43544000  1.0 0.071769182
C  C25  1  0.19680000  0.58100000  0.40900000  1.0 -0.1509615557
C  C26  1  0.28350000  0.56169000  0.41789000  1.0 -0.0923306252
C  C27  1  0.33160000  0.56833000  0.45441000  1.0 -0.0351107211
C  C28  1  0.29480000  0.59744000  0.48098000  1.0 -0.1392667002
C  C29  1  0.20880000  0.61850000  0.47120000  1.0 -0.159803332
C  C30  1  0.42190000  0.54390000  0.46551000  1.0 0.5595619719
C  C31  1  0.95210000  0.69232000  0.41860000  1.0 0.071769182
C  C32  1  0.92960000  0.71740000  0.38580000  1.0 -0.159803332
C  C33  1  0.84390000  0.74120000  0.38600000  1.0 -0.0923306252
C  C34  1  0.78200000  0.74098000  0.41900000  1.0 -0.0095203153
C  C35  1  0.80270000  0.71540000  0.45170000  1.0 -0.1775180772
C  C36  1  0.88740000  0.69140000  0.45150000  1.0 -0.1775180772
C  C37  1  0.69550000  0.76940000  0.41940000  1.0 0.504678827
C  C38  1  0.97550000  0.60047000  0.42720000  1.0 0.0817083812
C  C39  1  0.91420000  0.59680000  0.39310000  1.0 -0.1677126649
C  C40  1  0.83570000  0.57020000  0.39300000  1.0 -0.1392667002
C  C41  1  0.81570000  0.54620000  0.42730000  1.0 -0.0491610926
C  C42  1  0.87720000  0.54840000  0.46060000  1.0 -0.1094957321
C  C43  1  0.95700000  0.57510000  0.46090000  1.0 -0.159803332
C  C44  1  0.72320000  0.52160000  0.42860000  1.0 0.532722872
C  C45  1  0.54990000  0.86330000  0.29792000  1.0 0.1712621602
C  C46  1  0.50890000  0.90876000  0.34150000  1.0 -0.0307085449
C  C47  1  0.47570000  0.94275000  0.36452000  1.0 0.3895893211
C  C48  1  0.49600000  0.90127000  0.42282000  1.0 0.2088105122
C  C49  1  0.53110000  0.87288000  0.36157000  1.0 0.2899154837
C  C50  1  0.53550000  0.83490000  0.52110000  1.0 0.1987457343
C  C51  1  0.45712000  0.80378000  0.52932000  1.0 -0.2416892384
C  C52  1  0.52810000  0.84070000  0.59860000  1.0 -0.2460755909
C  C53  1  0.64900000  0.88520000  0.55230000  1.0 0.0116274134
C  C54  1  0.53250000  0.83940000  0.52710000  1.0 0.1399250825
C  C55  1  0.45500000  0.81890000  0.55070000  1.0 -0.2025319223
C  C56  1  0.63900000  0.85990000  0.59170000  1.0 -0.0991003614
C  C57  1  0.68730000  0.87750000  0.51700000  1.0 -0.3146342223
C  C58  1  0.64250000  0.49470000  0.23720000  1.0 0.5595619719
C  C59  1  0.73560000  0.51978000  0.24178000  1.0 -0.01928835
C  C60  1  0.75560000  0.55040000  0.21350000  1.0 -0.0991003614
C  C61  1  0.84090000  0.57340000  0.21650000  1.0 -0.159803332
C  C62  1  0.90660000  0.56683000  0.24761000  1.0 0.0817083812
C  C63  1  0.88810000  0.53575000  0.27580000  1.0 -0.159803332
C  C64  1  0.80100000  0.51281000  0.27270000  1.0 -0.0923306252
C  C65  1  0.09060000  0.65803000  0.24172000  1.0 0.071769182
C  C66  1  0.11170000  0.69366000  0.26330000  1.0 -0.159803332
C  C67  1  0.19020000  0.71870000  0.25160000  1.0 -0.1094957321
C  C68  1  0.24650000  0.70910000  0.21830000  1.0 -0.0037017857
C  C69  1  0.22900000  0.67300000  0.19770000  1.0 -0.1094957321
C  C70  1  0.15240000  0.64750000  0.20939000  1.0 -0.1509615557
C  C71  1  0.32570000  0.73840000  0.20120000  1.0 0.5073711888
C  C72  1  0.60110000  0.76995000  0.09300000  1.0 0.504678827
C  C73  1  0.69600000  0.74670000  0.09186000  1.0 -0.0351107211
C  C74  1  0.76250000  0.75320000  0.06070000  1.0 -0.1285772489
C  C75  1  0.84560000  0.72850000  0.05690000  1.0 -0.1509615557
C  C76  1  0.86330000  0.69704000  0.08467000  1.0 0.071769182
C  C77  1  0.79830000  0.69229000  0.11721000  1.0 -0.1677126649
C  C78  1  0.71570000  0.71730000  0.12080000  1.0 -0.1509615557
C  C79  1  0.95080000  0.67033000  0.07958000  1.0 -0.01928835
C  C80  1  0.93960000  0.62973000  0.07292000  1.0 -0.0307085449
C  C81  1  0.84240000  0.61029000  0.06456000  1.0 0.071769182
C  C82  1  0.80320000  0.58100000  0.09100000  1.0 -0.1509615557
C  C83  1  0.71650000  0.56169000  0.08211000  1.0 -0.0991003614
C  C84  1  0.66840000  0.56833000  0.04559000  1.0 -0.0351107211
C  C85  1  0.70520000  0.59744000  0.01902000  1.0 -0.1392667002
C  C86  1  0.79120000  0.61850000  0.02880000  1.0 -0.159803332
C  C87  1  0.57810000  0.54390000  0.03449000  1.0 0.5595619719
C  C88  1  0.04790000  0.69232000  0.08140000  1.0 0.071769182
C  C89  1  0.07040000  0.71740000  0.11420000  1.0 -0.159803332
C  C90  1  0.15610000  0.74120000  0.11400000  1.0 -0.0923306252
C  C91  1  0.21800000  0.74098000  0.08100000  1.0 -0.0095203153
C  C92  1  0.19730000  0.71540000  0.04830000  1.0 -0.1775180772
C  C93  1  0.11260000  0.69140000  0.04850000  1.0 -0.1775180772
C  C94  1  0.30450000  0.76940000  0.08060000  1.0 0.504678827
C  C95  1  0.02450000  0.60047000  0.07280000  1.0 0.0817083812
C  C96  1  0.08580000  0.59680000  0.10690000  1.0 -0.1677126649
C  C97  1  0.16430000  0.57020000  0.10700000  1.0 -0.1392667002
C  C98  1  0.18430000  0.54620000  0.07270000  1.0 -0.0491610926
C  C99  1  0.12280000  0.54840000  0.03940000  1.0 -0.1094957321
C  C100  1  0.04300000  0.57510000  0.03910000  1.0 -0.159803332
C  C101  1  0.27680000  0.52160000  0.07140000  1.0 0.532722872
C  C102  1  0.45010000  0.86330000  0.20208000  1.0 0.1712621602
C  C103  1  0.49110000  0.90876000  0.15850000  1.0 -0.0307085449
C  C104  1  0.52430000  0.94275000  0.13548000  1.0 0.3895893211
C  C105  1  0.50400000  0.90127000  0.07718000  1.0 0.2088105122
C  C106  1  0.46890000  0.87288000  0.13843000  1.0 0.2899154837
C  C107  1  0.46450000  0.83490000  0.97890000  1.0 0.1987457343
C  C108  1  0.54288000  0.80378000  0.97068000  1.0 -0.2416892384
C  C109  1  0.47190000  0.84070000  0.90140000  1.0 -0.2460755909
C  C110  1  0.35100000  0.88520000  0.94770000  1.0 0.0116274134
C  C111  1  0.46750000  0.83940000  0.97290000  1.0 0.1399250825
C  C112  1  0.54500000  0.81890000  0.94930000  1.0 -0.2025319223
C  C113  1  0.36100000  0.85990000  0.90830000  1.0 -0.0991003614
C  C114  1  0.31270000  0.87750000  0.98300000  1.0 -0.3146342223
C  C115  1  0.35750000  0.00530000  0.73720000  1.0 0.5595619719
C  C116  1  0.26440000  0.98022000  0.74178000  1.0 -0.01928835
C  C117  1  0.24440000  0.94960000  0.71350000  1.0 -0.0991003614
C  C118  1  0.15910000  0.92660000  0.71650000  1.0 -0.159803332
C  C119  1  0.09340000  0.93317000  0.74761000  1.0 0.0817083812
C  C120  1  0.11190000  0.96425000  0.77580000  1.0 -0.159803332
C  C121  1  0.19900000  0.98719000  0.77270000  1.0 -0.0923306252
C  C122  1  0.90940000  0.84197000  0.74172000  1.0 0.071769182
C  C123  1  0.88830000  0.80634000  0.76330000  1.0 -0.159803332
C  C124  1  0.80980000  0.78130000  0.75160000  1.0 -0.1094957321
C  C125  1  0.75350000  0.79090000  0.71830000  1.0 -0.0037017857
C  C126  1  0.77100000  0.82700000  0.69770000  1.0 -0.1094957321
C  C127  1  0.84760000  0.85250000  0.70939000  1.0 -0.1509615557
C  C128  1  0.67430000  0.76160000  0.70120000  1.0 0.5073711888
C  C129  1  0.39890000  0.73005000  0.59300000  1.0 0.504678827
C  C130  1  0.30400000  0.75330000  0.59186000  1.0 -0.0351107211
C  C131  1  0.23750000  0.74680000  0.56070000  1.0 -0.1285772489
C  C132  1  0.15440000  0.77150000  0.55690000  1.0 -0.1509615557
C  C133  1  0.13670000  0.80296000  0.58467000  1.0 0.071769182
C  C134  1  0.20170000  0.80771000  0.61721000  1.0 -0.1677126649
C  C135  1  0.28430000  0.78270000  0.62080000  1.0 -0.1509615557
C  C136  1  0.04920000  0.82967000  0.57958000  1.0 -0.01928835
C  C137  1  0.06040000  0.87027000  0.57292000  1.0 -0.0307085449
C  C138  1  0.15760000  0.88971000  0.56456000  1.0 0.071769182
C  C139  1  0.19680000  0.91900000  0.59100000  1.0 -0.1509615557
C  C140  1  0.28350000  0.93831000  0.58211000  1.0 -0.0923306252
C  C141  1  0.33160000  0.93167000  0.54559000  1.0 -0.0351107211
C  C142  1  0.29480000  0.90256000  0.51902000  1.0 -0.1392667002
C  C143  1  0.20880000  0.88150000  0.52880000  1.0 -0.159803332
C  C144  1  0.42190000  0.95610000  0.53449000  1.0 0.5595619719
C  C145  1  0.95210000  0.80768000  0.58140000  1.0 0.071769182
C  C146  1  0.92960000  0.78260000  0.61420000  1.0 -0.159803332
C  C147  1  0.84390000  0.75880000  0.61400000  1.0 -0.0923306252
C  C148  1  0.78200000  0.75902000  0.58100000  1.0 -0.0095203153
C  C149  1  0.80270000  0.78460000  0.54830000  1.0 -0.1775180772
C  C150  1  0.88740000  0.80860000  0.54850000  1.0 -0.1775180772
C  C151  1  0.69550000  0.73060000  0.58060000  1.0 0.5073711888
C  C152  1  0.97550000  0.89953000  0.57280000  1.0 0.0817083812
C  C153  1  0.91420000  0.90320000  0.60690000  1.0 -0.1677126649
C  C154  1  0.83570000  0.92980000  0.60700000  1.0 -0.1392667002
C  C155  1  0.81570000  0.95380000  0.57270000  1.0 -0.0491610926
C  C156  1  0.87720000  0.95160000  0.53940000  1.0 -0.1094957321
C  C157  1  0.95700000  0.92490000  0.53910000  1.0 -0.159803332
C  C158  1  0.72320000  0.97840000  0.57140000  1.0 0.532722872
C  C159  1  0.54990000  0.63670000  0.70208000  1.0 0.1712621602
C  C160  1  0.50890000  0.59124000  0.65850000  1.0 -0.0307085449
C  C161  1  0.47570000  0.55725000  0.63548000  1.0 0.3895893211
C  C162  1  0.49600000  0.59873000  0.57718000  1.0 0.2088105122
C  C163  1  0.53110000  0.62712000  0.63843000  1.0 0.2899154837
C  C164  1  0.53550000  0.66510000  0.47890000  1.0 0.1987457343
C  C165  1  0.45712000  0.69622000  0.47068000  1.0 -0.2416892384
C  C166  1  0.52810000  0.65930000  0.40140000  1.0 -0.2460755909
C  C167  1  0.64900000  0.61480000  0.44770000  1.0 0.0116274134
C  C168  1  0.53250000  0.66060000  0.47290000  1.0 0.1399250825
C  C169  1  0.45500000  0.68110000  0.44930000  1.0 -0.2025319223
C  C170  1  0.63900000  0.64010000  0.40830000  1.0 -0.0991003614
C  C171  1  0.68730000  0.62250000  0.48300000  1.0 -0.3146342223
C  C172  1  0.64250000  0.00530000  0.76280000  1.0 0.5595619719
C  C173  1  0.73560000  0.98022000  0.75822000  1.0 -0.01928835
C  C174  1  0.75560000  0.94960000  0.78650000  1.0 -0.0991003614
C  C175  1  0.84090000  0.92660000  0.78350000  1.0 -0.159803332
C  C176  1  0.90660000  0.93317000  0.75239000  1.0 0.0817083812
C  C177  1  0.88810000  0.96425000  0.72420000  1.0 -0.159803332
C  C178  1  0.80100000  0.98719000  0.72730000  1.0 -0.0923306252
C  C179  1  0.09060000  0.84197000  0.75828000  1.0 0.071769182
C  C180  1  0.11170000  0.80634000  0.73670000  1.0 -0.159803332
C  C181  1  0.19020000  0.78130000  0.74840000  1.0 -0.1094957321
C  C182  1  0.24650000  0.79090000  0.78170000  1.0 -0.0037017857
C  C183  1  0.22900000  0.82700000  0.80230000  1.0 -0.1094957321
C  C184  1  0.15240000  0.85250000  0.79061000  1.0 -0.1509615557
C  C185  1  0.32570000  0.76160000  0.79880000  1.0 0.5073711888
C  C186  1  0.60110000  0.73005000  0.90700000  1.0 0.504678827
C  C187  1  0.69600000  0.75330000  0.90814000  1.0 -0.0307085449
C  C188  1  0.76250000  0.74680000  0.93930000  1.0 -0.1285772489
C  C189  1  0.84560000  0.77150000  0.94310000  1.0 -0.1509615557
C  C190  1  0.86330000  0.80296000  0.91533000  1.0 0.071769182
C  C191  1  0.79830000  0.80771000  0.88279000  1.0 -0.1677126649
C  C192  1  0.71570000  0.78270000  0.87920000  1.0 -0.1509615557
C  C193  1  0.95080000  0.82967000  0.92042000  1.0 -0.01928835
C  C194  1  0.93960000  0.87027000  0.92708000  1.0 -0.0307085449
C  C195  1  0.84240000  0.88971000  0.93544000  1.0 0.071769182
C  C196  1  0.80320000  0.91900000  0.90900000  1.0 -0.1509615557
C  C197  1  0.71650000  0.93831000  0.91789000  1.0 -0.0923306252
C  C198  1  0.66840000  0.93167000  0.95441000  1.0 -0.0351107211
C  C199  1  0.70520000  0.90256000  0.98098000  1.0 -0.1392667002
C  C200  1  0.79120000  0.88150000  0.97120000  1.0 -0.159803332
C  C201  1  0.57810000  0.95610000  0.96551000  1.0 0.5595619719
C  C202  1  0.04790000  0.80768000  0.91860000  1.0 0.071769182
C  C203  1  0.07040000  0.78260000  0.88580000  1.0 -0.159803332
C  C204  1  0.15610000  0.75880000  0.88600000  1.0 -0.0923306252
C  C205  1  0.21800000  0.75902000  0.91900000  1.0 -0.0095203153
C  C206  1  0.19730000  0.78460000  0.95170000  1.0 -0.1775180772
C  C207  1  0.11260000  0.80860000  0.95150000  1.0 -0.1775180772
C  C208  1  0.30450000  0.73060000  0.91940000  1.0 0.504678827
C  C209  1  0.02450000  0.89953000  0.92720000  1.0 0.0817083812
C  C210  1  0.08580000  0.90320000  0.89310000  1.0 -0.1677126649
C  C211  1  0.16430000  0.92980000  0.89300000  1.0 -0.1392667002
C  C212  1  0.18430000  0.95380000  0.92730000  1.0 -0.0491610926
C  C213  1  0.12280000  0.95160000  0.96060000  1.0 -0.1094957321
C  C214  1  0.04300000  0.92490000  0.96090000  1.0 -0.159803332
C  C215  1  0.27680000  0.97840000  0.92860000  1.0 0.532722872
C  C216  1  0.45010000  0.63670000  0.79792000  1.0 0.1712621602
C  C217  1  0.49110000  0.59124000  0.84150000  1.0 -0.0307085449
C  C218  1  0.52430000  0.55725000  0.86452000  1.0 0.3895893211
C  C219  1  0.50400000  0.59873000  0.92282000  1.0 0.2088105122
C  C220  1  0.46890000  0.62712000  0.86157000  1.0 0.2899154837
C  C221  1  0.46450000  0.66510000  0.02110000  1.0 0.1987457343
C  C222  1  0.54288000  0.69622000  0.02932000  1.0 -0.2416892384
C  C223  1  0.47190000  0.65930000  0.09860000  1.0 -0.2460755909
C  C224  1  0.35100000  0.61480000  0.05230000  1.0 0.0116274134
C  C225  1  0.46750000  0.66060000  0.02710000  1.0 0.1399250825
C  C226  1  0.54500000  0.68110000  0.05070000  1.0 -0.2025319223
C  C227  1  0.36100000  0.64010000  0.09170000  1.0 -0.0991003614
C  C228  1  0.31270000  0.62250000  0.01700000  1.0 -0.3146342223
C  C229  1  0.64250000  0.50530000  0.73720000  1.0 0.5595619719
C  C230  1  0.73560000  0.48022000  0.74178000  1.0 -0.01928835
C  C231  1  0.75560000  0.44960000  0.71350000  1.0 -0.0991003614
C  C232  1  0.84090000  0.42660000  0.71650000  1.0 -0.159803332
C  C233  1  0.90660000  0.43317000  0.74761000  1.0 0.0817083812
C  C234  1  0.88810000  0.46425000  0.77580000  1.0 -0.159803332
C  C235  1  0.80100000  0.48719000  0.77270000  1.0 -0.0923306252
C  C236  1  0.09060000  0.34197000  0.74172000  1.0 0.071769182
C  C237  1  0.11170000  0.30634000  0.76330000  1.0 -0.159803332
C  C238  1  0.19020000  0.28130000  0.75160000  1.0 -0.1094957321
C  C239  1  0.24650000  0.29090000  0.71830000  1.0 -0.0037017857
C  C240  1  0.22900000  0.32700000  0.69770000  1.0 -0.1094957321
C  C241  1  0.15240000  0.35250000  0.70939000  1.0 -0.1509615557
C  C242  1  0.32570000  0.26160000  0.70120000  1.0 0.5073711888
C  C243  1  0.60110000  0.23005000  0.59300000  1.0 0.504678827
C  C244  1  0.69600000  0.25330000  0.59186000  1.0 -0.0351107211
C  C245  1  0.76250000  0.24680000  0.56070000  1.0 -0.1285772489
C  C246  1  0.84560000  0.27150000  0.55690000  1.0 -0.1509615557
C  C247  1  0.86330000  0.30296000  0.58467000  1.0 0.071769182
C  C248  1  0.79830000  0.30771000  0.61721000  1.0 -0.1677126649
C  C249  1  0.71570000  0.28270000  0.62080000  1.0 -0.1509615557
C  C250  1  0.95080000  0.32967000  0.57958000  1.0 -0.01928835
C  C251  1  0.93960000  0.37027000  0.57292000  1.0 -0.0307085449
C  C252  1  0.84240000  0.38971000  0.56456000  1.0 0.071769182
C  C253  1  0.80320000  0.41900000  0.59100000  1.0 -0.1509615557
C  C254  1  0.71650000  0.43831000  0.58211000  1.0 -0.0991003614
C  C255  1  0.66840000  0.43167000  0.54559000  1.0 -0.0307085449
C  C256  1  0.70520000  0.40256000  0.51902000  1.0 -0.1392667002
C  C257  1  0.79120000  0.38150000  0.52880000  1.0 -0.159803332
C  C258  1  0.57810000  0.45610000  0.53449000  1.0 0.5595619719
C  C259  1  0.04790000  0.30768000  0.58140000  1.0 0.071769182
C  C260  1  0.07040000  0.28260000  0.61420000  1.0 -0.159803332
C  C261  1  0.15610000  0.25880000  0.61400000  1.0 -0.0923306252
C  C262  1  0.21800000  0.25902000  0.58100000  1.0 -0.0095203153
C  C263  1  0.19730000  0.28460000  0.54830000  1.0 -0.1775180772
C  C264  1  0.11260000  0.30860000  0.54850000  1.0 -0.1775180772
C  C265  1  0.30450000  0.23060000  0.58060000  1.0 0.504678827
C  C266  1  0.02450000  0.39953000  0.57280000  1.0 0.0817083812
C  C267  1  0.08580000  0.40320000  0.60690000  1.0 -0.1677126649
C  C268  1  0.16430000  0.42980000  0.60700000  1.0 -0.1392667002
C  C269  1  0.18430000  0.45380000  0.57270000  1.0 -0.0491610926
C  C270  1  0.12280000  0.45160000  0.53940000  1.0 -0.1094957321
C  C271  1  0.04300000  0.42490000  0.53910000  1.0 -0.159803332
C  C272  1  0.27680000  0.47840000  0.57140000  1.0 0.532722872
C  C273  1  0.45010000  0.13670000  0.70208000  1.0 0.1712621602
C  C274  1  0.49110000  0.09124000  0.65850000  1.0 -0.0307085449
C  C275  1  0.52430000  0.05725000  0.63548000  1.0 0.3895893211
C  C276  1  0.50400000  0.09873000  0.57718000  1.0 0.2088105122
C  C277  1  0.46890000  0.12712000  0.63843000  1.0 0.2899154837
C  C278  1  0.46450000  0.16510000  0.47890000  1.0 0.1987457343
C  C279  1  0.54288000  0.19622000  0.47068000  1.0 -0.2416892384
C  C280  1  0.47190000  0.15930000  0.40140000  1.0 -0.2460755909
C  C281  1  0.35100000  0.11480000  0.44770000  1.0 0.0116274134
C  C282  1  0.46750000  0.16060000  0.47290000  1.0 0.1399250825
C  C283  1  0.54500000  0.18110000  0.44930000  1.0 -0.2025319223
C  C284  1  0.36100000  0.14010000  0.40830000  1.0 -0.0991003614
C  C285  1  0.31270000  0.12250000  0.48300000  1.0 -0.3211575513
C  C286  1  0.35750000  0.50530000  0.76280000  1.0 0.5595619719
C  C287  1  0.26440000  0.48022000  0.75822000  1.0 -0.01928835
C  C288  1  0.24440000  0.44960000  0.78650000  1.0 -0.0991003614
C  C289  1  0.15910000  0.42660000  0.78350000  1.0 -0.159803332
C  C290  1  0.09340000  0.43317000  0.75239000  1.0 0.0817083812
C  C291  1  0.11190000  0.46425000  0.72420000  1.0 -0.159803332
C  C292  1  0.19900000  0.48719000  0.72730000  1.0 -0.0923306252
C  C293  1  0.90940000  0.34197000  0.75828000  1.0 0.071769182
C  C294  1  0.88830000  0.30634000  0.73670000  1.0 -0.159803332
C  C295  1  0.80980000  0.28130000  0.74840000  1.0 -0.1094957321
C  C296  1  0.75350000  0.29090000  0.78170000  1.0 -0.0037017857
C  C297  1  0.77100000  0.32700000  0.80230000  1.0 -0.1094957321
C  C298  1  0.84760000  0.35250000  0.79061000  1.0 -0.1509615557
C  C299  1  0.67430000  0.26160000  0.79880000  1.0 0.5073711888
C  C300  1  0.39890000  0.23005000  0.90700000  1.0 0.504678827
C  C301  1  0.30400000  0.25330000  0.90814000  1.0 -0.0307085449
C  C302  1  0.23750000  0.24680000  0.93930000  1.0 -0.1285772489
C  C303  1  0.15440000  0.27150000  0.94310000  1.0 -0.1509615557
C  C304  1  0.13670000  0.30296000  0.91533000  1.0 0.071769182
C  C305  1  0.20170000  0.30771000  0.88279000  1.0 -0.1677126649
C  C306  1  0.28430000  0.28270000  0.87920000  1.0 -0.1509615557
C  C307  1  0.04920000  0.32967000  0.92042000  1.0 -0.01928835
C  C308  1  0.06040000  0.37027000  0.92708000  1.0 -0.0307085449
C  C309  1  0.15760000  0.38971000  0.93544000  1.0 0.071769182
C  C310  1  0.19680000  0.41900000  0.90900000  1.0 -0.1509615557
C  C311  1  0.28350000  0.43831000  0.91789000  1.0 -0.0923306252
C  C312  1  0.33160000  0.43167000  0.95441000  1.0 -0.0351107211
C  C313  1  0.29480000  0.40256000  0.98098000  1.0 -0.1392667002
C  C314  1  0.20880000  0.38150000  0.97120000  1.0 -0.159803332
C  C315  1  0.42190000  0.45610000  0.96551000  1.0 0.5595619719
C  C316  1  0.95210000  0.30768000  0.91860000  1.0 0.071769182
C  C317  1  0.92960000  0.28260000  0.88580000  1.0 -0.159803332
C  C318  1  0.84390000  0.25880000  0.88600000  1.0 -0.0923306252
C  C319  1  0.78200000  0.25902000  0.91900000  1.0 -0.0095203153
C  C320  1  0.80270000  0.28460000  0.95170000  1.0 -0.1775180772
C  C321  1  0.88740000  0.30860000  0.95150000  1.0 -0.1775180772
C  C322  1  0.69550000  0.23060000  0.91940000  1.0 0.504678827
C  C323  1  0.97550000  0.39953000  0.92720000  1.0 0.0817083812
C  C324  1  0.91420000  0.40320000  0.89310000  1.0 -0.1677126649
C  C325  1  0.83570000  0.42980000  0.89300000  1.0 -0.1392667002
C  C326  1  0.81570000  0.45380000  0.92730000  1.0 -0.0491610926
C  C327  1  0.87720000  0.45160000  0.96060000  1.0 -0.1094957321
C  C328  1  0.95700000  0.42490000  0.96090000  1.0 -0.159803332
C  C329  1  0.72320000  0.47840000  0.92860000  1.0 0.532722872
C  C330  1  0.54990000  0.13670000  0.79792000  1.0 0.1712621602
C  C331  1  0.50890000  0.09124000  0.84150000  1.0 -0.0307085449
C  C332  1  0.47570000  0.05725000  0.86452000  1.0 0.3895893211
C  C333  1  0.49600000  0.09873000  0.92282000  1.0 0.2088105122
C  C334  1  0.53110000  0.12712000  0.86157000  1.0 0.2899154837
C  C335  1  0.53550000  0.16510000  0.02110000  1.0 0.1987457343
C  C336  1  0.45712000  0.19622000  0.02932000  1.0 -0.2416892384
C  C337  1  0.52810000  0.15930000  0.09860000  1.0 -0.2460755909
C  C338  1  0.64900000  0.11480000  0.05230000  1.0 0.0116274134
C  C339  1  0.53250000  0.16060000  0.02710000  1.0 0.1399250825
C  C340  1  0.45500000  0.18110000  0.05070000  1.0 -0.2025319223
C  C341  1  0.63900000  0.14010000  0.09170000  1.0 -0.0991003614
C  C342  1  0.68730000  0.12250000  0.01700000  1.0 -0.3146342223
C  C343  1  0.64250000  0.99470000  0.26280000  1.0 0.5595619719
C  C344  1  0.73560000  0.01978000  0.25822000  1.0 -0.01928835
C  C345  1  0.75560000  0.05040000  0.28650000  1.0 -0.0991003614
C  C346  1  0.84090000  0.07340000  0.28350000  1.0 -0.159803332
C  C347  1  0.90660000  0.06683000  0.25239000  1.0 0.0817083812
C  C348  1  0.88810000  0.03575000  0.22420000  1.0 -0.159803332
C  C349  1  0.80100000  0.01281000  0.22730000  1.0 -0.0923306252
C  C350  1  0.09060000  0.15803000  0.25828000  1.0 0.071769182
C  C351  1  0.11170000  0.19366000  0.23670000  1.0 -0.159803332
C  C352  1  0.19020000  0.21870000  0.24840000  1.0 -0.1094957321
C  C353  1  0.24650000  0.20910000  0.28170000  1.0 -0.0037017857
C  C354  1  0.22900000  0.17300000  0.30230000  1.0 -0.1094957321
C  C355  1  0.15240000  0.14750000  0.29061000  1.0 -0.1509615557
C  C356  1  0.32570000  0.23840000  0.29880000  1.0 0.5073711888
C  C357  1  0.60110000  0.26995000  0.40700000  1.0 0.504678827
C  C358  1  0.69600000  0.24670000  0.40814000  1.0 -0.0307085449
C  C359  1  0.76250000  0.25320000  0.43930000  1.0 -0.1285772489
C  C360  1  0.84560000  0.22850000  0.44310000  1.0 -0.1509615557
C  C361  1  0.86330000  0.19704000  0.41533000  1.0 0.071769182
C  C362  1  0.79830000  0.19229000  0.38279000  1.0 -0.1677126649
C  C363  1  0.71570000  0.21730000  0.37920000  1.0 -0.1509615557
C  C364  1  0.95080000  0.17033000  0.42042000  1.0 -0.01928835
C  C365  1  0.93960000  0.12973000  0.42708000  1.0 -0.0307085449
C  C366  1  0.84240000  0.11029000  0.43544000  1.0 0.071769182
C  C367  1  0.80320000  0.08100000  0.40900000  1.0 -0.1509615557
C  C368  1  0.71650000  0.06169000  0.41789000  1.0 -0.0923306252
C  C369  1  0.66840000  0.06833000  0.45441000  1.0 -0.0307085449
C  C370  1  0.70520000  0.09744000  0.48098000  1.0 -0.1392667002
C  C371  1  0.79120000  0.11850000  0.47120000  1.0 -0.159803332
C  C372  1  0.57810000  0.04390000  0.46551000  1.0 0.5595619719
C  C373  1  0.04790000  0.19232000  0.41860000  1.0 0.071769182
C  C374  1  0.07040000  0.21740000  0.38580000  1.0 -0.159803332
C  C375  1  0.15610000  0.24120000  0.38600000  1.0 -0.0923306252
C  C376  1  0.21800000  0.24098000  0.41900000  1.0 -0.0095203153
C  C377  1  0.19730000  0.21540000  0.45170000  1.0 -0.1775180772
C  C378  1  0.11260000  0.19140000  0.45150000  1.0 -0.1775180772
C  C379  1  0.30450000  0.26940000  0.41940000  1.0 0.504678827
C  C380  1  0.02450000  0.10047000  0.42720000  1.0 0.0817083812
C  C381  1  0.08580000  0.09680000  0.39310000  1.0 -0.1677126649
C  C382  1  0.16430000  0.07020000  0.39300000  1.0 -0.1392667002
C  C383  1  0.18430000  0.04620000  0.42730000  1.0 -0.0491610926
C  C384  1  0.12280000  0.04840000  0.46060000  1.0 -0.1094957321
C  C385  1  0.04300000  0.07510000  0.46090000  1.0 -0.159803332
C  C386  1  0.27680000  0.02160000  0.42860000  1.0 0.532722872
C  C387  1  0.45010000  0.36330000  0.29792000  1.0 0.1712621602
C  C388  1  0.49110000  0.40876000  0.34150000  1.0 -0.0307085449
C  C389  1  0.52430000  0.44275000  0.36452000  1.0 0.3895893211
C  C390  1  0.50400000  0.40127000  0.42282000  1.0 0.2088105122
C  C391  1  0.46890000  0.37288000  0.36157000  1.0 0.2899154837
C  C392  1  0.46450000  0.33490000  0.52110000  1.0 0.1987457343
C  C393  1  0.54288000  0.30378000  0.52932000  1.0 -0.2416892384
C  C394  1  0.47190000  0.34070000  0.59860000  1.0 -0.2460755909
C  C395  1  0.35100000  0.38520000  0.55230000  1.0 0.0116274134
C  C396  1  0.46750000  0.33940000  0.52710000  1.0 0.1399250825
C  C397  1  0.54500000  0.31890000  0.55070000  1.0 -0.2025319223
C  C398  1  0.36100000  0.35990000  0.59170000  1.0 -0.0991003614
C  C399  1  0.31270000  0.37750000  0.51700000  1.0 -0.3146342223
C  C400  1  0.35750000  0.99470000  0.23720000  1.0 0.5595619719
C  C401  1  0.26440000  0.01978000  0.24178000  1.0 -0.01928835
C  C402  1  0.24440000  0.05040000  0.21350000  1.0 -0.0991003614
C  C403  1  0.15910000  0.07340000  0.21650000  1.0 -0.159803332
C  C404  1  0.09340000  0.06683000  0.24761000  1.0 0.0817083812
C  C405  1  0.11190000  0.03575000  0.27580000  1.0 -0.159803332
C  C406  1  0.19900000  0.01281000  0.27270000  1.0 -0.0923306252
C  C407  1  0.90940000  0.15803000  0.24172000  1.0 0.071769182
C  C408  1  0.88830000  0.19366000  0.26330000  1.0 -0.159803332
C  C409  1  0.80980000  0.21870000  0.25160000  1.0 -0.1094957321
C  C410  1  0.75350000  0.20910000  0.21830000  1.0 -0.0037017857
C  C411  1  0.77100000  0.17300000  0.19770000  1.0 -0.1094957321
C  C412  1  0.84760000  0.14750000  0.20939000  1.0 -0.1509615557
C  C413  1  0.67430000  0.23840000  0.20120000  1.0 0.5073711888
C  C414  1  0.39890000  0.26995000  0.09300000  1.0 0.504678827
C  C415  1  0.30400000  0.24670000  0.09186000  1.0 -0.0351107211
C  C416  1  0.23750000  0.25320000  0.06070000  1.0 -0.1285772489
C  C417  1  0.15440000  0.22850000  0.05690000  1.0 -0.1509615557
C  C418  1  0.13670000  0.19704000  0.08467000  1.0 0.071769182
C  C419  1  0.20170000  0.19229000  0.11721000  1.0 -0.1677126649
C  C420  1  0.28430000  0.21730000  0.12080000  1.0 -0.1509615557
C  C421  1  0.04920000  0.17033000  0.07958000  1.0 -0.01928835
C  C422  1  0.06040000  0.12973000  0.07292000  1.0 -0.0307085449
C  C423  1  0.15760000  0.11029000  0.06456000  1.0 0.071769182
C  C424  1  0.19680000  0.08100000  0.09100000  1.0 -0.1509615557
C  C425  1  0.28350000  0.06169000  0.08211000  1.0 -0.0923306252
C  C426  1  0.33160000  0.06833000  0.04559000  1.0 -0.0307085449
C  C427  1  0.29480000  0.09744000  0.01902000  1.0 -0.1392667002
C  C428  1  0.20880000  0.11850000  0.02880000  1.0 -0.159803332
C  C429  1  0.42190000  0.04390000  0.03449000  1.0 0.5595619719
C  C430  1  0.95210000  0.19232000  0.08140000  1.0 0.071769182
C  C431  1  0.92960000  0.21740000  0.11420000  1.0 -0.159803332
C  C432  1  0.84390000  0.24120000  0.11400000  1.0 -0.0923306252
C  C433  1  0.78200000  0.24098000  0.08100000  1.0 -0.0095203153
C  C434  1  0.80270000  0.21540000  0.04830000  1.0 -0.1677126649
C  C435  1  0.88740000  0.19140000  0.04850000  1.0 -0.1775180772
C  C436  1  0.69550000  0.26940000  0.08060000  1.0 0.504678827
C  C437  1  0.97550000  0.10047000  0.07280000  1.0 0.0817083812
C  C438  1  0.91420000  0.09680000  0.10690000  1.0 -0.1677126649
C  C439  1  0.83570000  0.07020000  0.10700000  1.0 -0.1392667002
C  C440  1  0.81570000  0.04620000  0.07270000  1.0 -0.0491610926
C  C441  1  0.87720000  0.04840000  0.03940000  1.0 -0.1094957321
C  C442  1  0.95700000  0.07510000  0.03910000  1.0 -0.159803332
C  C443  1  0.72320000  0.02160000  0.07140000  1.0 0.532722872
C  C444  1  0.54990000  0.36330000  0.20208000  1.0 0.1712621602
C  C445  1  0.50890000  0.40876000  0.15850000  1.0 -0.0307085449
C  C446  1  0.47570000  0.44275000  0.13548000  1.0 0.3895893211
C  C447  1  0.49600000  0.40127000  0.07718000  1.0 0.2088105122
C  C448  1  0.53110000  0.37288000  0.13843000  1.0 0.2899154837
C  C449  1  0.53550000  0.33490000  0.97890000  1.0 0.1987457343
C  C450  1  0.45712000  0.30378000  0.97068000  1.0 -0.2416892384
C  C451  1  0.52810000  0.34070000  0.90140000  1.0 -0.2460755909
C  C452  1  0.64900000  0.38520000  0.94770000  1.0 0.0116274134
C  C453  1  0.53250000  0.33940000  0.97290000  1.0 0.1399250825
C  C454  1  0.45500000  0.31890000  0.94930000  1.0 -0.2025319223
C  C455  1  0.63900000  0.35990000  0.90830000  1.0 -0.0991003614
C  C456  1  0.68730000  0.37750000  0.98300000  1.0 -0.3211575513
C  C457  1  0.00000000  0.59140000  0.25000000  1.0 -0.0307085449
C  C458  1  0.00000000  0.63320000  0.25000000  1.0 -0.01928835
C  C459  1  0.00000000  0.90860000  0.75000000  1.0 -0.0307085449
C  C460  1  0.00000000  0.86680000  0.75000000  1.0 -0.01928835
C  C461  1  0.00000000  0.40860000  0.75000000  1.0 -0.0307085449
C  C462  1  0.00000000  0.36680000  0.75000000  1.0 -0.01928835
C  C463  1  0.00000000  0.09140000  0.25000000  1.0 -0.0307085449
C  C464  1  0.00000000  0.13320000  0.25000000  1.0 -0.01928835
N  N1  1  0.52720000  0.86813000  0.40324000  1.0 -0.4119351299
N  N2  1  0.55600000  0.84344000  0.33386000  1.0 -0.4119351299
N  N3  1  0.52180000  0.90237000  0.29973000  1.0 -0.3211575513
N  N4  1  0.46930000  0.93700000  0.40640000  1.0 -0.415755782
N  N5  1  0.45170000  0.97855000  0.34909000  1.0 -0.5288260663
N  N6  1  0.56900000  0.85300000  0.55900000  1.0 0.0532879338
N  N7  1  0.61740000  0.85800000  0.54700000  1.0 0.1269102781
N  N8  1  0.47280000  0.86813000  0.09676000  1.0 -0.4119351299
N  N9  1  0.44400000  0.84344000  0.16614000  1.0 -0.4119351299
N  N10  1  0.47820000  0.90237000  0.20027000  1.0 -0.3211575513
N  N11  1  0.53070000  0.93700000  0.09360000  1.0 -0.415755782
N  N12  1  0.54830000  0.97855000  0.15091000  1.0 -0.5288260663
N  N13  1  0.43100000  0.85300000  0.94100000  1.0 0.0532879338
N  N14  1  0.38260000  0.85800000  0.95300000  1.0 0.1269102781
N  N15  1  0.52720000  0.63187000  0.59676000  1.0 -0.4119351299
N  N16  1  0.55600000  0.65656000  0.66614000  1.0 -0.4119351299
N  N17  1  0.52180000  0.59763000  0.70027000  1.0 -0.3211575513
N  N18  1  0.46930000  0.56300000  0.59360000  1.0 -0.415755782
N  N19  1  0.45170000  0.52145000  0.65091000  1.0 -0.5288260663
N  N20  1  0.56900000  0.64700000  0.44100000  1.0 0.0532879338
N  N21  1  0.61740000  0.64200000  0.45300000  1.0 0.1269102781
N  N22  1  0.47280000  0.63187000  0.90324000  1.0 -0.4119351299
N  N23  1  0.44400000  0.65656000  0.83386000  1.0 -0.4119351299
N  N24  1  0.47820000  0.59763000  0.79973000  1.0 -0.3211575513
N  N25  1  0.53070000  0.56300000  0.90640000  1.0 -0.415755782
N  N26  1  0.54830000  0.52145000  0.84909000  1.0 -0.5288260663
N  N27  1  0.43100000  0.64700000  0.05900000  1.0 0.0532879338
N  N28  1  0.38260000  0.64200000  0.04700000  1.0 0.1269102781
N  N29  1  0.47280000  0.13187000  0.59676000  1.0 -0.4119351299
N  N30  1  0.44400000  0.15656000  0.66614000  1.0 -0.4119351299
N  N31  1  0.47820000  0.09763000  0.70027000  1.0 -0.3211575513
N  N32  1  0.53070000  0.06300000  0.59360000  1.0 -0.415755782
N  N33  1  0.54830000  0.02145000  0.65091000  1.0 -0.5288260663
N  N34  1  0.43100000  0.14700000  0.44100000  1.0 0.0532879338
N  N35  1  0.38260000  0.14200000  0.45300000  1.0 0.1269102781
N  N36  1  0.52720000  0.13187000  0.90324000  1.0 -0.4119351299
N  N37  1  0.55600000  0.15656000  0.83386000  1.0 -0.4119351299
N  N38  1  0.52180000  0.09763000  0.79973000  1.0 -0.3211575513
N  N39  1  0.46930000  0.06300000  0.90640000  1.0 -0.415755782
N  N40  1  0.45170000  0.02145000  0.84909000  1.0 -0.5288260663
N  N41  1  0.56900000  0.14700000  0.05900000  1.0 0.0532879338
N  N42  1  0.61740000  0.14200000  0.04700000  1.0 0.1269102781
N  N43  1  0.47280000  0.36813000  0.40324000  1.0 -0.4119351299
N  N44  1  0.44400000  0.34344000  0.33386000  1.0 -0.4119351299
N  N45  1  0.47820000  0.40237000  0.29973000  1.0 -0.3211575513
N  N46  1  0.53070000  0.43700000  0.40640000  1.0 -0.415755782
N  N47  1  0.54830000  0.47855000  0.34909000  1.0 -0.5288260663
N  N48  1  0.43100000  0.35300000  0.55900000  1.0 0.0532879338
N  N49  1  0.38260000  0.35800000  0.54700000  1.0 0.1269102781
N  N50  1  0.52720000  0.36813000  0.09676000  1.0 -0.4119351299
N  N51  1  0.55600000  0.34344000  0.16614000  1.0 -0.4119351299
N  N52  1  0.52180000  0.40237000  0.20027000  1.0 -0.3211575513
N  N53  1  0.46930000  0.43700000  0.09360000  1.0 -0.415755782
N  N54  1  0.45170000  0.47855000  0.15091000  1.0 -0.5288260663
N  N55  1  0.56900000  0.35300000  0.94100000  1.0 0.0532879338
N  N56  1  0.61740000  0.35800000  0.95300000  1.0 0.1269102781
O  O1  1  0.37200000  0.46652000  0.23660000  1.0 -0.5572978554
O  O2  1  0.41730000  0.50340000  0.28996000  1.0 -0.5288260663
O  O3  1  0.62480000  0.72728000  0.32902000  1.0 -0.5240564381
O  O4  1  0.66650000  0.77267000  0.28180000  1.0 -0.5572978554
O  O5  1  0.45840000  0.76328000  0.37924000  1.0 -0.5389558488
O  O6  1  0.41350000  0.79478000  0.43619000  1.0 -0.5452417915
O  O7  1  0.45520000  0.51962000  0.43884000  1.0 -0.5288260663
O  O8  1  0.46020000  0.54818000  0.50047000  1.0 -0.5667893474
O  O9  1  0.70170000  0.50101000  0.45980000  1.0 -0.5389558488
O  O10  1  0.66410000  0.52460000  0.39890000  1.0 -0.5667893474
O  O11  1  0.64660000  0.77160000  0.45120000  1.0 -0.5116068457
O  O12  1  0.67260000  0.79139000  0.38985000  1.0 -0.4930136462
O  O13  1  0.56810000  0.84470000  0.48970000  1.0 -0.159803332
O  O14  1  0.45010000  0.77980000  0.29200000  1.0 -0.159803332
O  O15  1  0.53630000  0.84320000  0.49130000  1.0 -0.1285772489
O  O16  1  0.42210000  0.77450000  0.30800000  1.0 -0.159803332
O  O17  1  0.62800000  0.46652000  0.26340000  1.0 -0.5572978554
O  O18  1  0.58270000  0.50340000  0.21004000  1.0 -0.5288260663
O  O19  1  0.37520000  0.72728000  0.17098000  1.0 -0.5240564381
O  O20  1  0.33350000  0.77267000  0.21820000  1.0 -0.5572978554
O  O21  1  0.54160000  0.76328000  0.12076000  1.0 -0.5389558488
O  O22  1  0.58650000  0.79478000  0.06381000  1.0 -0.5389558488
O  O23  1  0.54480000  0.51962000  0.06116000  1.0 -0.5288260663
O  O24  1  0.53980000  0.54818000  0.99953000  1.0 -0.5667893474
O  O25  1  0.29830000  0.50101000  0.04020000  1.0 -0.5389558488
O  O26  1  0.33590000  0.52460000  0.10110000  1.0 -0.5667893474
O  O27  1  0.35340000  0.77160000  0.04880000  1.0 -0.5116068457
O  O28  1  0.32740000  0.79139000  0.11015000  1.0 -0.4930136462
O  O29  1  0.43190000  0.84470000  0.01030000  1.0 -0.159803332
O  O30  1  0.54990000  0.77980000  0.20800000  1.0 -0.159803332
O  O31  1  0.46370000  0.84320000  0.00870000  1.0 -0.1285772489
O  O32  1  0.57790000  0.77450000  0.19200000  1.0 -0.159803332
O  O33  1  0.37200000  0.03348000  0.76340000  1.0 -0.5572978554
O  O34  1  0.41730000  0.99660000  0.71004000  1.0 -0.5288260663
O  O35  1  0.62480000  0.77272000  0.67098000  1.0 -0.5240564381
O  O36  1  0.66650000  0.72733000  0.71820000  1.0 -0.5572978554
O  O37  1  0.45840000  0.73672000  0.62076000  1.0 -0.5389558488
O  O38  1  0.41350000  0.70522000  0.56381000  1.0 -0.5452417915
O  O39  1  0.45520000  0.98038000  0.56116000  1.0 -0.5288260663
O  O40  1  0.46020000  0.95182000  0.49953000  1.0 -0.5667893474
O  O41  1  0.70170000  0.99899000  0.54020000  1.0 -0.5389558488
O  O42  1  0.66410000  0.97540000  0.60110000  1.0 -0.5667893474
O  O43  1  0.64660000  0.72840000  0.54880000  1.0 -0.5116068457
O  O44  1  0.67260000  0.70861000  0.61015000  1.0 -0.4930136462
O  O45  1  0.56810000  0.65530000  0.51030000  1.0 -0.159803332
O  O46  1  0.45010000  0.72020000  0.70800000  1.0 -0.1677126649
O  O47  1  0.53630000  0.65680000  0.50870000  1.0 -0.1285772489
O  O48  1  0.42210000  0.72550000  0.69200000  1.0 -0.159803332
O  O49  1  0.62800000  0.03348000  0.73660000  1.0 -0.5572978554
O  O50  1  0.58270000  0.99660000  0.78996000  1.0 -0.5288260663
O  O51  1  0.37520000  0.77272000  0.82902000  1.0 -0.5240564381
O  O52  1  0.33350000  0.72733000  0.78180000  1.0 -0.5572978554
O  O53  1  0.54160000  0.73672000  0.87924000  1.0 -0.5389558488
O  O54  1  0.58650000  0.70522000  0.93619000  1.0 -0.5389558488
O  O55  1  0.54480000  0.98038000  0.93884000  1.0 -0.5288260663
O  O56  1  0.53980000  0.95182000  0.00047000  1.0 -0.5667893474
O  O57  1  0.29830000  0.99899000  0.95980000  1.0 -0.5389558488
O  O58  1  0.33590000  0.97540000  0.89890000  1.0 -0.5667893474
O  O59  1  0.35340000  0.72840000  0.95120000  1.0 -0.5116068457
O  O60  1  0.32740000  0.70861000  0.88985000  1.0 -0.4930136462
O  O61  1  0.43190000  0.65530000  0.98970000  1.0 -0.159803332
O  O62  1  0.54990000  0.72020000  0.79200000  1.0 -0.1677126649
O  O63  1  0.46370000  0.65680000  0.99130000  1.0 -0.1285772489
O  O64  1  0.57790000  0.72550000  0.80800000  1.0 -0.159803332
O  O65  1  0.62800000  0.53348000  0.76340000  1.0 -0.5572978554
O  O66  1  0.58270000  0.49660000  0.71004000  1.0 -0.5288260663
O  O67  1  0.37520000  0.27272000  0.67098000  1.0 -0.5240564381
O  O68  1  0.33350000  0.22733000  0.71820000  1.0 -0.5572978554
O  O69  1  0.54160000  0.23672000  0.62076000  1.0 -0.5389558488
O  O70  1  0.58650000  0.20522000  0.56381000  1.0 -0.5389558488
O  O71  1  0.54480000  0.48038000  0.56116000  1.0 -0.5288260663
O  O72  1  0.53980000  0.45182000  0.49953000  1.0 -0.5667893474
O  O73  1  0.29830000  0.49899000  0.54020000  1.0 -0.5389558488
O  O74  1  0.33590000  0.47540000  0.60110000  1.0 -0.5667893474
O  O75  1  0.35340000  0.22840000  0.54880000  1.0 -0.5116068457
O  O76  1  0.32740000  0.20861000  0.61015000  1.0 -0.4930136462
O  O77  1  0.43190000  0.15530000  0.51030000  1.0 -0.159803332
O  O78  1  0.54990000  0.22020000  0.70800000  1.0 -0.1677126649
O  O79  1  0.46370000  0.15680000  0.50870000  1.0 -0.1285772489
O  O80  1  0.57790000  0.22550000  0.69200000  1.0 -0.159803332
O  O81  1  0.37200000  0.53348000  0.73660000  1.0 -0.5572978554
O  O82  1  0.41730000  0.49660000  0.78996000  1.0 -0.5288260663
O  O83  1  0.62480000  0.27272000  0.82902000  1.0 -0.5240564381
O  O84  1  0.66650000  0.22733000  0.78180000  1.0 -0.5572978554
O  O85  1  0.45840000  0.23672000  0.87924000  1.0 -0.5389558488
O  O86  1  0.41350000  0.20522000  0.93619000  1.0 -0.5389558488
O  O87  1  0.45520000  0.48038000  0.93884000  1.0 -0.5288260663
O  O88  1  0.46020000  0.45182000  0.00047000  1.0 -0.5667893474
O  O89  1  0.70170000  0.49899000  0.95980000  1.0 -0.5389558488
O  O90  1  0.66410000  0.47540000  0.89890000  1.0 -0.5667893474
O  O91  1  0.64660000  0.22840000  0.95120000  1.0 -0.5116068457
O  O92  1  0.67260000  0.20861000  0.88985000  1.0 -0.4930136462
O  O93  1  0.56810000  0.15530000  0.98970000  1.0 -0.159803332
O  O94  1  0.45010000  0.22020000  0.79200000  1.0 -0.159803332
O  O95  1  0.53630000  0.15680000  0.99130000  1.0 -0.1285772489
O  O96  1  0.42210000  0.22550000  0.80800000  1.0 -0.159803332
O  O97  1  0.62800000  0.96652000  0.23660000  1.0 -0.5572978554
O  O98  1  0.58270000  0.00340000  0.28996000  1.0 -0.5288260663
O  O99  1  0.37520000  0.22728000  0.32902000  1.0 -0.5240564381
O  O100  1  0.33350000  0.27267000  0.28180000  1.0 -0.5572978554
O  O101  1  0.54160000  0.26328000  0.37924000  1.0 -0.5389558488
O  O102  1  0.58650000  0.29478000  0.43619000  1.0 -0.5452417915
O  O103  1  0.54480000  0.01962000  0.43884000  1.0 -0.5288260663
O  O104  1  0.53980000  0.04818000  0.50047000  1.0 -0.5667893474
O  O105  1  0.29830000  0.00101000  0.45980000  1.0 -0.5389558488
O  O106  1  0.33590000  0.02460000  0.39890000  1.0 -0.5667893474
O  O107  1  0.35340000  0.27160000  0.45120000  1.0 -0.5116068457
O  O108  1  0.32740000  0.29139000  0.38985000  1.0 -0.4930136462
O  O109  1  0.43190000  0.34470000  0.48970000  1.0 -0.159803332
O  O110  1  0.54990000  0.27980000  0.29200000  1.0 -0.1677126649
O  O111  1  0.46370000  0.34320000  0.49130000  1.0 -0.1285772489
O  O112  1  0.57790000  0.27450000  0.30800000  1.0 -0.159803332
O  O113  1  0.37200000  0.96652000  0.26340000  1.0 -0.5572978554
O  O114  1  0.41730000  0.00340000  0.21004000  1.0 -0.5288260663
O  O115  1  0.62480000  0.22728000  0.17098000  1.0 -0.5240564381
O  O116  1  0.66650000  0.27267000  0.21820000  1.0 -0.5572978554
O  O117  1  0.45840000  0.26328000  0.12076000  1.0 -0.5389558488
O  O118  1  0.41350000  0.29478000  0.06381000  1.0 -0.5389558488
O  O119  1  0.45520000  0.01962000  0.06116000  1.0 -0.5288260663
O  O120  1  0.46020000  0.04818000  0.99953000  1.0 -0.5667893474
O  O121  1  0.70170000  0.00101000  0.04020000  1.0 -0.5389558488
O  O122  1  0.66410000  0.02460000  0.10110000  1.0 -0.5667893474
O  O123  1  0.64660000  0.27160000  0.04880000  1.0 -0.5116068457
O  O124  1  0.67260000  0.29139000  0.11015000  1.0 -0.4930136462
O  O125  1  0.56810000  0.34470000  0.01030000  1.0 -0.159803332
O  O126  1  0.45010000  0.27980000  0.20800000  1.0 -0.159803332
O  O127  1  0.53630000  0.34320000  0.00870000  1.0 -0.1285772489
O  O128  1  0.42210000  0.27450000  0.19200000  1.0 -0.159803332
