# DDEC6 charges by PACMAN v1.1 (https://github.com/mtap-research/PACMAN-charge/)
data_VESROE_ASR_pacman
_symmetry_space_group_name_H-M   'P 1'
_cell_length_a   17.52120000
_cell_length_b   17.52120000
_cell_length_c   15.83280000
_cell_angle_alpha   90.00000000
_cell_angle_beta   90.00000000
_cell_angle_gamma   118.16600000
_symmetry_Int_Tables_number   1
_chemical_formula_structural   Zr3H24C34(NO8)2
_chemical_formula_sum   'Zr6 H48 C68 N4 O32'
_cell_volume   4284.98176896
_cell_formula_units_Z   2
loop_
 _symmetry_equiv_pos_site_id
 _symmetry_equiv_pos_as_xyz
  1  'x, y, z'
loop_
 _atom_site_type_symbol
 _atom_site_label
 _atom_site_symmetry_multiplicity
 _atom_site_fract_x
 _atom_site_fract_y
 _atom_site_fract_z
 _atom_site_occupancy
 _atom_site_charge
Zr  Zr1  1  0.09830000  0.09830000  0.38799000  1.0 2.0221387187
Zr  Zr2  1  0.90170000  0.90170000  0.38799000  1.0 2.0221387187
Zr  Zr3  1  0.90170000  0.90170000  0.61201000  1.0 2.0221387187
Zr  Zr4  1  0.09830000  0.09830000  0.61201000  1.0 2.0221387187
Zr  Zr5  1  0.08154000  0.91846000  0.50000000  1.0 2.0604373256
Zr  Zr6  1  0.91846000  0.08154000  0.50000000  1.0 2.0604373256
H  H1  1  0.07977000  0.69327000  0.61430000  1.0 0.1106598445
H  H2  1  0.08294000  0.57952000  0.68878000  1.0 0.1106598445
H  H3  1  0.90418000  0.57518000  0.85089000  1.0 0.1106598445
H  H4  1  0.89751000  0.68591000  0.77542000  1.0 0.0977552126
H  H5  1  0.92256000  0.37206000  0.92711000  1.0 0.1106598445
H  H6  1  0.92023000  0.30673000  0.61430000  1.0 0.1106598445
H  H7  1  0.91706000  0.42048000  0.68878000  1.0 0.1106598445
H  H8  1  0.09582000  0.42482000  0.85089000  1.0 0.1106598445
H  H9  1  0.10249000  0.31409000  0.77542000  1.0 0.0977552126
H  H10  1  0.07744000  0.62794000  0.92711000  1.0 0.1106598445
H  H11  1  0.30673000  0.92023000  0.38570000  1.0 0.1106598445
H  H12  1  0.42048000  0.91706000  0.31122000  1.0 0.1106598445
H  H13  1  0.42482000  0.09582000  0.14911000  1.0 0.1106598445
H  H14  1  0.31409000  0.10249000  0.22458000  1.0 0.0977552126
H  H15  1  0.62794000  0.07744000  0.07289000  1.0 0.1106598445
H  H16  1  0.69327000  0.07977000  0.38570000  1.0 0.1106598445
H  H17  1  0.57952000  0.08294000  0.31122000  1.0 0.1106598445
H  H18  1  0.57518000  0.90418000  0.14911000  1.0 0.1106598445
H  H19  1  0.68591000  0.89751000  0.22458000  1.0 0.0977552126
H  H20  1  0.37206000  0.92256000  0.07289000  1.0 0.1106598445
H  H21  1  0.92023000  0.30673000  0.38570000  1.0 0.1106598445
H  H22  1  0.91706000  0.42048000  0.31122000  1.0 0.1106598445
H  H23  1  0.09582000  0.42482000  0.14911000  1.0 0.1106598445
H  H24  1  0.10249000  0.31409000  0.22458000  1.0 0.0977552126
H  H25  1  0.07744000  0.62794000  0.07289000  1.0 0.1106598445
H  H26  1  0.07977000  0.69327000  0.38570000  1.0 0.1106598445
H  H27  1  0.08294000  0.57952000  0.31122000  1.0 0.1106598445
H  H28  1  0.90418000  0.57518000  0.14911000  1.0 0.1106598445
H  H29  1  0.89751000  0.68591000  0.22458000  1.0 0.0977552126
H  H30  1  0.92256000  0.37206000  0.07289000  1.0 0.1106598445
H  H31  1  0.69327000  0.07977000  0.61430000  1.0 0.1106598445
H  H32  1  0.57952000  0.08294000  0.68878000  1.0 0.1106598445
H  H33  1  0.57518000  0.90418000  0.85089000  1.0 0.1106598445
H  H34  1  0.68591000  0.89751000  0.77542000  1.0 0.0977552126
H  H35  1  0.37206000  0.92256000  0.92711000  1.0 0.1106598445
H  H36  1  0.30673000  0.92023000  0.61430000  1.0 0.1106598445
H  H37  1  0.42048000  0.91706000  0.68878000  1.0 0.1106598445
H  H38  1  0.42482000  0.09582000  0.85089000  1.0 0.1106598445
H  H39  1  0.31409000  0.10249000  0.77542000  1.0 0.0977552126
H  H40  1  0.62794000  0.07744000  0.92711000  1.0 0.1106598445
H  H41  1  0.06262000  0.93738000  0.31864000  1.0 0.3182546201
H  H42  1  0.93738000  0.06262000  0.31864000  1.0 0.3182546201
H  H43  1  0.06262000  0.93738000  0.68136000  1.0 0.3182546201
H  H44  1  0.93738000  0.06262000  0.68136000  1.0 0.3182546201
H  H45  1  0.22353000  0.09915000  0.50000000  1.0 0.3182546201
H  H46  1  0.77647000  0.90085000  0.50000000  1.0 0.3182546201
H  H47  1  0.90085000  0.77647000  0.50000000  1.0 0.3182546201
H  H48  1  0.09915000  0.22353000  0.50000000  1.0 0.3182546201
C  C1  1  0.98700000  0.77406000  0.64011000  1.0 0.5587403367
C  C2  1  0.98823000  0.70091000  0.68778000  1.0 -0.0633157476
C  C3  1  0.04357000  0.66923000  0.66219000  1.0 -0.1006558823
C  C4  1  0.04582000  0.60198000  0.70698000  1.0 -0.2135477995
C  C5  1  0.99494000  0.56766000  0.77714000  1.0 0.1489876157
C  C6  1  0.93980000  0.59900000  0.80257000  1.0 -0.2135477995
C  C7  1  0.93615000  0.66505000  0.75789000  1.0 -0.1006558823
C  C8  1  0.95453000  0.42487000  0.95685000  1.0 -0.1815808674
C  C9  1  0.01300000  0.22594000  0.64011000  1.0 0.5587403367
C  C10  1  0.01177000  0.29909000  0.68778000  1.0 -0.0633157476
C  C11  1  0.95643000  0.33077000  0.66219000  1.0 -0.1006558823
C  C12  1  0.95418000  0.39802000  0.70698000  1.0 -0.2135477995
C  C13  1  0.00506000  0.43234000  0.77714000  1.0 0.1489876157
C  C14  1  0.06020000  0.40100000  0.80257000  1.0 -0.2135477995
C  C15  1  0.06385000  0.33495000  0.75789000  1.0 -0.1006558823
C  C16  1  0.04547000  0.57513000  0.95685000  1.0 -0.1815808674
C  C17  1  0.22594000  0.01300000  0.35989000  1.0 0.5587403367
C  C18  1  0.29909000  0.01177000  0.31222000  1.0 -0.0633157476
C  C19  1  0.33077000  0.95643000  0.33781000  1.0 -0.1006558823
C  C20  1  0.39802000  0.95418000  0.29302000  1.0 -0.2135477995
C  C21  1  0.43234000  0.00506000  0.22286000  1.0 0.1489876157
C  C22  1  0.40100000  0.06020000  0.19743000  1.0 -0.2135477995
C  C23  1  0.33495000  0.06385000  0.24211000  1.0 -0.1006558823
C  C24  1  0.57513000  0.04547000  0.04315000  1.0 -0.1815808674
C  C25  1  0.77406000  0.98700000  0.35989000  1.0 0.5587403367
C  C26  1  0.70091000  0.98823000  0.31222000  1.0 -0.0633157476
C  C27  1  0.66923000  0.04357000  0.33781000  1.0 -0.1006558823
C  C28  1  0.60198000  0.04582000  0.29302000  1.0 -0.2135477995
C  C29  1  0.56766000  0.99494000  0.22286000  1.0 0.1489876157
C  C30  1  0.59900000  0.93980000  0.19743000  1.0 -0.2135477995
C  C31  1  0.66505000  0.93615000  0.24211000  1.0 -0.1006558823
C  C32  1  0.42487000  0.95453000  0.04315000  1.0 -0.1815808674
C  C33  1  0.01300000  0.22594000  0.35989000  1.0 0.5587403367
C  C34  1  0.01177000  0.29909000  0.31222000  1.0 -0.0633157476
C  C35  1  0.95643000  0.33077000  0.33781000  1.0 -0.1006558823
C  C36  1  0.95418000  0.39802000  0.29302000  1.0 -0.2135477995
C  C37  1  0.00506000  0.43234000  0.22286000  1.0 0.1489876157
C  C38  1  0.06020000  0.40100000  0.19743000  1.0 -0.2135477995
C  C39  1  0.06385000  0.33495000  0.24211000  1.0 -0.1006558823
C  C40  1  0.04547000  0.57513000  0.04315000  1.0 -0.1815808674
C  C41  1  0.98700000  0.77406000  0.35989000  1.0 0.5587403367
C  C42  1  0.98823000  0.70091000  0.31222000  1.0 -0.0633157476
C  C43  1  0.04357000  0.66923000  0.33781000  1.0 -0.1006558823
C  C44  1  0.04582000  0.60198000  0.29302000  1.0 -0.2135477995
C  C45  1  0.99494000  0.56766000  0.22286000  1.0 0.1489876157
C  C46  1  0.93980000  0.59900000  0.19743000  1.0 -0.2135477995
C  C47  1  0.93615000  0.66505000  0.24211000  1.0 -0.0945153942
C  C48  1  0.95453000  0.42487000  0.04315000  1.0 -0.1815808674
C  C49  1  0.77406000  0.98700000  0.64011000  1.0 0.5587403367
C  C50  1  0.70091000  0.98823000  0.68778000  1.0 -0.0633157476
C  C51  1  0.66923000  0.04357000  0.66219000  1.0 -0.1006558823
C  C52  1  0.60198000  0.04582000  0.70698000  1.0 -0.2135477995
C  C53  1  0.56766000  0.99494000  0.77714000  1.0 0.1489876157
C  C54  1  0.59900000  0.93980000  0.80257000  1.0 -0.2135477995
C  C55  1  0.66505000  0.93615000  0.75789000  1.0 -0.1006558823
C  C56  1  0.42487000  0.95453000  0.95685000  1.0 -0.1815808674
C  C57  1  0.22594000  0.01300000  0.64011000  1.0 0.5587403367
C  C58  1  0.29909000  0.01177000  0.68778000  1.0 -0.0633157476
C  C59  1  0.33077000  0.95643000  0.66219000  1.0 -0.1006558823
C  C60  1  0.39802000  0.95418000  0.70698000  1.0 -0.2135477995
C  C61  1  0.43234000  0.00506000  0.77714000  1.0 0.1489876157
C  C62  1  0.40100000  0.06020000  0.80257000  1.0 -0.2135477995
C  C63  1  0.33495000  0.06385000  0.75789000  1.0 -0.0945153942
C  C64  1  0.57513000  0.04547000  0.95685000  1.0 -0.1815808674
C  C65  1  0.00000000  0.50000000  0.91310000  1.0 0.1203613619
C  C66  1  0.50000000  0.00000000  0.08690000  1.0 0.1203613619
C  C67  1  0.00000000  0.50000000  0.08690000  1.0 0.1203613619
C  C68  1  0.50000000  0.00000000  0.91310000  1.0 0.1203613619
N  N1  1  0.00000000  0.50000000  0.82253000  1.0 -0.199054539
N  N2  1  0.50000000  0.00000000  0.17747000  1.0 -0.199054539
N  N3  1  0.00000000  0.50000000  0.17747000  1.0 -0.199054539
N  N4  1  0.50000000  0.00000000  0.82253000  1.0 -0.199054539
O  O1  1  0.04455000  0.80787000  0.58361000  1.0 -0.6402004024
O  O2  1  0.93145000  0.79613000  0.65862000  1.0 -0.6830277478
O  O3  1  0.95545000  0.19213000  0.58361000  1.0 -0.6402004024
O  O4  1  0.06855000  0.20387000  0.65862000  1.0 -0.6830277478
O  O5  1  0.19213000  0.95545000  0.41639000  1.0 -0.6402004024
O  O6  1  0.20387000  0.06855000  0.34138000  1.0 -0.6830277478
O  O7  1  0.80787000  0.04455000  0.41639000  1.0 -0.6402004024
O  O8  1  0.79613000  0.93145000  0.34138000  1.0 -0.6830277478
O  O9  1  0.95545000  0.19213000  0.41639000  1.0 -0.6402004024
O  O10  1  0.06855000  0.20387000  0.34138000  1.0 -0.6830277478
O  O11  1  0.04455000  0.80787000  0.41639000  1.0 -0.6402004024
O  O12  1  0.93145000  0.79613000  0.34138000  1.0 -0.6830277478
O  O13  1  0.80787000  0.04455000  0.58361000  1.0 -0.6402004024
O  O14  1  0.79613000  0.93145000  0.65862000  1.0 -0.6830277478
O  O15  1  0.19213000  0.95545000  0.58361000  1.0 -0.6402004024
O  O16  1  0.20387000  0.06855000  0.65862000  1.0 -0.6830277478
O  O17  1  0.04362000  0.95638000  0.37050000  1.0 -0.4255686623
O  O18  1  0.03421000  0.96579000  0.40610000  1.0 -0.4255686623
O  O19  1  0.95638000  0.04362000  0.37050000  1.0 -0.424026463
O  O20  1  0.96579000  0.03421000  0.40610000  1.0 -0.424026463
O  O21  1  0.04362000  0.95638000  0.62950000  1.0 -0.4255686623
O  O22  1  0.03421000  0.96579000  0.59390000  1.0 -0.4255686623
O  O23  1  0.95638000  0.04362000  0.62950000  1.0 -0.4255686623
O  O24  1  0.96579000  0.03421000  0.59390000  1.0 -0.424026463
O  O25  1  0.15894000  0.07226000  0.50000000  1.0 -0.424026463
O  O26  1  0.11760000  0.04800000  0.50000000  1.0 -0.4412607288
O  O27  1  0.84106000  0.92774000  0.50000000  1.0 -0.4255686623
O  O28  1  0.88240000  0.95200000  0.50000000  1.0 -0.4412607288
O  O29  1  0.92774000  0.84106000  0.50000000  1.0 -0.4255686623
O  O30  1  0.95200000  0.88240000  0.50000000  1.0 -0.4412607288
O  O31  1  0.07226000  0.15894000  0.50000000  1.0 -0.4255686623
O  O32  1  0.04800000  0.11760000  0.50000000  1.0 -0.4412607288
