# DDEC6 charges by PACMAN v1.1 (https://github.com/mtap-research/PACMAN-charge/)
data_VETMIS_ASR_pacman
_symmetry_space_group_name_H-M   'P 1'
_cell_length_a   43.25200000
_cell_length_b   43.25200000
_cell_length_c   20.46300000
_cell_angle_alpha   90.00000000
_cell_angle_beta   90.00000000
_cell_angle_gamma   120.00000000
_symmetry_Int_Tables_number   1
_chemical_formula_structural   CuH17C30NO4
_chemical_formula_sum   'Cu12 H204 C360 N12 O48'
_cell_volume   33152.19777422
_cell_formula_units_Z   12
loop_
 _symmetry_equiv_pos_site_id
 _symmetry_equiv_pos_as_xyz
  1  'x, y, z'
loop_
 _atom_site_type_symbol
 _atom_site_label
 _atom_site_symmetry_multiplicity
 _atom_site_fract_x
 _atom_site_fract_y
 _atom_site_fract_z
 _atom_site_occupancy
 _atom_site_charge
Cu  Cu1  1  0.31913000  0.34650000  0.04870000  1.0 0.9333092595
Cu  Cu2  1  0.97263000  0.31913000  0.54870000  1.0 0.9333092595
Cu  Cu3  1  0.65350000  0.97263000  0.04870000  1.0 0.9333092595
Cu  Cu4  1  0.68087000  0.65350000  0.54870000  1.0 0.9333092595
Cu  Cu5  1  0.02737000  0.68087000  0.04870000  1.0 0.9333092595
Cu  Cu6  1  0.34650000  0.02737000  0.54870000  1.0 0.9333092595
Cu  Cu7  1  0.65350000  0.68087000  0.45130000  1.0 0.9379778826
Cu  Cu8  1  0.97263000  0.65350000  0.95130000  1.0 0.9333092595
Cu  Cu9  1  0.31913000  0.97263000  0.45130000  1.0 0.9333092595
Cu  Cu10  1  0.34650000  0.31913000  0.95130000  1.0 0.9333092595
Cu  Cu11  1  0.02737000  0.34650000  0.45130000  1.0 0.9333092595
Cu  Cu12  1  0.68087000  0.02737000  0.95130000  1.0 0.9379778826
H  H1  1  0.45080000  0.36330000  0.04760000  1.0 0.1392947884
H  H2  1  0.08750000  0.45080000  0.54760000  1.0 0.1392947884
H  H3  1  0.63670000  0.08750000  0.04760000  1.0 0.1392947884
H  H4  1  0.54920000  0.63670000  0.54760000  1.0 0.1392947884
H  H5  1  0.91250000  0.54920000  0.04760000  1.0 0.1392947884
H  H6  1  0.36330000  0.91250000  0.54760000  1.0 0.1392947884
H  H7  1  0.63670000  0.54920000  0.45240000  1.0 0.1392947884
H  H8  1  0.08750000  0.63670000  0.95240000  1.0 0.1392947884
H  H9  1  0.45080000  0.08750000  0.45240000  1.0 0.1392947884
H  H10  1  0.36330000  0.45080000  0.95240000  1.0 0.1392947884
H  H11  1  0.91250000  0.36330000  0.45240000  1.0 0.1392947884
H  H12  1  0.54920000  0.91250000  0.95240000  1.0 0.1392947884
H  H13  1  0.44920000  0.40870000  0.25220000  1.0 0.1306145912
H  H14  1  0.04050000  0.44920000  0.75220000  1.0 0.1306145912
H  H15  1  0.59130000  0.04050000  0.25220000  1.0 0.1306145912
H  H16  1  0.55080000  0.59130000  0.75220000  1.0 0.1306145912
H  H17  1  0.95950000  0.55080000  0.25220000  1.0 0.1306145912
H  H18  1  0.40870000  0.95950000  0.75220000  1.0 0.1306145912
H  H19  1  0.59130000  0.55080000  0.24780000  1.0 0.1306145912
H  H20  1  0.04050000  0.59130000  0.74780000  1.0 0.1306145912
H  H21  1  0.44920000  0.04050000  0.24780000  1.0 0.1306145912
H  H22  1  0.40870000  0.44920000  0.74780000  1.0 0.1306145912
H  H23  1  0.95950000  0.40870000  0.24780000  1.0 0.1306145912
H  H24  1  0.55080000  0.95950000  0.74780000  1.0 0.1306145912
H  H25  1  0.39860000  0.38450000  0.18690000  1.0 0.1392947884
H  H26  1  0.01410000  0.39860000  0.68690000  1.0 0.1392947884
H  H27  1  0.61550000  0.01410000  0.18690000  1.0 0.1392947884
H  H28  1  0.60140000  0.61550000  0.68690000  1.0 0.1392947884
H  H29  1  0.98590000  0.60140000  0.18690000  1.0 0.1392947884
H  H30  1  0.38450000  0.98590000  0.68690000  1.0 0.1392947884
H  H31  1  0.61550000  0.60140000  0.31310000  1.0 0.1392947884
H  H32  1  0.01410000  0.61550000  0.81310000  1.0 0.1392947884
H  H33  1  0.39860000  0.01410000  0.31310000  1.0 0.1392947884
H  H34  1  0.38450000  0.39860000  0.81310000  1.0 0.1392947884
H  H35  1  0.98590000  0.38450000  0.31310000  1.0 0.1392947884
H  H36  1  0.60140000  0.98590000  0.81310000  1.0 0.1392947884
H  H37  1  0.51120000  0.37560000  0.06790000  1.0 0.121289885
H  H38  1  0.13560000  0.51120000  0.56790000  1.0 0.121289885
H  H39  1  0.62440000  0.13560000  0.06790000  1.0 0.121289885
H  H40  1  0.48880000  0.62440000  0.56790000  1.0 0.121289885
H  H41  1  0.86440000  0.48880000  0.06790000  1.0 0.121289885
H  H42  1  0.37560000  0.86440000  0.56790000  1.0 0.121289885
H  H43  1  0.62440000  0.48880000  0.43210000  1.0 0.121289885
H  H44  1  0.13560000  0.62440000  0.93210000  1.0 0.121289885
H  H45  1  0.51120000  0.13560000  0.43210000  1.0 0.121289885
H  H46  1  0.37560000  0.51120000  0.93210000  1.0 0.121289885
H  H47  1  0.86440000  0.37560000  0.43210000  1.0 0.121289885
H  H48  1  0.48880000  0.86440000  0.93210000  1.0 0.121289885
H  H49  1  0.56340000  0.40840000  0.14650000  1.0 0.1306145912
H  H50  1  0.15500000  0.56340000  0.64650000  1.0 0.1306145912
H  H51  1  0.59160000  0.15500000  0.14650000  1.0 0.1306145912
H  H52  1  0.43660000  0.59160000  0.64650000  1.0 0.1306145912
H  H53  1  0.84500000  0.43660000  0.14650000  1.0 0.1306145912
H  H54  1  0.40840000  0.84500000  0.64650000  1.0 0.1306145912
H  H55  1  0.59160000  0.43660000  0.35350000  1.0 0.1306145912
H  H56  1  0.15500000  0.59160000  0.85350000  1.0 0.1306145912
H  H57  1  0.56340000  0.15500000  0.35350000  1.0 0.1306145912
H  H58  1  0.40840000  0.56340000  0.85350000  1.0 0.1306145912
H  H59  1  0.84500000  0.40840000  0.35350000  1.0 0.1306145912
H  H60  1  0.43660000  0.84500000  0.85350000  1.0 0.1306145912
H  H61  1  0.63850000  0.44820000  0.21260000  1.0 0.1392947884
H  H62  1  0.19030000  0.63850000  0.71260000  1.0 0.1392947884
H  H63  1  0.55180000  0.19030000  0.21260000  1.0 0.1392947884
H  H64  1  0.36150000  0.55180000  0.71260000  1.0 0.1392947884
H  H65  1  0.80970000  0.36150000  0.21260000  1.0 0.1392947884
H  H66  1  0.44820000  0.80970000  0.71260000  1.0 0.1392947884
H  H67  1  0.55180000  0.36150000  0.28740000  1.0 0.1392947884
H  H68  1  0.19030000  0.55180000  0.78740000  1.0 0.1392947884
H  H69  1  0.63850000  0.19030000  0.28740000  1.0 0.1392947884
H  H70  1  0.44820000  0.63850000  0.78740000  1.0 0.1392947884
H  H71  1  0.80970000  0.44820000  0.28740000  1.0 0.1392947884
H  H72  1  0.36150000  0.80970000  0.78740000  1.0 0.1392947884
H  H73  1  0.66840000  0.42000000  0.23610000  1.0 0.121289885
H  H74  1  0.24840000  0.66840000  0.73610000  1.0 0.121289885
H  H75  1  0.58000000  0.24840000  0.23610000  1.0 0.121289885
H  H76  1  0.33160000  0.58000000  0.73610000  1.0 0.121289885
H  H77  1  0.75160000  0.33160000  0.23610000  1.0 0.121289885
H  H78  1  0.42000000  0.75160000  0.73610000  1.0 0.121289885
H  H79  1  0.58000000  0.33160000  0.26390000  1.0 0.121289885
H  H80  1  0.24840000  0.58000000  0.76390000  1.0 0.121289885
H  H81  1  0.66840000  0.24840000  0.26390000  1.0 0.121289885
H  H82  1  0.42000000  0.66840000  0.76390000  1.0 0.121289885
H  H83  1  0.75160000  0.42000000  0.26390000  1.0 0.121289885
H  H84  1  0.33160000  0.75160000  0.76390000  1.0 0.121289885
H  H85  1  0.70010000  0.40020000  0.25000000  1.0 0.0932412267
H  H86  1  0.29990000  0.70010000  0.75000000  1.0 0.0932412267
H  H87  1  0.59980000  0.29990000  0.25000000  1.0 0.0932412267
H  H88  1  0.29990000  0.59980000  0.75000000  1.0 0.0932412267
H  H89  1  0.70010000  0.29990000  0.25000000  1.0 0.0932412267
H  H90  1  0.40020000  0.70010000  0.75000000  1.0 0.0932412267
H  H91  1  0.20950000  0.22080000  0.76890000  1.0 0.121289885
H  H92  1  0.98870000  0.20950000  0.26890000  1.0 0.121289885
H  H93  1  0.77920000  0.98870000  0.76890000  1.0 0.121289885
H  H94  1  0.79050000  0.77920000  0.26890000  1.0 0.121289885
H  H95  1  0.01130000  0.79050000  0.76890000  1.0 0.121289885
H  H96  1  0.22080000  0.01130000  0.26890000  1.0 0.121289885
H  H97  1  0.77920000  0.79050000  0.73110000  1.0 0.121289885
H  H98  1  0.98870000  0.77920000  0.23110000  1.0 0.121289885
H  H99  1  0.20950000  0.98870000  0.73110000  1.0 0.121289885
H  H100  1  0.22080000  0.20950000  0.23110000  1.0 0.121289885
H  H101  1  0.01130000  0.22080000  0.73110000  1.0 0.121289885
H  H102  1  0.79050000  0.01130000  0.23110000  1.0 0.121289885
H  H103  1  0.24830000  0.25930000  0.83370000  1.0 0.1392947884
H  H104  1  0.98900000  0.24830000  0.33370000  1.0 0.1392947884
H  H105  1  0.74070000  0.98900000  0.83370000  1.0 0.1392947884
H  H106  1  0.75170000  0.74070000  0.33370000  1.0 0.1392947884
H  H107  1  0.01100000  0.75170000  0.83370000  1.0 0.1392947884
H  H108  1  0.25930000  0.01100000  0.33370000  1.0 0.1392947884
H  H109  1  0.74070000  0.75170000  0.66630000  1.0 0.1392947884
H  H110  1  0.98900000  0.74070000  0.16630000  1.0 0.1392947884
H  H111  1  0.24830000  0.98900000  0.66630000  1.0 0.1392947884
H  H112  1  0.25930000  0.24830000  0.16630000  1.0 0.1392947884
H  H113  1  0.01100000  0.25930000  0.66630000  1.0 0.1392947884
H  H114  1  0.75170000  0.01100000  0.16630000  1.0 0.1392947884
H  H115  1  0.22450000  0.31110000  0.96990000  1.0 0.1510439738
H  H116  1  0.91340000  0.22450000  0.46990000  1.0 0.1510439738
H  H117  1  0.68890000  0.91340000  0.96990000  1.0 0.1510439738
H  H118  1  0.77550000  0.68890000  0.46990000  1.0 0.1510439738
H  H119  1  0.08660000  0.77550000  0.96990000  1.0 0.1510439738
H  H120  1  0.31110000  0.08660000  0.46990000  1.0 0.1510439738
H  H121  1  0.68890000  0.77550000  0.53010000  1.0 0.1510439738
H  H122  1  0.91340000  0.68890000  0.03010000  1.0 0.1510439738
H  H123  1  0.22450000  0.91340000  0.53010000  1.0 0.1510439738
H  H124  1  0.31110000  0.22450000  0.03010000  1.0 0.1510439738
H  H125  1  0.08660000  0.31110000  0.53010000  1.0 0.1510439738
H  H126  1  0.77550000  0.08660000  0.03010000  1.0 0.1510439738
H  H127  1  0.16610000  0.28360000  0.93220000  1.0 0.121289885
H  H128  1  0.88250000  0.16610000  0.43220000  1.0 0.121289885
H  H129  1  0.71640000  0.88250000  0.93220000  1.0 0.121289885
H  H130  1  0.83390000  0.71640000  0.43220000  1.0 0.121289885
H  H131  1  0.11750000  0.83390000  0.93220000  1.0 0.121289885
H  H132  1  0.28360000  0.11750000  0.43220000  1.0 0.121289885
H  H133  1  0.71640000  0.83390000  0.56780000  1.0 0.121289885
H  H134  1  0.88250000  0.71640000  0.06780000  1.0 0.121289885
H  H135  1  0.16610000  0.88250000  0.56780000  1.0 0.121289885
H  H136  1  0.28360000  0.16610000  0.06780000  1.0 0.121289885
H  H137  1  0.11750000  0.28360000  0.56780000  1.0 0.121289885
H  H138  1  0.83390000  0.11750000  0.06780000  1.0 0.121289885
H  H139  1  0.15110000  0.18580000  0.72200000  1.0 0.1392947884
H  H140  1  0.96530000  0.15110000  0.22200000  1.0 0.1392947884
H  H141  1  0.81420000  0.96530000  0.72200000  1.0 0.1392947884
H  H142  1  0.84890000  0.81420000  0.22200000  1.0 0.1392947884
H  H143  1  0.03470000  0.84890000  0.72200000  1.0 0.1392947884
H  H144  1  0.18580000  0.03470000  0.22200000  1.0 0.1392947884
H  H145  1  0.81420000  0.84890000  0.77800000  1.0 0.1392947884
H  H146  1  0.96530000  0.81420000  0.27800000  1.0 0.1392947884
H  H147  1  0.15110000  0.96530000  0.77800000  1.0 0.1392947884
H  H148  1  0.18580000  0.15110000  0.27800000  1.0 0.1392947884
H  H149  1  0.03470000  0.18580000  0.77800000  1.0 0.1392947884
H  H150  1  0.84890000  0.03470000  0.27800000  1.0 0.1392947884
H  H151  1  0.50640000  0.41750000  0.28720000  1.0 0.1392947884
H  H152  1  0.08890000  0.50640000  0.78720000  1.0 0.1392947884
H  H153  1  0.58250000  0.08890000  0.28720000  1.0 0.1392947884
H  H154  1  0.49360000  0.58250000  0.78720000  1.0 0.1392947884
H  H155  1  0.91110000  0.49360000  0.28720000  1.0 0.1392947884
H  H156  1  0.41750000  0.91110000  0.78720000  1.0 0.1392947884
H  H157  1  0.58250000  0.49360000  0.21280000  1.0 0.1392947884
H  H158  1  0.08890000  0.58250000  0.71280000  1.0 0.1392947884
H  H159  1  0.50640000  0.08890000  0.21280000  1.0 0.1392947884
H  H160  1  0.41750000  0.50640000  0.71280000  1.0 0.1392947884
H  H161  1  0.91110000  0.41750000  0.21280000  1.0 0.1392947884
H  H162  1  0.49360000  0.91110000  0.71280000  1.0 0.1392947884
H  H163  1  0.11590000  0.23600000  0.85000000  1.0 0.1392947884
H  H164  1  0.87990000  0.11590000  0.35000000  1.0 0.1392947884
H  H165  1  0.76400000  0.87990000  0.85000000  1.0 0.1392947884
H  H166  1  0.88410000  0.76400000  0.35000000  1.0 0.1392947884
H  H167  1  0.12010000  0.88410000  0.85000000  1.0 0.1392947884
H  H168  1  0.23600000  0.12010000  0.35000000  1.0 0.1392947884
H  H169  1  0.76400000  0.88410000  0.65000000  1.0 0.1392947884
H  H170  1  0.87990000  0.76400000  0.15000000  1.0 0.1392947884
H  H171  1  0.11590000  0.87990000  0.65000000  1.0 0.1392947884
H  H172  1  0.23600000  0.11590000  0.15000000  1.0 0.1392947884
H  H173  1  0.12010000  0.23600000  0.65000000  1.0 0.1392947884
H  H174  1  0.88410000  0.12010000  0.15000000  1.0 0.1392947884
H  H175  1  0.96840000  0.03160000  0.75000000  1.0 0.121289885
H  H176  1  0.93680000  0.96840000  0.25000000  1.0 0.121289885
H  H177  1  0.96840000  0.93680000  0.75000000  1.0 0.121289885
H  H178  1  0.03160000  0.96840000  0.25000000  1.0 0.121289885
H  H179  1  0.06320000  0.03160000  0.75000000  1.0 0.121289885
H  H180  1  0.03160000  0.06320000  0.25000000  1.0 0.121289885
H  H181  1  0.01650000  0.08300000  0.66160000  1.0 0.121289885
H  H182  1  0.93350000  0.01650000  0.16160000  1.0 0.121289885
H  H183  1  0.91700000  0.93350000  0.66160000  1.0 0.121289885
H  H184  1  0.98350000  0.91700000  0.16160000  1.0 0.121289885
H  H185  1  0.06650000  0.98350000  0.66160000  1.0 0.121289885
H  H186  1  0.08300000  0.06650000  0.16160000  1.0 0.121289885
H  H187  1  0.91700000  0.98350000  0.83840000  1.0 0.121289885
H  H188  1  0.93350000  0.91700000  0.33840000  1.0 0.121289885
H  H189  1  0.01650000  0.93350000  0.83840000  1.0 0.121289885
H  H190  1  0.08300000  0.01650000  0.33840000  1.0 0.121289885
H  H191  1  0.06650000  0.08300000  0.83840000  1.0 0.121289885
H  H192  1  0.98350000  0.06650000  0.33840000  1.0 0.121289885
H  H193  1  0.05470000  0.14860000  0.65710000  1.0 0.1306145912
H  H194  1  0.90610000  0.05470000  0.15710000  1.0 0.1306145912
H  H195  1  0.85140000  0.90610000  0.65710000  1.0 0.1306145912
H  H196  1  0.94530000  0.85140000  0.15710000  1.0 0.1306145912
H  H197  1  0.09390000  0.94530000  0.65710000  1.0 0.1306145912
H  H198  1  0.14860000  0.09390000  0.15710000  1.0 0.1306145912
H  H199  1  0.85140000  0.94530000  0.84290000  1.0 0.1306145912
H  H200  1  0.90610000  0.85140000  0.34290000  1.0 0.1306145912
H  H201  1  0.05470000  0.90610000  0.84290000  1.0 0.1306145912
H  H202  1  0.14860000  0.05470000  0.34290000  1.0 0.1306145912
H  H203  1  0.09390000  0.14860000  0.84290000  1.0 0.1306145912
H  H204  1  0.94530000  0.09390000  0.34290000  1.0 0.1306145912
C  C1  1  0.41970000  0.37150000  0.11070000  1.0 0.0289138184
C  C2  1  0.04820000  0.41970000  0.61070000  1.0 0.0289138184
C  C3  1  0.62850000  0.04820000  0.11070000  1.0 0.0289138184
C  C4  1  0.58030000  0.62850000  0.61070000  1.0 0.0289138184
C  C5  1  0.95180000  0.58030000  0.11070000  1.0 0.0289138184
C  C6  1  0.37150000  0.95180000  0.61070000  1.0 0.0289138184
C  C7  1  0.62850000  0.58030000  0.38930000  1.0 0.0289138184
C  C8  1  0.04820000  0.62850000  0.88930000  1.0 0.0289138184
C  C9  1  0.41970000  0.04820000  0.38930000  1.0 0.0289138184
C  C10  1  0.37150000  0.41970000  0.88930000  1.0 0.0289138184
C  C11  1  0.95180000  0.37150000  0.38930000  1.0 0.0289138184
C  C12  1  0.58030000  0.95180000  0.88930000  1.0 0.0289138184
C  C13  1  0.45050000  0.37240000  0.08860000  1.0 -0.1506436609
C  C14  1  0.07810000  0.45050000  0.58860000  1.0 -0.1506436609
C  C15  1  0.62760000  0.07810000  0.08860000  1.0 -0.1506436609
C  C16  1  0.54950000  0.62760000  0.58860000  1.0 -0.1506436609
C  C17  1  0.92190000  0.54950000  0.08860000  1.0 -0.1506436609
C  C18  1  0.37240000  0.92190000  0.58860000  1.0 -0.1506436609
C  C19  1  0.62760000  0.54950000  0.41140000  1.0 -0.1506436609
C  C20  1  0.07810000  0.62760000  0.91140000  1.0 -0.1506436609
C  C21  1  0.45050000  0.07810000  0.41140000  1.0 -0.1506436609
C  C22  1  0.37240000  0.45050000  0.91140000  1.0 -0.1506436609
C  C23  1  0.92190000  0.37240000  0.41140000  1.0 -0.1506436609
C  C24  1  0.54950000  0.92190000  0.91140000  1.0 -0.1506436609
C  C25  1  0.48080000  0.38690000  0.12770000  1.0 0.0591434862
C  C26  1  0.09390000  0.48080000  0.62770000  1.0 0.0591434862
C  C27  1  0.61310000  0.09390000  0.12770000  1.0 0.0591434862
C  C28  1  0.51920000  0.61310000  0.62770000  1.0 0.0591434862
C  C29  1  0.90610000  0.51920000  0.12770000  1.0 0.0591434862
C  C30  1  0.38690000  0.90610000  0.62770000  1.0 0.0591434862
C  C31  1  0.61310000  0.51920000  0.37230000  1.0 0.0591434862
C  C32  1  0.09390000  0.61310000  0.87230000  1.0 0.0591434862
C  C33  1  0.48080000  0.09390000  0.37230000  1.0 0.0591434862
C  C34  1  0.38690000  0.48080000  0.87230000  1.0 0.0591434862
C  C35  1  0.90610000  0.38690000  0.37230000  1.0 0.0591434862
C  C36  1  0.51920000  0.90610000  0.87230000  1.0 0.0591434862
C  C37  1  0.48030000  0.40050000  0.18900000  1.0 0.082661949
C  C38  1  0.07980000  0.48030000  0.68900000  1.0 0.082661949
C  C39  1  0.59950000  0.07980000  0.18900000  1.0 0.082661949
C  C40  1  0.51970000  0.59950000  0.68900000  1.0 0.082661949
C  C41  1  0.92020000  0.51970000  0.18900000  1.0 0.082661949
C  C42  1  0.40050000  0.92020000  0.68900000  1.0 0.082661949
C  C43  1  0.59950000  0.51970000  0.31100000  1.0 0.082661949
C  C44  1  0.07980000  0.59950000  0.81100000  1.0 0.082661949
C  C45  1  0.48030000  0.07980000  0.31100000  1.0 0.082661949
C  C46  1  0.40050000  0.48030000  0.81100000  1.0 0.082661949
C  C47  1  0.92020000  0.40050000  0.31100000  1.0 0.082661949
C  C48  1  0.51970000  0.92020000  0.81100000  1.0 0.082661949
C  C49  1  0.44950000  0.39960000  0.21110000  1.0 -0.1426647966
C  C50  1  0.04990000  0.44950000  0.71110000  1.0 -0.1426647966
C  C51  1  0.60040000  0.04990000  0.21110000  1.0 -0.1426647966
C  C52  1  0.55050000  0.60040000  0.71110000  1.0 -0.1426647966
C  C53  1  0.95010000  0.55050000  0.21110000  1.0 -0.1426647966
C  C54  1  0.39960000  0.95010000  0.71110000  1.0 -0.1426647966
C  C55  1  0.60040000  0.55050000  0.28890000  1.0 -0.1426647966
C  C56  1  0.04990000  0.60040000  0.78890000  1.0 -0.1426647966
C  C57  1  0.44950000  0.04990000  0.28890000  1.0 -0.1426647966
C  C58  1  0.39960000  0.44950000  0.78890000  1.0 -0.1426647966
C  C59  1  0.95010000  0.39960000  0.28890000  1.0 -0.1426647966
C  C60  1  0.55050000  0.95010000  0.78890000  1.0 -0.1426647966
C  C61  1  0.41920000  0.38510000  0.17200000  1.0 -0.0905625231
C  C62  1  0.03410000  0.41920000  0.67200000  1.0 -0.0905625231
C  C63  1  0.61490000  0.03410000  0.17200000  1.0 -0.0905625231
C  C64  1  0.58080000  0.61490000  0.67200000  1.0 -0.0905625231
C  C65  1  0.96590000  0.58080000  0.17200000  1.0 -0.0905625231
C  C66  1  0.38510000  0.96590000  0.67200000  1.0 -0.0905625231
C  C67  1  0.61490000  0.58080000  0.32800000  1.0 -0.0905625231
C  C68  1  0.03410000  0.61490000  0.82800000  1.0 -0.0905625231
C  C69  1  0.41920000  0.03410000  0.32800000  1.0 -0.0905625231
C  C70  1  0.38510000  0.41920000  0.82800000  1.0 -0.0905625231
C  C71  1  0.96590000  0.38510000  0.32800000  1.0 -0.0905625231
C  C72  1  0.58080000  0.96590000  0.82800000  1.0 -0.0905625231
C  C73  1  0.50980000  0.38580000  0.10700000  1.0 -0.1426647966
C  C74  1  0.12400000  0.50980000  0.60700000  1.0 -0.1426647966
C  C75  1  0.61420000  0.12400000  0.10700000  1.0 -0.1506436609
C  C76  1  0.49020000  0.61420000  0.60700000  1.0 -0.1426647966
C  C77  1  0.87600000  0.49020000  0.10700000  1.0 -0.1426647966
C  C78  1  0.38580000  0.87600000  0.60700000  1.0 -0.1426647966
C  C79  1  0.61420000  0.49020000  0.39300000  1.0 -0.1426647966
C  C80  1  0.12400000  0.61420000  0.89300000  1.0 -0.1426647966
C  C81  1  0.50980000  0.12400000  0.39300000  1.0 -0.1426647966
C  C82  1  0.38580000  0.50980000  0.89300000  1.0 -0.1426647966
C  C83  1  0.87600000  0.38580000  0.39300000  1.0 -0.1506436609
C  C84  1  0.49020000  0.87600000  0.89300000  1.0 -0.1426647966
C  C85  1  0.54080000  0.40400000  0.15800000  1.0 -0.1506436609
C  C86  1  0.13680000  0.54080000  0.65800000  1.0 -0.1506436609
C  C87  1  0.59600000  0.13680000  0.15800000  1.0 -0.1506436609
C  C88  1  0.45920000  0.59600000  0.65800000  1.0 -0.1506436609
C  C89  1  0.86320000  0.45920000  0.15800000  1.0 -0.1506436609
C  C90  1  0.40400000  0.86320000  0.65800000  1.0 -0.1426647966
C  C91  1  0.59600000  0.45920000  0.34200000  1.0 -0.1506436609
C  C92  1  0.13680000  0.59600000  0.84200000  1.0 -0.1506436609
C  C93  1  0.54080000  0.13680000  0.34200000  1.0 -0.1506436609
C  C94  1  0.40400000  0.54080000  0.84200000  1.0 -0.1506436609
C  C95  1  0.86320000  0.40400000  0.34200000  1.0 -0.1426647966
C  C96  1  0.45920000  0.86320000  0.84200000  1.0 -0.1426647966
C  C97  1  0.58880000  0.41120000  0.25000000  1.0 0.1839288021
C  C98  1  0.17760000  0.58880000  0.75000000  1.0 0.1839288021
C  C99  1  0.58880000  0.17760000  0.25000000  1.0 0.1839288021
C  C100  1  0.41120000  0.58880000  0.75000000  1.0 0.1839288021
C  C101  1  0.82240000  0.41120000  0.25000000  1.0 0.1839288021
C  C102  1  0.41120000  0.82240000  0.75000000  1.0 0.1871390516
C  C103  1  0.62620000  0.42550000  0.23080000  1.0 -0.1994054138
C  C104  1  0.20070000  0.62620000  0.73080000  1.0 -0.1994054138
C  C105  1  0.57450000  0.20070000  0.23080000  1.0 -0.1994054138
C  C106  1  0.37380000  0.57450000  0.73080000  1.0 -0.1994054138
C  C107  1  0.79930000  0.37380000  0.23080000  1.0 -0.1994054138
C  C108  1  0.42550000  0.79930000  0.73080000  1.0 -0.1994054138
C  C109  1  0.57450000  0.37380000  0.26920000  1.0 -0.1994054138
C  C110  1  0.20070000  0.57450000  0.76920000  1.0 -0.1994054138
C  C111  1  0.62620000  0.20070000  0.26920000  1.0 -0.1994054138
C  C112  1  0.42550000  0.62620000  0.76920000  1.0 -0.1994054138
C  C113  1  0.79930000  0.42550000  0.26920000  1.0 -0.1994054138
C  C114  1  0.37380000  0.79930000  0.76920000  1.0 -0.1994054138
C  C115  1  0.64360000  0.40660000  0.23870000  1.0 -0.1506436609
C  C116  1  0.23700000  0.64360000  0.73870000  1.0 -0.1506436609
C  C117  1  0.59340000  0.23700000  0.23870000  1.0 -0.1506436609
C  C118  1  0.35640000  0.59340000  0.73870000  1.0 -0.1506436609
C  C119  1  0.76300000  0.35640000  0.23870000  1.0 -0.1506436609
C  C120  1  0.40660000  0.76300000  0.73870000  1.0 -0.1506436609
C  C121  1  0.59340000  0.35640000  0.26130000  1.0 -0.1506436609
C  C122  1  0.23700000  0.59340000  0.76130000  1.0 -0.1506436609
C  C123  1  0.64360000  0.23700000  0.26130000  1.0 -0.1506436609
C  C124  1  0.40660000  0.64360000  0.76130000  1.0 -0.1506436609
C  C125  1  0.76300000  0.40660000  0.26130000  1.0 -0.1506436609
C  C126  1  0.35640000  0.76300000  0.76130000  1.0 -0.1506436609
C  C127  1  0.62960000  0.37040000  0.25000000  1.0 0.1001817477
C  C128  1  0.25920000  0.62960000  0.75000000  1.0 0.0932412267
C  C129  1  0.62960000  0.25920000  0.25000000  1.0 0.0932412267
C  C130  1  0.37040000  0.62960000  0.75000000  1.0 0.0932412267
C  C131  1  0.74080000  0.37040000  0.25000000  1.0 0.0932412267
C  C132  1  0.37040000  0.74080000  0.75000000  1.0 0.0932412267
C  C133  1  0.64980000  0.35020000  0.25000000  1.0 0.0391489403
C  C134  1  0.29960000  0.64980000  0.75000000  1.0 0.0391489403
C  C135  1  0.64980000  0.29960000  0.25000000  1.0 0.0391489403
C  C136  1  0.35020000  0.64980000  0.75000000  1.0 0.0391489403
C  C137  1  0.70040000  0.35020000  0.25000000  1.0 0.0391489403
C  C138  1  0.35020000  0.70040000  0.75000000  1.0 0.0391489403
C  C139  1  0.68770000  0.37540000  0.25000000  1.0 -0.2732880447
C  C140  1  0.31230000  0.68770000  0.75000000  1.0 -0.2732880447
C  C141  1  0.62460000  0.31230000  0.25000000  1.0 -0.2732880447
C  C142  1  0.31230000  0.62460000  0.75000000  1.0 -0.2732880447
C  C143  1  0.68770000  0.31230000  0.25000000  1.0 -0.2732880447
C  C144  1  0.37540000  0.68770000  0.75000000  1.0 -0.2732880447
C  C145  1  0.28040000  0.30580000  0.93050000  1.0 0.5677506551
C  C146  1  0.97460000  0.28040000  0.43050000  1.0 0.5677506551
C  C147  1  0.69420000  0.97460000  0.93050000  1.0 0.5677506551
C  C148  1  0.71960000  0.69420000  0.43050000  1.0 0.5677506551
C  C149  1  0.02540000  0.71960000  0.93050000  1.0 0.5677506551
C  C150  1  0.30580000  0.02540000  0.43050000  1.0 0.5677506551
C  C151  1  0.69420000  0.71960000  0.56950000  1.0 0.5677506551
C  C152  1  0.97460000  0.69420000  0.06950000  1.0 0.5677506551
C  C153  1  0.28040000  0.97460000  0.56950000  1.0 0.5677506551
C  C154  1  0.30580000  0.28040000  0.06950000  1.0 0.5677506551
C  C155  1  0.02540000  0.30580000  0.56950000  1.0 0.5677506551
C  C156  1  0.71960000  0.02540000  0.06950000  1.0 0.5677506551
C  C157  1  0.19080000  0.22380000  0.78320000  1.0 -0.1313033489
C  C158  1  0.96700000  0.19080000  0.28320000  1.0 -0.1313033489
C  C159  1  0.77620000  0.96700000  0.78320000  1.0 -0.1313033489
C  C160  1  0.80920000  0.77620000  0.28320000  1.0 -0.1313033489
C  C161  1  0.03300000  0.80920000  0.78320000  1.0 -0.1313033489
C  C162  1  0.22380000  0.03300000  0.28320000  1.0 -0.1313033489
C  C163  1  0.77620000  0.80920000  0.71680000  1.0 -0.1313033489
C  C164  1  0.96700000  0.77620000  0.21680000  1.0 -0.1313033489
C  C165  1  0.19080000  0.96700000  0.71680000  1.0 -0.1313033489
C  C166  1  0.22380000  0.19080000  0.21680000  1.0 -0.1313033489
C  C167  1  0.03300000  0.22380000  0.71680000  1.0 -0.1313033489
C  C168  1  0.80920000  0.03300000  0.21680000  1.0 -0.1313033489
C  C169  1  0.13140000  0.21210000  0.78190000  1.0 0.2008787293
C  C170  1  0.91930000  0.13140000  0.28190000  1.0 0.2008787293
C  C171  1  0.78790000  0.91930000  0.78190000  1.0 0.2008787293
C  C172  1  0.86860000  0.78790000  0.28190000  1.0 0.2008787293
C  C173  1  0.08070000  0.86860000  0.78190000  1.0 0.2008787293
C  C174  1  0.21210000  0.08070000  0.28190000  1.0 0.2008787293
C  C175  1  0.78790000  0.86860000  0.71810000  1.0 0.2008787293
C  C176  1  0.91930000  0.78790000  0.21810000  1.0 0.2008787293
C  C177  1  0.13140000  0.91930000  0.71810000  1.0 0.2008787293
C  C178  1  0.21210000  0.13140000  0.21810000  1.0 0.2008787293
C  C179  1  0.08070000  0.21210000  0.71810000  1.0 0.2008787293
C  C180  1  0.86860000  0.08070000  0.21810000  1.0 0.2008787293
C  C181  1  0.19680000  0.24770000  0.83090000  1.0 0.0591434862
C  C182  1  0.94910000  0.19680000  0.33090000  1.0 0.0591434862
C  C183  1  0.75230000  0.94910000  0.83090000  1.0 0.0591434862
C  C184  1  0.80320000  0.75230000  0.33090000  1.0 0.0591434862
C  C185  1  0.05090000  0.80320000  0.83090000  1.0 0.0591434862
C  C186  1  0.24770000  0.05090000  0.33090000  1.0 0.0591434862
C  C187  1  0.75230000  0.80320000  0.66910000  1.0 0.0591434862
C  C188  1  0.94910000  0.75230000  0.16910000  1.0 0.0591434862
C  C189  1  0.19680000  0.94910000  0.66910000  1.0 0.0591434862
C  C190  1  0.24770000  0.19680000  0.16910000  1.0 0.0591434862
C  C191  1  0.05090000  0.24770000  0.66910000  1.0 0.0591434862
C  C192  1  0.80320000  0.05090000  0.16910000  1.0 0.0591434862
C  C193  1  0.23180000  0.26410000  0.85340000  1.0 -0.1661820338
C  C194  1  0.96770000  0.23180000  0.35340000  1.0 -0.1661820338
C  C195  1  0.73590000  0.96770000  0.85340000  1.0 -0.1661820338
C  C196  1  0.76820000  0.73590000  0.35340000  1.0 -0.1661820338
C  C197  1  0.03230000  0.76820000  0.85340000  1.0 -0.1661820338
C  C198  1  0.26410000  0.03230000  0.35340000  1.0 -0.1661820338
C  C199  1  0.73590000  0.76820000  0.64660000  1.0 -0.1661820338
C  C200  1  0.96770000  0.73590000  0.14660000  1.0 -0.1661820338
C  C201  1  0.23180000  0.96770000  0.64660000  1.0 -0.1661820338
C  C202  1  0.26410000  0.23180000  0.14660000  1.0 -0.1661820338
C  C203  1  0.03230000  0.26410000  0.64660000  1.0 -0.1661820338
C  C204  1  0.76820000  0.03230000  0.14660000  1.0 -0.1661820338
C  C205  1  0.24220000  0.28790000  0.90550000  1.0 0.0139585398
C  C206  1  0.95430000  0.24220000  0.40550000  1.0 0.0139585398
C  C207  1  0.71210000  0.95430000  0.90550000  1.0 0.0139585398
C  C208  1  0.75780000  0.71210000  0.40550000  1.0 0.0139585398
C  C209  1  0.04570000  0.75780000  0.90550000  1.0 0.0139585398
C  C210  1  0.28790000  0.04570000  0.40550000  1.0 0.0139585398
C  C211  1  0.71210000  0.75780000  0.59450000  1.0 0.0139585398
C  C212  1  0.95430000  0.71210000  0.09450000  1.0 0.0139585398
C  C213  1  0.24220000  0.95430000  0.59450000  1.0 0.0139585398
C  C214  1  0.28790000  0.24220000  0.09450000  1.0 0.0139585398
C  C215  1  0.04570000  0.28790000  0.59450000  1.0 0.0139585398
C  C216  1  0.75780000  0.04570000  0.09450000  1.0 0.0139585398
C  C217  1  0.21750000  0.29520000  0.93500000  1.0 -0.1143683141
C  C218  1  0.92230000  0.21750000  0.43500000  1.0 -0.1143683141
C  C219  1  0.70480000  0.92230000  0.93500000  1.0 -0.1143683141
C  C220  1  0.78250000  0.70480000  0.43500000  1.0 -0.1143683141
C  C221  1  0.07770000  0.78250000  0.93500000  1.0 -0.1143683141
C  C222  1  0.29520000  0.07770000  0.43500000  1.0 -0.1143683141
C  C223  1  0.70480000  0.78250000  0.56500000  1.0 -0.1155584095
C  C224  1  0.92230000  0.70480000  0.06500000  1.0 -0.1155584095
C  C225  1  0.21750000  0.92230000  0.56500000  1.0 -0.1143683141
C  C226  1  0.29520000  0.21750000  0.06500000  1.0 -0.1143683141
C  C227  1  0.07770000  0.29520000  0.56500000  1.0 -0.1143683141
C  C228  1  0.78250000  0.07770000  0.06500000  1.0 -0.1143683141
C  C229  1  0.18260000  0.27870000  0.91250000  1.0 -0.1426647966
C  C230  1  0.90390000  0.18260000  0.41250000  1.0 -0.1426647966
C  C231  1  0.72130000  0.90390000  0.91250000  1.0 -0.1426647966
C  C232  1  0.81740000  0.72130000  0.41250000  1.0 -0.1426647966
C  C233  1  0.09610000  0.81740000  0.91250000  1.0 -0.1426647966
C  C234  1  0.27870000  0.09610000  0.41250000  1.0 -0.1426647966
C  C235  1  0.72130000  0.81740000  0.58750000  1.0 -0.1426647966
C  C236  1  0.90390000  0.72130000  0.08750000  1.0 -0.1426647966
C  C237  1  0.18260000  0.90390000  0.58750000  1.0 -0.1426647966
C  C238  1  0.27870000  0.18260000  0.08750000  1.0 -0.1426647966
C  C239  1  0.09610000  0.27870000  0.58750000  1.0 -0.1426647966
C  C240  1  0.81740000  0.09610000  0.08750000  1.0 -0.1426647966
C  C241  1  0.17220000  0.25490000  0.86040000  1.0 0.1001817477
C  C242  1  0.91730000  0.17220000  0.36040000  1.0 0.1001817477
C  C243  1  0.74510000  0.91730000  0.86040000  1.0 0.1001817477
C  C244  1  0.82780000  0.74510000  0.36040000  1.0 0.1001817477
C  C245  1  0.08270000  0.82780000  0.86040000  1.0 0.1001817477
C  C246  1  0.25490000  0.08270000  0.36040000  1.0 0.1001817477
C  C247  1  0.74510000  0.82780000  0.63960000  1.0 0.1001817477
C  C248  1  0.91730000  0.74510000  0.13960000  1.0 0.1001817477
C  C249  1  0.17220000  0.91730000  0.63960000  1.0 0.1001817477
C  C250  1  0.25490000  0.17220000  0.13960000  1.0 0.1001817477
C  C251  1  0.08270000  0.25490000  0.63960000  1.0 0.1001817477
C  C252  1  0.82780000  0.08270000  0.13960000  1.0 0.1001817477
C  C253  1  0.38920000  0.35450000  0.06170000  1.0 0.5583727186
C  C254  1  0.03470000  0.38920000  0.56170000  1.0 0.5583727186
C  C255  1  0.64550000  0.03470000  0.06170000  1.0 0.5583727186
C  C256  1  0.61080000  0.64550000  0.56170000  1.0 0.5583727186
C  C257  1  0.96530000  0.61080000  0.06170000  1.0 0.5583727186
C  C258  1  0.35450000  0.96530000  0.56170000  1.0 0.5583727186
C  C259  1  0.64550000  0.61080000  0.43830000  1.0 0.5583727186
C  C260  1  0.03470000  0.64550000  0.93830000  1.0 0.5583727186
C  C261  1  0.38920000  0.03470000  0.43830000  1.0 0.5583727186
C  C262  1  0.35450000  0.38920000  0.93830000  1.0 0.5583727186
C  C263  1  0.96530000  0.35450000  0.43830000  1.0 0.5583727186
C  C264  1  0.61080000  0.96530000  0.93830000  1.0 0.5583727186
C  C265  1  0.15660000  0.20300000  0.75430000  1.0 -0.1994054138
C  C266  1  0.95360000  0.15660000  0.25430000  1.0 -0.1994054138
C  C267  1  0.79700000  0.95360000  0.75430000  1.0 -0.1994054138
C  C268  1  0.84340000  0.79700000  0.25430000  1.0 -0.1994054138
C  C269  1  0.04640000  0.84340000  0.75430000  1.0 -0.1994054138
C  C270  1  0.20300000  0.04640000  0.25430000  1.0 -0.1994054138
C  C271  1  0.79700000  0.84340000  0.74570000  1.0 -0.1994054138
C  C272  1  0.95360000  0.79700000  0.24570000  1.0 -0.1994054138
C  C273  1  0.15660000  0.95360000  0.74570000  1.0 -0.1994054138
C  C274  1  0.20300000  0.15660000  0.24570000  1.0 -0.1994054138
C  C275  1  0.04640000  0.20300000  0.74570000  1.0 -0.1994054138
C  C276  1  0.84340000  0.04640000  0.24570000  1.0 -0.1994054138
C  C277  1  0.50790000  0.41210000  0.24370000  1.0 -0.2732880447
C  C278  1  0.09580000  0.50790000  0.74370000  1.0 -0.2732880447
C  C279  1  0.58790000  0.09580000  0.24370000  1.0 -0.2732880447
C  C280  1  0.49210000  0.58790000  0.74370000  1.0 -0.2732880447
C  C281  1  0.90420000  0.49210000  0.24370000  1.0 -0.2732880447
C  C282  1  0.41210000  0.90420000  0.74370000  1.0 -0.2732880447
C  C283  1  0.58790000  0.49210000  0.25630000  1.0 -0.2732880447
C  C284  1  0.09580000  0.58790000  0.75630000  1.0 -0.2753496444
C  C285  1  0.50790000  0.09580000  0.25630000  1.0 -0.2732880447
C  C286  1  0.41210000  0.50790000  0.75630000  1.0 -0.2732880447
C  C287  1  0.90420000  0.41210000  0.25630000  1.0 -0.2732880447
C  C288  1  0.49210000  0.90420000  0.75630000  1.0 -0.2732880447
C  C289  1  0.53640000  0.41230000  0.20980000  1.0 0.1306145912
C  C290  1  0.12410000  0.53640000  0.70980000  1.0 0.1306145912
C  C291  1  0.58770000  0.12410000  0.20980000  1.0 0.1392947884
C  C292  1  0.46360000  0.58770000  0.70980000  1.0 0.1306145912
C  C293  1  0.87590000  0.46360000  0.20980000  1.0 0.1306145912
C  C294  1  0.41230000  0.87590000  0.70980000  1.0 0.1306145912
C  C295  1  0.58770000  0.46360000  0.29020000  1.0 0.1306145912
C  C296  1  0.12410000  0.58770000  0.79020000  1.0 0.1306145912
C  C297  1  0.53640000  0.12410000  0.29020000  1.0 0.1392947884
C  C298  1  0.41230000  0.53640000  0.79020000  1.0 0.1306145912
C  C299  1  0.87590000  0.41230000  0.29020000  1.0 0.1306145912
C  C300  1  0.46360000  0.87590000  0.79020000  1.0 0.1306145912
C  C301  1  0.13490000  0.23410000  0.83340000  1.0 -0.2732880447
C  C302  1  0.90080000  0.13490000  0.33340000  1.0 -0.2753496444
C  C303  1  0.76590000  0.90080000  0.83340000  1.0 -0.2732880447
C  C304  1  0.86510000  0.76590000  0.33340000  1.0 -0.2732880447
C  C305  1  0.09920000  0.86510000  0.83340000  1.0 -0.2732880447
C  C306  1  0.23410000  0.09920000  0.33340000  1.0 -0.2753496444
C  C307  1  0.76590000  0.86510000  0.66666667  1.0 -0.2732880447
C  C308  1  0.90080000  0.76590000  0.16660000  1.0 -0.2732880447
C  C309  1  0.13490000  0.90080000  0.66666667  1.0 -0.2732880447
C  C310  1  0.23410000  0.13490000  0.16660000  1.0 -0.2732880447
C  C311  1  0.09920000  0.23410000  0.66666667  1.0 -0.2732880447
C  C312  1  0.86510000  0.09920000  0.16660000  1.0 -0.2753496444
C  C313  1  0.03990000  0.07980000  0.75000000  1.0 0.0688425128
C  C314  1  0.96010000  0.03990000  0.25000000  1.0 0.0688425128
C  C315  1  0.92020000  0.96010000  0.75000000  1.0 0.0688425128
C  C316  1  0.96010000  0.92020000  0.25000000  1.0 0.0688425128
C  C317  1  0.03990000  0.96010000  0.75000000  1.0 0.0688425128
C  C318  1  0.07980000  0.03990000  0.25000000  1.0 0.0688425128
C  C319  1  0.01985000  0.03970000  0.75000000  1.0 0.1102064947
C  C320  1  0.98015000  0.01985000  0.25000000  1.0 0.1102064947
C  C321  1  0.96030000  0.98015000  0.75000000  1.0 0.1102064947
C  C322  1  0.98015000  0.96030000  0.25000000  1.0 0.1102064947
C  C323  1  0.01985000  0.98015000  0.75000000  1.0 0.1102064947
C  C324  1  0.03970000  0.01985000  0.25000000  1.0 0.1102064947
C  C325  1  0.98080000  0.01920000  0.75000000  1.0 -0.2511011537
C  C326  1  0.96160000  0.98080000  0.25000000  1.0 -0.2511011537
C  C327  1  0.98080000  0.96160000  0.75000000  1.0 -0.2511011537
C  C328  1  0.01920000  0.98080000  0.25000000  1.0 -0.2511011537
C  C329  1  0.03840000  0.01920000  0.75000000  1.0 -0.2511011537
C  C330  1  0.01920000  0.03840000  0.25000000  1.0 -0.2511011537
C  C331  1  0.03310000  0.09620000  0.69380000  1.0 -0.1506436609
C  C332  1  0.93690000  0.03310000  0.19380000  1.0 -0.1506436609
C  C333  1  0.90380000  0.93690000  0.69380000  1.0 -0.1506436609
C  C334  1  0.96690000  0.90380000  0.19380000  1.0 -0.1506436609
C  C335  1  0.06310000  0.96690000  0.69380000  1.0 -0.1506436609
C  C336  1  0.09620000  0.06310000  0.19380000  1.0 -0.1506436609
C  C337  1  0.90380000  0.96690000  0.80620000  1.0 -0.1506436609
C  C338  1  0.93690000  0.90380000  0.30620000  1.0 -0.1506436609
C  C339  1  0.03310000  0.93690000  0.80620000  1.0 -0.1506436609
C  C340  1  0.09620000  0.03310000  0.30620000  1.0 -0.1506436609
C  C341  1  0.06310000  0.09620000  0.80620000  1.0 -0.1506436609
C  C342  1  0.96690000  0.06310000  0.30620000  1.0 -0.1506436609
C  C343  1  0.05440000  0.13500000  0.69230000  1.0 -0.2072944865
C  C344  1  0.91940000  0.05440000  0.19230000  1.0 -0.2072944865
C  C345  1  0.86500000  0.91940000  0.69230000  1.0 -0.2072944865
C  C346  1  0.94560000  0.86500000  0.19230000  1.0 -0.2072944865
C  C347  1  0.08060000  0.94560000  0.69230000  1.0 -0.2072944865
C  C348  1  0.13500000  0.08060000  0.19230000  1.0 -0.2072944865
C  C349  1  0.86500000  0.94560000  0.80770000  1.0 -0.2072944865
C  C350  1  0.91940000  0.86500000  0.30770000  1.0 -0.2072944865
C  C351  1  0.05440000  0.91940000  0.80770000  1.0 -0.2072944865
C  C352  1  0.13500000  0.05440000  0.30770000  1.0 -0.2072944865
C  C353  1  0.08060000  0.13500000  0.80770000  1.0 -0.2072944865
C  C354  1  0.94560000  0.08060000  0.30770000  1.0 -0.2072944865
C  C355  1  0.07500000  0.15000000  0.75000000  1.0 0.2066564435
C  C356  1  0.92500000  0.07500000  0.25000000  1.0 0.2066564435
C  C357  1  0.85000000  0.92500000  0.75000000  1.0 0.2066564435
C  C358  1  0.92500000  0.85000000  0.25000000  1.0 0.2066564435
C  C359  1  0.07500000  0.92500000  0.75000000  1.0 0.2066564435
C  C360  1  0.15000000  0.07500000  0.25000000  1.0 0.2066564435
N  N1  1  0.57080000  0.42920000  0.25000000  1.0 -0.1506436609
N  N2  1  0.14160000  0.57080000  0.75000000  1.0 -0.1506436609
N  N3  1  0.57080000  0.14160000  0.25000000  1.0 -0.1506436609
N  N4  1  0.42920000  0.57080000  0.75000000  1.0 -0.1506436609
N  N5  1  0.85840000  0.42920000  0.25000000  1.0 -0.1506436609
N  N6  1  0.42920000  0.85840000  0.75000000  1.0 -0.1506436609
N  N7  1  0.09510000  0.19020000  0.75000000  1.0 -0.1631620303
N  N8  1  0.90490000  0.09510000  0.25000000  1.0 -0.1631620303
N  N9  1  0.80980000  0.90490000  0.75000000  1.0 -0.1631620303
N  N10  1  0.90490000  0.80980000  0.25000000  1.0 -0.1631620303
N  N11  1  0.09510000  0.90490000  0.75000000  1.0 -0.1631620303
N  N12  1  0.19020000  0.09510000  0.25000000  1.0 -0.1631620303
O  O1  1  0.27700000  0.32300000  0.98470000  1.0 -0.5830164328
O  O2  1  0.95400000  0.27700000  0.48470000  1.0 -0.5830164328
O  O3  1  0.67700000  0.95400000  0.98470000  1.0 -0.5830164328
O  O4  1  0.72300000  0.67700000  0.48470000  1.0 -0.5830164328
O  O5  1  0.04600000  0.72300000  0.98470000  1.0 -0.5830164328
O  O6  1  0.32300000  0.04600000  0.48470000  1.0 -0.5830164328
O  O7  1  0.67700000  0.72300000  0.51530000  1.0 -0.5830164328
O  O8  1  0.95400000  0.67700000  0.01530000  1.0 -0.5830164328
O  O9  1  0.27700000  0.95400000  0.51530000  1.0 -0.5830164328
O  O10  1  0.32300000  0.27700000  0.01530000  1.0 -0.5830164328
O  O11  1  0.04600000  0.32300000  0.51530000  1.0 -0.5830164328
O  O12  1  0.72300000  0.04600000  0.01530000  1.0 -0.5830164328
O  O13  1  0.30270000  0.29770000  0.90160000  1.0 -0.5043881937
O  O14  1  0.00500000  0.30270000  0.40160000  1.0 -0.5052316164
O  O15  1  0.70230000  0.00500000  0.90160000  1.0 -0.5043881937
O  O16  1  0.69730000  0.70230000  0.40160000  1.0 -0.5052316164
O  O17  1  0.99500000  0.69730000  0.90160000  1.0 -0.5052316164
O  O18  1  0.29770000  0.99500000  0.40160000  1.0 -0.5052316164
O  O19  1  0.70230000  0.69730000  0.59840000  1.0 -0.5043881937
O  O20  1  0.00500000  0.70230000  0.09840000  1.0 -0.5043881937
O  O21  1  0.30270000  0.00500000  0.59840000  1.0 -0.5043881937
O  O22  1  0.29770000  0.30270000  0.09840000  1.0 -0.5043881937
O  O23  1  0.99500000  0.29770000  0.59840000  1.0 -0.5043881937
O  O24  1  0.69730000  0.99500000  0.09840000  1.0 -0.5052316164
O  O25  1  0.36370000  0.36150000  0.09550000  1.0 -0.5977302269
O  O26  1  0.00220000  0.36370000  0.59550000  1.0 -0.5977302269
O  O27  1  0.63850000  0.00220000  0.09550000  1.0 -0.5977302269
O  O28  1  0.63630000  0.63850000  0.59550000  1.0 -0.5977302269
O  O29  1  0.99780000  0.63630000  0.09550000  1.0 -0.5977302269
O  O30  1  0.36150000  0.99780000  0.59550000  1.0 -0.5977302269
O  O31  1  0.63850000  0.63630000  0.40450000  1.0 -0.5977302269
O  O32  1  0.00220000  0.63850000  0.90450000  1.0 -0.5977302269
O  O33  1  0.36370000  0.00220000  0.40450000  1.0 -0.5977302269
O  O34  1  0.36150000  0.36370000  0.90450000  1.0 -0.5977302269
O  O35  1  0.99780000  0.36150000  0.40450000  1.0 -0.5977302269
O  O36  1  0.63630000  0.99780000  0.90450000  1.0 -0.5977302269
O  O37  1  0.38840000  0.34240000  0.00080000  1.0 -0.5302071149
O  O38  1  0.04600000  0.38840000  0.50080000  1.0 -0.5302071149
O  O39  1  0.65760000  0.04600000  0.00080000  1.0 -0.5302071149
O  O40  1  0.61160000  0.65760000  0.50080000  1.0 -0.5302071149
O  O41  1  0.95400000  0.61160000  0.00080000  1.0 -0.5302071149
O  O42  1  0.34240000  0.95400000  0.50080000  1.0 -0.5302071149
O  O43  1  0.65760000  0.61160000  0.49920000  1.0 -0.5302071149
O  O44  1  0.04600000  0.65760000  0.99920000  1.0 -0.5302071149
O  O45  1  0.38840000  0.04600000  0.49920000  1.0 -0.5302071149
O  O46  1  0.34240000  0.38840000  0.99920000  1.0 -0.5302071149
O  O47  1  0.95400000  0.34240000  0.49920000  1.0 -0.5302071149
O  O48  1  0.61160000  0.95400000  0.99920000  1.0 -0.5302071149
