# DDEC6 charges by PACMAN v1.1 (https://github.com/mtap-research/PACMAN-charge/)
data_VETSUK_ASR_pacman
_symmetry_space_group_name_H-M   'P 1'
_cell_length_a   35.22880000
_cell_length_b   35.22880000
_cell_length_c   35.22880000
_cell_angle_alpha   60.00000000
_cell_angle_beta   60.00000000
_cell_angle_gamma   60.00000000
_symmetry_Int_Tables_number   1
_chemical_formula_structural   Co2H36C48ClO12
_chemical_formula_sum   'Co24 H432 C576 Cl12 O144'
_cell_volume   30915.66212630
_cell_formula_units_Z   12
loop_
 _symmetry_equiv_pos_site_id
 _symmetry_equiv_pos_as_xyz
  1  'x, y, z'
loop_
 _atom_site_type_symbol
 _atom_site_label
 _atom_site_symmetry_multiplicity
 _atom_site_fract_x
 _atom_site_fract_y
 _atom_site_fract_z
 _atom_site_occupancy
 _atom_site_charge
Co  Co1  1  0.96713000  0.44055000  0.03287000  1.0 0.6265407755
Co  Co2  1  0.44055000  0.96713000  0.55945000  1.0 0.6265407755
Co  Co3  1  0.03287000  0.55945000  0.96713000  1.0 0.6233473896
Co  Co4  1  0.55945000  0.03287000  0.44055000  1.0 0.6265407755
Co  Co5  1  0.03287000  0.96713000  0.44055000  1.0 0.6265407755
Co  Co6  1  0.55945000  0.44055000  0.96713000  1.0 0.6233473896
Co  Co7  1  0.96713000  0.03287000  0.55945000  1.0 0.6233473896
Co  Co8  1  0.44055000  0.55945000  0.03287000  1.0 0.6265407755
Co  Co9  1  0.44055000  0.03287000  0.96713000  1.0 0.6233473896
Co  Co10  1  0.96713000  0.55945000  0.44055000  1.0 0.6265407755
Co  Co11  1  0.55945000  0.96713000  0.03287000  1.0 0.6265407755
Co  Co12  1  0.03287000  0.44055000  0.55945000  1.0 0.6233473896
Co  Co13  1  0.53287000  0.05945000  0.94055000  1.0 0.6265407755
Co  Co14  1  0.05945000  0.53287000  0.46713000  1.0 0.6233473896
Co  Co15  1  0.46713000  0.94055000  0.05945000  1.0 0.6265407755
Co  Co16  1  0.94055000  0.46713000  0.53287000  1.0 0.6265407755
Co  Co17  1  0.46713000  0.53287000  0.94055000  1.0 0.6265407755
Co  Co18  1  0.94055000  0.05945000  0.46713000  1.0 0.6233473896
Co  Co19  1  0.53287000  0.46713000  0.05945000  1.0 0.6265407755
Co  Co20  1  0.05945000  0.94055000  0.53287000  1.0 0.6265407755
Co  Co21  1  0.05945000  0.46713000  0.94055000  1.0 0.6265407755
Co  Co22  1  0.53287000  0.94055000  0.46713000  1.0 0.6265407755
Co  Co23  1  0.94055000  0.53287000  0.05945000  1.0 0.6265407755
Co  Co24  1  0.46713000  0.05945000  0.53287000  1.0 0.6233473896
H  H1  1  0.94570000  0.34950000  0.18050000  1.0 0.1135254769
H  H2  1  0.34950000  0.94570000  0.52430000  1.0 0.1135254769
H  H3  1  0.18050000  0.52430000  0.94570000  1.0 0.1135254769
H  H4  1  0.52430000  0.18050000  0.34950000  1.0 0.1135254769
H  H5  1  0.18050000  0.94570000  0.34950000  1.0 0.1135254769
H  H6  1  0.52430000  0.34950000  0.94570000  1.0 0.1135254769
H  H7  1  0.94570000  0.18050000  0.52430000  1.0 0.1135254769
H  H8  1  0.34950000  0.52430000  0.18050000  1.0 0.1135254769
H  H9  1  0.34950000  0.18050000  0.94570000  1.0 0.1135254769
H  H10  1  0.94570000  0.52430000  0.34950000  1.0 0.1135254769
H  H11  1  0.52430000  0.94570000  0.18050000  1.0 0.1135254769
H  H12  1  0.18050000  0.34950000  0.52430000  1.0 0.1135254769
H  H13  1  0.55430000  0.15050000  0.97570000  1.0 0.1135254769
H  H14  1  0.15050000  0.55430000  0.31950000  1.0 0.1135254769
H  H15  1  0.31950000  0.97570000  0.15050000  1.0 0.1135254769
H  H16  1  0.97570000  0.31950000  0.55430000  1.0 0.1135254769
H  H17  1  0.31950000  0.55430000  0.97570000  1.0 0.1135254769
H  H18  1  0.97570000  0.15050000  0.31950000  1.0 0.1135254769
H  H19  1  0.55430000  0.31950000  0.15050000  1.0 0.1135254769
H  H20  1  0.15050000  0.97570000  0.55430000  1.0 0.1135254769
H  H21  1  0.15050000  0.31950000  0.97570000  1.0 0.1135254769
H  H22  1  0.55430000  0.97570000  0.31950000  1.0 0.1135254769
H  H23  1  0.97570000  0.55430000  0.15050000  1.0 0.1135254769
H  H24  1  0.31950000  0.15050000  0.55430000  1.0 0.1135254769
H  H25  1  0.05430000  0.65050000  0.81950000  1.0 0.1135254769
H  H26  1  0.65050000  0.05430000  0.47570000  1.0 0.1135254769
H  H27  1  0.81950000  0.47570000  0.05430000  1.0 0.1135254769
H  H28  1  0.47570000  0.81950000  0.65050000  1.0 0.1135254769
H  H29  1  0.81950000  0.05430000  0.65050000  1.0 0.1135254769
H  H30  1  0.47570000  0.65050000  0.05430000  1.0 0.1135254769
H  H31  1  0.05430000  0.81950000  0.47570000  1.0 0.1135254769
H  H32  1  0.65050000  0.47570000  0.81950000  1.0 0.1135254769
H  H33  1  0.65050000  0.81950000  0.05430000  1.0 0.1135254769
H  H34  1  0.05430000  0.47570000  0.65050000  1.0 0.1135254769
H  H35  1  0.47570000  0.05430000  0.81950000  1.0 0.1135254769
H  H36  1  0.81950000  0.65050000  0.47570000  1.0 0.1135254769
H  H37  1  0.44570000  0.84950000  0.02430000  1.0 0.1135254769
H  H38  1  0.84950000  0.44570000  0.68050000  1.0 0.1135254769
H  H39  1  0.68050000  0.02430000  0.84950000  1.0 0.1135254769
H  H40  1  0.02430000  0.68050000  0.44570000  1.0 0.1135254769
H  H41  1  0.68050000  0.44570000  0.02430000  1.0 0.1135254769
H  H42  1  0.02430000  0.84950000  0.68050000  1.0 0.1135254769
H  H43  1  0.44570000  0.68050000  0.84950000  1.0 0.1135254769
H  H44  1  0.84950000  0.02430000  0.44570000  1.0 0.1135254769
H  H45  1  0.84950000  0.68050000  0.02430000  1.0 0.1135254769
H  H46  1  0.44570000  0.02430000  0.68050000  1.0 0.1135254769
H  H47  1  0.02430000  0.44570000  0.84950000  1.0 0.1135254769
H  H48  1  0.68050000  0.84950000  0.44570000  1.0 0.1135254769
H  H49  1  0.94960000  0.46240000  0.18040000  1.0 0.128214388
H  H50  1  0.46240000  0.94960000  0.40760000  1.0 0.128214388
H  H51  1  0.18040000  0.40760000  0.94960000  1.0 0.128214388
H  H52  1  0.40760000  0.18040000  0.46240000  1.0 0.128214388
H  H53  1  0.18040000  0.94960000  0.46240000  1.0 0.128214388
H  H54  1  0.40760000  0.46240000  0.94960000  1.0 0.128214388
H  H55  1  0.94960000  0.18040000  0.40760000  1.0 0.128214388
H  H56  1  0.46240000  0.40760000  0.18040000  1.0 0.128214388
H  H57  1  0.46240000  0.18040000  0.94960000  1.0 0.128214388
H  H58  1  0.94960000  0.40760000  0.46240000  1.0 0.128214388
H  H59  1  0.40760000  0.94960000  0.18040000  1.0 0.128214388
H  H60  1  0.18040000  0.46240000  0.40760000  1.0 0.128214388
H  H61  1  0.55040000  0.03760000  0.09240000  1.0 0.128214388
H  H62  1  0.03760000  0.55040000  0.31960000  1.0 0.128214388
H  H63  1  0.31960000  0.09240000  0.03760000  1.0 0.128214388
H  H64  1  0.09240000  0.31960000  0.55040000  1.0 0.128214388
H  H65  1  0.31960000  0.55040000  0.09240000  1.0 0.128214388
H  H66  1  0.09240000  0.03760000  0.31960000  1.0 0.128214388
H  H67  1  0.55040000  0.31960000  0.03760000  1.0 0.128214388
H  H68  1  0.03760000  0.09240000  0.55040000  1.0 0.128214388
H  H69  1  0.03760000  0.31960000  0.09240000  1.0 0.128214388
H  H70  1  0.55040000  0.09240000  0.31960000  1.0 0.128214388
H  H71  1  0.09240000  0.55040000  0.03760000  1.0 0.128214388
H  H72  1  0.31960000  0.03760000  0.55040000  1.0 0.128214388
H  H73  1  0.05040000  0.53760000  0.81960000  1.0 0.128214388
H  H74  1  0.53760000  0.05040000  0.59240000  1.0 0.128214388
H  H75  1  0.81960000  0.59240000  0.05040000  1.0 0.128214388
H  H76  1  0.59240000  0.81960000  0.53760000  1.0 0.128214388
H  H77  1  0.81960000  0.05040000  0.53760000  1.0 0.128214388
H  H78  1  0.59240000  0.53760000  0.05040000  1.0 0.128214388
H  H79  1  0.05040000  0.81960000  0.59240000  1.0 0.128214388
H  H80  1  0.53760000  0.59240000  0.81960000  1.0 0.128214388
H  H81  1  0.53760000  0.81960000  0.05040000  1.0 0.128214388
H  H82  1  0.05040000  0.59240000  0.53760000  1.0 0.128214388
H  H83  1  0.59240000  0.05040000  0.81960000  1.0 0.128214388
H  H84  1  0.81960000  0.53760000  0.59240000  1.0 0.128214388
H  H85  1  0.44960000  0.96240000  0.90760000  1.0 0.128214388
H  H86  1  0.96240000  0.44960000  0.68040000  1.0 0.128214388
H  H87  1  0.68040000  0.90760000  0.96240000  1.0 0.128214388
H  H88  1  0.90760000  0.68040000  0.44960000  1.0 0.128214388
H  H89  1  0.68040000  0.44960000  0.90760000  1.0 0.128214388
H  H90  1  0.90760000  0.96240000  0.68040000  1.0 0.128214388
H  H91  1  0.44960000  0.68040000  0.96240000  1.0 0.128214388
H  H92  1  0.96240000  0.90760000  0.44960000  1.0 0.128214388
H  H93  1  0.96240000  0.68040000  0.90760000  1.0 0.128214388
H  H94  1  0.44960000  0.90760000  0.68040000  1.0 0.128214388
H  H95  1  0.90760000  0.44960000  0.96240000  1.0 0.128214388
H  H96  1  0.68040000  0.96240000  0.44960000  1.0 0.128214388
H  H97  1  0.94570000  0.30910000  0.25850000  1.0 0.1135254769
H  H98  1  0.30910000  0.94570000  0.48670000  1.0 0.1135254769
H  H99  1  0.25850000  0.48670000  0.94570000  1.0 0.1135254769
H  H100  1  0.48670000  0.25850000  0.30910000  1.0 0.1135254769
H  H101  1  0.25850000  0.94570000  0.30910000  1.0 0.1135254769
H  H102  1  0.48670000  0.30910000  0.94570000  1.0 0.1135254769
H  H103  1  0.94570000  0.25850000  0.48670000  1.0 0.1135254769
H  H104  1  0.30910000  0.48670000  0.25850000  1.0 0.1135254769
H  H105  1  0.30910000  0.25850000  0.94570000  1.0 0.1135254769
H  H106  1  0.94570000  0.48670000  0.30910000  1.0 0.1135254769
H  H107  1  0.48670000  0.94570000  0.25850000  1.0 0.1135254769
H  H108  1  0.25850000  0.30910000  0.48670000  1.0 0.1135254769
H  H109  1  0.55430000  0.19090000  0.01330000  1.0 0.1135254769
H  H110  1  0.19090000  0.55430000  0.24150000  1.0 0.1135254769
H  H111  1  0.24150000  0.01330000  0.19090000  1.0 0.1135254769
H  H112  1  0.01330000  0.24150000  0.55430000  1.0 0.1135254769
H  H113  1  0.24150000  0.55430000  0.01330000  1.0 0.1135254769
H  H114  1  0.01330000  0.19090000  0.24150000  1.0 0.1135254769
H  H115  1  0.55430000  0.24150000  0.19090000  1.0 0.1135254769
H  H116  1  0.19090000  0.01330000  0.55430000  1.0 0.1135254769
H  H117  1  0.19090000  0.24150000  0.01330000  1.0 0.1135254769
H  H118  1  0.55430000  0.01330000  0.24150000  1.0 0.1135254769
H  H119  1  0.01330000  0.55430000  0.19090000  1.0 0.1135254769
H  H120  1  0.24150000  0.19090000  0.55430000  1.0 0.1135254769
H  H121  1  0.05430000  0.69090000  0.74150000  1.0 0.1135254769
H  H122  1  0.69090000  0.05430000  0.51330000  1.0 0.1135254769
H  H123  1  0.74150000  0.51330000  0.05430000  1.0 0.1135254769
H  H124  1  0.51330000  0.74150000  0.69090000  1.0 0.1135254769
H  H125  1  0.74150000  0.05430000  0.69090000  1.0 0.1135254769
H  H126  1  0.51330000  0.69090000  0.05430000  1.0 0.1135254769
H  H127  1  0.05430000  0.74150000  0.51330000  1.0 0.1135254769
H  H128  1  0.69090000  0.51330000  0.74150000  1.0 0.1135254769
H  H129  1  0.69090000  0.74150000  0.05430000  1.0 0.1135254769
H  H130  1  0.05430000  0.51330000  0.69090000  1.0 0.1135254769
H  H131  1  0.51330000  0.05430000  0.74150000  1.0 0.1135254769
H  H132  1  0.74150000  0.69090000  0.51330000  1.0 0.1135254769
H  H133  1  0.44570000  0.80910000  0.98670000  1.0 0.1135254769
H  H134  1  0.80910000  0.44570000  0.75850000  1.0 0.1135254769
H  H135  1  0.75850000  0.98670000  0.80910000  1.0 0.1135254769
H  H136  1  0.98670000  0.75850000  0.44570000  1.0 0.1135254769
H  H137  1  0.75850000  0.44570000  0.98670000  1.0 0.1135254769
H  H138  1  0.98670000  0.80910000  0.75850000  1.0 0.1135254769
H  H139  1  0.44570000  0.75850000  0.80910000  1.0 0.1135254769
H  H140  1  0.80910000  0.98670000  0.44570000  1.0 0.1135254769
H  H141  1  0.80910000  0.75850000  0.98670000  1.0 0.1135254769
H  H142  1  0.44570000  0.98670000  0.75850000  1.0 0.1135254769
H  H143  1  0.98670000  0.44570000  0.80910000  1.0 0.1135254769
H  H144  1  0.75850000  0.80910000  0.44570000  1.0 0.1135254769
H  H145  1  0.87580000  0.46600000  0.28260000  1.0 0.128214388
H  H146  1  0.46600000  0.87580000  0.37560000  1.0 0.128214388
H  H147  1  0.28260000  0.37560000  0.87580000  1.0 0.128214388
H  H148  1  0.37560000  0.28260000  0.46600000  1.0 0.128214388
H  H149  1  0.28260000  0.87580000  0.46600000  1.0 0.128214388
H  H150  1  0.37560000  0.46600000  0.87580000  1.0 0.128214388
H  H151  1  0.87580000  0.28260000  0.37560000  1.0 0.128214388
H  H152  1  0.46600000  0.37560000  0.28260000  1.0 0.128214388
H  H153  1  0.46600000  0.28260000  0.87580000  1.0 0.128214388
H  H154  1  0.87580000  0.37560000  0.46600000  1.0 0.128214388
H  H155  1  0.37560000  0.87580000  0.28260000  1.0 0.128214388
H  H156  1  0.28260000  0.46600000  0.37560000  1.0 0.128214388
H  H157  1  0.62420000  0.03400000  0.12440000  1.0 0.128214388
H  H158  1  0.03400000  0.62420000  0.21740000  1.0 0.128214388
H  H159  1  0.21740000  0.12440000  0.03400000  1.0 0.128214388
H  H160  1  0.12440000  0.21740000  0.62420000  1.0 0.128214388
H  H161  1  0.21740000  0.62420000  0.12440000  1.0 0.128214388
H  H162  1  0.12440000  0.03400000  0.21740000  1.0 0.128214388
H  H163  1  0.62420000  0.21740000  0.03400000  1.0 0.128214388
H  H164  1  0.03400000  0.12440000  0.62420000  1.0 0.128214388
H  H165  1  0.03400000  0.21740000  0.12440000  1.0 0.128214388
H  H166  1  0.62420000  0.12440000  0.21740000  1.0 0.128214388
H  H167  1  0.12440000  0.62420000  0.03400000  1.0 0.128214388
H  H168  1  0.21740000  0.03400000  0.62420000  1.0 0.128214388
H  H169  1  0.12420000  0.53400000  0.71740000  1.0 0.128214388
H  H170  1  0.53400000  0.12420000  0.62440000  1.0 0.128214388
H  H171  1  0.71740000  0.62440000  0.12420000  1.0 0.128214388
H  H172  1  0.62440000  0.71740000  0.53400000  1.0 0.128214388
H  H173  1  0.71740000  0.12420000  0.53400000  1.0 0.128214388
H  H174  1  0.62440000  0.53400000  0.12420000  1.0 0.128214388
H  H175  1  0.12420000  0.71740000  0.62440000  1.0 0.128214388
H  H176  1  0.53400000  0.62440000  0.71740000  1.0 0.128214388
H  H177  1  0.53400000  0.71740000  0.12420000  1.0 0.128214388
H  H178  1  0.12420000  0.62440000  0.53400000  1.0 0.128214388
H  H179  1  0.62440000  0.12420000  0.71740000  1.0 0.128214388
H  H180  1  0.71740000  0.53400000  0.62440000  1.0 0.128214388
H  H181  1  0.37580000  0.96600000  0.87560000  1.0 0.128214388
H  H182  1  0.96600000  0.37580000  0.78260000  1.0 0.128214388
H  H183  1  0.78260000  0.87560000  0.96600000  1.0 0.128214388
H  H184  1  0.87560000  0.78260000  0.37580000  1.0 0.128214388
H  H185  1  0.78260000  0.37580000  0.87560000  1.0 0.128214388
H  H186  1  0.87560000  0.96600000  0.78260000  1.0 0.128214388
H  H187  1  0.37580000  0.78260000  0.96600000  1.0 0.128214388
H  H188  1  0.96600000  0.87560000  0.37580000  1.0 0.128214388
H  H189  1  0.96600000  0.78260000  0.87560000  1.0 0.128214388
H  H190  1  0.37580000  0.87560000  0.78260000  1.0 0.128214388
H  H191  1  0.87560000  0.37580000  0.96600000  1.0 0.128214388
H  H192  1  0.78260000  0.96600000  0.37580000  1.0 0.128214388
H  H193  1  0.90600000  0.49700000  0.23820000  1.0 0.1222159234
H  H194  1  0.49700000  0.90600000  0.35880000  1.0 0.1222159234
H  H195  1  0.23820000  0.35880000  0.90600000  1.0 0.1222159234
H  H196  1  0.35880000  0.23820000  0.49700000  1.0 0.1222159234
H  H197  1  0.23820000  0.90600000  0.49700000  1.0 0.1222159234
H  H198  1  0.35880000  0.49700000  0.90600000  1.0 0.1222159234
H  H199  1  0.90600000  0.23820000  0.35880000  1.0 0.1222159234
H  H200  1  0.49700000  0.35880000  0.23820000  1.0 0.1222159234
H  H201  1  0.49700000  0.23820000  0.90600000  1.0 0.1222159234
H  H202  1  0.90600000  0.35880000  0.49700000  1.0 0.1222159234
H  H203  1  0.35880000  0.90600000  0.23820000  1.0 0.1222159234
H  H204  1  0.23820000  0.49700000  0.35880000  1.0 0.1222159234
H  H205  1  0.59400000  0.00300000  0.14120000  1.0 0.1222159234
H  H206  1  0.00300000  0.59400000  0.26180000  1.0 0.1222159234
H  H207  1  0.26180000  0.14120000  0.00300000  1.0 0.1222159234
H  H208  1  0.14120000  0.26180000  0.59400000  1.0 0.1222159234
H  H209  1  0.26180000  0.59400000  0.14120000  1.0 0.1222159234
H  H210  1  0.14120000  0.00300000  0.26180000  1.0 0.1222159234
H  H211  1  0.59400000  0.26180000  0.00300000  1.0 0.1222159234
H  H212  1  0.00300000  0.14120000  0.59400000  1.0 0.1222159234
H  H213  1  0.00300000  0.26180000  0.14120000  1.0 0.1222159234
H  H214  1  0.59400000  0.14120000  0.26180000  1.0 0.1222159234
H  H215  1  0.14120000  0.59400000  0.00300000  1.0 0.1222159234
H  H216  1  0.26180000  0.00300000  0.59400000  1.0 0.1222159234
H  H217  1  0.09400000  0.50300000  0.76180000  1.0 0.1222159234
H  H218  1  0.50300000  0.09400000  0.64120000  1.0 0.1222159234
H  H219  1  0.76180000  0.64120000  0.09400000  1.0 0.1222159234
H  H220  1  0.64120000  0.76180000  0.50300000  1.0 0.1222159234
H  H221  1  0.76180000  0.09400000  0.50300000  1.0 0.1222159234
H  H222  1  0.64120000  0.50300000  0.09400000  1.0 0.1222159234
H  H223  1  0.09400000  0.76180000  0.64120000  1.0 0.1222159234
H  H224  1  0.50300000  0.64120000  0.76180000  1.0 0.1222159234
H  H225  1  0.50300000  0.76180000  0.09400000  1.0 0.1222159234
H  H226  1  0.09400000  0.64120000  0.50300000  1.0 0.1222159234
H  H227  1  0.64120000  0.09400000  0.76180000  1.0 0.1222159234
H  H228  1  0.76180000  0.50300000  0.64120000  1.0 0.1222159234
H  H229  1  0.40600000  0.99700000  0.85880000  1.0 0.1222159234
H  H230  1  0.99700000  0.40600000  0.73820000  1.0 0.1222159234
H  H231  1  0.73820000  0.85880000  0.99700000  1.0 0.1222159234
H  H232  1  0.85880000  0.73820000  0.40600000  1.0 0.1222159234
H  H233  1  0.73820000  0.40600000  0.85880000  1.0 0.1222159234
H  H234  1  0.85880000  0.99700000  0.73820000  1.0 0.1222159234
H  H235  1  0.40600000  0.73820000  0.99700000  1.0 0.1222159234
H  H236  1  0.99700000  0.85880000  0.40600000  1.0 0.1222159234
H  H237  1  0.99700000  0.73820000  0.85880000  1.0 0.1222159234
H  H238  1  0.40600000  0.85880000  0.73820000  1.0 0.1222159234
H  H239  1  0.85880000  0.40600000  0.99700000  1.0 0.1222159234
H  H240  1  0.73820000  0.99700000  0.40600000  1.0 0.1222159234
H  H241  1  0.90190000  0.48730000  0.28930000  1.0 0.1222159234
H  H242  1  0.48730000  0.90190000  0.32150000  1.0 0.1222159234
H  H243  1  0.28930000  0.32150000  0.90190000  1.0 0.1222159234
H  H244  1  0.32150000  0.28930000  0.48730000  1.0 0.1222159234
H  H245  1  0.28930000  0.90190000  0.48730000  1.0 0.1222159234
H  H246  1  0.32150000  0.48730000  0.90190000  1.0 0.1222159234
H  H247  1  0.90190000  0.28930000  0.32150000  1.0 0.1222159234
H  H248  1  0.48730000  0.32150000  0.28930000  1.0 0.1222159234
H  H249  1  0.48730000  0.28930000  0.90190000  1.0 0.1222159234
H  H250  1  0.90190000  0.32150000  0.48730000  1.0 0.1222159234
H  H251  1  0.32150000  0.90190000  0.28930000  1.0 0.1222159234
H  H252  1  0.28930000  0.48730000  0.32150000  1.0 0.1222159234
H  H253  1  0.59810000  0.01270000  0.17850000  1.0 0.1222159234
H  H254  1  0.01270000  0.59810000  0.21070000  1.0 0.1222159234
H  H255  1  0.21070000  0.17850000  0.01270000  1.0 0.1222159234
H  H256  1  0.17850000  0.21070000  0.59810000  1.0 0.1222159234
H  H257  1  0.21070000  0.59810000  0.17850000  1.0 0.1222159234
H  H258  1  0.17850000  0.01270000  0.21070000  1.0 0.1222159234
H  H259  1  0.59810000  0.21070000  0.01270000  1.0 0.1222159234
H  H260  1  0.01270000  0.17850000  0.59810000  1.0 0.1222159234
H  H261  1  0.01270000  0.21070000  0.17850000  1.0 0.1222159234
H  H262  1  0.59810000  0.17850000  0.21070000  1.0 0.1222159234
H  H263  1  0.17850000  0.59810000  0.01270000  1.0 0.1222159234
H  H264  1  0.21070000  0.01270000  0.59810000  1.0 0.1222159234
H  H265  1  0.09810000  0.51270000  0.71070000  1.0 0.1222159234
H  H266  1  0.51270000  0.09810000  0.67850000  1.0 0.1222159234
H  H267  1  0.71070000  0.67850000  0.09810000  1.0 0.1222159234
H  H268  1  0.67850000  0.71070000  0.51270000  1.0 0.1222159234
H  H269  1  0.71070000  0.09810000  0.51270000  1.0 0.1222159234
H  H270  1  0.67850000  0.51270000  0.09810000  1.0 0.1222159234
H  H271  1  0.09810000  0.71070000  0.67850000  1.0 0.1222159234
H  H272  1  0.51270000  0.67850000  0.71070000  1.0 0.1222159234
H  H273  1  0.51270000  0.71070000  0.09810000  1.0 0.1222159234
H  H274  1  0.09810000  0.67850000  0.51270000  1.0 0.1222159234
H  H275  1  0.67850000  0.09810000  0.71070000  1.0 0.1222159234
H  H276  1  0.71070000  0.51270000  0.67850000  1.0 0.1222159234
H  H277  1  0.40190000  0.98730000  0.82150000  1.0 0.1222159234
H  H278  1  0.98730000  0.40190000  0.78930000  1.0 0.1222159234
H  H279  1  0.78930000  0.82150000  0.98730000  1.0 0.1222159234
H  H280  1  0.82150000  0.78930000  0.40190000  1.0 0.1222159234
H  H281  1  0.78930000  0.40190000  0.82150000  1.0 0.1222159234
H  H282  1  0.82150000  0.98730000  0.78930000  1.0 0.1222159234
H  H283  1  0.40190000  0.78930000  0.98730000  1.0 0.1222159234
H  H284  1  0.98730000  0.82150000  0.40190000  1.0 0.1222159234
H  H285  1  0.98730000  0.78930000  0.82150000  1.0 0.1222159234
H  H286  1  0.40190000  0.82150000  0.78930000  1.0 0.1222159234
H  H287  1  0.82150000  0.40190000  0.98730000  1.0 0.1222159234
H  H288  1  0.78930000  0.98730000  0.40190000  1.0 0.1222159234
H  H289  1  0.01760000  0.41480000  0.24280000  1.0 0.1388659876
H  H290  1  0.41480000  0.01760000  0.32480000  1.0 0.1388659876
H  H291  1  0.24280000  0.32480000  0.01760000  1.0 0.1388659876
H  H292  1  0.32480000  0.24280000  0.41480000  1.0 0.1388659876
H  H293  1  0.24280000  0.01760000  0.41480000  1.0 0.1388659876
H  H294  1  0.32480000  0.41480000  0.01760000  1.0 0.1388659876
H  H295  1  0.01760000  0.24280000  0.32480000  1.0 0.1388659876
H  H296  1  0.41480000  0.32480000  0.24280000  1.0 0.1388659876
H  H297  1  0.41480000  0.24280000  0.01760000  1.0 0.1388659876
H  H298  1  0.01760000  0.32480000  0.41480000  1.0 0.1388659876
H  H299  1  0.32480000  0.01760000  0.24280000  1.0 0.1388659876
H  H300  1  0.24280000  0.41480000  0.32480000  1.0 0.1388659876
H  H301  1  0.48240000  0.08520000  0.17520000  1.0 0.1388659876
H  H302  1  0.08520000  0.48240000  0.25720000  1.0 0.1388659876
H  H303  1  0.25720000  0.17520000  0.08520000  1.0 0.1388659876
H  H304  1  0.17520000  0.25720000  0.48240000  1.0 0.1388659876
H  H305  1  0.25720000  0.48240000  0.17520000  1.0 0.1388659876
H  H306  1  0.17520000  0.08520000  0.25720000  1.0 0.1388659876
H  H307  1  0.48240000  0.25720000  0.08520000  1.0 0.1388659876
H  H308  1  0.08520000  0.17520000  0.48240000  1.0 0.1388659876
H  H309  1  0.08520000  0.25720000  0.17520000  1.0 0.1388659876
H  H310  1  0.48240000  0.17520000  0.25720000  1.0 0.1388659876
H  H311  1  0.17520000  0.48240000  0.08520000  1.0 0.1388659876
H  H312  1  0.25720000  0.08520000  0.48240000  1.0 0.1388659876
H  H313  1  0.98240000  0.58520000  0.75720000  1.0 0.1388659876
H  H314  1  0.58520000  0.98240000  0.67520000  1.0 0.1388659876
H  H315  1  0.75720000  0.67520000  0.98240000  1.0 0.1388659876
H  H316  1  0.67520000  0.75720000  0.58520000  1.0 0.1388659876
H  H317  1  0.75720000  0.98240000  0.58520000  1.0 0.1388659876
H  H318  1  0.67520000  0.58520000  0.98240000  1.0 0.1388659876
H  H319  1  0.98240000  0.75720000  0.67520000  1.0 0.1388659876
H  H320  1  0.58520000  0.67520000  0.75720000  1.0 0.1388659876
H  H321  1  0.58520000  0.75720000  0.98240000  1.0 0.1388659876
H  H322  1  0.98240000  0.67520000  0.58520000  1.0 0.1388659876
H  H323  1  0.67520000  0.98240000  0.75720000  1.0 0.1388659876
H  H324  1  0.75720000  0.58520000  0.67520000  1.0 0.1388659876
H  H325  1  0.51760000  0.91480000  0.82480000  1.0 0.1388659876
H  H326  1  0.91480000  0.51760000  0.74280000  1.0 0.1388659876
H  H327  1  0.74280000  0.82480000  0.91480000  1.0 0.1388659876
H  H328  1  0.82480000  0.74280000  0.51760000  1.0 0.1388659876
H  H329  1  0.74280000  0.51760000  0.82480000  1.0 0.1388659876
H  H330  1  0.82480000  0.91480000  0.74280000  1.0 0.1388659876
H  H331  1  0.51760000  0.74280000  0.91480000  1.0 0.1388659876
H  H332  1  0.91480000  0.82480000  0.51760000  1.0 0.1388659876
H  H333  1  0.91480000  0.74280000  0.82480000  1.0 0.1388659876
H  H334  1  0.51760000  0.82480000  0.74280000  1.0 0.1388659876
H  H335  1  0.82480000  0.51760000  0.91480000  1.0 0.1388659876
H  H336  1  0.74280000  0.91480000  0.51760000  1.0 0.1388659876
H  H337  1  0.99000000  0.45580000  0.26420000  1.0 0.1222159234
H  H338  1  0.45580000  0.99000000  0.29000000  1.0 0.1222159234
H  H339  1  0.26420000  0.29000000  0.99000000  1.0 0.128214388
H  H340  1  0.29000000  0.26420000  0.45580000  1.0 0.1222159234
H  H341  1  0.26420000  0.99000000  0.45580000  1.0 0.1222159234
H  H342  1  0.29000000  0.45580000  0.99000000  1.0 0.128214388
H  H343  1  0.99000000  0.26420000  0.29000000  1.0 0.1222159234
H  H344  1  0.45580000  0.29000000  0.26420000  1.0 0.1222159234
H  H345  1  0.45580000  0.26420000  0.99000000  1.0 0.1222159234
H  H346  1  0.99000000  0.29000000  0.45580000  1.0 0.1222159234
H  H347  1  0.29000000  0.99000000  0.26420000  1.0 0.1222159234
H  H348  1  0.26420000  0.45580000  0.29000000  1.0 0.128214388
H  H349  1  0.51000000  0.04420000  0.21000000  1.0 0.1222159234
H  H350  1  0.04420000  0.51000000  0.23580000  1.0 0.1222159234
H  H351  1  0.23580000  0.21000000  0.04420000  1.0 0.1222159234
H  H352  1  0.21000000  0.23580000  0.51000000  1.0 0.1222159234
H  H353  1  0.23580000  0.51000000  0.21000000  1.0 0.1222159234
H  H354  1  0.21000000  0.04420000  0.23580000  1.0 0.1222159234
H  H355  1  0.51000000  0.23580000  0.04420000  1.0 0.1222159234
H  H356  1  0.04420000  0.21000000  0.51000000  1.0 0.1222159234
H  H357  1  0.04420000  0.23580000  0.21000000  1.0 0.1222159234
H  H358  1  0.51000000  0.21000000  0.23580000  1.0 0.1222159234
H  H359  1  0.21000000  0.51000000  0.04420000  1.0 0.1222159234
H  H360  1  0.23580000  0.04420000  0.51000000  1.0 0.1222159234
H  H361  1  0.01000000  0.54420000  0.73580000  1.0 0.1222159234
H  H362  1  0.54420000  0.01000000  0.71000000  1.0 0.1222159234
H  H363  1  0.73580000  0.71000000  0.01000000  1.0 0.1222159234
H  H364  1  0.71000000  0.73580000  0.54420000  1.0 0.1222159234
H  H365  1  0.73580000  0.01000000  0.54420000  1.0 0.1222159234
H  H366  1  0.71000000  0.54420000  0.01000000  1.0 0.1222159234
H  H367  1  0.01000000  0.73580000  0.71000000  1.0 0.1222159234
H  H368  1  0.54420000  0.71000000  0.73580000  1.0 0.1222159234
H  H369  1  0.54420000  0.73580000  0.01000000  1.0 0.1222159234
H  H370  1  0.01000000  0.71000000  0.54420000  1.0 0.1222159234
H  H371  1  0.71000000  0.01000000  0.73580000  1.0 0.1222159234
H  H372  1  0.73580000  0.54420000  0.71000000  1.0 0.1222159234
H  H373  1  0.49000000  0.95580000  0.79000000  1.0 0.1222159234
H  H374  1  0.95580000  0.49000000  0.76420000  1.0 0.1222159234
H  H375  1  0.76420000  0.79000000  0.95580000  1.0 0.1222159234
H  H376  1  0.79000000  0.76420000  0.49000000  1.0 0.1222159234
H  H377  1  0.76420000  0.49000000  0.79000000  1.0 0.128214388
H  H378  1  0.79000000  0.95580000  0.76420000  1.0 0.1222159234
H  H379  1  0.49000000  0.76420000  0.95580000  1.0 0.1222159234
H  H380  1  0.95580000  0.79000000  0.49000000  1.0 0.1222159234
H  H381  1  0.95580000  0.76420000  0.79000000  1.0 0.128214388
H  H382  1  0.49000000  0.79000000  0.76420000  1.0 0.128214388
H  H383  1  0.79000000  0.49000000  0.95580000  1.0 0.1222159234
H  H384  1  0.76420000  0.95580000  0.49000000  1.0 0.1222159234
H  H385  1  0.99200000  0.46580000  0.21380000  1.0 0.128214388
H  H386  1  0.46580000  0.99200000  0.32840000  1.0 0.128214388
H  H387  1  0.21380000  0.32840000  0.99200000  1.0 0.128214388
H  H388  1  0.32840000  0.21380000  0.46580000  1.0 0.128214388
H  H389  1  0.21380000  0.99200000  0.46580000  1.0 0.128214388
H  H390  1  0.32840000  0.46580000  0.99200000  1.0 0.128214388
H  H391  1  0.99200000  0.21380000  0.32840000  1.0 0.128214388
H  H392  1  0.46580000  0.32840000  0.21380000  1.0 0.128214388
H  H393  1  0.46580000  0.21380000  0.99200000  1.0 0.128214388
H  H394  1  0.99200000  0.32840000  0.46580000  1.0 0.128214388
H  H395  1  0.32840000  0.99200000  0.21380000  1.0 0.128214388
H  H396  1  0.21380000  0.46580000  0.32840000  1.0 0.128214388
H  H397  1  0.50800000  0.03420000  0.17160000  1.0 0.128214388
H  H398  1  0.03420000  0.50800000  0.28620000  1.0 0.128214388
H  H399  1  0.28620000  0.17160000  0.03420000  1.0 0.128214388
H  H400  1  0.17160000  0.28620000  0.50800000  1.0 0.128214388
H  H401  1  0.28620000  0.50800000  0.17160000  1.0 0.128214388
H  H402  1  0.17160000  0.03420000  0.28620000  1.0 0.128214388
H  H403  1  0.50800000  0.28620000  0.03420000  1.0 0.128214388
H  H404  1  0.03420000  0.17160000  0.50800000  1.0 0.128214388
H  H405  1  0.03420000  0.28620000  0.17160000  1.0 0.128214388
H  H406  1  0.50800000  0.17160000  0.28620000  1.0 0.128214388
H  H407  1  0.17160000  0.50800000  0.03420000  1.0 0.128214388
H  H408  1  0.28620000  0.03420000  0.50800000  1.0 0.128214388
H  H409  1  0.00800000  0.53420000  0.78620000  1.0 0.128214388
H  H410  1  0.53420000  0.00800000  0.67160000  1.0 0.128214388
H  H411  1  0.78620000  0.67160000  0.00800000  1.0 0.128214388
H  H412  1  0.67160000  0.78620000  0.53420000  1.0 0.128214388
H  H413  1  0.78620000  0.00800000  0.53420000  1.0 0.128214388
H  H414  1  0.67160000  0.53420000  0.00800000  1.0 0.128214388
H  H415  1  0.00800000  0.78620000  0.67160000  1.0 0.128214388
H  H416  1  0.53420000  0.67160000  0.78620000  1.0 0.128214388
H  H417  1  0.53420000  0.78620000  0.00800000  1.0 0.128214388
H  H418  1  0.00800000  0.67160000  0.53420000  1.0 0.128214388
H  H419  1  0.67160000  0.00800000  0.78620000  1.0 0.128214388
H  H420  1  0.78620000  0.53420000  0.67160000  1.0 0.128214388
H  H421  1  0.49200000  0.96580000  0.82840000  1.0 0.128214388
H  H422  1  0.96580000  0.49200000  0.71380000  1.0 0.128214388
H  H423  1  0.71380000  0.82840000  0.96580000  1.0 0.128214388
H  H424  1  0.82840000  0.71380000  0.49200000  1.0 0.128214388
H  H425  1  0.71380000  0.49200000  0.82840000  1.0 0.128214388
H  H426  1  0.82840000  0.96580000  0.71380000  1.0 0.128214388
H  H427  1  0.49200000  0.71380000  0.96580000  1.0 0.128214388
H  H428  1  0.96580000  0.82840000  0.49200000  1.0 0.128214388
H  H429  1  0.96580000  0.71380000  0.82840000  1.0 0.128214388
H  H430  1  0.49200000  0.82840000  0.71380000  1.0 0.128214388
H  H431  1  0.82840000  0.49200000  0.96580000  1.0 0.128214388
H  H432  1  0.71380000  0.96580000  0.49200000  1.0 0.128214388
C  C1  1  0.95140000  0.42760000  0.12220000  1.0 0.4624874956
C  C2  1  0.42760000  0.95140000  0.49880000  1.0 0.4624874956
C  C3  1  0.12220000  0.49880000  0.95140000  1.0 0.4624874956
C  C4  1  0.49880000  0.12220000  0.42760000  1.0 0.4624874956
C  C5  1  0.12220000  0.95140000  0.42760000  1.0 0.4624874956
C  C6  1  0.49880000  0.42760000  0.95140000  1.0 0.4624874956
C  C7  1  0.95140000  0.12220000  0.49880000  1.0 0.4624874956
C  C8  1  0.42760000  0.49880000  0.12220000  1.0 0.4624874956
C  C9  1  0.42760000  0.12220000  0.95140000  1.0 0.4624874956
C  C10  1  0.95140000  0.49880000  0.42760000  1.0 0.4624874956
C  C11  1  0.49880000  0.95140000  0.12220000  1.0 0.4624874956
C  C12  1  0.12220000  0.42760000  0.49880000  1.0 0.4624874956
C  C13  1  0.54860000  0.07240000  0.00120000  1.0 0.4624874956
C  C14  1  0.07240000  0.54860000  0.37780000  1.0 0.4624874956
C  C15  1  0.37780000  0.00120000  0.07240000  1.0 0.4624874956
C  C16  1  0.00120000  0.37780000  0.54860000  1.0 0.4624874956
C  C17  1  0.37780000  0.54860000  0.00120000  1.0 0.4624874956
C  C18  1  0.00120000  0.07240000  0.37780000  1.0 0.4624874956
C  C19  1  0.54860000  0.37780000  0.07240000  1.0 0.4624874956
C  C20  1  0.07240000  0.00120000  0.54860000  1.0 0.4624874956
C  C21  1  0.07240000  0.37780000  0.00120000  1.0 0.4624874956
C  C22  1  0.54860000  0.00120000  0.37780000  1.0 0.4624874956
C  C23  1  0.00120000  0.54860000  0.07240000  1.0 0.4624874956
C  C24  1  0.37780000  0.07240000  0.54860000  1.0 0.4624874956
C  C25  1  0.04860000  0.57240000  0.87780000  1.0 0.4624874956
C  C26  1  0.57240000  0.04860000  0.50120000  1.0 0.4624874956
C  C27  1  0.87780000  0.50120000  0.04860000  1.0 0.4624874956
C  C28  1  0.50120000  0.87780000  0.57240000  1.0 0.4624874956
C  C29  1  0.87780000  0.04860000  0.57240000  1.0 0.4624874956
C  C30  1  0.50120000  0.57240000  0.04860000  1.0 0.4624874956
C  C31  1  0.04860000  0.87780000  0.50120000  1.0 0.4624874956
C  C32  1  0.57240000  0.50120000  0.87780000  1.0 0.4624874956
C  C33  1  0.57240000  0.87780000  0.04860000  1.0 0.4624874956
C  C34  1  0.04860000  0.50120000  0.57240000  1.0 0.4624874956
C  C35  1  0.50120000  0.04860000  0.87780000  1.0 0.4624874956
C  C36  1  0.87780000  0.57240000  0.50120000  1.0 0.4624874956
C  C37  1  0.45140000  0.92760000  0.99880000  1.0 0.4624874956
C  C38  1  0.92760000  0.45140000  0.62220000  1.0 0.4624874956
C  C39  1  0.62220000  0.99880000  0.92760000  1.0 0.4624874956
C  C40  1  0.99880000  0.62220000  0.45140000  1.0 0.4624874956
C  C41  1  0.62220000  0.45140000  0.99880000  1.0 0.4624874956
C  C42  1  0.99880000  0.92760000  0.62220000  1.0 0.4624874956
C  C43  1  0.45140000  0.62220000  0.92760000  1.0 0.4624874956
C  C44  1  0.92760000  0.99880000  0.45140000  1.0 0.4624874956
C  C45  1  0.92760000  0.62220000  0.99880000  1.0 0.4624874956
C  C46  1  0.45140000  0.99880000  0.62220000  1.0 0.4624874956
C  C47  1  0.99880000  0.45140000  0.92760000  1.0 0.4624874956
C  C48  1  0.62220000  0.92760000  0.45140000  1.0 0.4624874956
C  C49  1  0.94870000  0.41150000  0.17170000  1.0 -0.0763518531
C  C50  1  0.41150000  0.94870000  0.46810000  1.0 -0.0763518531
C  C51  1  0.17170000  0.46810000  0.94870000  1.0 -0.0763518531
C  C52  1  0.46810000  0.17170000  0.41150000  1.0 -0.0763518531
C  C53  1  0.17170000  0.94870000  0.41150000  1.0 -0.0763518531
C  C54  1  0.46810000  0.41150000  0.94870000  1.0 -0.0763518531
C  C55  1  0.94870000  0.17170000  0.46810000  1.0 -0.0763518531
C  C56  1  0.41150000  0.46810000  0.17170000  1.0 -0.0763518531
C  C57  1  0.41150000  0.17170000  0.94870000  1.0 -0.0763518531
C  C58  1  0.94870000  0.46810000  0.41150000  1.0 -0.0763518531
C  C59  1  0.46810000  0.94870000  0.17170000  1.0 -0.0763518531
C  C60  1  0.17170000  0.41150000  0.46810000  1.0 -0.0763518531
C  C61  1  0.55130000  0.08850000  0.03190000  1.0 -0.0763518531
C  C62  1  0.08850000  0.55130000  0.32830000  1.0 -0.0763518531
C  C63  1  0.32830000  0.03190000  0.08850000  1.0 -0.0763518531
C  C64  1  0.03190000  0.32830000  0.55130000  1.0 -0.0763518531
C  C65  1  0.32830000  0.55130000  0.03190000  1.0 -0.0763518531
C  C66  1  0.03190000  0.08850000  0.32830000  1.0 -0.0763518531
C  C67  1  0.55130000  0.32830000  0.08850000  1.0 -0.0763518531
C  C68  1  0.08850000  0.03190000  0.55130000  1.0 -0.0763518531
C  C69  1  0.08850000  0.32830000  0.03190000  1.0 -0.0763518531
C  C70  1  0.55130000  0.03190000  0.32830000  1.0 -0.0763518531
C  C71  1  0.03190000  0.55130000  0.08850000  1.0 -0.0763518531
C  C72  1  0.32830000  0.08850000  0.55130000  1.0 -0.0763518531
C  C73  1  0.05130000  0.58850000  0.82830000  1.0 -0.0763518531
C  C74  1  0.58850000  0.05130000  0.53190000  1.0 -0.0763518531
C  C75  1  0.82830000  0.53190000  0.05130000  1.0 -0.0763518531
C  C76  1  0.53190000  0.82830000  0.58850000  1.0 -0.0763518531
C  C77  1  0.82830000  0.05130000  0.58850000  1.0 -0.0763518531
C  C78  1  0.53190000  0.58850000  0.05130000  1.0 -0.0763518531
C  C79  1  0.05130000  0.82830000  0.53190000  1.0 -0.0763518531
C  C80  1  0.58850000  0.53190000  0.82830000  1.0 -0.0763518531
C  C81  1  0.58850000  0.82830000  0.05130000  1.0 -0.0763518531
C  C82  1  0.05130000  0.53190000  0.58850000  1.0 -0.0763518531
C  C83  1  0.53190000  0.05130000  0.82830000  1.0 -0.0763518531
C  C84  1  0.82830000  0.58850000  0.53190000  1.0 -0.0763518531
C  C85  1  0.44870000  0.91150000  0.96810000  1.0 -0.0763518531
C  C86  1  0.91150000  0.44870000  0.67170000  1.0 -0.0763518531
C  C87  1  0.67170000  0.96810000  0.91150000  1.0 -0.0763518531
C  C88  1  0.96810000  0.67170000  0.44870000  1.0 -0.0763518531
C  C89  1  0.67170000  0.44870000  0.96810000  1.0 -0.0763518531
C  C90  1  0.96810000  0.91150000  0.67170000  1.0 -0.0763518531
C  C91  1  0.44870000  0.67170000  0.91150000  1.0 -0.0763518531
C  C92  1  0.91150000  0.96810000  0.44870000  1.0 -0.0763518531
C  C93  1  0.91150000  0.67170000  0.96810000  1.0 -0.0763518531
C  C94  1  0.44870000  0.96810000  0.67170000  1.0 -0.0763518531
C  C95  1  0.96810000  0.44870000  0.91150000  1.0 -0.0763518531
C  C96  1  0.67170000  0.91150000  0.44870000  1.0 -0.0763518531
C  C97  1  0.94681000  0.36419000  0.19619000  1.0 -0.1013706441
C  C98  1  0.36419000  0.94681000  0.49281000  1.0 -0.1013706441
C  C99  1  0.19619000  0.49281000  0.94681000  1.0 -0.1013706441
C  C100  1  0.49281000  0.19619000  0.36419000  1.0 -0.1013706441
C  C101  1  0.19619000  0.94681000  0.36419000  1.0 -0.1013706441
C  C102  1  0.49281000  0.36419000  0.94681000  1.0 -0.1013706441
C  C103  1  0.94681000  0.19619000  0.49281000  1.0 -0.1013706441
C  C104  1  0.36419000  0.49281000  0.19619000  1.0 -0.1013706441
C  C105  1  0.36419000  0.19619000  0.94681000  1.0 -0.1013706441
C  C106  1  0.94681000  0.49281000  0.36419000  1.0 -0.1013706441
C  C107  1  0.49281000  0.94681000  0.19619000  1.0 -0.1013706441
C  C108  1  0.19619000  0.36419000  0.49281000  1.0 -0.1013706441
C  C109  1  0.55319000  0.13581000  0.00719000  1.0 -0.1013706441
C  C110  1  0.13581000  0.55319000  0.30381000  1.0 -0.1013706441
C  C111  1  0.30381000  0.00719000  0.13581000  1.0 -0.1013706441
C  C112  1  0.00719000  0.30381000  0.55319000  1.0 -0.1013706441
C  C113  1  0.30381000  0.55319000  0.00719000  1.0 -0.1013706441
C  C114  1  0.00719000  0.13581000  0.30381000  1.0 -0.1013706441
C  C115  1  0.55319000  0.30381000  0.13581000  1.0 -0.1013706441
C  C116  1  0.13581000  0.00719000  0.55319000  1.0 -0.1013706441
C  C117  1  0.13581000  0.30381000  0.00719000  1.0 -0.1013706441
C  C118  1  0.55319000  0.00719000  0.30381000  1.0 -0.1013706441
C  C119  1  0.00719000  0.55319000  0.13581000  1.0 -0.1013706441
C  C120  1  0.30381000  0.13581000  0.55319000  1.0 -0.1013706441
C  C121  1  0.05319000  0.63581000  0.80381000  1.0 -0.1013706441
C  C122  1  0.63581000  0.05319000  0.50719000  1.0 -0.1013706441
C  C123  1  0.80381000  0.50719000  0.05319000  1.0 -0.1013706441
C  C124  1  0.50719000  0.80381000  0.63581000  1.0 -0.1013706441
C  C125  1  0.80381000  0.05319000  0.63581000  1.0 -0.1013706441
C  C126  1  0.50719000  0.63581000  0.05319000  1.0 -0.1013706441
C  C127  1  0.05319000  0.80381000  0.50719000  1.0 -0.1013706441
C  C128  1  0.63581000  0.50719000  0.80381000  1.0 -0.1013706441
C  C129  1  0.63581000  0.80381000  0.05319000  1.0 -0.1013706441
C  C130  1  0.05319000  0.50719000  0.63581000  1.0 -0.1013706441
C  C131  1  0.50719000  0.05319000  0.80381000  1.0 -0.1013706441
C  C132  1  0.80381000  0.63581000  0.50719000  1.0 -0.1013706441
C  C133  1  0.44681000  0.86419000  0.99281000  1.0 -0.1013706441
C  C134  1  0.86419000  0.44681000  0.69619000  1.0 -0.1013706441
C  C135  1  0.69619000  0.99281000  0.86419000  1.0 -0.1013706441
C  C136  1  0.99281000  0.69619000  0.44681000  1.0 -0.1013706441
C  C137  1  0.69619000  0.44681000  0.99281000  1.0 -0.1013706441
C  C138  1  0.99281000  0.86419000  0.69619000  1.0 -0.1013706441
C  C139  1  0.44681000  0.69619000  0.86419000  1.0 -0.1013706441
C  C140  1  0.86419000  0.99281000  0.44681000  1.0 -0.1013706441
C  C141  1  0.86419000  0.69619000  0.99281000  1.0 -0.1013706441
C  C142  1  0.44681000  0.99281000  0.69619000  1.0 -0.1013706441
C  C143  1  0.99281000  0.44681000  0.86419000  1.0 -0.1013706441
C  C144  1  0.69619000  0.86419000  0.44681000  1.0 -0.1013706441
C  C145  1  0.94880000  0.43160000  0.19560000  1.0 -0.122349254
C  C146  1  0.43160000  0.94880000  0.42400000  1.0 -0.122349254
C  C147  1  0.19560000  0.42400000  0.94880000  1.0 -0.122349254
C  C148  1  0.42400000  0.19560000  0.43160000  1.0 -0.122349254
C  C149  1  0.19560000  0.94880000  0.43160000  1.0 -0.122349254
C  C150  1  0.42400000  0.43160000  0.94880000  1.0 -0.122349254
C  C151  1  0.94880000  0.19560000  0.42400000  1.0 -0.122349254
C  C152  1  0.43160000  0.42400000  0.19560000  1.0 -0.122349254
C  C153  1  0.43160000  0.19560000  0.94880000  1.0 -0.122349254
C  C154  1  0.94880000  0.42400000  0.43160000  1.0 -0.122349254
C  C155  1  0.42400000  0.94880000  0.19560000  1.0 -0.122349254
C  C156  1  0.19560000  0.43160000  0.42400000  1.0 -0.122349254
C  C157  1  0.55120000  0.06840000  0.07600000  1.0 -0.122349254
C  C158  1  0.06840000  0.55120000  0.30440000  1.0 -0.122349254
C  C159  1  0.30440000  0.07600000  0.06840000  1.0 -0.122349254
C  C160  1  0.07600000  0.30440000  0.55120000  1.0 -0.122349254
C  C161  1  0.30440000  0.55120000  0.07600000  1.0 -0.122349254
C  C162  1  0.07600000  0.06840000  0.30440000  1.0 -0.122349254
C  C163  1  0.55120000  0.30440000  0.06840000  1.0 -0.122349254
C  C164  1  0.06840000  0.07600000  0.55120000  1.0 -0.122349254
C  C165  1  0.06840000  0.30440000  0.07600000  1.0 -0.122349254
C  C166  1  0.55120000  0.07600000  0.30440000  1.0 -0.122349254
C  C167  1  0.07600000  0.55120000  0.06840000  1.0 -0.122349254
C  C168  1  0.30440000  0.06840000  0.55120000  1.0 -0.122349254
C  C169  1  0.05120000  0.56840000  0.80440000  1.0 -0.122349254
C  C170  1  0.56840000  0.05120000  0.57600000  1.0 -0.122349254
C  C171  1  0.80440000  0.57600000  0.05120000  1.0 -0.122349254
C  C172  1  0.57600000  0.80440000  0.56840000  1.0 -0.122349254
C  C173  1  0.80440000  0.05120000  0.56840000  1.0 -0.122349254
C  C174  1  0.57600000  0.56840000  0.05120000  1.0 -0.122349254
C  C175  1  0.05120000  0.80440000  0.57600000  1.0 -0.122349254
C  C176  1  0.56840000  0.57600000  0.80440000  1.0 -0.122349254
C  C177  1  0.56840000  0.80440000  0.05120000  1.0 -0.122349254
C  C178  1  0.05120000  0.57600000  0.56840000  1.0 -0.122349254
C  C179  1  0.57600000  0.05120000  0.80440000  1.0 -0.122349254
C  C180  1  0.80440000  0.56840000  0.57600000  1.0 -0.122349254
C  C181  1  0.44880000  0.93160000  0.92400000  1.0 -0.122349254
C  C182  1  0.93160000  0.44880000  0.69560000  1.0 -0.122349254
C  C183  1  0.69560000  0.92400000  0.93160000  1.0 -0.122349254
C  C184  1  0.92400000  0.69560000  0.44880000  1.0 -0.122349254
C  C185  1  0.69560000  0.44880000  0.92400000  1.0 -0.122349254
C  C186  1  0.92400000  0.93160000  0.69560000  1.0 -0.122349254
C  C187  1  0.44880000  0.69560000  0.93160000  1.0 -0.122349254
C  C188  1  0.93160000  0.92400000  0.44880000  1.0 -0.122349254
C  C189  1  0.93160000  0.69560000  0.92400000  1.0 -0.122349254
C  C190  1  0.44880000  0.92400000  0.69560000  1.0 -0.122349254
C  C191  1  0.92400000  0.44880000  0.93160000  1.0 -0.122349254
C  C192  1  0.69560000  0.93160000  0.44880000  1.0 -0.122349254
C  C193  1  0.94651000  0.33991000  0.24249000  1.0 -0.1787147462
C  C194  1  0.33991000  0.94651000  0.47109000  1.0 -0.1787147462
C  C195  1  0.24249000  0.47109000  0.94651000  1.0 -0.1787147462
C  C196  1  0.47109000  0.24249000  0.33991000  1.0 -0.1787147462
C  C197  1  0.24249000  0.94651000  0.33991000  1.0 -0.1787147462
C  C198  1  0.47109000  0.33991000  0.94651000  1.0 -0.1787147462
C  C199  1  0.94651000  0.24249000  0.47109000  1.0 -0.1787147462
C  C200  1  0.33991000  0.47109000  0.24249000  1.0 -0.1787147462
C  C201  1  0.33991000  0.24249000  0.94651000  1.0 -0.1787147462
C  C202  1  0.94651000  0.47109000  0.33991000  1.0 -0.1787147462
C  C203  1  0.47109000  0.94651000  0.24249000  1.0 -0.1787147462
C  C204  1  0.24249000  0.33991000  0.47109000  1.0 -0.1787147462
C  C205  1  0.55349000  0.16009000  0.02891000  1.0 -0.1787147462
C  C206  1  0.16009000  0.55349000  0.25751000  1.0 -0.1787147462
C  C207  1  0.25751000  0.02891000  0.16009000  1.0 -0.1787147462
C  C208  1  0.02891000  0.25751000  0.55349000  1.0 -0.1787147462
C  C209  1  0.25751000  0.55349000  0.02891000  1.0 -0.1787147462
C  C210  1  0.02891000  0.16009000  0.25751000  1.0 -0.1787147462
C  C211  1  0.55349000  0.25751000  0.16009000  1.0 -0.1787147462
C  C212  1  0.16009000  0.02891000  0.55349000  1.0 -0.1787147462
C  C213  1  0.16009000  0.25751000  0.02891000  1.0 -0.1787147462
C  C214  1  0.55349000  0.02891000  0.25751000  1.0 -0.1787147462
C  C215  1  0.02891000  0.55349000  0.16009000  1.0 -0.1787147462
C  C216  1  0.25751000  0.16009000  0.55349000  1.0 -0.1787147462
C  C217  1  0.05349000  0.66009000  0.75751000  1.0 -0.1787147462
C  C218  1  0.66009000  0.05349000  0.52891000  1.0 -0.1787147462
C  C219  1  0.75751000  0.52891000  0.05349000  1.0 -0.1787147462
C  C220  1  0.52891000  0.75751000  0.66009000  1.0 -0.1787147462
C  C221  1  0.75751000  0.05349000  0.66009000  1.0 -0.1787147462
C  C222  1  0.52891000  0.66009000  0.05349000  1.0 -0.1787147462
C  C223  1  0.05349000  0.75751000  0.52891000  1.0 -0.1787147462
C  C224  1  0.66009000  0.52891000  0.75751000  1.0 -0.1787147462
C  C225  1  0.66009000  0.75751000  0.05349000  1.0 -0.1787147462
C  C226  1  0.05349000  0.52891000  0.66009000  1.0 -0.1787147462
C  C227  1  0.52891000  0.05349000  0.75751000  1.0 -0.1787147462
C  C228  1  0.75751000  0.66009000  0.52891000  1.0 -0.1787147462
C  C229  1  0.44651000  0.83991000  0.97109000  1.0 -0.1787147462
C  C230  1  0.83991000  0.44651000  0.74249000  1.0 -0.1787147462
C  C231  1  0.74249000  0.97109000  0.83991000  1.0 -0.1787147462
C  C232  1  0.97109000  0.74249000  0.44651000  1.0 -0.1787147462
C  C233  1  0.74249000  0.44651000  0.97109000  1.0 -0.1787147462
C  C234  1  0.97109000  0.83991000  0.74249000  1.0 -0.1787147462
C  C235  1  0.44651000  0.74249000  0.83991000  1.0 -0.1787147462
C  C236  1  0.83991000  0.97109000  0.44651000  1.0 -0.1787147462
C  C237  1  0.83991000  0.74249000  0.97109000  1.0 -0.1787147462
C  C238  1  0.44651000  0.97109000  0.74249000  1.0 -0.1787147462
C  C239  1  0.97109000  0.44651000  0.83991000  1.0 -0.1787147462
C  C240  1  0.74249000  0.83991000  0.44651000  1.0 -0.1787147462
C  C241  1  0.94720000  0.36440000  0.26320000  1.0 0.0402082123
C  C242  1  0.36440000  0.94720000  0.42520000  1.0 0.0402082123
C  C243  1  0.26320000  0.42520000  0.94720000  1.0 0.0402082123
C  C244  1  0.42520000  0.26320000  0.36440000  1.0 0.0402082123
C  C245  1  0.26320000  0.94720000  0.36440000  1.0 0.0402082123
C  C246  1  0.42520000  0.36440000  0.94720000  1.0 0.0402082123
C  C247  1  0.94720000  0.26320000  0.42520000  1.0 0.0402082123
C  C248  1  0.36440000  0.42520000  0.26320000  1.0 0.0402082123
C  C249  1  0.36440000  0.26320000  0.94720000  1.0 0.0402082123
C  C250  1  0.94720000  0.42520000  0.36440000  1.0 0.0402082123
C  C251  1  0.42520000  0.94720000  0.26320000  1.0 0.0402082123
C  C252  1  0.26320000  0.36440000  0.42520000  1.0 0.0402082123
C  C253  1  0.55280000  0.13560000  0.07480000  1.0 0.0402082123
C  C254  1  0.13560000  0.55280000  0.23680000  1.0 0.0402082123
C  C255  1  0.23680000  0.07480000  0.13560000  1.0 0.0402082123
C  C256  1  0.07480000  0.23680000  0.55280000  1.0 0.0402082123
C  C257  1  0.23680000  0.55280000  0.07480000  1.0 0.0402082123
C  C258  1  0.07480000  0.13560000  0.23680000  1.0 0.0402082123
C  C259  1  0.55280000  0.23680000  0.13560000  1.0 0.0402082123
C  C260  1  0.13560000  0.07480000  0.55280000  1.0 0.0402082123
C  C261  1  0.13560000  0.23680000  0.07480000  1.0 0.0402082123
C  C262  1  0.55280000  0.07480000  0.23680000  1.0 0.0402082123
C  C263  1  0.07480000  0.55280000  0.13560000  1.0 0.0402082123
C  C264  1  0.23680000  0.13560000  0.55280000  1.0 0.0402082123
C  C265  1  0.05280000  0.63560000  0.73680000  1.0 0.0402082123
C  C266  1  0.63560000  0.05280000  0.57480000  1.0 0.0402082123
C  C267  1  0.73680000  0.57480000  0.05280000  1.0 0.0402082123
C  C268  1  0.57480000  0.73680000  0.63560000  1.0 0.0402082123
C  C269  1  0.73680000  0.05280000  0.63560000  1.0 0.0402082123
C  C270  1  0.57480000  0.63560000  0.05280000  1.0 0.0402082123
C  C271  1  0.05280000  0.73680000  0.57480000  1.0 0.0402082123
C  C272  1  0.63560000  0.57480000  0.73680000  1.0 0.0402082123
C  C273  1  0.63560000  0.73680000  0.05280000  1.0 0.0402082123
C  C274  1  0.05280000  0.57480000  0.63560000  1.0 0.0402082123
C  C275  1  0.57480000  0.05280000  0.73680000  1.0 0.0402082123
C  C276  1  0.73680000  0.63560000  0.57480000  1.0 0.0402082123
C  C277  1  0.44720000  0.86440000  0.92520000  1.0 0.0402082123
C  C278  1  0.86440000  0.44720000  0.76320000  1.0 0.0402082123
C  C279  1  0.76320000  0.92520000  0.86440000  1.0 0.0402082123
C  C280  1  0.92520000  0.76320000  0.44720000  1.0 0.0402082123
C  C281  1  0.76320000  0.44720000  0.92520000  1.0 0.0402082123
C  C282  1  0.92520000  0.86440000  0.76320000  1.0 0.0402082123
C  C283  1  0.44720000  0.76320000  0.86440000  1.0 0.0402082123
C  C284  1  0.86440000  0.92520000  0.44720000  1.0 0.0402082123
C  C285  1  0.86440000  0.76320000  0.92520000  1.0 0.0402082123
C  C286  1  0.44720000  0.92520000  0.76320000  1.0 0.0402082123
C  C287  1  0.92520000  0.44720000  0.86440000  1.0 0.0402082123
C  C288  1  0.76320000  0.86440000  0.44720000  1.0 0.0402082123
C  C289  1  0.94762000  0.41078000  0.23858000  1.0 0.0094683925
C  C290  1  0.41078000  0.94762000  0.40302000  1.0 0.0094683925
C  C291  1  0.23858000  0.40302000  0.94762000  1.0 0.0094683925
C  C292  1  0.40302000  0.23858000  0.41078000  1.0 0.0094683925
C  C293  1  0.23858000  0.94762000  0.41078000  1.0 0.0094683925
C  C294  1  0.40302000  0.41078000  0.94762000  1.0 0.0094683925
C  C295  1  0.94762000  0.23858000  0.40302000  1.0 0.0094683925
C  C296  1  0.41078000  0.40302000  0.23858000  1.0 0.0094683925
C  C297  1  0.41078000  0.23858000  0.94762000  1.0 0.0094683925
C  C298  1  0.94762000  0.40302000  0.41078000  1.0 0.0094683925
C  C299  1  0.40302000  0.94762000  0.23858000  1.0 0.0094683925
C  C300  1  0.23858000  0.41078000  0.40302000  1.0 0.0094683925
C  C301  1  0.55238000  0.08922000  0.09698000  1.0 0.0094683925
C  C302  1  0.08922000  0.55238000  0.26142000  1.0 0.0094683925
C  C303  1  0.26142000  0.09698000  0.08922000  1.0 0.0094683925
C  C304  1  0.09698000  0.26142000  0.55238000  1.0 0.0094683925
C  C305  1  0.26142000  0.55238000  0.09698000  1.0 0.0094683925
C  C306  1  0.09698000  0.08922000  0.26142000  1.0 0.0094683925
C  C307  1  0.55238000  0.26142000  0.08922000  1.0 0.0094683925
C  C308  1  0.08922000  0.09698000  0.55238000  1.0 0.0094683925
C  C309  1  0.08922000  0.26142000  0.09698000  1.0 0.0094683925
C  C310  1  0.55238000  0.09698000  0.26142000  1.0 0.0094683925
C  C311  1  0.09698000  0.55238000  0.08922000  1.0 0.0094683925
C  C312  1  0.26142000  0.08922000  0.55238000  1.0 0.0094683925
C  C313  1  0.05238000  0.58922000  0.76142000  1.0 0.0094683925
C  C314  1  0.58922000  0.05238000  0.59698000  1.0 0.0094683925
C  C315  1  0.76142000  0.59698000  0.05238000  1.0 0.0094683925
C  C316  1  0.59698000  0.76142000  0.58922000  1.0 0.0094683925
C  C317  1  0.76142000  0.05238000  0.58922000  1.0 0.0094683925
C  C318  1  0.59698000  0.58922000  0.05238000  1.0 0.0094683925
C  C319  1  0.05238000  0.76142000  0.59698000  1.0 0.0094683925
C  C320  1  0.58922000  0.59698000  0.76142000  1.0 0.0094683925
C  C321  1  0.58922000  0.76142000  0.05238000  1.0 0.0094683925
C  C322  1  0.05238000  0.59698000  0.58922000  1.0 0.0094683925
C  C323  1  0.59698000  0.05238000  0.76142000  1.0 0.0094683925
C  C324  1  0.76142000  0.58922000  0.59698000  1.0 0.0094683925
C  C325  1  0.44762000  0.91078000  0.90302000  1.0 0.0094683925
C  C326  1  0.91078000  0.44762000  0.73858000  1.0 0.0094683925
C  C327  1  0.73858000  0.90302000  0.91078000  1.0 0.0094683925
C  C328  1  0.90302000  0.73858000  0.44762000  1.0 0.0094683925
C  C329  1  0.73858000  0.44762000  0.90302000  1.0 0.0094683925
C  C330  1  0.90302000  0.91078000  0.73858000  1.0 0.0094683925
C  C331  1  0.44762000  0.73858000  0.91078000  1.0 0.0094683925
C  C332  1  0.91078000  0.90302000  0.44762000  1.0 0.0094683925
C  C333  1  0.91078000  0.73858000  0.90302000  1.0 0.0094683925
C  C334  1  0.44762000  0.90302000  0.73858000  1.0 0.0094683925
C  C335  1  0.90302000  0.44762000  0.91078000  1.0 0.0094683925
C  C336  1  0.73858000  0.91078000  0.44762000  1.0 0.0094683925
C  C337  1  0.94642000  0.43082000  0.26698000  1.0 0.1700190459
C  C338  1  0.43082000  0.94642000  0.35578000  1.0 0.1700190459
C  C339  1  0.26698000  0.35578000  0.94642000  1.0 0.1700190459
C  C340  1  0.35578000  0.26698000  0.43082000  1.0 0.1700190459
C  C341  1  0.26698000  0.94642000  0.43082000  1.0 0.1700190459
C  C342  1  0.35578000  0.43082000  0.94642000  1.0 0.1700190459
C  C343  1  0.94642000  0.26698000  0.35578000  1.0 0.1700190459
C  C344  1  0.43082000  0.35578000  0.26698000  1.0 0.1700190459
C  C345  1  0.43082000  0.26698000  0.94642000  1.0 0.1700190459
C  C346  1  0.94642000  0.35578000  0.43082000  1.0 0.1700190459
C  C347  1  0.35578000  0.94642000  0.26698000  1.0 0.1700190459
C  C348  1  0.26698000  0.43082000  0.35578000  1.0 0.1700190459
C  C349  1  0.55358000  0.06918000  0.14422000  1.0 0.1700190459
C  C350  1  0.06918000  0.55358000  0.23302000  1.0 0.1700190459
C  C351  1  0.23302000  0.14422000  0.06918000  1.0 0.1700190459
C  C352  1  0.14422000  0.23302000  0.55358000  1.0 0.1700190459
C  C353  1  0.23302000  0.55358000  0.14422000  1.0 0.1700190459
C  C354  1  0.14422000  0.06918000  0.23302000  1.0 0.1700190459
C  C355  1  0.55358000  0.23302000  0.06918000  1.0 0.1700190459
C  C356  1  0.06918000  0.14422000  0.55358000  1.0 0.1700190459
C  C357  1  0.06918000  0.23302000  0.14422000  1.0 0.1700190459
C  C358  1  0.55358000  0.14422000  0.23302000  1.0 0.1700190459
C  C359  1  0.14422000  0.55358000  0.06918000  1.0 0.1700190459
C  C360  1  0.23302000  0.06918000  0.55358000  1.0 0.1700190459
C  C361  1  0.05358000  0.56918000  0.73302000  1.0 0.1700190459
C  C362  1  0.56918000  0.05358000  0.64422000  1.0 0.1700190459
C  C363  1  0.73302000  0.64422000  0.05358000  1.0 0.1700190459
C  C364  1  0.64422000  0.73302000  0.56918000  1.0 0.1700190459
C  C365  1  0.73302000  0.05358000  0.56918000  1.0 0.1700190459
C  C366  1  0.64422000  0.56918000  0.05358000  1.0 0.1700190459
C  C367  1  0.05358000  0.73302000  0.64422000  1.0 0.1700190459
C  C368  1  0.56918000  0.64422000  0.73302000  1.0 0.1700190459
C  C369  1  0.56918000  0.73302000  0.05358000  1.0 0.1700190459
C  C370  1  0.05358000  0.64422000  0.56918000  1.0 0.1700190459
C  C371  1  0.64422000  0.05358000  0.73302000  1.0 0.1700190459
C  C372  1  0.73302000  0.56918000  0.64422000  1.0 0.1700190459
C  C373  1  0.44642000  0.93082000  0.85578000  1.0 0.1700190459
C  C374  1  0.93082000  0.44642000  0.76698000  1.0 0.1700190459
C  C375  1  0.76698000  0.85578000  0.93082000  1.0 0.1700190459
C  C376  1  0.85578000  0.76698000  0.44642000  1.0 0.1700190459
C  C377  1  0.76698000  0.44642000  0.85578000  1.0 0.1700190459
C  C378  1  0.85578000  0.93082000  0.76698000  1.0 0.1700190459
C  C379  1  0.44642000  0.76698000  0.93082000  1.0 0.1700190459
C  C380  1  0.93082000  0.85578000  0.44642000  1.0 0.1700190459
C  C381  1  0.93082000  0.76698000  0.85578000  1.0 0.1700190459
C  C382  1  0.44642000  0.85578000  0.76698000  1.0 0.1700190459
C  C383  1  0.85578000  0.44642000  0.93082000  1.0 0.1700190459
C  C384  1  0.76698000  0.93082000  0.44642000  1.0 0.1700190459
C  C385  1  0.90373000  0.47407000  0.26953000  1.0 -0.4435542812
C  C386  1  0.47407000  0.90373000  0.35267000  1.0 -0.4435542812
C  C387  1  0.26953000  0.35267000  0.90373000  1.0 -0.4435542812
C  C388  1  0.35267000  0.26953000  0.47407000  1.0 -0.4435542812
C  C389  1  0.26953000  0.90373000  0.47407000  1.0 -0.4435542812
C  C390  1  0.35267000  0.47407000  0.90373000  1.0 -0.4435542812
C  C391  1  0.90373000  0.26953000  0.35267000  1.0 -0.4435542812
C  C392  1  0.47407000  0.35267000  0.26953000  1.0 -0.4435542812
C  C393  1  0.47407000  0.26953000  0.90373000  1.0 -0.4435542812
C  C394  1  0.90373000  0.35267000  0.47407000  1.0 -0.4435542812
C  C395  1  0.35267000  0.90373000  0.26953000  1.0 -0.4435542812
C  C396  1  0.26953000  0.47407000  0.35267000  1.0 -0.4435542812
C  C397  1  0.59627000  0.02593000  0.14733000  1.0 -0.4435542812
C  C398  1  0.02593000  0.59627000  0.23047000  1.0 -0.4435542812
C  C399  1  0.23047000  0.14733000  0.02593000  1.0 -0.4435542812
C  C400  1  0.14733000  0.23047000  0.59627000  1.0 -0.4435542812
C  C401  1  0.23047000  0.59627000  0.14733000  1.0 -0.4435542812
C  C402  1  0.14733000  0.02593000  0.23047000  1.0 -0.4435542812
C  C403  1  0.59627000  0.23047000  0.02593000  1.0 -0.4435542812
C  C404  1  0.02593000  0.14733000  0.59627000  1.0 -0.4435542812
C  C405  1  0.02593000  0.23047000  0.14733000  1.0 -0.4435542812
C  C406  1  0.59627000  0.14733000  0.23047000  1.0 -0.4435542812
C  C407  1  0.14733000  0.59627000  0.02593000  1.0 -0.4435542812
C  C408  1  0.23047000  0.02593000  0.59627000  1.0 -0.4435542812
C  C409  1  0.09627000  0.52593000  0.73047000  1.0 -0.4435542812
C  C410  1  0.52593000  0.09627000  0.64733000  1.0 -0.4435542812
C  C411  1  0.73047000  0.64733000  0.09627000  1.0 -0.4435542812
C  C412  1  0.64733000  0.73047000  0.52593000  1.0 -0.4435542812
C  C413  1  0.73047000  0.09627000  0.52593000  1.0 -0.4435542812
C  C414  1  0.64733000  0.52593000  0.09627000  1.0 -0.4435542812
C  C415  1  0.09627000  0.73047000  0.64733000  1.0 -0.4435542812
C  C416  1  0.52593000  0.64733000  0.73047000  1.0 -0.4435542812
C  C417  1  0.52593000  0.73047000  0.09627000  1.0 -0.4435542812
C  C418  1  0.09627000  0.64733000  0.52593000  1.0 -0.4435542812
C  C419  1  0.64733000  0.09627000  0.73047000  1.0 -0.4435542812
C  C420  1  0.73047000  0.52593000  0.64733000  1.0 -0.4435542812
C  C421  1  0.40373000  0.97407000  0.85267000  1.0 -0.4435542812
C  C422  1  0.97407000  0.40373000  0.76953000  1.0 -0.4435542812
C  C423  1  0.76953000  0.85267000  0.97407000  1.0 -0.4435542812
C  C424  1  0.85267000  0.76953000  0.40373000  1.0 -0.4435542812
C  C425  1  0.76953000  0.40373000  0.85267000  1.0 -0.4435542812
C  C426  1  0.85267000  0.97407000  0.76953000  1.0 -0.4435542812
C  C427  1  0.40373000  0.76953000  0.97407000  1.0 -0.4435542812
C  C428  1  0.97407000  0.85267000  0.40373000  1.0 -0.4435542812
C  C429  1  0.97407000  0.76953000  0.85267000  1.0 -0.4435542812
C  C430  1  0.40373000  0.85267000  0.76953000  1.0 -0.4435542812
C  C431  1  0.85267000  0.40373000  0.97407000  1.0 -0.4435542812
C  C432  1  0.76953000  0.97407000  0.40373000  1.0 -0.4435542812
C  C433  1  0.99037000  0.44283000  0.24503000  1.0 -0.4652524363
C  C434  1  0.44283000  0.99037000  0.32177000  1.0 -0.4652524363
C  C435  1  0.24503000  0.32177000  0.99037000  1.0 -0.4652524363
C  C436  1  0.32177000  0.24503000  0.44283000  1.0 -0.4652524363
C  C437  1  0.24503000  0.99037000  0.44283000  1.0 -0.4652524363
C  C438  1  0.32177000  0.44283000  0.99037000  1.0 -0.4652524363
C  C439  1  0.99037000  0.24503000  0.32177000  1.0 -0.4652524363
C  C440  1  0.44283000  0.32177000  0.24503000  1.0 -0.4652524363
C  C441  1  0.44283000  0.24503000  0.99037000  1.0 -0.4652524363
C  C442  1  0.99037000  0.32177000  0.44283000  1.0 -0.4652524363
C  C443  1  0.32177000  0.99037000  0.24503000  1.0 -0.4652524363
C  C444  1  0.24503000  0.44283000  0.32177000  1.0 -0.4652524363
C  C445  1  0.50963000  0.05717000  0.17823000  1.0 -0.4652524363
C  C446  1  0.05717000  0.50963000  0.25497000  1.0 -0.4652524363
C  C447  1  0.25497000  0.17823000  0.05717000  1.0 -0.4652524363
C  C448  1  0.17823000  0.25497000  0.50963000  1.0 -0.4652524363
C  C449  1  0.25497000  0.50963000  0.17823000  1.0 -0.4652524363
C  C450  1  0.17823000  0.05717000  0.25497000  1.0 -0.4652524363
C  C451  1  0.50963000  0.25497000  0.05717000  1.0 -0.4652524363
C  C452  1  0.05717000  0.17823000  0.50963000  1.0 -0.4652524363
C  C453  1  0.05717000  0.25497000  0.17823000  1.0 -0.4652524363
C  C454  1  0.50963000  0.17823000  0.25497000  1.0 -0.4652524363
C  C455  1  0.17823000  0.50963000  0.05717000  1.0 -0.4652524363
C  C456  1  0.25497000  0.05717000  0.50963000  1.0 -0.4652524363
C  C457  1  0.00963000  0.55717000  0.75497000  1.0 -0.4652524363
C  C458  1  0.55717000  0.00963000  0.67823000  1.0 -0.4652524363
C  C459  1  0.75497000  0.67823000  0.00963000  1.0 -0.4652524363
C  C460  1  0.67823000  0.75497000  0.55717000  1.0 -0.4652524363
C  C461  1  0.75497000  0.00963000  0.55717000  1.0 -0.4652524363
C  C462  1  0.67823000  0.55717000  0.00963000  1.0 -0.4652524363
C  C463  1  0.00963000  0.75497000  0.67823000  1.0 -0.4652524363
C  C464  1  0.55717000  0.67823000  0.75497000  1.0 -0.4652524363
C  C465  1  0.55717000  0.75497000  0.00963000  1.0 -0.4652524363
C  C466  1  0.00963000  0.67823000  0.55717000  1.0 -0.4652524363
C  C467  1  0.67823000  0.00963000  0.75497000  1.0 -0.4652524363
C  C468  1  0.75497000  0.55717000  0.67823000  1.0 -0.4652524363
C  C469  1  0.49037000  0.94283000  0.82177000  1.0 -0.4652524363
C  C470  1  0.94283000  0.49037000  0.74503000  1.0 -0.4652524363
C  C471  1  0.74503000  0.82177000  0.94283000  1.0 -0.4652524363
C  C472  1  0.82177000  0.74503000  0.49037000  1.0 -0.4652524363
C  C473  1  0.74503000  0.49037000  0.82177000  1.0 -0.4652524363
C  C474  1  0.82177000  0.94283000  0.74503000  1.0 -0.4652524363
C  C475  1  0.49037000  0.74503000  0.94283000  1.0 -0.4652524363
C  C476  1  0.94283000  0.82177000  0.49037000  1.0 -0.4652524363
C  C477  1  0.94283000  0.74503000  0.82177000  1.0 -0.4652524363
C  C478  1  0.49037000  0.82177000  0.74503000  1.0 -0.4652524363
C  C479  1  0.82177000  0.49037000  0.94283000  1.0 -0.4652524363
C  C480  1  0.74503000  0.94283000  0.49037000  1.0 -0.4652524363
C  C481  1  0.94488000  0.39198000  0.31282000  1.0 -0.0043659741
C  C482  1  0.39198000  0.94488000  0.35032000  1.0 -0.0043659741
C  C483  1  0.31282000  0.35032000  0.94488000  1.0 -0.0054240154
C  C484  1  0.35032000  0.31282000  0.39198000  1.0 -0.0054240154
C  C485  1  0.31282000  0.94488000  0.39198000  1.0 -0.0043659741
C  C486  1  0.35032000  0.39198000  0.94488000  1.0 -0.0054240154
C  C487  1  0.94488000  0.31282000  0.35032000  1.0 -0.0043659741
C  C488  1  0.39198000  0.35032000  0.31282000  1.0 -0.0043659741
C  C489  1  0.39198000  0.31282000  0.94488000  1.0 -0.0043659741
C  C490  1  0.94488000  0.35032000  0.39198000  1.0 -0.0043659741
C  C491  1  0.35032000  0.94488000  0.31282000  1.0 -0.0043659741
C  C492  1  0.31282000  0.39198000  0.35032000  1.0 -0.0043659741
C  C493  1  0.55512000  0.10802000  0.14968000  1.0 -0.0043659741
C  C494  1  0.10802000  0.55512000  0.18718000  1.0 -0.0043659741
C  C495  1  0.18718000  0.14968000  0.10802000  1.0 -0.0043659741
C  C496  1  0.14968000  0.18718000  0.55512000  1.0 -0.0043659741
C  C497  1  0.18718000  0.55512000  0.14968000  1.0 -0.0043659741
C  C498  1  0.14968000  0.10802000  0.18718000  1.0 -0.0043659741
C  C499  1  0.55512000  0.18718000  0.10802000  1.0 -0.0043659741
C  C500  1  0.10802000  0.14968000  0.55512000  1.0 -0.0054240154
C  C501  1  0.10802000  0.18718000  0.14968000  1.0 -0.0043659741
C  C502  1  0.55512000  0.14968000  0.18718000  1.0 -0.0043659741
C  C503  1  0.14968000  0.55512000  0.10802000  1.0 -0.0043659741
C  C504  1  0.18718000  0.10802000  0.55512000  1.0 -0.0054240154
C  C505  1  0.05512000  0.60802000  0.68718000  1.0 -0.0054240154
C  C506  1  0.60802000  0.05512000  0.64968000  1.0 -0.0054240154
C  C507  1  0.68718000  0.64968000  0.05512000  1.0 -0.0043659741
C  C508  1  0.64968000  0.68718000  0.60802000  1.0 -0.0043659741
C  C509  1  0.68718000  0.05512000  0.60802000  1.0 -0.0043659741
C  C510  1  0.64968000  0.60802000  0.05512000  1.0 -0.0043659741
C  C511  1  0.05512000  0.68718000  0.64968000  1.0 -0.0054240154
C  C512  1  0.60802000  0.64968000  0.68718000  1.0 -0.0043659741
C  C513  1  0.60802000  0.68718000  0.05512000  1.0 -0.0043659741
C  C514  1  0.05512000  0.64968000  0.60802000  1.0 -0.0054240154
C  C515  1  0.64968000  0.05512000  0.68718000  1.0 -0.0054240154
C  C516  1  0.68718000  0.60802000  0.64968000  1.0 -0.0043659741
C  C517  1  0.44488000  0.89198000  0.85032000  1.0 -0.0043659741
C  C518  1  0.89198000  0.44488000  0.81282000  1.0 -0.0054240154
C  C519  1  0.81282000  0.85032000  0.89198000  1.0 -0.0054240154
C  C520  1  0.85032000  0.81282000  0.44488000  1.0 -0.0043659741
C  C521  1  0.81282000  0.44488000  0.85032000  1.0 -0.0054240154
C  C522  1  0.85032000  0.89198000  0.81282000  1.0 -0.0054240154
C  C523  1  0.44488000  0.81282000  0.89198000  1.0 -0.0054240154
C  C524  1  0.89198000  0.85032000  0.44488000  1.0 -0.0043659741
C  C525  1  0.89198000  0.81282000  0.85032000  1.0 -0.0054240154
C  C526  1  0.44488000  0.85032000  0.81282000  1.0 -0.0054240154
C  C527  1  0.85032000  0.44488000  0.89198000  1.0 -0.0054240154
C  C528  1  0.81282000  0.89198000  0.44488000  1.0 -0.0043659741
C  C529  1  0.94560000  0.39140000  0.35280000  1.0 -0.0471230007
C  C530  1  0.39140000  0.94560000  0.31020000  1.0 -0.0471230007
C  C531  1  0.35280000  0.31020000  0.94560000  1.0 -0.0471230007
C  C532  1  0.31020000  0.35280000  0.39140000  1.0 -0.0471230007
C  C533  1  0.35280000  0.94560000  0.39140000  1.0 -0.0471230007
C  C534  1  0.31020000  0.39140000  0.94560000  1.0 -0.0471230007
C  C535  1  0.94560000  0.35280000  0.31020000  1.0 -0.0471230007
C  C536  1  0.39140000  0.31020000  0.35280000  1.0 -0.0471230007
C  C537  1  0.39140000  0.35280000  0.94560000  1.0 -0.0471230007
C  C538  1  0.94560000  0.31020000  0.39140000  1.0 -0.0471230007
C  C539  1  0.31020000  0.94560000  0.35280000  1.0 -0.0471230007
C  C540  1  0.35280000  0.39140000  0.31020000  1.0 -0.0471230007
C  C541  1  0.55440000  0.10860000  0.18980000  1.0 -0.0471230007
C  C542  1  0.10860000  0.55440000  0.14720000  1.0 -0.0471230007
C  C543  1  0.14720000  0.18980000  0.10860000  1.0 -0.0471230007
C  C544  1  0.18980000  0.14720000  0.55440000  1.0 -0.0471230007
C  C545  1  0.14720000  0.55440000  0.18980000  1.0 -0.0471230007
C  C546  1  0.18980000  0.10860000  0.14720000  1.0 -0.0471230007
C  C547  1  0.55440000  0.14720000  0.10860000  1.0 -0.0471230007
C  C548  1  0.10860000  0.18980000  0.55440000  1.0 -0.0471230007
C  C549  1  0.10860000  0.14720000  0.18980000  1.0 -0.0471230007
C  C550  1  0.55440000  0.18980000  0.14720000  1.0 -0.0471230007
C  C551  1  0.18980000  0.55440000  0.10860000  1.0 -0.0471230007
C  C552  1  0.14720000  0.10860000  0.55440000  1.0 -0.0471230007
C  C553  1  0.05440000  0.60860000  0.64720000  1.0 -0.0471230007
C  C554  1  0.60860000  0.05440000  0.68980000  1.0 -0.0471230007
C  C555  1  0.64720000  0.68980000  0.05440000  1.0 -0.0471230007
C  C556  1  0.68980000  0.64720000  0.60860000  1.0 -0.0471230007
C  C557  1  0.64720000  0.05440000  0.60860000  1.0 -0.0471230007
C  C558  1  0.68980000  0.60860000  0.05440000  1.0 -0.0471230007
C  C559  1  0.05440000  0.64720000  0.68980000  1.0 -0.0471230007
C  C560  1  0.60860000  0.68980000  0.64720000  1.0 -0.0471230007
C  C561  1  0.60860000  0.64720000  0.05440000  1.0 -0.0471230007
C  C562  1  0.05440000  0.68980000  0.60860000  1.0 -0.0471230007
C  C563  1  0.68980000  0.05440000  0.64720000  1.0 -0.0471230007
C  C564  1  0.64720000  0.60860000  0.68980000  1.0 -0.0471230007
C  C565  1  0.44560000  0.89140000  0.81020000  1.0 -0.0471230007
C  C566  1  0.89140000  0.44560000  0.85280000  1.0 -0.0471230007
C  C567  1  0.85280000  0.81020000  0.89140000  1.0 -0.0471230007
C  C568  1  0.81020000  0.85280000  0.44560000  1.0 -0.0471230007
C  C569  1  0.85280000  0.44560000  0.81020000  1.0 -0.0471230007
C  C570  1  0.81020000  0.89140000  0.85280000  1.0 -0.0471230007
C  C571  1  0.44560000  0.85280000  0.89140000  1.0 -0.0471230007
C  C572  1  0.89140000  0.81020000  0.44560000  1.0 -0.0471230007
C  C573  1  0.89140000  0.85280000  0.81020000  1.0 -0.0471230007
C  C574  1  0.44560000  0.81020000  0.85280000  1.0 -0.0471230007
C  C575  1  0.81020000  0.44560000  0.89140000  1.0 -0.0471230007
C  C576  1  0.85280000  0.89140000  0.44560000  1.0 -0.0471230007
Cl  Cl1  1  0.00940000  0.49060000  0.00940000  1.0 0.128214388
Cl  Cl2  1  0.49060000  0.00940000  0.49060000  1.0 0.1222159234
Cl  Cl3  1  0.00940000  0.00940000  0.49060000  1.0 0.128214388
Cl  Cl4  1  0.49060000  0.49060000  0.00940000  1.0 0.1222159234
Cl  Cl5  1  0.49060000  0.00940000  0.00940000  1.0 0.1222159234
Cl  Cl6  1  0.00940000  0.49060000  0.49060000  1.0 0.1222159234
Cl  Cl7  1  0.99060000  0.50940000  0.99060000  1.0 0.1222159234
Cl  Cl8  1  0.50940000  0.99060000  0.50940000  1.0 0.1222159234
Cl  Cl9  1  0.99060000  0.99060000  0.50940000  1.0 0.128214388
Cl  Cl10  1  0.50940000  0.50940000  0.99060000  1.0 0.1222159234
Cl  Cl11  1  0.50940000  0.99060000  0.99060000  1.0 0.128214388
Cl  Cl12  1  0.99060000  0.50940000  0.50940000  1.0 0.1222159234
O  O1  1  0.95572000  0.40588000  0.10172000  1.0 -0.3739963065
O  O2  1  0.40588000  0.95572000  0.53668000  1.0 -0.3739963065
O  O3  1  0.10172000  0.53668000  0.95572000  1.0 -0.3739963065
O  O4  1  0.53668000  0.10172000  0.40588000  1.0 -0.3739963065
O  O5  1  0.10172000  0.95572000  0.40588000  1.0 -0.3755336971
O  O6  1  0.53668000  0.40588000  0.95572000  1.0 -0.3739963065
O  O7  1  0.95572000  0.10172000  0.53668000  1.0 -0.3739963065
O  O8  1  0.40588000  0.53668000  0.10172000  1.0 -0.3739963065
O  O9  1  0.40588000  0.10172000  0.95572000  1.0 -0.3739963065
O  O10  1  0.95572000  0.53668000  0.40588000  1.0 -0.3739963065
O  O11  1  0.53668000  0.95572000  0.10172000  1.0 -0.3739963065
O  O12  1  0.10172000  0.40588000  0.53668000  1.0 -0.3739963065
O  O13  1  0.54428000  0.09412000  0.96332000  1.0 -0.3739963065
O  O14  1  0.09412000  0.54428000  0.39828000  1.0 -0.3739963065
O  O15  1  0.39828000  0.96332000  0.09412000  1.0 -0.3739963065
O  O16  1  0.96332000  0.39828000  0.54428000  1.0 -0.3739963065
O  O17  1  0.39828000  0.54428000  0.96332000  1.0 -0.3739963065
O  O18  1  0.96332000  0.09412000  0.39828000  1.0 -0.3739963065
O  O19  1  0.54428000  0.39828000  0.09412000  1.0 -0.3739963065
O  O20  1  0.09412000  0.96332000  0.54428000  1.0 -0.3739963065
O  O21  1  0.09412000  0.39828000  0.96332000  1.0 -0.3739963065
O  O22  1  0.54428000  0.96332000  0.39828000  1.0 -0.3739963065
O  O23  1  0.96332000  0.54428000  0.09412000  1.0 -0.3739963065
O  O24  1  0.39828000  0.09412000  0.54428000  1.0 -0.3739963065
O  O25  1  0.04428000  0.59412000  0.89828000  1.0 -0.3739963065
O  O26  1  0.59412000  0.04428000  0.46332000  1.0 -0.3739963065
O  O27  1  0.89828000  0.46332000  0.04428000  1.0 -0.3739963065
O  O28  1  0.46332000  0.89828000  0.59412000  1.0 -0.3739963065
O  O29  1  0.89828000  0.04428000  0.59412000  1.0 -0.3739963065
O  O30  1  0.46332000  0.59412000  0.04428000  1.0 -0.3739963065
O  O31  1  0.04428000  0.89828000  0.46332000  1.0 -0.3739963065
O  O32  1  0.59412000  0.46332000  0.89828000  1.0 -0.3739963065
O  O33  1  0.59412000  0.89828000  0.04428000  1.0 -0.3739963065
O  O34  1  0.04428000  0.46332000  0.59412000  1.0 -0.3755336971
O  O35  1  0.46332000  0.04428000  0.89828000  1.0 -0.3739963065
O  O36  1  0.89828000  0.59412000  0.46332000  1.0 -0.3739963065
O  O37  1  0.45572000  0.90588000  0.03668000  1.0 -0.3739963065
O  O38  1  0.90588000  0.45572000  0.60172000  1.0 -0.3739963065
O  O39  1  0.60172000  0.03668000  0.90588000  1.0 -0.3739963065
O  O40  1  0.03668000  0.60172000  0.45572000  1.0 -0.3739963065
O  O41  1  0.60172000  0.45572000  0.03668000  1.0 -0.3739963065
O  O42  1  0.03668000  0.90588000  0.60172000  1.0 -0.3755336971
O  O43  1  0.45572000  0.60172000  0.90588000  1.0 -0.3739963065
O  O44  1  0.90588000  0.03668000  0.45572000  1.0 -0.3739963065
O  O45  1  0.90588000  0.60172000  0.03668000  1.0 -0.3739963065
O  O46  1  0.45572000  0.03668000  0.60172000  1.0 -0.3739963065
O  O47  1  0.03668000  0.45572000  0.90588000  1.0 -0.3739963065
O  O48  1  0.60172000  0.90588000  0.45572000  1.0 -0.3739963065
O  O49  1  0.97030000  0.45490000  0.09790000  1.0 -0.2196120634
O  O50  1  0.45490000  0.97030000  0.47690000  1.0 -0.2196120634
O  O51  1  0.09790000  0.47690000  0.97030000  1.0 -0.2196120634
O  O52  1  0.47690000  0.09790000  0.45490000  1.0 -0.2196120634
O  O53  1  0.09790000  0.97030000  0.45490000  1.0 -0.2196120634
O  O54  1  0.47690000  0.45490000  0.97030000  1.0 -0.2196120634
O  O55  1  0.97030000  0.09790000  0.47690000  1.0 -0.2196120634
O  O56  1  0.45490000  0.47690000  0.09790000  1.0 -0.2196120634
O  O57  1  0.45490000  0.09790000  0.97030000  1.0 -0.2196120634
O  O58  1  0.97030000  0.47690000  0.45490000  1.0 -0.2196120634
O  O59  1  0.47690000  0.97030000  0.09790000  1.0 -0.2196120634
O  O60  1  0.09790000  0.45490000  0.47690000  1.0 -0.2196120634
O  O61  1  0.52970000  0.04510000  0.02310000  1.0 -0.2196120634
O  O62  1  0.04510000  0.52970000  0.40210000  1.0 -0.2196120634
O  O63  1  0.40210000  0.02310000  0.04510000  1.0 -0.2196120634
O  O64  1  0.02310000  0.40210000  0.52970000  1.0 -0.2196120634
O  O65  1  0.40210000  0.52970000  0.02310000  1.0 -0.2196120634
O  O66  1  0.02310000  0.04510000  0.40210000  1.0 -0.2196120634
O  O67  1  0.52970000  0.40210000  0.04510000  1.0 -0.2196120634
O  O68  1  0.04510000  0.02310000  0.52970000  1.0 -0.2196120634
O  O69  1  0.04510000  0.40210000  0.02310000  1.0 -0.2196120634
O  O70  1  0.52970000  0.02310000  0.40210000  1.0 -0.2196120634
O  O71  1  0.02310000  0.52970000  0.04510000  1.0 -0.2196120634
O  O72  1  0.40210000  0.04510000  0.52970000  1.0 -0.2196120634
O  O73  1  0.02970000  0.54510000  0.90210000  1.0 -0.2196120634
O  O74  1  0.54510000  0.02970000  0.52310000  1.0 -0.2196120634
O  O75  1  0.90210000  0.52310000  0.02970000  1.0 -0.2196120634
O  O76  1  0.52310000  0.90210000  0.54510000  1.0 -0.2196120634
O  O77  1  0.90210000  0.02970000  0.54510000  1.0 -0.2196120634
O  O78  1  0.52310000  0.54510000  0.02970000  1.0 -0.2196120634
O  O79  1  0.02970000  0.90210000  0.52310000  1.0 -0.2196120634
O  O80  1  0.54510000  0.52310000  0.90210000  1.0 -0.2196120634
O  O81  1  0.54510000  0.90210000  0.02970000  1.0 -0.2196120634
O  O82  1  0.02970000  0.52310000  0.54510000  1.0 -0.2196120634
O  O83  1  0.52310000  0.02970000  0.90210000  1.0 -0.2196120634
O  O84  1  0.90210000  0.54510000  0.52310000  1.0 -0.2196120634
O  O85  1  0.47030000  0.95490000  0.97690000  1.0 -0.2196120634
O  O86  1  0.95490000  0.47030000  0.59790000  1.0 -0.2196120634
O  O87  1  0.59790000  0.97690000  0.95490000  1.0 -0.2196120634
O  O88  1  0.97690000  0.59790000  0.47030000  1.0 -0.2196120634
O  O89  1  0.59790000  0.47030000  0.97690000  1.0 -0.2196120634
O  O90  1  0.97690000  0.95490000  0.59790000  1.0 -0.2196120634
O  O91  1  0.47030000  0.59790000  0.95490000  1.0 -0.2196120634
O  O92  1  0.95490000  0.97690000  0.47030000  1.0 -0.2196120634
O  O93  1  0.95490000  0.59790000  0.97690000  1.0 -0.2196120634
O  O94  1  0.47030000  0.97690000  0.59790000  1.0 -0.2196120634
O  O95  1  0.97690000  0.47030000  0.95490000  1.0 -0.2196120634
O  O96  1  0.59790000  0.95490000  0.47030000  1.0 -0.2196120634
O  O97  1  0.92770000  0.48390000  0.10950000  1.0 -0.1113521093
O  O98  1  0.48390000  0.92770000  0.47890000  1.0 -0.1113521093
O  O99  1  0.10950000  0.47890000  0.92770000  1.0 -0.1113521093
O  O100  1  0.47890000  0.10950000  0.48390000  1.0 -0.1113521093
O  O101  1  0.10950000  0.92770000  0.48390000  1.0 -0.1113521093
O  O102  1  0.47890000  0.48390000  0.92770000  1.0 -0.1113521093
O  O103  1  0.92770000  0.10950000  0.47890000  1.0 -0.1013706441
O  O104  1  0.48390000  0.47890000  0.10950000  1.0 -0.1113521093
O  O105  1  0.48390000  0.10950000  0.92770000  1.0 -0.1113521093
O  O106  1  0.92770000  0.47890000  0.48390000  1.0 -0.1113521093
O  O107  1  0.47890000  0.92770000  0.10950000  1.0 -0.1113521093
O  O108  1  0.10950000  0.48390000  0.47890000  1.0 -0.1113521093
O  O109  1  0.57230000  0.01610000  0.02110000  1.0 -0.1113521093
O  O110  1  0.01610000  0.57230000  0.39050000  1.0 -0.1113521093
O  O111  1  0.39050000  0.02110000  0.01610000  1.0 -0.1113521093
O  O112  1  0.02110000  0.39050000  0.57230000  1.0 -0.1113521093
O  O113  1  0.39050000  0.57230000  0.02110000  1.0 -0.1113521093
O  O114  1  0.02110000  0.01610000  0.39050000  1.0 -0.1113521093
O  O115  1  0.57230000  0.39050000  0.01610000  1.0 -0.1113521093
O  O116  1  0.01610000  0.02110000  0.57230000  1.0 -0.1113521093
O  O117  1  0.01610000  0.39050000  0.02110000  1.0 -0.1113521093
O  O118  1  0.57230000  0.02110000  0.39050000  1.0 -0.1113521093
O  O119  1  0.02110000  0.57230000  0.01610000  1.0 -0.1113521093
O  O120  1  0.39050000  0.01610000  0.57230000  1.0 -0.1113521093
O  O121  1  0.07230000  0.51610000  0.89050000  1.0 -0.1113521093
O  O122  1  0.51610000  0.07230000  0.52110000  1.0 -0.1113521093
O  O123  1  0.89050000  0.52110000  0.07230000  1.0 -0.1113521093
O  O124  1  0.52110000  0.89050000  0.51610000  1.0 -0.1113521093
O  O125  1  0.89050000  0.07230000  0.51610000  1.0 -0.1113521093
O  O126  1  0.52110000  0.51610000  0.07230000  1.0 -0.1113521093
O  O127  1  0.07230000  0.89050000  0.52110000  1.0 -0.1113521093
O  O128  1  0.51610000  0.52110000  0.89050000  1.0 -0.1113521093
O  O129  1  0.51610000  0.89050000  0.07230000  1.0 -0.1113521093
O  O130  1  0.07230000  0.52110000  0.51610000  1.0 -0.1113521093
O  O131  1  0.52110000  0.07230000  0.89050000  1.0 -0.1013706441
O  O132  1  0.89050000  0.51610000  0.52110000  1.0 -0.1113521093
O  O133  1  0.42770000  0.98390000  0.97890000  1.0 -0.122349254
O  O134  1  0.98390000  0.42770000  0.60950000  1.0 -0.1113521093
O  O135  1  0.60950000  0.97890000  0.98390000  1.0 -0.1113521093
O  O136  1  0.97890000  0.60950000  0.42770000  1.0 -0.1113521093
O  O137  1  0.60950000  0.42770000  0.97890000  1.0 -0.1113521093
O  O138  1  0.97890000  0.98390000  0.60950000  1.0 -0.1113521093
O  O139  1  0.42770000  0.60950000  0.98390000  1.0 -0.1113521093
O  O140  1  0.98390000  0.97890000  0.42770000  1.0 -0.1013706441
O  O141  1  0.98390000  0.60950000  0.97890000  1.0 -0.1113521093
O  O142  1  0.42770000  0.97890000  0.60950000  1.0 -0.1113521093
O  O143  1  0.97890000  0.42770000  0.98390000  1.0 -0.1113521093
O  O144  1  0.60950000  0.98390000  0.42770000  1.0 -0.1013706441
