# DDEC6 charges by PACMAN v1.1 (https://github.com/mtap-research/PACMAN-charge/)
data_VETSOE_ASR_pacman
_symmetry_space_group_name_H-M   'P 1'
_cell_length_a   35.79450000
_cell_length_b   35.79450000
_cell_length_c   35.79450000
_cell_angle_alpha   60.00000000
_cell_angle_beta   60.00000000
_cell_angle_gamma   60.00000000
_symmetry_Int_Tables_number   1
_chemical_formula_structural   Mn2H36C48ClO12
_chemical_formula_sum   'Mn24 H432 C576 Cl12 O144'
_cell_volume   32429.02586207
_cell_formula_units_Z   12
loop_
 _symmetry_equiv_pos_site_id
 _symmetry_equiv_pos_as_xyz
  1  'x, y, z'
loop_
 _atom_site_type_symbol
 _atom_site_label
 _atom_site_symmetry_multiplicity
 _atom_site_fract_x
 _atom_site_fract_y
 _atom_site_fract_z
 _atom_site_occupancy
 _atom_site_charge
Mn  Mn1  1  0.53639000  0.93633000  0.06367000  1.0 0.7803109826
Mn  Mn2  1  0.93633000  0.53639000  0.46361000  1.0 0.7803109826
Mn  Mn3  1  0.06367000  0.46361000  0.53639000  1.0 0.7803109826
Mn  Mn4  1  0.46361000  0.06367000  0.93633000  1.0 0.7803109826
Mn  Mn5  1  0.06367000  0.53639000  0.93633000  1.0 0.7803109826
Mn  Mn6  1  0.46361000  0.93633000  0.53639000  1.0 0.7803109826
Mn  Mn7  1  0.53639000  0.06367000  0.46361000  1.0 0.7803109826
Mn  Mn8  1  0.93633000  0.46361000  0.06367000  1.0 0.7803109826
Mn  Mn9  1  0.93633000  0.06367000  0.53639000  1.0 0.7803109826
Mn  Mn10  1  0.53639000  0.46361000  0.93633000  1.0 0.7803109826
Mn  Mn11  1  0.46361000  0.53639000  0.06367000  1.0 0.7803109826
Mn  Mn12  1  0.06367000  0.93633000  0.46361000  1.0 0.7803109826
Mn  Mn13  1  0.96361000  0.56367000  0.03639000  1.0 0.7803109826
Mn  Mn14  1  0.56367000  0.96361000  0.43633000  1.0 0.7803109826
Mn  Mn15  1  0.43633000  0.03639000  0.56367000  1.0 0.7803109826
Mn  Mn16  1  0.03639000  0.43633000  0.96361000  1.0 0.7803109826
Mn  Mn17  1  0.43633000  0.96361000  0.03639000  1.0 0.7803109826
Mn  Mn18  1  0.03639000  0.56367000  0.43633000  1.0 0.7803109826
Mn  Mn19  1  0.96361000  0.43633000  0.56367000  1.0 0.7803109826
Mn  Mn20  1  0.56367000  0.03639000  0.96361000  1.0 0.7803109826
Mn  Mn21  1  0.56367000  0.43633000  0.03639000  1.0 0.7803109826
Mn  Mn22  1  0.96361000  0.03639000  0.43633000  1.0 0.7803109826
Mn  Mn23  1  0.03639000  0.96361000  0.56367000  1.0 0.7803109826
Mn  Mn24  1  0.43633000  0.56367000  0.96361000  1.0 0.7803109826
H  H1  1  0.67820000  0.96260000  0.90820000  1.0 0.1224493884
H  H2  1  0.96260000  0.67820000  0.45100000  1.0 0.1224493884
H  H3  1  0.90820000  0.45100000  0.67820000  1.0 0.1224493884
H  H4  1  0.45100000  0.90820000  0.96260000  1.0 0.1224493884
H  H5  1  0.90820000  0.67820000  0.96260000  1.0 0.1224493884
H  H6  1  0.45100000  0.96260000  0.67820000  1.0 0.1224493884
H  H7  1  0.67820000  0.90820000  0.45100000  1.0 0.1224493884
H  H8  1  0.96260000  0.45100000  0.90820000  1.0 0.1224493884
H  H9  1  0.96260000  0.90820000  0.67820000  1.0 0.1224493884
H  H10  1  0.67820000  0.45100000  0.96260000  1.0 0.1224493884
H  H11  1  0.45100000  0.67820000  0.90820000  1.0 0.1224493884
H  H12  1  0.90820000  0.96260000  0.45100000  1.0 0.1224493884
H  H13  1  0.82180000  0.53740000  0.04900000  1.0 0.1224493884
H  H14  1  0.53740000  0.82180000  0.59180000  1.0 0.1224493884
H  H15  1  0.59180000  0.04900000  0.53740000  1.0 0.1224493884
H  H16  1  0.04900000  0.59180000  0.82180000  1.0 0.1224493884
H  H17  1  0.59180000  0.82180000  0.04900000  1.0 0.1224493884
H  H18  1  0.04900000  0.53740000  0.59180000  1.0 0.1224493884
H  H19  1  0.82180000  0.59180000  0.53740000  1.0 0.1224493884
H  H20  1  0.53740000  0.04900000  0.82180000  1.0 0.1224493884
H  H21  1  0.53740000  0.59180000  0.04900000  1.0 0.1224493884
H  H22  1  0.82180000  0.04900000  0.59180000  1.0 0.1224493884
H  H23  1  0.04900000  0.82180000  0.53740000  1.0 0.1224493884
H  H24  1  0.59180000  0.53740000  0.82180000  1.0 0.1224493884
H  H25  1  0.32180000  0.03740000  0.09180000  1.0 0.1224493884
H  H26  1  0.03740000  0.32180000  0.54900000  1.0 0.1224493884
H  H27  1  0.09180000  0.54900000  0.32180000  1.0 0.1224493884
H  H28  1  0.54900000  0.09180000  0.03740000  1.0 0.1224493884
H  H29  1  0.09180000  0.32180000  0.03740000  1.0 0.1224493884
H  H30  1  0.54900000  0.03740000  0.32180000  1.0 0.1224493884
H  H31  1  0.32180000  0.09180000  0.54900000  1.0 0.1224493884
H  H32  1  0.03740000  0.54900000  0.09180000  1.0 0.1224493884
H  H33  1  0.03740000  0.09180000  0.32180000  1.0 0.1224493884
H  H34  1  0.32180000  0.54900000  0.03740000  1.0 0.1224493884
H  H35  1  0.54900000  0.32180000  0.09180000  1.0 0.1224493884
H  H36  1  0.09180000  0.03740000  0.54900000  1.0 0.1224493884
H  H37  1  0.17820000  0.46260000  0.95100000  1.0 0.1224493884
H  H38  1  0.46260000  0.17820000  0.40820000  1.0 0.1224493884
H  H39  1  0.40820000  0.95100000  0.46260000  1.0 0.1224493884
H  H40  1  0.95100000  0.40820000  0.17820000  1.0 0.1224493884
H  H41  1  0.40820000  0.17820000  0.95100000  1.0 0.1224493884
H  H42  1  0.95100000  0.46260000  0.40820000  1.0 0.1224493884
H  H43  1  0.17820000  0.40820000  0.46260000  1.0 0.1224493884
H  H44  1  0.46260000  0.95100000  0.17820000  1.0 0.1224493884
H  H45  1  0.46260000  0.40820000  0.95100000  1.0 0.1224493884
H  H46  1  0.17820000  0.95100000  0.40820000  1.0 0.1224493884
H  H47  1  0.95100000  0.17820000  0.46260000  1.0 0.1224493884
H  H48  1  0.40820000  0.46260000  0.17820000  1.0 0.1224493884
H  H49  1  0.75750000  0.81030000  0.97970000  1.0 0.114148426
H  H50  1  0.81030000  0.75750000  0.45250000  1.0 0.114148426
H  H51  1  0.97970000  0.45250000  0.75750000  1.0 0.114148426
H  H52  1  0.45250000  0.97970000  0.81030000  1.0 0.114148426
H  H53  1  0.97970000  0.75750000  0.81030000  1.0 0.114148426
H  H54  1  0.45250000  0.81030000  0.75750000  1.0 0.114148426
H  H55  1  0.75750000  0.97970000  0.45250000  1.0 0.114148426
H  H56  1  0.81030000  0.45250000  0.97970000  1.0 0.114148426
H  H57  1  0.81030000  0.97970000  0.75750000  1.0 0.114148426
H  H58  1  0.75750000  0.45250000  0.81030000  1.0 0.114148426
H  H59  1  0.45250000  0.75750000  0.97970000  1.0 0.114148426
H  H60  1  0.97970000  0.81030000  0.45250000  1.0 0.114148426
H  H61  1  0.74250000  0.68970000  0.04750000  1.0 0.114148426
H  H62  1  0.68970000  0.74250000  0.52030000  1.0 0.114148426
H  H63  1  0.52030000  0.04750000  0.68970000  1.0 0.114148426
H  H64  1  0.04750000  0.52030000  0.74250000  1.0 0.114148426
H  H65  1  0.52030000  0.74250000  0.04750000  1.0 0.114148426
H  H66  1  0.04750000  0.68970000  0.52030000  1.0 0.114148426
H  H67  1  0.74250000  0.52030000  0.68970000  1.0 0.114148426
H  H68  1  0.68970000  0.04750000  0.74250000  1.0 0.114148426
H  H69  1  0.68970000  0.52030000  0.04750000  1.0 0.114148426
H  H70  1  0.74250000  0.04750000  0.52030000  1.0 0.114148426
H  H71  1  0.04750000  0.74250000  0.68970000  1.0 0.114148426
H  H72  1  0.52030000  0.68970000  0.74250000  1.0 0.114148426
H  H73  1  0.24250000  0.18970000  0.02030000  1.0 0.114148426
H  H74  1  0.18970000  0.24250000  0.54750000  1.0 0.114148426
H  H75  1  0.02030000  0.54750000  0.24250000  1.0 0.114148426
H  H76  1  0.54750000  0.02030000  0.18970000  1.0 0.114148426
H  H77  1  0.02030000  0.24250000  0.18970000  1.0 0.114148426
H  H78  1  0.54750000  0.18970000  0.24250000  1.0 0.114148426
H  H79  1  0.24250000  0.02030000  0.54750000  1.0 0.114148426
H  H80  1  0.18970000  0.54750000  0.02030000  1.0 0.114148426
H  H81  1  0.18970000  0.02030000  0.24250000  1.0 0.114148426
H  H82  1  0.24250000  0.54750000  0.18970000  1.0 0.114148426
H  H83  1  0.54750000  0.24250000  0.02030000  1.0 0.114148426
H  H84  1  0.02030000  0.18970000  0.54750000  1.0 0.114148426
H  H85  1  0.25750000  0.31030000  0.95250000  1.0 0.114148426
H  H86  1  0.31030000  0.25750000  0.47970000  1.0 0.114148426
H  H87  1  0.47970000  0.95250000  0.31030000  1.0 0.114148426
H  H88  1  0.95250000  0.47970000  0.25750000  1.0 0.114148426
H  H89  1  0.47970000  0.25750000  0.95250000  1.0 0.114148426
H  H90  1  0.95250000  0.31030000  0.47970000  1.0 0.114148426
H  H91  1  0.25750000  0.47970000  0.31030000  1.0 0.114148426
H  H92  1  0.31030000  0.95250000  0.25750000  1.0 0.114148426
H  H93  1  0.31030000  0.47970000  0.95250000  1.0 0.114148426
H  H94  1  0.25750000  0.95250000  0.47970000  1.0 0.114148426
H  H95  1  0.95250000  0.25750000  0.31030000  1.0 0.114148426
H  H96  1  0.47970000  0.31030000  0.25750000  1.0 0.114148426
H  H97  1  0.68190000  0.84830000  0.01930000  1.0 0.1224493884
H  H98  1  0.84830000  0.68190000  0.45050000  1.0 0.1224493884
H  H99  1  0.01930000  0.45050000  0.68190000  1.0 0.1224493884
H  H100  1  0.45050000  0.01930000  0.84830000  1.0 0.1224493884
H  H101  1  0.01930000  0.68190000  0.84830000  1.0 0.1224493884
H  H102  1  0.45050000  0.84830000  0.68190000  1.0 0.1224493884
H  H103  1  0.68190000  0.01930000  0.45050000  1.0 0.1224493884
H  H104  1  0.84830000  0.45050000  0.01930000  1.0 0.1224493884
H  H105  1  0.84830000  0.01930000  0.68190000  1.0 0.1224493884
H  H106  1  0.68190000  0.45050000  0.84830000  1.0 0.1224493884
H  H107  1  0.45050000  0.68190000  0.01930000  1.0 0.1224493884
H  H108  1  0.01930000  0.84830000  0.45050000  1.0 0.1224493884
H  H109  1  0.81810000  0.65170000  0.04950000  1.0 0.1224493884
H  H110  1  0.65170000  0.81810000  0.48070000  1.0 0.1224493884
H  H111  1  0.48070000  0.04950000  0.65170000  1.0 0.1224493884
H  H112  1  0.04950000  0.48070000  0.81810000  1.0 0.1224493884
H  H113  1  0.48070000  0.81810000  0.04950000  1.0 0.1224493884
H  H114  1  0.04950000  0.65170000  0.48070000  1.0 0.1224493884
H  H115  1  0.81810000  0.48070000  0.65170000  1.0 0.1224493884
H  H116  1  0.65170000  0.04950000  0.81810000  1.0 0.1224493884
H  H117  1  0.65170000  0.48070000  0.04950000  1.0 0.1224493884
H  H118  1  0.81810000  0.04950000  0.48070000  1.0 0.1224493884
H  H119  1  0.04950000  0.81810000  0.65170000  1.0 0.1224493884
H  H120  1  0.48070000  0.65170000  0.81810000  1.0 0.1224493884
H  H121  1  0.31810000  0.15170000  0.98070000  1.0 0.1224493884
H  H122  1  0.15170000  0.31810000  0.54950000  1.0 0.1224493884
H  H123  1  0.98070000  0.54950000  0.31810000  1.0 0.1224493884
H  H124  1  0.54950000  0.98070000  0.15170000  1.0 0.1224493884
H  H125  1  0.98070000  0.31810000  0.15170000  1.0 0.1224493884
H  H126  1  0.54950000  0.15170000  0.31810000  1.0 0.1224493884
H  H127  1  0.31810000  0.98070000  0.54950000  1.0 0.1224493884
H  H128  1  0.15170000  0.54950000  0.98070000  1.0 0.1224493884
H  H129  1  0.15170000  0.98070000  0.31810000  1.0 0.1224493884
H  H130  1  0.31810000  0.54950000  0.15170000  1.0 0.1224493884
H  H131  1  0.54950000  0.31810000  0.98070000  1.0 0.1224493884
H  H132  1  0.98070000  0.15170000  0.54950000  1.0 0.1224493884
H  H133  1  0.18190000  0.34830000  0.95050000  1.0 0.1224493884
H  H134  1  0.34830000  0.18190000  0.51930000  1.0 0.1224493884
H  H135  1  0.51930000  0.95050000  0.34830000  1.0 0.1224493884
H  H136  1  0.95050000  0.51930000  0.18190000  1.0 0.1224493884
H  H137  1  0.51930000  0.18190000  0.95050000  1.0 0.1224493884
H  H138  1  0.95050000  0.34830000  0.51930000  1.0 0.1224493884
H  H139  1  0.18190000  0.51930000  0.34830000  1.0 0.1224493884
H  H140  1  0.34830000  0.95050000  0.18190000  1.0 0.1224493884
H  H141  1  0.34830000  0.51930000  0.95050000  1.0 0.1224493884
H  H142  1  0.18190000  0.95050000  0.51930000  1.0 0.1224493884
H  H143  1  0.95050000  0.18190000  0.34830000  1.0 0.1224493884
H  H144  1  0.51930000  0.34830000  0.18190000  1.0 0.1224493884
H  H145  1  0.78740000  0.96020000  0.87200000  1.0 0.1289412277
H  H146  1  0.96020000  0.78740000  0.38040000  1.0 0.1289412277
H  H147  1  0.87200000  0.38040000  0.78740000  1.0 0.1289412277
H  H148  1  0.38040000  0.87200000  0.96020000  1.0 0.1289412277
H  H149  1  0.87200000  0.78740000  0.96020000  1.0 0.1289412277
H  H150  1  0.38040000  0.96020000  0.78740000  1.0 0.1289412277
H  H151  1  0.78740000  0.87200000  0.38040000  1.0 0.1289412277
H  H152  1  0.96020000  0.38040000  0.87200000  1.0 0.1289412277
H  H153  1  0.96020000  0.87200000  0.78740000  1.0 0.1289412277
H  H154  1  0.78740000  0.38040000  0.96020000  1.0 0.1289412277
H  H155  1  0.38040000  0.78740000  0.87200000  1.0 0.1289412277
H  H156  1  0.87200000  0.96020000  0.38040000  1.0 0.1289412277
H  H157  1  0.71260000  0.53980000  0.11960000  1.0 0.1289412277
H  H158  1  0.53980000  0.71260000  0.62800000  1.0 0.1289412277
H  H159  1  0.62800000  0.11960000  0.53980000  1.0 0.1289412277
H  H160  1  0.11960000  0.62800000  0.71260000  1.0 0.1289412277
H  H161  1  0.62800000  0.71260000  0.11960000  1.0 0.1289412277
H  H162  1  0.11960000  0.53980000  0.62800000  1.0 0.1289412277
H  H163  1  0.71260000  0.62800000  0.53980000  1.0 0.1289412277
H  H164  1  0.53980000  0.11960000  0.71260000  1.0 0.1289412277
H  H165  1  0.53980000  0.62800000  0.11960000  1.0 0.1289412277
H  H166  1  0.71260000  0.11960000  0.62800000  1.0 0.1289412277
H  H167  1  0.11960000  0.71260000  0.53980000  1.0 0.1289412277
H  H168  1  0.62800000  0.53980000  0.71260000  1.0 0.1289412277
H  H169  1  0.21260000  0.03980000  0.12800000  1.0 0.1289412277
H  H170  1  0.03980000  0.21260000  0.61960000  1.0 0.1289412277
H  H171  1  0.12800000  0.61960000  0.21260000  1.0 0.1289412277
H  H172  1  0.61960000  0.12800000  0.03980000  1.0 0.1289412277
H  H173  1  0.12800000  0.21260000  0.03980000  1.0 0.1289412277
H  H174  1  0.61960000  0.03980000  0.21260000  1.0 0.1289412277
H  H175  1  0.21260000  0.12800000  0.61960000  1.0 0.1289412277
H  H176  1  0.03980000  0.61960000  0.12800000  1.0 0.1289412277
H  H177  1  0.03980000  0.12800000  0.21260000  1.0 0.1289412277
H  H178  1  0.21260000  0.61960000  0.03980000  1.0 0.1289412277
H  H179  1  0.61960000  0.21260000  0.12800000  1.0 0.1289412277
H  H180  1  0.12800000  0.03980000  0.61960000  1.0 0.1289412277
H  H181  1  0.28740000  0.46020000  0.88040000  1.0 0.1289412277
H  H182  1  0.46020000  0.28740000  0.37200000  1.0 0.1289412277
H  H183  1  0.37200000  0.88040000  0.46020000  1.0 0.1289412277
H  H184  1  0.88040000  0.37200000  0.28740000  1.0 0.1289412277
H  H185  1  0.37200000  0.28740000  0.88040000  1.0 0.1289412277
H  H186  1  0.88040000  0.46020000  0.37200000  1.0 0.1289412277
H  H187  1  0.28740000  0.37200000  0.46020000  1.0 0.1289412277
H  H188  1  0.46020000  0.88040000  0.28740000  1.0 0.1289412277
H  H189  1  0.46020000  0.37200000  0.88040000  1.0 0.1289412277
H  H190  1  0.28740000  0.88040000  0.37200000  1.0 0.1289412277
H  H191  1  0.88040000  0.28740000  0.46020000  1.0 0.1289412277
H  H192  1  0.37200000  0.46020000  0.28740000  1.0 0.1289412277
H  H193  1  0.74080000  0.99280000  0.86060000  1.0 0.1224493884
H  H194  1  0.99280000  0.74080000  0.40580000  1.0 0.1224493884
H  H195  1  0.86060000  0.40580000  0.74080000  1.0 0.1224493884
H  H196  1  0.40580000  0.86060000  0.99280000  1.0 0.1224493884
H  H197  1  0.86060000  0.74080000  0.99280000  1.0 0.1224493884
H  H198  1  0.40580000  0.99280000  0.74080000  1.0 0.1224493884
H  H199  1  0.74080000  0.86060000  0.40580000  1.0 0.1224493884
H  H200  1  0.99280000  0.40580000  0.86060000  1.0 0.1224493884
H  H201  1  0.99280000  0.86060000  0.74080000  1.0 0.1224493884
H  H202  1  0.74080000  0.40580000  0.99280000  1.0 0.1224493884
H  H203  1  0.40580000  0.74080000  0.86060000  1.0 0.1224493884
H  H204  1  0.86060000  0.99280000  0.40580000  1.0 0.1224493884
H  H205  1  0.75920000  0.50720000  0.09420000  1.0 0.1224493884
H  H206  1  0.50720000  0.75920000  0.63940000  1.0 0.1224493884
H  H207  1  0.63940000  0.09420000  0.50720000  1.0 0.1224493884
H  H208  1  0.09420000  0.63940000  0.75920000  1.0 0.1224493884
H  H209  1  0.63940000  0.75920000  0.09420000  1.0 0.1224493884
H  H210  1  0.09420000  0.50720000  0.63940000  1.0 0.1224493884
H  H211  1  0.75920000  0.63940000  0.50720000  1.0 0.1224493884
H  H212  1  0.50720000  0.09420000  0.75920000  1.0 0.1224493884
H  H213  1  0.50720000  0.63940000  0.09420000  1.0 0.1224493884
H  H214  1  0.75920000  0.09420000  0.63940000  1.0 0.1224493884
H  H215  1  0.09420000  0.75920000  0.50720000  1.0 0.1224493884
H  H216  1  0.63940000  0.50720000  0.75920000  1.0 0.1224493884
H  H217  1  0.25920000  0.00720000  0.13940000  1.0 0.1224493884
H  H218  1  0.00720000  0.25920000  0.59420000  1.0 0.1224493884
H  H219  1  0.13940000  0.59420000  0.25920000  1.0 0.1224493884
H  H220  1  0.59420000  0.13940000  0.00720000  1.0 0.1224493884
H  H221  1  0.13940000  0.25920000  0.00720000  1.0 0.1224493884
H  H222  1  0.59420000  0.00720000  0.25920000  1.0 0.1224493884
H  H223  1  0.25920000  0.13940000  0.59420000  1.0 0.1224493884
H  H224  1  0.00720000  0.59420000  0.13940000  1.0 0.1224493884
H  H225  1  0.00720000  0.13940000  0.25920000  1.0 0.1224493884
H  H226  1  0.25920000  0.59420000  0.00720000  1.0 0.1224493884
H  H227  1  0.59420000  0.25920000  0.13940000  1.0 0.1224493884
H  H228  1  0.13940000  0.00720000  0.59420000  1.0 0.1224493884
H  H229  1  0.24080000  0.49280000  0.90580000  1.0 0.1224493884
H  H230  1  0.49280000  0.24080000  0.36060000  1.0 0.1224493884
H  H231  1  0.36060000  0.90580000  0.49280000  1.0 0.1224493884
H  H232  1  0.90580000  0.36060000  0.24080000  1.0 0.1224493884
H  H233  1  0.36060000  0.24080000  0.90580000  1.0 0.1224493884
H  H234  1  0.90580000  0.49280000  0.36060000  1.0 0.1224493884
H  H235  1  0.24080000  0.36060000  0.49280000  1.0 0.1224493884
H  H236  1  0.49280000  0.90580000  0.24080000  1.0 0.1224493884
H  H237  1  0.49280000  0.36060000  0.90580000  1.0 0.1224493884
H  H238  1  0.24080000  0.90580000  0.36060000  1.0 0.1224493884
H  H239  1  0.90580000  0.24080000  0.49280000  1.0 0.1224493884
H  H240  1  0.36060000  0.49280000  0.24080000  1.0 0.1224493884
H  H241  1  0.78870000  0.98670000  0.81990000  1.0 0.1224493884
H  H242  1  0.98670000  0.78870000  0.40470000  1.0 0.1224493884
H  H243  1  0.81990000  0.40470000  0.78870000  1.0 0.1224493884
H  H244  1  0.40470000  0.81990000  0.98670000  1.0 0.1224493884
H  H245  1  0.81990000  0.78870000  0.98670000  1.0 0.1224493884
H  H246  1  0.40470000  0.98670000  0.78870000  1.0 0.1224493884
H  H247  1  0.78870000  0.81990000  0.40470000  1.0 0.1224493884
H  H248  1  0.98670000  0.40470000  0.81990000  1.0 0.1224493884
H  H249  1  0.98670000  0.81990000  0.78870000  1.0 0.1224493884
H  H250  1  0.78870000  0.40470000  0.98670000  1.0 0.1224493884
H  H251  1  0.40470000  0.78870000  0.81990000  1.0 0.1224493884
H  H252  1  0.81990000  0.98670000  0.40470000  1.0 0.1224493884
H  H253  1  0.71130000  0.51330000  0.09530000  1.0 0.1224493884
H  H254  1  0.51330000  0.71130000  0.68010000  1.0 0.1224493884
H  H255  1  0.68010000  0.09530000  0.51330000  1.0 0.1224493884
H  H256  1  0.09530000  0.68010000  0.71130000  1.0 0.1224493884
H  H257  1  0.68010000  0.71130000  0.09530000  1.0 0.1224493884
H  H258  1  0.09530000  0.51330000  0.68010000  1.0 0.1224493884
H  H259  1  0.71130000  0.68010000  0.51330000  1.0 0.1224493884
H  H260  1  0.51330000  0.09530000  0.71130000  1.0 0.1224493884
H  H261  1  0.51330000  0.68010000  0.09530000  1.0 0.1224493884
H  H262  1  0.71130000  0.09530000  0.68010000  1.0 0.1224493884
H  H263  1  0.09530000  0.71130000  0.51330000  1.0 0.1224493884
H  H264  1  0.68010000  0.51330000  0.71130000  1.0 0.1224493884
H  H265  1  0.21130000  0.01330000  0.18010000  1.0 0.1224493884
H  H266  1  0.01330000  0.21130000  0.59530000  1.0 0.1224493884
H  H267  1  0.18010000  0.59530000  0.21130000  1.0 0.1224493884
H  H268  1  0.59530000  0.18010000  0.01330000  1.0 0.1224493884
H  H269  1  0.18010000  0.21130000  0.01330000  1.0 0.1224493884
H  H270  1  0.59530000  0.01330000  0.21130000  1.0 0.1224493884
H  H271  1  0.21130000  0.18010000  0.59530000  1.0 0.1224493884
H  H272  1  0.01330000  0.59530000  0.18010000  1.0 0.1224493884
H  H273  1  0.01330000  0.18010000  0.21130000  1.0 0.1224493884
H  H274  1  0.21130000  0.59530000  0.01330000  1.0 0.1224493884
H  H275  1  0.59530000  0.21130000  0.18010000  1.0 0.1224493884
H  H276  1  0.18010000  0.01330000  0.59530000  1.0 0.1224493884
H  H277  1  0.28870000  0.48670000  0.90470000  1.0 0.1224493884
H  H278  1  0.48670000  0.28870000  0.31990000  1.0 0.1224493884
H  H279  1  0.31990000  0.90470000  0.48670000  1.0 0.1224493884
H  H280  1  0.90470000  0.31990000  0.28870000  1.0 0.1224493884
H  H281  1  0.31990000  0.28870000  0.90470000  1.0 0.1224493884
H  H282  1  0.90470000  0.48670000  0.31990000  1.0 0.1224493884
H  H283  1  0.28870000  0.31990000  0.48670000  1.0 0.1224493884
H  H284  1  0.48670000  0.90470000  0.28870000  1.0 0.1224493884
H  H285  1  0.48670000  0.31990000  0.90470000  1.0 0.1224493884
H  H286  1  0.28870000  0.90470000  0.31990000  1.0 0.1224493884
H  H287  1  0.90470000  0.28870000  0.48670000  1.0 0.1224493884
H  H288  1  0.31990000  0.48670000  0.28870000  1.0 0.1224493884
H  H289  1  0.74230000  0.90970000  0.82310000  1.0 0.1370042592
H  H290  1  0.90970000  0.74230000  0.52490000  1.0 0.1370042592
H  H291  1  0.82310000  0.52490000  0.74230000  1.0 0.1370042592
H  H292  1  0.52490000  0.82310000  0.90970000  1.0 0.1370042592
H  H293  1  0.82310000  0.74230000  0.90970000  1.0 0.1370042592
H  H294  1  0.52490000  0.90970000  0.74230000  1.0 0.1370042592
H  H295  1  0.74230000  0.82310000  0.52490000  1.0 0.1370042592
H  H296  1  0.90970000  0.52490000  0.82310000  1.0 0.1370042592
H  H297  1  0.90970000  0.82310000  0.74230000  1.0 0.1370042592
H  H298  1  0.74230000  0.52490000  0.90970000  1.0 0.1370042592
H  H299  1  0.52490000  0.74230000  0.82310000  1.0 0.1370042592
H  H300  1  0.82310000  0.90970000  0.52490000  1.0 0.1370042592
H  H301  1  0.75770000  0.59030000  0.97510000  1.0 0.1370042592
H  H302  1  0.59030000  0.75770000  0.67690000  1.0 0.1370042592
H  H303  1  0.67690000  0.97510000  0.59030000  1.0 0.1370042592
H  H304  1  0.97510000  0.67690000  0.75770000  1.0 0.1370042592
H  H305  1  0.67690000  0.75770000  0.97510000  1.0 0.1370042592
H  H306  1  0.97510000  0.59030000  0.67690000  1.0 0.1370042592
H  H307  1  0.75770000  0.67690000  0.59030000  1.0 0.1370042592
H  H308  1  0.59030000  0.97510000  0.75770000  1.0 0.1370042592
H  H309  1  0.59030000  0.67690000  0.97510000  1.0 0.1370042592
H  H310  1  0.75770000  0.97510000  0.67690000  1.0 0.1370042592
H  H311  1  0.97510000  0.75770000  0.59030000  1.0 0.1370042592
H  H312  1  0.67690000  0.59030000  0.75770000  1.0 0.1370042592
H  H313  1  0.25770000  0.09030000  0.17690000  1.0 0.1370042592
H  H314  1  0.09030000  0.25770000  0.47510000  1.0 0.1370042592
H  H315  1  0.17690000  0.47510000  0.25770000  1.0 0.1370042592
H  H316  1  0.47510000  0.17690000  0.09030000  1.0 0.1370042592
H  H317  1  0.17690000  0.25770000  0.09030000  1.0 0.1370042592
H  H318  1  0.47510000  0.09030000  0.25770000  1.0 0.1370042592
H  H319  1  0.25770000  0.17690000  0.47510000  1.0 0.1370042592
H  H320  1  0.09030000  0.47510000  0.17690000  1.0 0.1370042592
H  H321  1  0.09030000  0.17690000  0.25770000  1.0 0.1370042592
H  H322  1  0.25770000  0.47510000  0.09030000  1.0 0.1370042592
H  H323  1  0.47510000  0.25770000  0.17690000  1.0 0.1370042592
H  H324  1  0.17690000  0.09030000  0.47510000  1.0 0.1370042592
H  H325  1  0.24230000  0.40970000  0.02490000  1.0 0.1370042592
H  H326  1  0.40970000  0.24230000  0.32310000  1.0 0.1370042592
H  H327  1  0.32310000  0.02490000  0.40970000  1.0 0.1370042592
H  H328  1  0.02490000  0.32310000  0.24230000  1.0 0.1370042592
H  H329  1  0.32310000  0.24230000  0.02490000  1.0 0.1370042592
H  H330  1  0.02490000  0.40970000  0.32310000  1.0 0.1370042592
H  H331  1  0.24230000  0.32310000  0.40970000  1.0 0.1370042592
H  H332  1  0.40970000  0.02490000  0.24230000  1.0 0.1370042592
H  H333  1  0.40970000  0.32310000  0.02490000  1.0 0.1370042592
H  H334  1  0.24230000  0.02490000  0.32310000  1.0 0.1370042592
H  H335  1  0.02490000  0.24230000  0.40970000  1.0 0.1370042592
H  H336  1  0.32310000  0.40970000  0.24230000  1.0 0.1370042592
H  H337  1  0.75790000  0.95350000  0.78710000  1.0 0.1289412277
H  H338  1  0.95350000  0.75790000  0.50150000  1.0 0.1289412277
H  H339  1  0.78710000  0.50150000  0.75790000  1.0 0.1289412277
H  H340  1  0.50150000  0.78710000  0.95350000  1.0 0.1289412277
H  H341  1  0.78710000  0.75790000  0.95350000  1.0 0.1289412277
H  H342  1  0.50150000  0.95350000  0.75790000  1.0 0.1289412277
H  H343  1  0.75790000  0.78710000  0.50150000  1.0 0.1289412277
H  H344  1  0.95350000  0.50150000  0.78710000  1.0 0.1289412277
H  H345  1  0.95350000  0.78710000  0.75790000  1.0 0.1289412277
H  H346  1  0.75790000  0.50150000  0.95350000  1.0 0.1289412277
H  H347  1  0.50150000  0.75790000  0.78710000  1.0 0.1289412277
H  H348  1  0.78710000  0.95350000  0.50150000  1.0 0.1289412277
H  H349  1  0.74210000  0.54650000  0.99850000  1.0 0.1289412277
H  H350  1  0.54650000  0.74210000  0.71290000  1.0 0.1289412277
H  H351  1  0.71290000  0.99850000  0.54650000  1.0 0.1289412277
H  H352  1  0.99850000  0.71290000  0.74210000  1.0 0.1289412277
H  H353  1  0.71290000  0.74210000  0.99850000  1.0 0.1289412277
H  H354  1  0.99850000  0.54650000  0.71290000  1.0 0.1289412277
H  H355  1  0.74210000  0.71290000  0.54650000  1.0 0.1289412277
H  H356  1  0.54650000  0.99850000  0.74210000  1.0 0.1289412277
H  H357  1  0.54650000  0.71290000  0.99850000  1.0 0.1289412277
H  H358  1  0.74210000  0.99850000  0.71290000  1.0 0.1289412277
H  H359  1  0.99850000  0.74210000  0.54650000  1.0 0.1289412277
H  H360  1  0.71290000  0.54650000  0.74210000  1.0 0.1289412277
H  H361  1  0.24210000  0.04650000  0.21290000  1.0 0.1289412277
H  H362  1  0.04650000  0.24210000  0.49850000  1.0 0.1289412277
H  H363  1  0.21290000  0.49850000  0.24210000  1.0 0.1289412277
H  H364  1  0.49850000  0.21290000  0.04650000  1.0 0.1289412277
H  H365  1  0.21290000  0.24210000  0.04650000  1.0 0.1289412277
H  H366  1  0.49850000  0.04650000  0.24210000  1.0 0.1289412277
H  H367  1  0.24210000  0.21290000  0.49850000  1.0 0.1289412277
H  H368  1  0.04650000  0.49850000  0.21290000  1.0 0.1289412277
H  H369  1  0.04650000  0.21290000  0.24210000  1.0 0.1289412277
H  H370  1  0.24210000  0.49850000  0.04650000  1.0 0.1289412277
H  H371  1  0.49850000  0.24210000  0.21290000  1.0 0.1289412277
H  H372  1  0.21290000  0.04650000  0.49850000  1.0 0.1289412277
H  H373  1  0.25790000  0.45350000  0.00150000  1.0 0.1289412277
H  H374  1  0.45350000  0.25790000  0.28710000  1.0 0.1289412277
H  H375  1  0.28710000  0.00150000  0.45350000  1.0 0.1289412277
H  H376  1  0.00150000  0.28710000  0.25790000  1.0 0.1289412277
H  H377  1  0.28710000  0.25790000  0.00150000  1.0 0.1289412277
H  H378  1  0.00150000  0.45350000  0.28710000  1.0 0.1289412277
H  H379  1  0.25790000  0.28710000  0.45350000  1.0 0.1289412277
H  H380  1  0.45350000  0.00150000  0.25790000  1.0 0.1289412277
H  H381  1  0.45350000  0.28710000  0.00150000  1.0 0.1289412277
H  H382  1  0.25790000  0.00150000  0.28710000  1.0 0.1289412277
H  H383  1  0.00150000  0.25790000  0.45350000  1.0 0.1289412277
H  H384  1  0.28710000  0.45350000  0.25790000  1.0 0.1289412277
H  H385  1  0.71020000  0.95900000  0.82840000  1.0 0.1289412277
H  H386  1  0.95900000  0.71020000  0.50240000  1.0 0.1289412277
H  H387  1  0.82840000  0.50240000  0.71020000  1.0 0.1289412277
H  H388  1  0.50240000  0.82840000  0.95900000  1.0 0.1289412277
H  H389  1  0.82840000  0.71020000  0.95900000  1.0 0.1289412277
H  H390  1  0.50240000  0.95900000  0.71020000  1.0 0.1289412277
H  H391  1  0.71020000  0.82840000  0.50240000  1.0 0.1289412277
H  H392  1  0.95900000  0.50240000  0.82840000  1.0 0.1289412277
H  H393  1  0.95900000  0.82840000  0.71020000  1.0 0.1289412277
H  H394  1  0.71020000  0.50240000  0.95900000  1.0 0.1289412277
H  H395  1  0.50240000  0.71020000  0.82840000  1.0 0.1289412277
H  H396  1  0.82840000  0.95900000  0.50240000  1.0 0.1289412277
H  H397  1  0.78980000  0.54100000  0.99760000  1.0 0.1289412277
H  H398  1  0.54100000  0.78980000  0.67160000  1.0 0.1289412277
H  H399  1  0.67160000  0.99760000  0.54100000  1.0 0.1289412277
H  H400  1  0.99760000  0.67160000  0.78980000  1.0 0.1289412277
H  H401  1  0.67160000  0.78980000  0.99760000  1.0 0.1289412277
H  H402  1  0.99760000  0.54100000  0.67160000  1.0 0.1289412277
H  H403  1  0.78980000  0.67160000  0.54100000  1.0 0.1289412277
H  H404  1  0.54100000  0.99760000  0.78980000  1.0 0.1289412277
H  H405  1  0.54100000  0.67160000  0.99760000  1.0 0.1289412277
H  H406  1  0.78980000  0.99760000  0.67160000  1.0 0.1289412277
H  H407  1  0.99760000  0.78980000  0.54100000  1.0 0.1289412277
H  H408  1  0.67160000  0.54100000  0.78980000  1.0 0.1289412277
H  H409  1  0.28980000  0.04100000  0.17160000  1.0 0.1289412277
H  H410  1  0.04100000  0.28980000  0.49760000  1.0 0.1289412277
H  H411  1  0.17160000  0.49760000  0.28980000  1.0 0.1289412277
H  H412  1  0.49760000  0.17160000  0.04100000  1.0 0.1289412277
H  H413  1  0.17160000  0.28980000  0.04100000  1.0 0.1289412277
H  H414  1  0.49760000  0.04100000  0.28980000  1.0 0.1289412277
H  H415  1  0.28980000  0.17160000  0.49760000  1.0 0.1289412277
H  H416  1  0.04100000  0.49760000  0.17160000  1.0 0.1289412277
H  H417  1  0.04100000  0.17160000  0.28980000  1.0 0.1289412277
H  H418  1  0.28980000  0.49760000  0.04100000  1.0 0.1289412277
H  H419  1  0.49760000  0.28980000  0.17160000  1.0 0.1289412277
H  H420  1  0.17160000  0.04100000  0.49760000  1.0 0.1289412277
H  H421  1  0.21020000  0.45900000  0.00240000  1.0 0.1289412277
H  H422  1  0.45900000  0.21020000  0.32840000  1.0 0.1289412277
H  H423  1  0.32840000  0.00240000  0.45900000  1.0 0.1289412277
H  H424  1  0.00240000  0.32840000  0.21020000  1.0 0.1289412277
H  H425  1  0.32840000  0.21020000  0.00240000  1.0 0.1289412277
H  H426  1  0.00240000  0.45900000  0.32840000  1.0 0.1289412277
H  H427  1  0.21020000  0.32840000  0.45900000  1.0 0.1289412277
H  H428  1  0.45900000  0.00240000  0.21020000  1.0 0.1289412277
H  H429  1  0.45900000  0.32840000  0.00240000  1.0 0.1289412277
H  H430  1  0.21020000  0.00240000  0.32840000  1.0 0.1289412277
H  H431  1  0.00240000  0.21020000  0.45900000  1.0 0.1289412277
H  H432  1  0.32840000  0.45900000  0.21020000  1.0 0.1289412277
C  C1  1  0.62500000  0.93340000  0.99172000  1.0 0.4724386922
C  C2  1  0.93340000  0.62500000  0.44988000  1.0 0.4724386922
C  C3  1  0.99172000  0.44988000  0.62500000  1.0 0.4724386922
C  C4  1  0.44988000  0.99172000  0.93340000  1.0 0.4724386922
C  C5  1  0.99172000  0.62500000  0.93340000  1.0 0.4724386922
C  C6  1  0.44988000  0.93340000  0.62500000  1.0 0.4724386922
C  C7  1  0.62500000  0.99172000  0.44988000  1.0 0.4724386922
C  C8  1  0.93340000  0.44988000  0.99172000  1.0 0.4724386922
C  C9  1  0.93340000  0.99172000  0.62500000  1.0 0.4724386922
C  C10  1  0.62500000  0.44988000  0.93340000  1.0 0.4724386922
C  C11  1  0.44988000  0.62500000  0.99172000  1.0 0.4724386922
C  C12  1  0.99172000  0.93340000  0.44988000  1.0 0.4724386922
C  C13  1  0.87500000  0.56660000  0.05012000  1.0 0.4724386922
C  C14  1  0.56660000  0.87500000  0.50828000  1.0 0.4724386922
C  C15  1  0.50828000  0.05012000  0.56660000  1.0 0.4724386922
C  C16  1  0.05012000  0.50828000  0.87500000  1.0 0.4724386922
C  C17  1  0.50828000  0.87500000  0.05012000  1.0 0.4724386922
C  C18  1  0.05012000  0.56660000  0.50828000  1.0 0.4724386922
C  C19  1  0.87500000  0.50828000  0.56660000  1.0 0.4724386922
C  C20  1  0.56660000  0.05012000  0.87500000  1.0 0.4724386922
C  C21  1  0.56660000  0.50828000  0.05012000  1.0 0.4724386922
C  C22  1  0.87500000  0.05012000  0.50828000  1.0 0.4724386922
C  C23  1  0.05012000  0.87500000  0.56660000  1.0 0.4724386922
C  C24  1  0.50828000  0.56660000  0.87500000  1.0 0.4724386922
C  C25  1  0.37500000  0.06660000  0.00828000  1.0 0.4724386922
C  C26  1  0.06660000  0.37500000  0.55012000  1.0 0.4724386922
C  C27  1  0.00828000  0.55012000  0.37500000  1.0 0.4724386922
C  C28  1  0.55012000  0.00828000  0.06660000  1.0 0.4724386922
C  C29  1  0.00828000  0.37500000  0.06660000  1.0 0.4724386922
C  C30  1  0.55012000  0.06660000  0.37500000  1.0 0.4724386922
C  C31  1  0.37500000  0.00828000  0.55012000  1.0 0.4724386922
C  C32  1  0.06660000  0.55012000  0.00828000  1.0 0.4724386922
C  C33  1  0.06660000  0.00828000  0.37500000  1.0 0.4724386922
C  C34  1  0.37500000  0.55012000  0.06660000  1.0 0.4724386922
C  C35  1  0.55012000  0.37500000  0.00828000  1.0 0.4724386922
C  C36  1  0.00828000  0.06660000  0.55012000  1.0 0.4724386922
C  C37  1  0.12500000  0.43340000  0.94988000  1.0 0.4724386922
C  C38  1  0.43340000  0.12500000  0.49172000  1.0 0.4724386922
C  C39  1  0.49172000  0.94988000  0.43340000  1.0 0.4724386922
C  C40  1  0.94988000  0.49172000  0.12500000  1.0 0.4724386922
C  C41  1  0.49172000  0.12500000  0.94988000  1.0 0.4724386922
C  C42  1  0.94988000  0.43340000  0.49172000  1.0 0.4724386922
C  C43  1  0.12500000  0.49172000  0.43340000  1.0 0.4724386922
C  C44  1  0.43340000  0.94988000  0.12500000  1.0 0.4724386922
C  C45  1  0.43340000  0.49172000  0.94988000  1.0 0.4724386922
C  C46  1  0.12500000  0.94988000  0.49172000  1.0 0.4724386922
C  C47  1  0.94988000  0.12500000  0.43340000  1.0 0.4724386922
C  C48  1  0.49172000  0.43340000  0.12500000  1.0 0.4724386922
C  C49  1  0.67295000  0.90893000  0.96791000  1.0 -0.060888219
C  C50  1  0.90893000  0.67295000  0.45021000  1.0 -0.060888219
C  C51  1  0.96791000  0.45021000  0.67295000  1.0 -0.060888219
C  C52  1  0.45021000  0.96791000  0.90893000  1.0 -0.060888219
C  C53  1  0.96791000  0.67295000  0.90893000  1.0 -0.060888219
C  C54  1  0.45021000  0.90893000  0.67295000  1.0 -0.060888219
C  C55  1  0.67295000  0.96791000  0.45021000  1.0 -0.060888219
C  C56  1  0.90893000  0.45021000  0.96791000  1.0 -0.060888219
C  C57  1  0.90893000  0.96791000  0.67295000  1.0 -0.060888219
C  C58  1  0.67295000  0.45021000  0.90893000  1.0 -0.060888219
C  C59  1  0.45021000  0.67295000  0.96791000  1.0 -0.060888219
C  C60  1  0.96791000  0.90893000  0.45021000  1.0 -0.060888219
C  C61  1  0.82705000  0.59107000  0.04979000  1.0 -0.060888219
C  C62  1  0.59107000  0.82705000  0.53209000  1.0 -0.060888219
C  C63  1  0.53209000  0.04979000  0.59107000  1.0 -0.060888219
C  C64  1  0.04979000  0.53209000  0.82705000  1.0 -0.060888219
C  C65  1  0.53209000  0.82705000  0.04979000  1.0 -0.060888219
C  C66  1  0.04979000  0.59107000  0.53209000  1.0 -0.060888219
C  C67  1  0.82705000  0.53209000  0.59107000  1.0 -0.060888219
C  C68  1  0.59107000  0.04979000  0.82705000  1.0 -0.060888219
C  C69  1  0.59107000  0.53209000  0.04979000  1.0 -0.060888219
C  C70  1  0.82705000  0.04979000  0.53209000  1.0 -0.060888219
C  C71  1  0.04979000  0.82705000  0.59107000  1.0 -0.060888219
C  C72  1  0.53209000  0.59107000  0.82705000  1.0 -0.060888219
C  C73  1  0.32705000  0.09107000  0.03209000  1.0 -0.060888219
C  C74  1  0.09107000  0.32705000  0.54979000  1.0 -0.060888219
C  C75  1  0.03209000  0.54979000  0.32705000  1.0 -0.060888219
C  C76  1  0.54979000  0.03209000  0.09107000  1.0 -0.060888219
C  C77  1  0.03209000  0.32705000  0.09107000  1.0 -0.060888219
C  C78  1  0.54979000  0.09107000  0.32705000  1.0 -0.060888219
C  C79  1  0.32705000  0.03209000  0.54979000  1.0 -0.060888219
C  C80  1  0.09107000  0.54979000  0.03209000  1.0 -0.060888219
C  C81  1  0.09107000  0.03209000  0.32705000  1.0 -0.060888219
C  C82  1  0.32705000  0.54979000  0.09107000  1.0 -0.060888219
C  C83  1  0.54979000  0.32705000  0.03209000  1.0 -0.060888219
C  C84  1  0.03209000  0.09107000  0.54979000  1.0 -0.060888219
C  C85  1  0.17295000  0.40893000  0.95021000  1.0 -0.060888219
C  C86  1  0.40893000  0.17295000  0.46791000  1.0 -0.060888219
C  C87  1  0.46791000  0.95021000  0.40893000  1.0 -0.060888219
C  C88  1  0.95021000  0.46791000  0.17295000  1.0 -0.060888219
C  C89  1  0.46791000  0.17295000  0.95021000  1.0 -0.060888219
C  C90  1  0.95021000  0.40893000  0.46791000  1.0 -0.060888219
C  C91  1  0.17295000  0.46791000  0.40893000  1.0 -0.060888219
C  C92  1  0.40893000  0.95021000  0.17295000  1.0 -0.060888219
C  C93  1  0.40893000  0.46791000  0.95021000  1.0 -0.060888219
C  C94  1  0.17295000  0.95021000  0.46791000  1.0 -0.060888219
C  C95  1  0.95021000  0.17295000  0.40893000  1.0 -0.060888219
C  C96  1  0.46791000  0.40893000  0.17295000  1.0 -0.060888219
C  C97  1  0.69420000  0.93204000  0.92294000  1.0 -0.1606747443
C  C98  1  0.93204000  0.69420000  0.45082000  1.0 -0.1606747443
C  C99  1  0.92294000  0.45082000  0.69420000  1.0 -0.1606747443
C  C100  1  0.45082000  0.92294000  0.93204000  1.0 -0.1606747443
C  C101  1  0.92294000  0.69420000  0.93204000  1.0 -0.1606747443
C  C102  1  0.45082000  0.93204000  0.69420000  1.0 -0.1606747443
C  C103  1  0.69420000  0.92294000  0.45082000  1.0 -0.1606747443
C  C104  1  0.93204000  0.45082000  0.92294000  1.0 -0.1606747443
C  C105  1  0.93204000  0.92294000  0.69420000  1.0 -0.1606747443
C  C106  1  0.69420000  0.45082000  0.93204000  1.0 -0.1606747443
C  C107  1  0.45082000  0.69420000  0.92294000  1.0 -0.1606747443
C  C108  1  0.92294000  0.93204000  0.45082000  1.0 -0.1606747443
C  C109  1  0.80580000  0.56796000  0.04918000  1.0 -0.1606747443
C  C110  1  0.56796000  0.80580000  0.57706000  1.0 -0.1606747443
C  C111  1  0.57706000  0.04918000  0.56796000  1.0 -0.1606747443
C  C112  1  0.04918000  0.57706000  0.80580000  1.0 -0.1606747443
C  C113  1  0.57706000  0.80580000  0.04918000  1.0 -0.1606747443
C  C114  1  0.04918000  0.56796000  0.57706000  1.0 -0.1606747443
C  C115  1  0.80580000  0.57706000  0.56796000  1.0 -0.1606747443
C  C116  1  0.56796000  0.04918000  0.80580000  1.0 -0.1606747443
C  C117  1  0.56796000  0.57706000  0.04918000  1.0 -0.1606747443
C  C118  1  0.80580000  0.04918000  0.57706000  1.0 -0.1606747443
C  C119  1  0.04918000  0.80580000  0.56796000  1.0 -0.1606747443
C  C120  1  0.57706000  0.56796000  0.80580000  1.0 -0.1606747443
C  C121  1  0.30580000  0.06796000  0.07706000  1.0 -0.1606747443
C  C122  1  0.06796000  0.30580000  0.54918000  1.0 -0.1606747443
C  C123  1  0.07706000  0.54918000  0.30580000  1.0 -0.1606747443
C  C124  1  0.54918000  0.07706000  0.06796000  1.0 -0.1606747443
C  C125  1  0.07706000  0.30580000  0.06796000  1.0 -0.1606747443
C  C126  1  0.54918000  0.06796000  0.30580000  1.0 -0.1606747443
C  C127  1  0.30580000  0.07706000  0.54918000  1.0 -0.1606747443
C  C128  1  0.06796000  0.54918000  0.07706000  1.0 -0.1606747443
C  C129  1  0.06796000  0.07706000  0.30580000  1.0 -0.1606747443
C  C130  1  0.30580000  0.54918000  0.06796000  1.0 -0.1606747443
C  C131  1  0.54918000  0.30580000  0.07706000  1.0 -0.1606747443
C  C132  1  0.07706000  0.06796000  0.54918000  1.0 -0.1606747443
C  C133  1  0.19420000  0.43204000  0.95082000  1.0 -0.1606747443
C  C134  1  0.43204000  0.19420000  0.42294000  1.0 -0.1606747443
C  C135  1  0.42294000  0.95082000  0.43204000  1.0 -0.1606747443
C  C136  1  0.95082000  0.42294000  0.19420000  1.0 -0.1606747443
C  C137  1  0.42294000  0.19420000  0.95082000  1.0 -0.1606747443
C  C138  1  0.95082000  0.43204000  0.42294000  1.0 -0.1606747443
C  C139  1  0.19420000  0.42294000  0.43204000  1.0 -0.1606747443
C  C140  1  0.43204000  0.95082000  0.19420000  1.0 -0.1606747443
C  C141  1  0.43204000  0.42294000  0.95082000  1.0 -0.1606747443
C  C142  1  0.19420000  0.95082000  0.42294000  1.0 -0.1606747443
C  C143  1  0.95082000  0.19420000  0.43204000  1.0 -0.1606747443
C  C144  1  0.42294000  0.43204000  0.19420000  1.0 -0.1606747443
C  C145  1  0.73856000  0.91040000  0.89990000  1.0 0.0364432674
C  C146  1  0.91040000  0.73856000  0.45114000  1.0 0.0364432674
C  C147  1  0.89990000  0.45114000  0.73856000  1.0 0.0364432674
C  C148  1  0.45114000  0.89990000  0.91040000  1.0 0.0364432674
C  C149  1  0.89990000  0.73856000  0.91040000  1.0 0.0364432674
C  C150  1  0.45114000  0.91040000  0.73856000  1.0 0.0364432674
C  C151  1  0.73856000  0.89990000  0.45114000  1.0 0.0364432674
C  C152  1  0.91040000  0.45114000  0.89990000  1.0 0.0364432674
C  C153  1  0.91040000  0.89990000  0.73856000  1.0 0.0364432674
C  C154  1  0.73856000  0.45114000  0.91040000  1.0 0.0364432674
C  C155  1  0.45114000  0.73856000  0.89990000  1.0 0.0364432674
C  C156  1  0.89990000  0.91040000  0.45114000  1.0 0.0364432674
C  C157  1  0.76144000  0.58960000  0.04886000  1.0 0.0364432674
C  C158  1  0.58960000  0.76144000  0.60010000  1.0 0.0364432674
C  C159  1  0.60010000  0.04886000  0.58960000  1.0 0.0364432674
C  C160  1  0.04886000  0.60010000  0.76144000  1.0 0.0364432674
C  C161  1  0.60010000  0.76144000  0.04886000  1.0 0.0364432674
C  C162  1  0.04886000  0.58960000  0.60010000  1.0 0.0364432674
C  C163  1  0.76144000  0.60010000  0.58960000  1.0 0.0364432674
C  C164  1  0.58960000  0.04886000  0.76144000  1.0 0.0364432674
C  C165  1  0.58960000  0.60010000  0.04886000  1.0 0.0364432674
C  C166  1  0.76144000  0.04886000  0.60010000  1.0 0.0364432674
C  C167  1  0.04886000  0.76144000  0.58960000  1.0 0.0364432674
C  C168  1  0.60010000  0.58960000  0.76144000  1.0 0.0364432674
C  C169  1  0.26144000  0.08960000  0.10010000  1.0 0.0364432674
C  C170  1  0.08960000  0.26144000  0.54886000  1.0 0.0364432674
C  C171  1  0.10010000  0.54886000  0.26144000  1.0 0.0364432674
C  C172  1  0.54886000  0.10010000  0.08960000  1.0 0.0364432674
C  C173  1  0.10010000  0.26144000  0.08960000  1.0 0.0364432674
C  C174  1  0.54886000  0.08960000  0.26144000  1.0 0.0364432674
C  C175  1  0.26144000  0.10010000  0.54886000  1.0 0.0364432674
C  C176  1  0.08960000  0.54886000  0.10010000  1.0 0.0364432674
C  C177  1  0.08960000  0.10010000  0.26144000  1.0 0.0364432674
C  C178  1  0.26144000  0.54886000  0.08960000  1.0 0.0364432674
C  C179  1  0.54886000  0.26144000  0.10010000  1.0 0.0364432674
C  C180  1  0.10010000  0.08960000  0.54886000  1.0 0.0364432674
C  C181  1  0.23856000  0.41040000  0.95114000  1.0 0.0364432674
C  C182  1  0.41040000  0.23856000  0.39990000  1.0 0.0364432674
C  C183  1  0.39990000  0.95114000  0.41040000  1.0 0.0364432674
C  C184  1  0.95114000  0.39990000  0.23856000  1.0 0.0364432674
C  C185  1  0.39990000  0.23856000  0.95114000  1.0 0.0364432674
C  C186  1  0.95114000  0.41040000  0.39990000  1.0 0.0364432674
C  C187  1  0.23856000  0.39990000  0.41040000  1.0 0.0364432674
C  C188  1  0.41040000  0.95114000  0.23856000  1.0 0.0364432674
C  C189  1  0.41040000  0.39990000  0.95114000  1.0 0.0364432674
C  C190  1  0.23856000  0.95114000  0.39990000  1.0 0.0364432674
C  C191  1  0.95114000  0.23856000  0.41040000  1.0 0.0364432674
C  C192  1  0.39990000  0.41040000  0.23856000  1.0 0.0364432674
C  C193  1  0.76297000  0.86463000  0.92095000  1.0 0.0323148863
C  C194  1  0.86463000  0.76297000  0.45145000  1.0 0.0323148863
C  C195  1  0.92095000  0.45145000  0.76297000  1.0 0.0323148863
C  C196  1  0.45145000  0.92095000  0.86463000  1.0 0.0323148863
C  C197  1  0.92095000  0.76297000  0.86463000  1.0 0.0323148863
C  C198  1  0.45145000  0.86463000  0.76297000  1.0 0.0323148863
C  C199  1  0.76297000  0.92095000  0.45145000  1.0 0.0323148863
C  C200  1  0.86463000  0.45145000  0.92095000  1.0 0.0323148863
C  C201  1  0.86463000  0.92095000  0.76297000  1.0 0.0323148863
C  C202  1  0.76297000  0.45145000  0.86463000  1.0 0.0323148863
C  C203  1  0.45145000  0.76297000  0.92095000  1.0 0.0323148863
C  C204  1  0.92095000  0.86463000  0.45145000  1.0 0.0323148863
C  C205  1  0.73703000  0.63537000  0.04855000  1.0 0.0323148863
C  C206  1  0.63537000  0.73703000  0.57905000  1.0 0.0323148863
C  C207  1  0.57905000  0.04855000  0.63537000  1.0 0.0323148863
C  C208  1  0.04855000  0.57905000  0.73703000  1.0 0.0323148863
C  C209  1  0.57905000  0.73703000  0.04855000  1.0 0.0323148863
C  C210  1  0.04855000  0.63537000  0.57905000  1.0 0.0323148863
C  C211  1  0.73703000  0.57905000  0.63537000  1.0 0.0323148863
C  C212  1  0.63537000  0.04855000  0.73703000  1.0 0.0323148863
C  C213  1  0.63537000  0.57905000  0.04855000  1.0 0.0323148863
C  C214  1  0.73703000  0.04855000  0.57905000  1.0 0.0323148863
C  C215  1  0.04855000  0.73703000  0.63537000  1.0 0.0323148863
C  C216  1  0.57905000  0.63537000  0.73703000  1.0 0.0323148863
C  C217  1  0.23703000  0.13537000  0.07905000  1.0 0.0323148863
C  C218  1  0.13537000  0.23703000  0.54855000  1.0 0.0323148863
C  C219  1  0.07905000  0.54855000  0.23703000  1.0 0.0323148863
C  C220  1  0.54855000  0.07905000  0.13537000  1.0 0.0323148863
C  C221  1  0.07905000  0.23703000  0.13537000  1.0 0.0323148863
C  C222  1  0.54855000  0.13537000  0.23703000  1.0 0.0323148863
C  C223  1  0.23703000  0.07905000  0.54855000  1.0 0.0323148863
C  C224  1  0.13537000  0.54855000  0.07905000  1.0 0.0323148863
C  C225  1  0.13537000  0.07905000  0.23703000  1.0 0.0323148863
C  C226  1  0.23703000  0.54855000  0.13537000  1.0 0.0323148863
C  C227  1  0.54855000  0.23703000  0.07905000  1.0 0.0323148863
C  C228  1  0.07905000  0.13537000  0.54855000  1.0 0.0323148863
C  C229  1  0.26297000  0.36463000  0.95145000  1.0 0.0323148863
C  C230  1  0.36463000  0.26297000  0.42095000  1.0 0.0323148863
C  C231  1  0.42095000  0.95145000  0.36463000  1.0 0.0323148863
C  C232  1  0.95145000  0.42095000  0.26297000  1.0 0.0323148863
C  C233  1  0.42095000  0.26297000  0.95145000  1.0 0.0323148863
C  C234  1  0.95145000  0.36463000  0.42095000  1.0 0.0323148863
C  C235  1  0.26297000  0.42095000  0.36463000  1.0 0.0323148863
C  C236  1  0.36463000  0.95145000  0.26297000  1.0 0.0323148863
C  C237  1  0.36463000  0.42095000  0.95145000  1.0 0.0323148863
C  C238  1  0.26297000  0.95145000  0.42095000  1.0 0.0323148863
C  C239  1  0.95145000  0.26297000  0.36463000  1.0 0.0323148863
C  C240  1  0.42095000  0.36463000  0.26297000  1.0 0.0323148863
C  C241  1  0.74188000  0.84122000  0.96518000  1.0 -0.1606747443
C  C242  1  0.84122000  0.74188000  0.45172000  1.0 -0.1606747443
C  C243  1  0.96518000  0.45172000  0.74188000  1.0 -0.1606747443
C  C244  1  0.45172000  0.96518000  0.84122000  1.0 -0.1606747443
C  C245  1  0.96518000  0.74188000  0.84122000  1.0 -0.1606747443
C  C246  1  0.45172000  0.84122000  0.74188000  1.0 -0.1606747443
C  C247  1  0.74188000  0.96518000  0.45172000  1.0 -0.1606747443
C  C248  1  0.84122000  0.45172000  0.96518000  1.0 -0.1606747443
C  C249  1  0.84122000  0.96518000  0.74188000  1.0 -0.1606747443
C  C250  1  0.74188000  0.45172000  0.84122000  1.0 -0.1606747443
C  C251  1  0.45172000  0.74188000  0.96518000  1.0 -0.1606747443
C  C252  1  0.96518000  0.84122000  0.45172000  1.0 -0.1606747443
C  C253  1  0.75812000  0.65878000  0.04828000  1.0 -0.1606747443
C  C254  1  0.65878000  0.75812000  0.53482000  1.0 -0.1606747443
C  C255  1  0.53482000  0.04828000  0.65878000  1.0 -0.1606747443
C  C256  1  0.04828000  0.53482000  0.75812000  1.0 -0.1606747443
C  C257  1  0.53482000  0.75812000  0.04828000  1.0 -0.1606747443
C  C258  1  0.04828000  0.65878000  0.53482000  1.0 -0.1606747443
C  C259  1  0.75812000  0.53482000  0.65878000  1.0 -0.1606747443
C  C260  1  0.65878000  0.04828000  0.75812000  1.0 -0.1606747443
C  C261  1  0.65878000  0.53482000  0.04828000  1.0 -0.1606747443
C  C262  1  0.75812000  0.04828000  0.53482000  1.0 -0.1606747443
C  C263  1  0.04828000  0.75812000  0.65878000  1.0 -0.1606747443
C  C264  1  0.53482000  0.65878000  0.75812000  1.0 -0.1606747443
C  C265  1  0.25812000  0.15878000  0.03482000  1.0 -0.1606747443
C  C266  1  0.15878000  0.25812000  0.54828000  1.0 -0.1606747443
C  C267  1  0.03482000  0.54828000  0.25812000  1.0 -0.1606747443
C  C268  1  0.54828000  0.03482000  0.15878000  1.0 -0.1606747443
C  C269  1  0.03482000  0.25812000  0.15878000  1.0 -0.1606747443
C  C270  1  0.54828000  0.15878000  0.25812000  1.0 -0.1606747443
C  C271  1  0.25812000  0.03482000  0.54828000  1.0 -0.1606747443
C  C272  1  0.15878000  0.54828000  0.03482000  1.0 -0.1606747443
C  C273  1  0.15878000  0.03482000  0.25812000  1.0 -0.1606747443
C  C274  1  0.25812000  0.54828000  0.15878000  1.0 -0.1606747443
C  C275  1  0.54828000  0.25812000  0.03482000  1.0 -0.1606747443
C  C276  1  0.03482000  0.15878000  0.54828000  1.0 -0.1606747443
C  C277  1  0.24188000  0.34122000  0.95172000  1.0 -0.1606747443
C  C278  1  0.34122000  0.24188000  0.46518000  1.0 -0.1606747443
C  C279  1  0.46518000  0.95172000  0.34122000  1.0 -0.1606747443
C  C280  1  0.95172000  0.46518000  0.24188000  1.0 -0.1606747443
C  C281  1  0.46518000  0.24188000  0.95172000  1.0 -0.1606747443
C  C282  1  0.95172000  0.34122000  0.46518000  1.0 -0.1606747443
C  C283  1  0.24188000  0.46518000  0.34122000  1.0 -0.1606747443
C  C284  1  0.34122000  0.95172000  0.24188000  1.0 -0.1606747443
C  C285  1  0.34122000  0.46518000  0.95172000  1.0 -0.1606747443
C  C286  1  0.24188000  0.95172000  0.46518000  1.0 -0.1606747443
C  C287  1  0.95172000  0.24188000  0.34122000  1.0 -0.1606747443
C  C288  1  0.46518000  0.34122000  0.24188000  1.0 -0.1606747443
C  C289  1  0.69656000  0.86416000  0.98850000  1.0 -0.1069162391
C  C290  1  0.86416000  0.69656000  0.45078000  1.0 -0.1069162391
C  C291  1  0.98850000  0.45078000  0.69656000  1.0 -0.1069162391
C  C292  1  0.45078000  0.98850000  0.86416000  1.0 -0.1069162391
C  C293  1  0.98850000  0.69656000  0.86416000  1.0 -0.1069162391
C  C294  1  0.45078000  0.86416000  0.69656000  1.0 -0.1069162391
C  C295  1  0.69656000  0.98850000  0.45078000  1.0 -0.1069162391
C  C296  1  0.86416000  0.45078000  0.98850000  1.0 -0.1069162391
C  C297  1  0.86416000  0.98850000  0.69656000  1.0 -0.1069162391
C  C298  1  0.69656000  0.45078000  0.86416000  1.0 -0.1069162391
C  C299  1  0.45078000  0.69656000  0.98850000  1.0 -0.1069162391
C  C300  1  0.98850000  0.86416000  0.45078000  1.0 -0.1069162391
C  C301  1  0.80344000  0.63584000  0.04922000  1.0 -0.1069162391
C  C302  1  0.63584000  0.80344000  0.51150000  1.0 -0.1069162391
C  C303  1  0.51150000  0.04922000  0.63584000  1.0 -0.1069162391
C  C304  1  0.04922000  0.51150000  0.80344000  1.0 -0.1069162391
C  C305  1  0.51150000  0.80344000  0.04922000  1.0 -0.1069162391
C  C306  1  0.04922000  0.63584000  0.51150000  1.0 -0.1069162391
C  C307  1  0.80344000  0.51150000  0.63584000  1.0 -0.1069162391
C  C308  1  0.63584000  0.04922000  0.80344000  1.0 -0.1069162391
C  C309  1  0.63584000  0.51150000  0.04922000  1.0 -0.1069162391
C  C310  1  0.80344000  0.04922000  0.51150000  1.0 -0.1069162391
C  C311  1  0.04922000  0.80344000  0.63584000  1.0 -0.1069162391
C  C312  1  0.51150000  0.63584000  0.80344000  1.0 -0.1069162391
C  C313  1  0.30344000  0.13584000  0.01150000  1.0 -0.1069162391
C  C314  1  0.13584000  0.30344000  0.54922000  1.0 -0.1069162391
C  C315  1  0.01150000  0.54922000  0.30344000  1.0 -0.1069162391
C  C316  1  0.54922000  0.01150000  0.13584000  1.0 -0.1069162391
C  C317  1  0.01150000  0.30344000  0.13584000  1.0 -0.1069162391
C  C318  1  0.54922000  0.13584000  0.30344000  1.0 -0.1069162391
C  C319  1  0.30344000  0.01150000  0.54922000  1.0 -0.1069162391
C  C320  1  0.13584000  0.54922000  0.01150000  1.0 -0.1069162391
C  C321  1  0.13584000  0.01150000  0.30344000  1.0 -0.1069162391
C  C322  1  0.30344000  0.54922000  0.13584000  1.0 -0.1069162391
C  C323  1  0.54922000  0.30344000  0.01150000  1.0 -0.1069162391
C  C324  1  0.01150000  0.13584000  0.54922000  1.0 -0.1069162391
C  C325  1  0.19656000  0.36416000  0.95078000  1.0 -0.1069162391
C  C326  1  0.36416000  0.19656000  0.48850000  1.0 -0.1069162391
C  C327  1  0.48850000  0.95078000  0.36416000  1.0 -0.1069162391
C  C328  1  0.95078000  0.48850000  0.19656000  1.0 -0.1069162391
C  C329  1  0.48850000  0.19656000  0.95078000  1.0 -0.1069162391
C  C330  1  0.95078000  0.36416000  0.48850000  1.0 -0.1069162391
C  C331  1  0.19656000  0.48850000  0.36416000  1.0 -0.1069162391
C  C332  1  0.36416000  0.95078000  0.19656000  1.0 -0.1069162391
C  C333  1  0.36416000  0.48850000  0.95078000  1.0 -0.1069162391
C  C334  1  0.19656000  0.95078000  0.48850000  1.0 -0.1069162391
C  C335  1  0.95078000  0.19656000  0.36416000  1.0 -0.1069162391
C  C336  1  0.48850000  0.36416000  0.19656000  1.0 -0.1069162391
C  C337  1  0.76725000  0.93023000  0.85077000  1.0 0.1942176084
C  C338  1  0.93023000  0.76725000  0.45175000  1.0 0.1942176084
C  C339  1  0.85077000  0.45175000  0.76725000  1.0 0.1942176084
C  C340  1  0.45175000  0.85077000  0.93023000  1.0 0.1942176084
C  C341  1  0.85077000  0.76725000  0.93023000  1.0 0.1942176084
C  C342  1  0.45175000  0.93023000  0.76725000  1.0 0.1942176084
C  C343  1  0.76725000  0.85077000  0.45175000  1.0 0.1942176084
C  C344  1  0.93023000  0.45175000  0.85077000  1.0 0.1942176084
C  C345  1  0.93023000  0.85077000  0.76725000  1.0 0.1942176084
C  C346  1  0.76725000  0.45175000  0.93023000  1.0 0.1942176084
C  C347  1  0.45175000  0.76725000  0.85077000  1.0 0.1942176084
C  C348  1  0.85077000  0.93023000  0.45175000  1.0 0.1942176084
C  C349  1  0.73275000  0.56977000  0.04825000  1.0 0.1942176084
C  C350  1  0.56977000  0.73275000  0.64923000  1.0 0.1942176084
C  C351  1  0.64923000  0.04825000  0.56977000  1.0 0.1942176084
C  C352  1  0.04825000  0.64923000  0.73275000  1.0 0.1942176084
C  C353  1  0.64923000  0.73275000  0.04825000  1.0 0.1942176084
C  C354  1  0.04825000  0.56977000  0.64923000  1.0 0.1942176084
C  C355  1  0.73275000  0.64923000  0.56977000  1.0 0.1942176084
C  C356  1  0.56977000  0.04825000  0.73275000  1.0 0.1942176084
C  C357  1  0.56977000  0.64923000  0.04825000  1.0 0.1942176084
C  C358  1  0.73275000  0.04825000  0.64923000  1.0 0.1942176084
C  C359  1  0.04825000  0.73275000  0.56977000  1.0 0.1942176084
C  C360  1  0.64923000  0.56977000  0.73275000  1.0 0.1942176084
C  C361  1  0.23275000  0.06977000  0.14923000  1.0 0.1942176084
C  C362  1  0.06977000  0.23275000  0.54825000  1.0 0.1942176084
C  C363  1  0.14923000  0.54825000  0.23275000  1.0 0.1942176084
C  C364  1  0.54825000  0.14923000  0.06977000  1.0 0.1942176084
C  C365  1  0.14923000  0.23275000  0.06977000  1.0 0.1942176084
C  C366  1  0.54825000  0.06977000  0.23275000  1.0 0.1942176084
C  C367  1  0.23275000  0.14923000  0.54825000  1.0 0.1942176084
C  C368  1  0.06977000  0.54825000  0.14923000  1.0 0.1942176084
C  C369  1  0.06977000  0.14923000  0.23275000  1.0 0.1942176084
C  C370  1  0.23275000  0.54825000  0.06977000  1.0 0.1942176084
C  C371  1  0.54825000  0.23275000  0.14923000  1.0 0.1942176084
C  C372  1  0.14923000  0.06977000  0.54825000  1.0 0.1942176084
C  C373  1  0.26725000  0.43023000  0.95175000  1.0 0.1942176084
C  C374  1  0.43023000  0.26725000  0.35077000  1.0 0.1942176084
C  C375  1  0.35077000  0.95175000  0.43023000  1.0 0.1942176084
C  C376  1  0.95175000  0.35077000  0.26725000  1.0 0.1942176084
C  C377  1  0.35077000  0.26725000  0.95175000  1.0 0.1942176084
C  C378  1  0.95175000  0.43023000  0.35077000  1.0 0.1942176084
C  C379  1  0.26725000  0.35077000  0.43023000  1.0 0.1942176084
C  C380  1  0.43023000  0.95175000  0.26725000  1.0 0.1942176084
C  C381  1  0.43023000  0.35077000  0.95175000  1.0 0.1942176084
C  C382  1  0.26725000  0.95175000  0.35077000  1.0 0.1942176084
C  C383  1  0.95175000  0.26725000  0.43023000  1.0 0.1942176084
C  C384  1  0.35077000  0.43023000  0.26725000  1.0 0.1942176084
C  C385  1  0.81165000  0.88943000  0.84635000  1.0 -0.0273102747
C  C386  1  0.88943000  0.81165000  0.45257000  1.0 -0.0273102747
C  C387  1  0.84635000  0.45257000  0.81165000  1.0 -0.0273102747
C  C388  1  0.45257000  0.84635000  0.88943000  1.0 -0.0273102747
C  C389  1  0.84635000  0.81165000  0.88943000  1.0 -0.0273102747
C  C390  1  0.45257000  0.88943000  0.81165000  1.0 -0.0273102747
C  C391  1  0.81165000  0.84635000  0.45257000  1.0 -0.0273102747
C  C392  1  0.88943000  0.45257000  0.84635000  1.0 -0.0273102747
C  C393  1  0.88943000  0.84635000  0.81165000  1.0 -0.0273102747
C  C394  1  0.81165000  0.45257000  0.88943000  1.0 -0.0273102747
C  C395  1  0.45257000  0.81165000  0.84635000  1.0 -0.0273102747
C  C396  1  0.84635000  0.88943000  0.45257000  1.0 -0.0273102747
C  C397  1  0.68835000  0.61057000  0.04743000  1.0 -0.0273102747
C  C398  1  0.61057000  0.68835000  0.65365000  1.0 -0.0273102747
C  C399  1  0.65365000  0.04743000  0.61057000  1.0 -0.0273102747
C  C400  1  0.04743000  0.65365000  0.68835000  1.0 -0.0273102747
C  C401  1  0.65365000  0.68835000  0.04743000  1.0 -0.0273102747
C  C402  1  0.04743000  0.61057000  0.65365000  1.0 -0.0273102747
C  C403  1  0.68835000  0.65365000  0.61057000  1.0 -0.0273102747
C  C404  1  0.61057000  0.04743000  0.68835000  1.0 -0.0273102747
C  C405  1  0.61057000  0.65365000  0.04743000  1.0 -0.0273102747
C  C406  1  0.68835000  0.04743000  0.65365000  1.0 -0.0273102747
C  C407  1  0.04743000  0.68835000  0.61057000  1.0 -0.0273102747
C  C408  1  0.65365000  0.61057000  0.68835000  1.0 -0.0273102747
C  C409  1  0.18835000  0.11057000  0.15365000  1.0 -0.0273102747
C  C410  1  0.11057000  0.18835000  0.54743000  1.0 -0.0273102747
C  C411  1  0.15365000  0.54743000  0.18835000  1.0 -0.0273102747
C  C412  1  0.54743000  0.15365000  0.11057000  1.0 -0.0273102747
C  C413  1  0.15365000  0.18835000  0.11057000  1.0 -0.0273102747
C  C414  1  0.54743000  0.11057000  0.18835000  1.0 -0.0273102747
C  C415  1  0.18835000  0.15365000  0.54743000  1.0 -0.0273102747
C  C416  1  0.11057000  0.54743000  0.15365000  1.0 -0.0273102747
C  C417  1  0.11057000  0.15365000  0.18835000  1.0 -0.0273102747
C  C418  1  0.18835000  0.54743000  0.11057000  1.0 -0.0273102747
C  C419  1  0.54743000  0.18835000  0.15365000  1.0 -0.0273102747
C  C420  1  0.15365000  0.11057000  0.54743000  1.0 -0.0273102747
C  C421  1  0.31165000  0.38943000  0.95257000  1.0 -0.0273102747
C  C422  1  0.38943000  0.31165000  0.34635000  1.0 -0.0273102747
C  C423  1  0.34635000  0.95257000  0.38943000  1.0 -0.0273102747
C  C424  1  0.95257000  0.34635000  0.31165000  1.0 -0.0273102747
C  C425  1  0.34635000  0.31165000  0.95257000  1.0 -0.0273102747
C  C426  1  0.95257000  0.38943000  0.34635000  1.0 -0.0273102747
C  C427  1  0.31165000  0.34635000  0.38943000  1.0 -0.0273102747
C  C428  1  0.38943000  0.95257000  0.31165000  1.0 -0.0273102747
C  C429  1  0.38943000  0.34635000  0.95257000  1.0 -0.0273102747
C  C430  1  0.31165000  0.95257000  0.34635000  1.0 -0.0273102747
C  C431  1  0.95257000  0.31165000  0.38943000  1.0 -0.0273102747
C  C432  1  0.34635000  0.38943000  0.31165000  1.0 -0.0273102747
C  C433  1  0.80913000  0.85197000  0.88643000  1.0 -0.0371591289
C  C434  1  0.85197000  0.80913000  0.45247000  1.0 -0.0371591289
C  C435  1  0.88643000  0.45247000  0.80913000  1.0 -0.0371591289
C  C436  1  0.45247000  0.88643000  0.85197000  1.0 -0.0371591289
C  C437  1  0.88643000  0.80913000  0.85197000  1.0 -0.0371591289
C  C438  1  0.45247000  0.85197000  0.80913000  1.0 -0.0371591289
C  C439  1  0.80913000  0.88643000  0.45247000  1.0 -0.0371591289
C  C440  1  0.85197000  0.45247000  0.88643000  1.0 -0.0371591289
C  C441  1  0.85197000  0.88643000  0.80913000  1.0 -0.0371591289
C  C442  1  0.80913000  0.45247000  0.85197000  1.0 -0.0371591289
C  C443  1  0.45247000  0.80913000  0.88643000  1.0 -0.0371591289
C  C444  1  0.88643000  0.85197000  0.45247000  1.0 -0.0371591289
C  C445  1  0.69087000  0.64803000  0.04753000  1.0 -0.0371591289
C  C446  1  0.64803000  0.69087000  0.61357000  1.0 -0.0371591289
C  C447  1  0.61357000  0.04753000  0.64803000  1.0 -0.0371591289
C  C448  1  0.04753000  0.61357000  0.69087000  1.0 -0.0371591289
C  C449  1  0.61357000  0.69087000  0.04753000  1.0 -0.0371591289
C  C450  1  0.04753000  0.64803000  0.61357000  1.0 -0.0371591289
C  C451  1  0.69087000  0.61357000  0.64803000  1.0 -0.0371591289
C  C452  1  0.64803000  0.04753000  0.69087000  1.0 -0.0371591289
C  C453  1  0.64803000  0.61357000  0.04753000  1.0 -0.0371591289
C  C454  1  0.69087000  0.04753000  0.61357000  1.0 -0.0371591289
C  C455  1  0.04753000  0.69087000  0.64803000  1.0 -0.0371591289
C  C456  1  0.61357000  0.64803000  0.69087000  1.0 -0.0371591289
C  C457  1  0.19087000  0.14803000  0.11357000  1.0 -0.0371591289
C  C458  1  0.14803000  0.19087000  0.54753000  1.0 -0.0371591289
C  C459  1  0.11357000  0.54753000  0.19087000  1.0 -0.0371591289
C  C460  1  0.54753000  0.11357000  0.14803000  1.0 -0.0371591289
C  C461  1  0.11357000  0.19087000  0.14803000  1.0 -0.0371591289
C  C462  1  0.54753000  0.14803000  0.19087000  1.0 -0.0371591289
C  C463  1  0.19087000  0.11357000  0.54753000  1.0 -0.0371591289
C  C464  1  0.14803000  0.54753000  0.11357000  1.0 -0.0371591289
C  C465  1  0.14803000  0.11357000  0.19087000  1.0 -0.0371591289
C  C466  1  0.19087000  0.54753000  0.14803000  1.0 -0.0371591289
C  C467  1  0.54753000  0.19087000  0.11357000  1.0 -0.0371591289
C  C468  1  0.11357000  0.14803000  0.54753000  1.0 -0.0371591289
C  C469  1  0.30913000  0.35197000  0.95247000  1.0 -0.0371591289
C  C470  1  0.35197000  0.30913000  0.38643000  1.0 -0.0371591289
C  C471  1  0.38643000  0.95247000  0.35197000  1.0 -0.0371591289
C  C472  1  0.95247000  0.38643000  0.30913000  1.0 -0.0371591289
C  C473  1  0.38643000  0.30913000  0.95247000  1.0 -0.0371591289
C  C474  1  0.95247000  0.35197000  0.38643000  1.0 -0.0371591289
C  C475  1  0.30913000  0.38643000  0.35197000  1.0 -0.0371591289
C  C476  1  0.35197000  0.95247000  0.30913000  1.0 -0.0371591289
C  C477  1  0.35197000  0.38643000  0.95247000  1.0 -0.0371591289
C  C478  1  0.30913000  0.95247000  0.38643000  1.0 -0.0371591289
C  C479  1  0.95247000  0.30913000  0.35197000  1.0 -0.0371591289
C  C480  1  0.38643000  0.35197000  0.30913000  1.0 -0.0371591289
C  C481  1  0.77144000  0.97124000  0.85080000  1.0 -0.4502469399
C  C482  1  0.97124000  0.77144000  0.40652000  1.0 -0.4502469399
C  C483  1  0.85080000  0.40652000  0.77144000  1.0 -0.4502469399
C  C484  1  0.40652000  0.85080000  0.97124000  1.0 -0.4502469399
C  C485  1  0.85080000  0.77144000  0.97124000  1.0 -0.4502469399
C  C486  1  0.40652000  0.97124000  0.77144000  1.0 -0.4502469399
C  C487  1  0.77144000  0.85080000  0.40652000  1.0 -0.4502469399
C  C488  1  0.97124000  0.40652000  0.85080000  1.0 -0.4502469399
C  C489  1  0.97124000  0.85080000  0.77144000  1.0 -0.4502469399
C  C490  1  0.77144000  0.40652000  0.97124000  1.0 -0.4502469399
C  C491  1  0.40652000  0.77144000  0.85080000  1.0 -0.4502469399
C  C492  1  0.85080000  0.97124000  0.40652000  1.0 -0.4502469399
C  C493  1  0.72856000  0.52876000  0.09348000  1.0 -0.4502469399
C  C494  1  0.52876000  0.72856000  0.64920000  1.0 -0.4502469399
C  C495  1  0.64920000  0.09348000  0.52876000  1.0 -0.4502469399
C  C496  1  0.09348000  0.64920000  0.72856000  1.0 -0.4502469399
C  C497  1  0.64920000  0.72856000  0.09348000  1.0 -0.4502469399
C  C498  1  0.09348000  0.52876000  0.64920000  1.0 -0.4502469399
C  C499  1  0.72856000  0.64920000  0.52876000  1.0 -0.4502469399
C  C500  1  0.52876000  0.09348000  0.72856000  1.0 -0.4502469399
C  C501  1  0.52876000  0.64920000  0.09348000  1.0 -0.4502469399
C  C502  1  0.72856000  0.09348000  0.64920000  1.0 -0.4502469399
C  C503  1  0.09348000  0.72856000  0.52876000  1.0 -0.4502469399
C  C504  1  0.64920000  0.52876000  0.72856000  1.0 -0.4502469399
C  C505  1  0.22856000  0.02876000  0.14920000  1.0 -0.4502469399
C  C506  1  0.02876000  0.22856000  0.59348000  1.0 -0.4502469399
C  C507  1  0.14920000  0.59348000  0.22856000  1.0 -0.4502469399
C  C508  1  0.59348000  0.14920000  0.02876000  1.0 -0.4502469399
C  C509  1  0.14920000  0.22856000  0.02876000  1.0 -0.4502469399
C  C510  1  0.59348000  0.02876000  0.22856000  1.0 -0.4502469399
C  C511  1  0.22856000  0.14920000  0.59348000  1.0 -0.4502469399
C  C512  1  0.02876000  0.59348000  0.14920000  1.0 -0.4502469399
C  C513  1  0.02876000  0.14920000  0.22856000  1.0 -0.4502469399
C  C514  1  0.22856000  0.59348000  0.02876000  1.0 -0.4502469399
C  C515  1  0.59348000  0.22856000  0.14920000  1.0 -0.4502469399
C  C516  1  0.14920000  0.02876000  0.59348000  1.0 -0.4502469399
C  C517  1  0.27144000  0.47124000  0.90652000  1.0 -0.4502469399
C  C518  1  0.47124000  0.27144000  0.35080000  1.0 -0.4502469399
C  C519  1  0.35080000  0.90652000  0.47124000  1.0 -0.4502469399
C  C520  1  0.90652000  0.35080000  0.27144000  1.0 -0.4502469399
C  C521  1  0.35080000  0.27144000  0.90652000  1.0 -0.4502469399
C  C522  1  0.90652000  0.47124000  0.35080000  1.0 -0.4502469399
C  C523  1  0.27144000  0.35080000  0.47124000  1.0 -0.4502469399
C  C524  1  0.47124000  0.90652000  0.27144000  1.0 -0.4502469399
C  C525  1  0.47124000  0.35080000  0.90652000  1.0 -0.4502469399
C  C526  1  0.27144000  0.90652000  0.35080000  1.0 -0.4502469399
C  C527  1  0.90652000  0.27144000  0.47124000  1.0 -0.4502469399
C  C528  1  0.35080000  0.47124000  0.27144000  1.0 -0.4502469399
C  C529  1  0.74191000  0.93897000  0.81927000  1.0 -0.4694851844
C  C530  1  0.93897000  0.74191000  0.49985000  1.0 -0.4694851844
C  C531  1  0.81927000  0.49985000  0.74191000  1.0 -0.4694851844
C  C532  1  0.49985000  0.81927000  0.93897000  1.0 -0.4694851844
C  C533  1  0.81927000  0.74191000  0.93897000  1.0 -0.4694851844
C  C534  1  0.49985000  0.93897000  0.74191000  1.0 -0.4694851844
C  C535  1  0.74191000  0.81927000  0.49985000  1.0 -0.4694851844
C  C536  1  0.93897000  0.49985000  0.81927000  1.0 -0.4694851844
C  C537  1  0.93897000  0.81927000  0.74191000  1.0 -0.4694851844
C  C538  1  0.74191000  0.49985000  0.93897000  1.0 -0.4694851844
C  C539  1  0.49985000  0.74191000  0.81927000  1.0 -0.4694851844
C  C540  1  0.81927000  0.93897000  0.49985000  1.0 -0.4694851844
C  C541  1  0.75809000  0.56103000  0.00015000  1.0 -0.4694851844
C  C542  1  0.56103000  0.75809000  0.68073000  1.0 -0.4694851844
C  C543  1  0.68073000  0.00015000  0.56103000  1.0 -0.4694851844
C  C544  1  0.00015000  0.68073000  0.75809000  1.0 -0.4694851844
C  C545  1  0.68073000  0.75809000  0.00015000  1.0 -0.4694851844
C  C546  1  0.00015000  0.56103000  0.68073000  1.0 -0.4694851844
C  C547  1  0.75809000  0.68073000  0.56103000  1.0 -0.4694851844
C  C548  1  0.56103000  0.00015000  0.75809000  1.0 -0.4694851844
C  C549  1  0.56103000  0.68073000  0.00015000  1.0 -0.4694851844
C  C550  1  0.75809000  0.00015000  0.68073000  1.0 -0.4694851844
C  C551  1  0.00015000  0.75809000  0.56103000  1.0 -0.4694851844
C  C552  1  0.68073000  0.56103000  0.75809000  1.0 -0.4694851844
C  C553  1  0.25809000  0.06103000  0.18073000  1.0 -0.4694851844
C  C554  1  0.06103000  0.25809000  0.50015000  1.0 -0.4694851844
C  C555  1  0.18073000  0.50015000  0.25809000  1.0 -0.4694851844
C  C556  1  0.50015000  0.18073000  0.06103000  1.0 -0.4694851844
C  C557  1  0.18073000  0.25809000  0.06103000  1.0 -0.4694851844
C  C558  1  0.50015000  0.06103000  0.25809000  1.0 -0.4694851844
C  C559  1  0.25809000  0.18073000  0.50015000  1.0 -0.4694851844
C  C560  1  0.06103000  0.50015000  0.18073000  1.0 -0.4694851844
C  C561  1  0.06103000  0.18073000  0.25809000  1.0 -0.4694851844
C  C562  1  0.25809000  0.50015000  0.06103000  1.0 -0.4694851844
C  C563  1  0.50015000  0.25809000  0.18073000  1.0 -0.4694851844
C  C564  1  0.18073000  0.06103000  0.50015000  1.0 -0.4694851844
C  C565  1  0.24191000  0.43897000  0.99985000  1.0 -0.4694851844
C  C566  1  0.43897000  0.24191000  0.31927000  1.0 -0.4694851844
C  C567  1  0.31927000  0.99985000  0.43897000  1.0 -0.4694851844
C  C568  1  0.99985000  0.31927000  0.24191000  1.0 -0.4694851844
C  C569  1  0.31927000  0.24191000  0.99985000  1.0 -0.4694851844
C  C570  1  0.99985000  0.43897000  0.31927000  1.0 -0.4694851844
C  C571  1  0.24191000  0.31927000  0.43897000  1.0 -0.4694851844
C  C572  1  0.43897000  0.99985000  0.24191000  1.0 -0.4694851844
C  C573  1  0.43897000  0.31927000  0.99985000  1.0 -0.4694851844
C  C574  1  0.24191000  0.99985000  0.31927000  1.0 -0.4694851844
C  C575  1  0.99985000  0.24191000  0.43897000  1.0 -0.4694851844
C  C576  1  0.31927000  0.43897000  0.24191000  1.0 -0.4694851844
Cl  Cl1  1  0.48921000  0.01079000  0.01079000  1.0 0.0058462211
Cl  Cl2  1  0.01079000  0.48921000  0.48921000  1.0 0.0058462211
Cl  Cl3  1  0.01079000  0.48921000  0.01079000  1.0 0.0058462211
Cl  Cl4  1  0.48921000  0.01079000  0.48921000  1.0 0.0058462211
Cl  Cl5  1  0.01079000  0.01079000  0.48921000  1.0 0.0042010859
Cl  Cl6  1  0.48921000  0.48921000  0.01079000  1.0 0.0042010859
Cl  Cl7  1  0.51079000  0.98921000  0.98921000  1.0 0.0042010859
Cl  Cl8  1  0.98921000  0.51079000  0.51079000  1.0 0.0042010859
Cl  Cl9  1  0.98921000  0.51079000  0.98921000  1.0 0.0058462211
Cl  Cl10  1  0.51079000  0.98921000  0.51079000  1.0 0.0058462211
Cl  Cl11  1  0.98921000  0.98921000  0.51079000  1.0 0.0058462211
Cl  Cl12  1  0.51079000  0.51079000  0.98921000  1.0 0.0058462211
O  O1  1  0.60490000  0.91142000  0.02946000  1.0 -0.4502469399
O  O2  1  0.91142000  0.60490000  0.45422000  1.0 -0.4502469399
O  O3  1  0.02946000  0.45422000  0.60490000  1.0 -0.4502469399
O  O4  1  0.45422000  0.02946000  0.91142000  1.0 -0.4502469399
O  O5  1  0.02946000  0.60490000  0.91142000  1.0 -0.4502469399
O  O6  1  0.45422000  0.91142000  0.60490000  1.0 -0.4502469399
O  O7  1  0.60490000  0.02946000  0.45422000  1.0 -0.4502469399
O  O8  1  0.91142000  0.45422000  0.02946000  1.0 -0.4502469399
O  O9  1  0.91142000  0.02946000  0.60490000  1.0 -0.4502469399
O  O10  1  0.60490000  0.45422000  0.91142000  1.0 -0.4502469399
O  O11  1  0.45422000  0.60490000  0.02946000  1.0 -0.4502469399
O  O12  1  0.02946000  0.91142000  0.45422000  1.0 -0.4502469399
O  O13  1  0.89510000  0.58858000  0.04578000  1.0 -0.4502469399
O  O14  1  0.58858000  0.89510000  0.47054000  1.0 -0.4502469399
O  O15  1  0.47054000  0.04578000  0.58858000  1.0 -0.4502469399
O  O16  1  0.04578000  0.47054000  0.89510000  1.0 -0.4502469399
O  O17  1  0.47054000  0.89510000  0.04578000  1.0 -0.4502469399
O  O18  1  0.04578000  0.58858000  0.47054000  1.0 -0.4502469399
O  O19  1  0.89510000  0.47054000  0.58858000  1.0 -0.4502469399
O  O20  1  0.58858000  0.04578000  0.89510000  1.0 -0.4502469399
O  O21  1  0.58858000  0.47054000  0.04578000  1.0 -0.4502469399
O  O22  1  0.89510000  0.04578000  0.47054000  1.0 -0.4502469399
O  O23  1  0.04578000  0.89510000  0.58858000  1.0 -0.4502469399
O  O24  1  0.47054000  0.58858000  0.89510000  1.0 -0.4502469399
O  O25  1  0.39510000  0.08858000  0.97054000  1.0 -0.4502469399
O  O26  1  0.08858000  0.39510000  0.54578000  1.0 -0.4502469399
O  O27  1  0.97054000  0.54578000  0.39510000  1.0 -0.4502469399
O  O28  1  0.54578000  0.97054000  0.08858000  1.0 -0.4502469399
O  O29  1  0.97054000  0.39510000  0.08858000  1.0 -0.4502469399
O  O30  1  0.54578000  0.08858000  0.39510000  1.0 -0.4502469399
O  O31  1  0.39510000  0.97054000  0.54578000  1.0 -0.4502469399
O  O32  1  0.08858000  0.54578000  0.97054000  1.0 -0.4502469399
O  O33  1  0.08858000  0.97054000  0.39510000  1.0 -0.4502469399
O  O34  1  0.39510000  0.54578000  0.08858000  1.0 -0.4502469399
O  O35  1  0.54578000  0.39510000  0.97054000  1.0 -0.4502469399
O  O36  1  0.97054000  0.08858000  0.54578000  1.0 -0.4502469399
O  O37  1  0.10490000  0.41142000  0.95422000  1.0 -0.4502469399
O  O38  1  0.41142000  0.10490000  0.52946000  1.0 -0.4502469399
O  O39  1  0.52946000  0.95422000  0.41142000  1.0 -0.4502469399
O  O40  1  0.95422000  0.52946000  0.10490000  1.0 -0.4502469399
O  O41  1  0.52946000  0.10490000  0.95422000  1.0 -0.4502469399
O  O42  1  0.95422000  0.41142000  0.52946000  1.0 -0.4502469399
O  O43  1  0.10490000  0.52946000  0.41142000  1.0 -0.4502469399
O  O44  1  0.41142000  0.95422000  0.10490000  1.0 -0.4502469399
O  O45  1  0.41142000  0.52946000  0.95422000  1.0 -0.4502469399
O  O46  1  0.10490000  0.95422000  0.52946000  1.0 -0.4502469399
O  O47  1  0.95422000  0.10490000  0.41142000  1.0 -0.4502469399
O  O48  1  0.52946000  0.41142000  0.10490000  1.0 -0.4502469399
O  O49  1  0.61435000  0.98147000  0.97757000  1.0 -0.137946925
O  O50  1  0.98147000  0.61435000  0.42661000  1.0 -0.1321251028
O  O51  1  0.97757000  0.42661000  0.61435000  1.0 -0.1321251028
O  O52  1  0.42661000  0.97757000  0.98147000  1.0 -0.137946925
O  O53  1  0.97757000  0.61435000  0.98147000  1.0 -0.137946925
O  O54  1  0.42661000  0.98147000  0.61435000  1.0 -0.137946925
O  O55  1  0.61435000  0.97757000  0.42661000  1.0 -0.137946925
O  O56  1  0.98147000  0.42661000  0.97757000  1.0 -0.137946925
O  O57  1  0.98147000  0.97757000  0.61435000  1.0 -0.137946925
O  O58  1  0.61435000  0.42661000  0.98147000  1.0 -0.137946925
O  O59  1  0.42661000  0.61435000  0.97757000  1.0 -0.137946925
O  O60  1  0.97757000  0.98147000  0.42661000  1.0 -0.137946925
O  O61  1  0.88565000  0.51853000  0.07339000  1.0 -0.137946925
O  O62  1  0.51853000  0.88565000  0.52243000  1.0 -0.137946925
O  O63  1  0.52243000  0.07339000  0.51853000  1.0 -0.137946925
O  O64  1  0.07339000  0.52243000  0.88565000  1.0 -0.137946925
O  O65  1  0.52243000  0.88565000  0.07339000  1.0 -0.137946925
O  O66  1  0.07339000  0.51853000  0.52243000  1.0 -0.1321251028
O  O67  1  0.88565000  0.52243000  0.51853000  1.0 -0.137946925
O  O68  1  0.51853000  0.07339000  0.88565000  1.0 -0.137946925
O  O69  1  0.51853000  0.52243000  0.07339000  1.0 -0.137946925
O  O70  1  0.88565000  0.07339000  0.52243000  1.0 -0.137946925
O  O71  1  0.07339000  0.88565000  0.51853000  1.0 -0.137946925
O  O72  1  0.52243000  0.51853000  0.88565000  1.0 -0.137946925
O  O73  1  0.38565000  0.01853000  0.02243000  1.0 -0.1321251028
O  O74  1  0.01853000  0.38565000  0.57339000  1.0 -0.137946925
O  O75  1  0.02243000  0.57339000  0.38565000  1.0 -0.137946925
O  O76  1  0.57339000  0.02243000  0.01853000  1.0 -0.1321251028
O  O77  1  0.02243000  0.38565000  0.01853000  1.0 -0.1321251028
O  O78  1  0.57339000  0.01853000  0.38565000  1.0 -0.137946925
O  O79  1  0.38565000  0.02243000  0.57339000  1.0 -0.137946925
O  O80  1  0.01853000  0.57339000  0.02243000  1.0 -0.1321251028
O  O81  1  0.01853000  0.02243000  0.38565000  1.0 -0.137946925
O  O82  1  0.38565000  0.57339000  0.01853000  1.0 -0.1321251028
O  O83  1  0.57339000  0.38565000  0.02243000  1.0 -0.137946925
O  O84  1  0.02243000  0.01853000  0.57339000  1.0 -0.137946925
O  O85  1  0.11435000  0.48147000  0.92661000  1.0 -0.137946925
O  O86  1  0.48147000  0.11435000  0.47757000  1.0 -0.137946925
O  O87  1  0.47757000  0.92661000  0.48147000  1.0 -0.137946925
O  O88  1  0.92661000  0.47757000  0.11435000  1.0 -0.137946925
O  O89  1  0.47757000  0.11435000  0.92661000  1.0 -0.137946925
O  O90  1  0.92661000  0.48147000  0.47757000  1.0 -0.137946925
O  O91  1  0.11435000  0.47757000  0.48147000  1.0 -0.137946925
O  O92  1  0.48147000  0.92661000  0.11435000  1.0 -0.137946925
O  O93  1  0.48147000  0.47757000  0.92661000  1.0 -0.137946925
O  O94  1  0.11435000  0.92661000  0.47757000  1.0 -0.137946925
O  O95  1  0.92661000  0.11435000  0.48147000  1.0 -0.137946925
O  O96  1  0.47757000  0.48147000  0.11435000  1.0 -0.137946925
O  O97  1  0.60129000  0.96411000  0.96911000  1.0 -0.1934461637
O  O98  1  0.96411000  0.60129000  0.46549000  1.0 -0.1934461637
O  O99  1  0.96911000  0.46549000  0.60129000  1.0 -0.1956511765
O  O100  1  0.46549000  0.96911000  0.96411000  1.0 -0.1934461637
O  O101  1  0.96911000  0.60129000  0.96411000  1.0 -0.1934461637
O  O102  1  0.46549000  0.96411000  0.60129000  1.0 -0.1934461637
O  O103  1  0.60129000  0.96911000  0.46549000  1.0 -0.1934461637
O  O104  1  0.96411000  0.46549000  0.96911000  1.0 -0.1934461637
O  O105  1  0.96411000  0.96911000  0.60129000  1.0 -0.1956511765
O  O106  1  0.60129000  0.46549000  0.96411000  1.0 -0.1934461637
O  O107  1  0.46549000  0.60129000  0.96911000  1.0 -0.1934461637
O  O108  1  0.96911000  0.96411000  0.46549000  1.0 -0.1956511765
O  O109  1  0.89871000  0.53589000  0.03451000  1.0 -0.1956511765
O  O110  1  0.53589000  0.89871000  0.53089000  1.0 -0.1934461637
O  O111  1  0.53089000  0.03451000  0.53589000  1.0 -0.1934461637
O  O112  1  0.03451000  0.53089000  0.89871000  1.0 -0.1934461637
O  O113  1  0.53089000  0.89871000  0.03451000  1.0 -0.1956511765
O  O114  1  0.03451000  0.53589000  0.53089000  1.0 -0.1934461637
O  O115  1  0.89871000  0.53089000  0.53589000  1.0 -0.1956511765
O  O116  1  0.53589000  0.03451000  0.89871000  1.0 -0.1934461637
O  O117  1  0.53589000  0.53089000  0.03451000  1.0 -0.1934461637
O  O118  1  0.89871000  0.03451000  0.53089000  1.0 -0.1934461637
O  O119  1  0.03451000  0.89871000  0.53589000  1.0 -0.1934461637
O  O120  1  0.53089000  0.53589000  0.89871000  1.0 -0.1934461637
O  O121  1  0.39871000  0.03589000  0.03089000  1.0 -0.1956511765
O  O122  1  0.03589000  0.39871000  0.53451000  1.0 -0.1934461637
O  O123  1  0.03089000  0.53451000  0.39871000  1.0 -0.1956511765
O  O124  1  0.53451000  0.03089000  0.03589000  1.0 -0.1934461637
O  O125  1  0.03089000  0.39871000  0.03589000  1.0 -0.1934461637
O  O126  1  0.53451000  0.03589000  0.39871000  1.0 -0.1934461637
O  O127  1  0.39871000  0.03089000  0.53451000  1.0 -0.1934461637
O  O128  1  0.03589000  0.53451000  0.03089000  1.0 -0.1956511765
O  O129  1  0.03589000  0.03089000  0.39871000  1.0 -0.1934461637
O  O130  1  0.39871000  0.53451000  0.03589000  1.0 -0.1934461637
O  O131  1  0.53451000  0.39871000  0.03089000  1.0 -0.1956511765
O  O132  1  0.03089000  0.03589000  0.53451000  1.0 -0.1934461637
O  O133  1  0.10129000  0.46411000  0.96549000  1.0 -0.1934461637
O  O134  1  0.46411000  0.10129000  0.46911000  1.0 -0.1934461637
O  O135  1  0.46911000  0.96549000  0.46411000  1.0 -0.1934461637
O  O136  1  0.96549000  0.46911000  0.10129000  1.0 -0.1956511765
O  O137  1  0.46911000  0.10129000  0.96549000  1.0 -0.1934461637
O  O138  1  0.96549000  0.46411000  0.46911000  1.0 -0.1956511765
O  O139  1  0.10129000  0.46911000  0.46411000  1.0 -0.1934461637
O  O140  1  0.46411000  0.96549000  0.10129000  1.0 -0.1956511765
O  O141  1  0.46411000  0.46911000  0.96549000  1.0 -0.1934461637
O  O142  1  0.10129000  0.96549000  0.46911000  1.0 -0.1934461637
O  O143  1  0.96549000  0.10129000  0.46411000  1.0 -0.1956511765
O  O144  1  0.46911000  0.46411000  0.10129000  1.0 -0.1934461637
