# DDEC6 charges by PACMAN v1.1 (https://github.com/mtap-research/PACMAN-charge/)
data_VETTIZ_ASR_pacman
_symmetry_space_group_name_H-M   'P 1'
_cell_length_a   36.05040000
_cell_length_b   36.05040000
_cell_length_c   36.05040000
_cell_angle_alpha   60.00000000
_cell_angle_beta   60.00000000
_cell_angle_gamma   60.00000000
_symmetry_Int_Tables_number   1
_chemical_formula_structural   Fe4H72(C32O7)3
_chemical_formula_sum   'Fe24 H432 C576 O126'
_cell_volume   33129.52931005
_cell_formula_units_Z   6
loop_
 _symmetry_equiv_pos_site_id
 _symmetry_equiv_pos_as_xyz
  1  'x, y, z'
loop_
 _atom_site_type_symbol
 _atom_site_label
 _atom_site_symmetry_multiplicity
 _atom_site_fract_x
 _atom_site_fract_y
 _atom_site_fract_z
 _atom_site_occupancy
 _atom_site_charge
Fe  Fe1  1  0.96093000  0.44127000  0.03907000  1.0 1.1689296196
Fe  Fe2  1  0.44127000  0.96093000  0.55873000  1.0 1.1689296196
Fe  Fe3  1  0.03907000  0.55873000  0.96093000  1.0 1.1689296196
Fe  Fe4  1  0.55873000  0.03907000  0.44127000  1.0 1.1689296196
Fe  Fe5  1  0.03907000  0.96093000  0.44127000  1.0 1.1689296196
Fe  Fe6  1  0.55873000  0.44127000  0.96093000  1.0 1.1689296196
Fe  Fe7  1  0.96093000  0.03907000  0.55873000  1.0 1.1689296196
Fe  Fe8  1  0.44127000  0.55873000  0.03907000  1.0 1.1689296196
Fe  Fe9  1  0.44127000  0.03907000  0.96093000  1.0 1.1689296196
Fe  Fe10  1  0.96093000  0.55873000  0.44127000  1.0 1.1689296196
Fe  Fe11  1  0.55873000  0.96093000  0.03907000  1.0 1.1689296196
Fe  Fe12  1  0.03907000  0.44127000  0.55873000  1.0 1.1689296196
Fe  Fe13  1  0.53907000  0.05873000  0.94127000  1.0 1.1689296196
Fe  Fe14  1  0.05873000  0.53907000  0.46093000  1.0 1.1689296196
Fe  Fe15  1  0.46093000  0.94127000  0.05873000  1.0 1.1689296196
Fe  Fe16  1  0.94127000  0.46093000  0.53907000  1.0 1.1689296196
Fe  Fe17  1  0.46093000  0.53907000  0.94127000  1.0 1.1689296196
Fe  Fe18  1  0.94127000  0.05873000  0.46093000  1.0 1.1689296196
Fe  Fe19  1  0.53907000  0.46093000  0.05873000  1.0 1.1689296196
Fe  Fe20  1  0.05873000  0.94127000  0.53907000  1.0 1.1689296196
Fe  Fe21  1  0.05873000  0.46093000  0.94127000  1.0 1.1689296196
Fe  Fe22  1  0.53907000  0.94127000  0.46093000  1.0 1.1689296196
Fe  Fe23  1  0.94127000  0.53907000  0.05873000  1.0 1.1689296196
Fe  Fe24  1  0.46093000  0.05873000  0.53907000  1.0 1.1689296196
H  H1  1  0.95440000  0.46620000  0.17560000  1.0 0.1561179833
H  H2  1  0.46620000  0.95440000  0.40380000  1.0 0.1561179833
H  H3  1  0.17560000  0.40380000  0.95440000  1.0 0.1561179833
H  H4  1  0.40380000  0.17560000  0.46620000  1.0 0.1561179833
H  H5  1  0.17560000  0.95440000  0.46620000  1.0 0.1561179833
H  H6  1  0.40380000  0.46620000  0.95440000  1.0 0.1561179833
H  H7  1  0.95440000  0.17560000  0.40380000  1.0 0.1561179833
H  H8  1  0.46620000  0.40380000  0.17560000  1.0 0.1561179833
H  H9  1  0.46620000  0.17560000  0.95440000  1.0 0.1561179833
H  H10  1  0.95440000  0.40380000  0.46620000  1.0 0.1561179833
H  H11  1  0.40380000  0.95440000  0.17560000  1.0 0.1561179833
H  H12  1  0.17560000  0.46620000  0.40380000  1.0 0.1561179833
H  H13  1  0.54560000  0.03380000  0.09620000  1.0 0.1561179833
H  H14  1  0.03380000  0.54560000  0.32440000  1.0 0.1561179833
H  H15  1  0.32440000  0.09620000  0.03380000  1.0 0.1561179833
H  H16  1  0.09620000  0.32440000  0.54560000  1.0 0.1561179833
H  H17  1  0.32440000  0.54560000  0.09620000  1.0 0.1561179833
H  H18  1  0.09620000  0.03380000  0.32440000  1.0 0.1561179833
H  H19  1  0.54560000  0.32440000  0.03380000  1.0 0.1561179833
H  H20  1  0.03380000  0.09620000  0.54560000  1.0 0.1561179833
H  H21  1  0.03380000  0.32440000  0.09620000  1.0 0.1561179833
H  H22  1  0.54560000  0.09620000  0.32440000  1.0 0.1561179833
H  H23  1  0.09620000  0.54560000  0.03380000  1.0 0.1561179833
H  H24  1  0.32440000  0.03380000  0.54560000  1.0 0.1561179833
H  H25  1  0.04560000  0.53380000  0.82440000  1.0 0.1561179833
H  H26  1  0.53380000  0.04560000  0.59620000  1.0 0.1561179833
H  H27  1  0.82440000  0.59620000  0.04560000  1.0 0.1561179833
H  H28  1  0.59620000  0.82440000  0.53380000  1.0 0.1561179833
H  H29  1  0.82440000  0.04560000  0.53380000  1.0 0.1561179833
H  H30  1  0.59620000  0.53380000  0.04560000  1.0 0.1561179833
H  H31  1  0.04560000  0.82440000  0.59620000  1.0 0.1561179833
H  H32  1  0.53380000  0.59620000  0.82440000  1.0 0.1561179833
H  H33  1  0.53380000  0.82440000  0.04560000  1.0 0.1561179833
H  H34  1  0.04560000  0.59620000  0.53380000  1.0 0.1561179833
H  H35  1  0.59620000  0.04560000  0.82440000  1.0 0.1561179833
H  H36  1  0.82440000  0.53380000  0.59620000  1.0 0.1561179833
H  H37  1  0.45440000  0.96620000  0.90380000  1.0 0.1561179833
H  H38  1  0.96620000  0.45440000  0.67560000  1.0 0.1561179833
H  H39  1  0.67560000  0.90380000  0.96620000  1.0 0.1561179833
H  H40  1  0.90380000  0.67560000  0.45440000  1.0 0.1561179833
H  H41  1  0.67560000  0.45440000  0.90380000  1.0 0.1561179833
H  H42  1  0.90380000  0.96620000  0.67560000  1.0 0.1561179833
H  H43  1  0.45440000  0.67560000  0.96620000  1.0 0.1561179833
H  H44  1  0.96620000  0.90380000  0.45440000  1.0 0.1561179833
H  H45  1  0.96620000  0.67560000  0.90380000  1.0 0.1561179833
H  H46  1  0.45440000  0.90380000  0.67560000  1.0 0.1561179833
H  H47  1  0.90380000  0.45440000  0.96620000  1.0 0.1561179833
H  H48  1  0.67560000  0.96620000  0.45440000  1.0 0.1561179833
H  H49  1  0.95280000  0.35200000  0.18120000  1.0 0.1494619216
H  H50  1  0.35200000  0.95280000  0.51400000  1.0 0.1494619216
H  H51  1  0.18120000  0.51400000  0.95280000  1.0 0.1494619216
H  H52  1  0.51400000  0.18120000  0.35200000  1.0 0.1494619216
H  H53  1  0.18120000  0.95280000  0.35200000  1.0 0.1494619216
H  H54  1  0.51400000  0.35200000  0.95280000  1.0 0.1494619216
H  H55  1  0.95280000  0.18120000  0.51400000  1.0 0.1494619216
H  H56  1  0.35200000  0.51400000  0.18120000  1.0 0.1494619216
H  H57  1  0.35200000  0.18120000  0.95280000  1.0 0.1494619216
H  H58  1  0.95280000  0.51400000  0.35200000  1.0 0.1494619216
H  H59  1  0.51400000  0.95280000  0.18120000  1.0 0.1494619216
H  H60  1  0.18120000  0.35200000  0.51400000  1.0 0.1494619216
H  H61  1  0.54720000  0.14800000  0.98600000  1.0 0.1494619216
H  H62  1  0.14800000  0.54720000  0.31880000  1.0 0.1494619216
H  H63  1  0.31880000  0.98600000  0.14800000  1.0 0.1494619216
H  H64  1  0.98600000  0.31880000  0.54720000  1.0 0.1494619216
H  H65  1  0.31880000  0.54720000  0.98600000  1.0 0.1494619216
H  H66  1  0.98600000  0.14800000  0.31880000  1.0 0.1494619216
H  H67  1  0.54720000  0.31880000  0.14800000  1.0 0.1494619216
H  H68  1  0.14800000  0.98600000  0.54720000  1.0 0.1494619216
H  H69  1  0.14800000  0.31880000  0.98600000  1.0 0.1494619216
H  H70  1  0.54720000  0.98600000  0.31880000  1.0 0.1494619216
H  H71  1  0.98600000  0.54720000  0.14800000  1.0 0.1494619216
H  H72  1  0.31880000  0.14800000  0.54720000  1.0 0.1494619216
H  H73  1  0.04720000  0.64800000  0.81880000  1.0 0.1494619216
H  H74  1  0.64800000  0.04720000  0.48600000  1.0 0.1494619216
H  H75  1  0.81880000  0.48600000  0.04720000  1.0 0.1494619216
H  H76  1  0.48600000  0.81880000  0.64800000  1.0 0.1494619216
H  H77  1  0.81880000  0.04720000  0.64800000  1.0 0.1494619216
H  H78  1  0.48600000  0.64800000  0.04720000  1.0 0.1494619216
H  H79  1  0.04720000  0.81880000  0.48600000  1.0 0.1494619216
H  H80  1  0.64800000  0.48600000  0.81880000  1.0 0.1494619216
H  H81  1  0.64800000  0.81880000  0.04720000  1.0 0.1494619216
H  H82  1  0.04720000  0.48600000  0.64800000  1.0 0.1494619216
H  H83  1  0.48600000  0.04720000  0.81880000  1.0 0.1494619216
H  H84  1  0.81880000  0.64800000  0.48600000  1.0 0.1494619216
H  H85  1  0.45280000  0.85200000  0.01400000  1.0 0.1494619216
H  H86  1  0.85200000  0.45280000  0.68120000  1.0 0.1494619216
H  H87  1  0.68120000  0.01400000  0.85200000  1.0 0.1494619216
H  H88  1  0.01400000  0.68120000  0.45280000  1.0 0.1494619216
H  H89  1  0.68120000  0.45280000  0.01400000  1.0 0.1494619216
H  H90  1  0.01400000  0.85200000  0.68120000  1.0 0.1494619216
H  H91  1  0.45280000  0.68120000  0.85200000  1.0 0.1494619216
H  H92  1  0.85200000  0.01400000  0.45280000  1.0 0.1494619216
H  H93  1  0.85200000  0.68120000  0.01400000  1.0 0.1494619216
H  H94  1  0.45280000  0.01400000  0.68120000  1.0 0.1494619216
H  H95  1  0.01400000  0.45280000  0.85200000  1.0 0.1494619216
H  H96  1  0.68120000  0.85200000  0.45280000  1.0 0.1494619216
H  H97  1  0.95880000  0.31520000  0.25400000  1.0 0.1112436601
H  H98  1  0.31520000  0.95880000  0.47200000  1.0 0.1112436601
H  H99  1  0.25400000  0.47200000  0.95880000  1.0 0.1112436601
H  H100  1  0.47200000  0.25400000  0.31520000  1.0 0.1112436601
H  H101  1  0.25400000  0.95880000  0.31520000  1.0 0.1112436601
H  H102  1  0.47200000  0.31520000  0.95880000  1.0 0.1112436601
H  H103  1  0.95880000  0.25400000  0.47200000  1.0 0.1112436601
H  H104  1  0.31520000  0.47200000  0.25400000  1.0 0.1112436601
H  H105  1  0.31520000  0.25400000  0.95880000  1.0 0.1112436601
H  H106  1  0.95880000  0.47200000  0.31520000  1.0 0.1112436601
H  H107  1  0.47200000  0.95880000  0.25400000  1.0 0.1112436601
H  H108  1  0.25400000  0.31520000  0.47200000  1.0 0.1112436601
H  H109  1  0.54120000  0.18480000  0.02800000  1.0 0.1112436601
H  H110  1  0.18480000  0.54120000  0.24600000  1.0 0.1112436601
H  H111  1  0.24600000  0.02800000  0.18480000  1.0 0.1112436601
H  H112  1  0.02800000  0.24600000  0.54120000  1.0 0.1112436601
H  H113  1  0.24600000  0.54120000  0.02800000  1.0 0.1112436601
H  H114  1  0.02800000  0.18480000  0.24600000  1.0 0.1112436601
H  H115  1  0.54120000  0.24600000  0.18480000  1.0 0.1112436601
H  H116  1  0.18480000  0.02800000  0.54120000  1.0 0.1112436601
H  H117  1  0.18480000  0.24600000  0.02800000  1.0 0.1112436601
H  H118  1  0.54120000  0.02800000  0.24600000  1.0 0.1112436601
H  H119  1  0.02800000  0.54120000  0.18480000  1.0 0.1112436601
H  H120  1  0.24600000  0.18480000  0.54120000  1.0 0.1112436601
H  H121  1  0.04120000  0.68480000  0.74600000  1.0 0.1112436601
H  H122  1  0.68480000  0.04120000  0.52800000  1.0 0.1112436601
H  H123  1  0.74600000  0.52800000  0.04120000  1.0 0.1112436601
H  H124  1  0.52800000  0.74600000  0.68480000  1.0 0.1112436601
H  H125  1  0.74600000  0.04120000  0.68480000  1.0 0.1112436601
H  H126  1  0.52800000  0.68480000  0.04120000  1.0 0.1112436601
H  H127  1  0.04120000  0.74600000  0.52800000  1.0 0.1112436601
H  H128  1  0.68480000  0.52800000  0.74600000  1.0 0.1112436601
H  H129  1  0.68480000  0.74600000  0.04120000  1.0 0.1112436601
H  H130  1  0.04120000  0.52800000  0.68480000  1.0 0.1112436601
H  H131  1  0.52800000  0.04120000  0.74600000  1.0 0.1112436601
H  H132  1  0.74600000  0.68480000  0.52800000  1.0 0.1112436601
H  H133  1  0.45880000  0.81520000  0.97200000  1.0 0.1112436601
H  H134  1  0.81520000  0.45880000  0.75400000  1.0 0.1112436601
H  H135  1  0.75400000  0.97200000  0.81520000  1.0 0.1112436601
H  H136  1  0.97200000  0.75400000  0.45880000  1.0 0.1112436601
H  H137  1  0.75400000  0.45880000  0.97200000  1.0 0.1112436601
H  H138  1  0.97200000  0.81520000  0.75400000  1.0 0.1112436601
H  H139  1  0.45880000  0.75400000  0.81520000  1.0 0.1112436601
H  H140  1  0.81520000  0.97200000  0.45880000  1.0 0.1112436601
H  H141  1  0.81520000  0.75400000  0.97200000  1.0 0.1112436601
H  H142  1  0.45880000  0.97200000  0.75400000  1.0 0.1112436601
H  H143  1  0.97200000  0.45880000  0.81520000  1.0 0.1112436601
H  H144  1  0.75400000  0.81520000  0.45880000  1.0 0.1112436601
H  H145  1  0.88850000  0.46730000  0.28530000  1.0 0.1295069266
H  H146  1  0.46730000  0.88850000  0.35890000  1.0 0.1295069266
H  H147  1  0.28530000  0.35890000  0.88850000  1.0 0.1295069266
H  H148  1  0.35890000  0.28530000  0.46730000  1.0 0.1295069266
H  H149  1  0.28530000  0.88850000  0.46730000  1.0 0.1295069266
H  H150  1  0.35890000  0.46730000  0.88850000  1.0 0.1295069266
H  H151  1  0.88850000  0.28530000  0.35890000  1.0 0.1295069266
H  H152  1  0.46730000  0.35890000  0.28530000  1.0 0.1295069266
H  H153  1  0.46730000  0.28530000  0.88850000  1.0 0.1295069266
H  H154  1  0.88850000  0.35890000  0.46730000  1.0 0.1295069266
H  H155  1  0.35890000  0.88850000  0.28530000  1.0 0.1295069266
H  H156  1  0.28530000  0.46730000  0.35890000  1.0 0.1295069266
H  H157  1  0.61150000  0.03270000  0.14110000  1.0 0.1295069266
H  H158  1  0.03270000  0.61150000  0.21470000  1.0 0.1295069266
H  H159  1  0.21470000  0.14110000  0.03270000  1.0 0.1295069266
H  H160  1  0.14110000  0.21470000  0.61150000  1.0 0.1295069266
H  H161  1  0.21470000  0.61150000  0.14110000  1.0 0.1295069266
H  H162  1  0.14110000  0.03270000  0.21470000  1.0 0.1295069266
H  H163  1  0.61150000  0.21470000  0.03270000  1.0 0.1295069266
H  H164  1  0.03270000  0.14110000  0.61150000  1.0 0.1295069266
H  H165  1  0.03270000  0.21470000  0.14110000  1.0 0.1295069266
H  H166  1  0.61150000  0.14110000  0.21470000  1.0 0.1295069266
H  H167  1  0.14110000  0.61150000  0.03270000  1.0 0.1295069266
H  H168  1  0.21470000  0.03270000  0.61150000  1.0 0.1295069266
H  H169  1  0.11150000  0.53270000  0.71470000  1.0 0.1295069266
H  H170  1  0.53270000  0.11150000  0.64110000  1.0 0.1295069266
H  H171  1  0.71470000  0.64110000  0.11150000  1.0 0.1295069266
H  H172  1  0.64110000  0.71470000  0.53270000  1.0 0.1295069266
H  H173  1  0.71470000  0.11150000  0.53270000  1.0 0.1295069266
H  H174  1  0.64110000  0.53270000  0.11150000  1.0 0.1295069266
H  H175  1  0.11150000  0.71470000  0.64110000  1.0 0.1295069266
H  H176  1  0.53270000  0.64110000  0.71470000  1.0 0.1295069266
H  H177  1  0.53270000  0.71470000  0.11150000  1.0 0.1295069266
H  H178  1  0.11150000  0.64110000  0.53270000  1.0 0.1295069266
H  H179  1  0.64110000  0.11150000  0.71470000  1.0 0.1295069266
H  H180  1  0.71470000  0.53270000  0.64110000  1.0 0.1295069266
H  H181  1  0.38850000  0.96730000  0.85890000  1.0 0.1295069266
H  H182  1  0.96730000  0.38850000  0.78530000  1.0 0.1295069266
H  H183  1  0.78530000  0.85890000  0.96730000  1.0 0.1295069266
H  H184  1  0.85890000  0.78530000  0.38850000  1.0 0.1295069266
H  H185  1  0.78530000  0.38850000  0.85890000  1.0 0.1295069266
H  H186  1  0.85890000  0.96730000  0.78530000  1.0 0.1295069266
H  H187  1  0.38850000  0.78530000  0.96730000  1.0 0.1295069266
H  H188  1  0.96730000  0.85890000  0.38850000  1.0 0.1295069266
H  H189  1  0.96730000  0.78530000  0.85890000  1.0 0.1295069266
H  H190  1  0.38850000  0.85890000  0.78530000  1.0 0.1295069266
H  H191  1  0.85890000  0.38850000  0.96730000  1.0 0.1295069266
H  H192  1  0.78530000  0.96730000  0.38850000  1.0 0.1295069266
H  H193  1  0.91920000  0.49700000  0.24280000  1.0 0.1112436601
H  H194  1  0.49700000  0.91920000  0.34100000  1.0 0.1112436601
H  H195  1  0.24280000  0.34100000  0.91920000  1.0 0.1112436601
H  H196  1  0.34100000  0.24280000  0.49700000  1.0 0.1112436601
H  H197  1  0.24280000  0.91920000  0.49700000  1.0 0.1112436601
H  H198  1  0.34100000  0.49700000  0.91920000  1.0 0.1112436601
H  H199  1  0.91920000  0.24280000  0.34100000  1.0 0.1112436601
H  H200  1  0.49700000  0.34100000  0.24280000  1.0 0.1112436601
H  H201  1  0.49700000  0.24280000  0.91920000  1.0 0.1112436601
H  H202  1  0.91920000  0.34100000  0.49700000  1.0 0.1112436601
H  H203  1  0.34100000  0.91920000  0.24280000  1.0 0.1112436601
H  H204  1  0.24280000  0.49700000  0.34100000  1.0 0.1112436601
H  H205  1  0.58080000  0.00300000  0.15900000  1.0 0.1112436601
H  H206  1  0.00300000  0.58080000  0.25720000  1.0 0.1112436601
H  H207  1  0.25720000  0.15900000  0.00300000  1.0 0.1112436601
H  H208  1  0.15900000  0.25720000  0.58080000  1.0 0.1112436601
H  H209  1  0.25720000  0.58080000  0.15900000  1.0 0.1112436601
H  H210  1  0.15900000  0.00300000  0.25720000  1.0 0.1112436601
H  H211  1  0.58080000  0.25720000  0.00300000  1.0 0.1112436601
H  H212  1  0.00300000  0.15900000  0.58080000  1.0 0.1112436601
H  H213  1  0.00300000  0.25720000  0.15900000  1.0 0.1112436601
H  H214  1  0.58080000  0.15900000  0.25720000  1.0 0.1112436601
H  H215  1  0.15900000  0.58080000  0.00300000  1.0 0.1112436601
H  H216  1  0.25720000  0.00300000  0.58080000  1.0 0.1112436601
H  H217  1  0.08080000  0.50300000  0.75720000  1.0 0.1112436601
H  H218  1  0.50300000  0.08080000  0.65900000  1.0 0.1112436601
H  H219  1  0.75720000  0.65900000  0.08080000  1.0 0.1112436601
H  H220  1  0.65900000  0.75720000  0.50300000  1.0 0.1112436601
H  H221  1  0.75720000  0.08080000  0.50300000  1.0 0.1112436601
H  H222  1  0.65900000  0.50300000  0.08080000  1.0 0.1112436601
H  H223  1  0.08080000  0.75720000  0.65900000  1.0 0.1112436601
H  H224  1  0.50300000  0.65900000  0.75720000  1.0 0.1112436601
H  H225  1  0.50300000  0.75720000  0.08080000  1.0 0.1112436601
H  H226  1  0.08080000  0.65900000  0.50300000  1.0 0.1112436601
H  H227  1  0.65900000  0.08080000  0.75720000  1.0 0.1112436601
H  H228  1  0.75720000  0.50300000  0.65900000  1.0 0.1112436601
H  H229  1  0.41920000  0.99700000  0.84100000  1.0 0.1112436601
H  H230  1  0.99700000  0.41920000  0.74280000  1.0 0.1112436601
H  H231  1  0.74280000  0.84100000  0.99700000  1.0 0.1112436601
H  H232  1  0.84100000  0.74280000  0.41920000  1.0 0.1112436601
H  H233  1  0.74280000  0.41920000  0.84100000  1.0 0.1112436601
H  H234  1  0.84100000  0.99700000  0.74280000  1.0 0.1112436601
H  H235  1  0.41920000  0.74280000  0.99700000  1.0 0.1112436601
H  H236  1  0.99700000  0.84100000  0.41920000  1.0 0.1112436601
H  H237  1  0.99700000  0.74280000  0.84100000  1.0 0.1112436601
H  H238  1  0.41920000  0.84100000  0.74280000  1.0 0.1112436601
H  H239  1  0.84100000  0.41920000  0.99700000  1.0 0.1112436601
H  H240  1  0.74280000  0.99700000  0.41920000  1.0 0.1112436601
H  H241  1  0.92050000  0.48010000  0.29250000  1.0 0.1022047326
H  H242  1  0.48010000  0.92050000  0.30690000  1.0 0.1022047326
H  H243  1  0.29250000  0.30690000  0.92050000  1.0 0.1022047326
H  H244  1  0.30690000  0.29250000  0.48010000  1.0 0.1022047326
H  H245  1  0.29250000  0.92050000  0.48010000  1.0 0.1022047326
H  H246  1  0.30690000  0.48010000  0.92050000  1.0 0.1022047326
H  H247  1  0.92050000  0.29250000  0.30690000  1.0 0.1022047326
H  H248  1  0.48010000  0.30690000  0.29250000  1.0 0.1022047326
H  H249  1  0.48010000  0.29250000  0.92050000  1.0 0.1022047326
H  H250  1  0.92050000  0.30690000  0.48010000  1.0 0.1022047326
H  H251  1  0.30690000  0.92050000  0.29250000  1.0 0.1022047326
H  H252  1  0.29250000  0.48010000  0.30690000  1.0 0.1022047326
H  H253  1  0.57950000  0.01990000  0.19310000  1.0 0.1022047326
H  H254  1  0.01990000  0.57950000  0.20750000  1.0 0.1022047326
H  H255  1  0.20750000  0.19310000  0.01990000  1.0 0.1022047326
H  H256  1  0.19310000  0.20750000  0.57950000  1.0 0.1022047326
H  H257  1  0.20750000  0.57950000  0.19310000  1.0 0.1022047326
H  H258  1  0.19310000  0.01990000  0.20750000  1.0 0.1022047326
H  H259  1  0.57950000  0.20750000  0.01990000  1.0 0.1022047326
H  H260  1  0.01990000  0.19310000  0.57950000  1.0 0.1022047326
H  H261  1  0.01990000  0.20750000  0.19310000  1.0 0.1022047326
H  H262  1  0.57950000  0.19310000  0.20750000  1.0 0.1022047326
H  H263  1  0.19310000  0.57950000  0.01990000  1.0 0.1022047326
H  H264  1  0.20750000  0.01990000  0.57950000  1.0 0.1022047326
H  H265  1  0.07950000  0.51990000  0.70750000  1.0 0.1022047326
H  H266  1  0.51990000  0.07950000  0.69310000  1.0 0.1022047326
H  H267  1  0.70750000  0.69310000  0.07950000  1.0 0.1022047326
H  H268  1  0.69310000  0.70750000  0.51990000  1.0 0.1022047326
H  H269  1  0.70750000  0.07950000  0.51990000  1.0 0.1022047326
H  H270  1  0.69310000  0.51990000  0.07950000  1.0 0.1022047326
H  H271  1  0.07950000  0.70750000  0.69310000  1.0 0.1022047326
H  H272  1  0.51990000  0.69310000  0.70750000  1.0 0.1022047326
H  H273  1  0.51990000  0.70750000  0.07950000  1.0 0.1022047326
H  H274  1  0.07950000  0.69310000  0.51990000  1.0 0.1022047326
H  H275  1  0.69310000  0.07950000  0.70750000  1.0 0.1022047326
H  H276  1  0.70750000  0.51990000  0.69310000  1.0 0.1022047326
H  H277  1  0.42050000  0.98010000  0.80690000  1.0 0.1022047326
H  H278  1  0.98010000  0.42050000  0.79250000  1.0 0.1022047326
H  H279  1  0.79250000  0.80690000  0.98010000  1.0 0.1022047326
H  H280  1  0.80690000  0.79250000  0.42050000  1.0 0.1022047326
H  H281  1  0.79250000  0.42050000  0.80690000  1.0 0.1022047326
H  H282  1  0.80690000  0.98010000  0.79250000  1.0 0.1022047326
H  H283  1  0.42050000  0.79250000  0.98010000  1.0 0.1022047326
H  H284  1  0.98010000  0.80690000  0.42050000  1.0 0.1022047326
H  H285  1  0.98010000  0.79250000  0.80690000  1.0 0.1022047326
H  H286  1  0.42050000  0.80690000  0.79250000  1.0 0.1022047326
H  H287  1  0.80690000  0.42050000  0.98010000  1.0 0.1022047326
H  H288  1  0.79250000  0.98010000  0.42050000  1.0 0.1022047326
H  H289  1  0.02060000  0.44160000  0.23340000  1.0 0.1494619216
H  H290  1  0.44160000  0.02060000  0.30440000  1.0 0.1494619216
H  H291  1  0.23340000  0.30440000  0.02060000  1.0 0.1494619216
H  H292  1  0.30440000  0.23340000  0.44160000  1.0 0.1494619216
H  H293  1  0.23340000  0.02060000  0.44160000  1.0 0.1494619216
H  H294  1  0.30440000  0.44160000  0.02060000  1.0 0.1494619216
H  H295  1  0.02060000  0.23340000  0.30440000  1.0 0.1494619216
H  H296  1  0.44160000  0.30440000  0.23340000  1.0 0.1494619216
H  H297  1  0.44160000  0.23340000  0.02060000  1.0 0.1494619216
H  H298  1  0.02060000  0.30440000  0.44160000  1.0 0.1494619216
H  H299  1  0.30440000  0.02060000  0.23340000  1.0 0.1494619216
H  H300  1  0.23340000  0.44160000  0.30440000  1.0 0.1494619216
H  H301  1  0.47940000  0.05840000  0.19560000  1.0 0.1494619216
H  H302  1  0.05840000  0.47940000  0.26660000  1.0 0.1494619216
H  H303  1  0.26660000  0.19560000  0.05840000  1.0 0.1494619216
H  H304  1  0.19560000  0.26660000  0.47940000  1.0 0.1494619216
H  H305  1  0.26660000  0.47940000  0.19560000  1.0 0.1494619216
H  H306  1  0.19560000  0.05840000  0.26660000  1.0 0.1494619216
H  H307  1  0.47940000  0.26660000  0.05840000  1.0 0.1494619216
H  H308  1  0.05840000  0.19560000  0.47940000  1.0 0.1494619216
H  H309  1  0.05840000  0.26660000  0.19560000  1.0 0.1494619216
H  H310  1  0.47940000  0.19560000  0.26660000  1.0 0.1494619216
H  H311  1  0.19560000  0.47940000  0.05840000  1.0 0.1494619216
H  H312  1  0.26660000  0.05840000  0.47940000  1.0 0.1494619216
H  H313  1  0.97940000  0.55840000  0.76660000  1.0 0.1494619216
H  H314  1  0.55840000  0.97940000  0.69560000  1.0 0.1494619216
H  H315  1  0.76660000  0.69560000  0.97940000  1.0 0.1494619216
H  H316  1  0.69560000  0.76660000  0.55840000  1.0 0.1494619216
H  H317  1  0.76660000  0.97940000  0.55840000  1.0 0.1494619216
H  H318  1  0.69560000  0.55840000  0.97940000  1.0 0.1494619216
H  H319  1  0.97940000  0.76660000  0.69560000  1.0 0.1494619216
H  H320  1  0.55840000  0.69560000  0.76660000  1.0 0.1494619216
H  H321  1  0.55840000  0.76660000  0.97940000  1.0 0.1494619216
H  H322  1  0.97940000  0.69560000  0.55840000  1.0 0.1494619216
H  H323  1  0.69560000  0.97940000  0.76660000  1.0 0.1494619216
H  H324  1  0.76660000  0.55840000  0.69560000  1.0 0.1494619216
H  H325  1  0.52060000  0.94160000  0.80440000  1.0 0.1494619216
H  H326  1  0.94160000  0.52060000  0.73340000  1.0 0.1494619216
H  H327  1  0.73340000  0.80440000  0.94160000  1.0 0.1494619216
H  H328  1  0.80440000  0.73340000  0.52060000  1.0 0.1494619216
H  H329  1  0.73340000  0.52060000  0.80440000  1.0 0.1494619216
H  H330  1  0.80440000  0.94160000  0.73340000  1.0 0.1494619216
H  H331  1  0.52060000  0.73340000  0.94160000  1.0 0.1494619216
H  H332  1  0.94160000  0.80440000  0.52060000  1.0 0.1494619216
H  H333  1  0.94160000  0.73340000  0.80440000  1.0 0.1494619216
H  H334  1  0.52060000  0.80440000  0.73340000  1.0 0.1494619216
H  H335  1  0.80440000  0.52060000  0.94160000  1.0 0.1494619216
H  H336  1  0.73340000  0.94160000  0.52060000  1.0 0.1494619216
H  H337  1  0.98360000  0.47240000  0.26480000  1.0 0.1112436601
H  H338  1  0.47240000  0.98360000  0.27920000  1.0 0.1112436601
H  H339  1  0.26480000  0.27920000  0.98360000  1.0 0.1112436601
H  H340  1  0.27920000  0.26480000  0.47240000  1.0 0.1112436601
H  H341  1  0.26480000  0.98360000  0.47240000  1.0 0.1112436601
H  H342  1  0.27920000  0.47240000  0.98360000  1.0 0.1112436601
H  H343  1  0.98360000  0.26480000  0.27920000  1.0 0.1112436601
H  H344  1  0.47240000  0.27920000  0.26480000  1.0 0.1112436601
H  H345  1  0.47240000  0.26480000  0.98360000  1.0 0.1112436601
H  H346  1  0.98360000  0.27920000  0.47240000  1.0 0.1112436601
H  H347  1  0.27920000  0.98360000  0.26480000  1.0 0.1112436601
H  H348  1  0.26480000  0.47240000  0.27920000  1.0 0.1112436601
H  H349  1  0.51640000  0.02760000  0.22080000  1.0 0.1112436601
H  H350  1  0.02760000  0.51640000  0.23520000  1.0 0.1112436601
H  H351  1  0.23520000  0.22080000  0.02760000  1.0 0.1112436601
H  H352  1  0.22080000  0.23520000  0.51640000  1.0 0.1112436601
H  H353  1  0.23520000  0.51640000  0.22080000  1.0 0.1112436601
H  H354  1  0.22080000  0.02760000  0.23520000  1.0 0.1112436601
H  H355  1  0.51640000  0.23520000  0.02760000  1.0 0.1112436601
H  H356  1  0.02760000  0.22080000  0.51640000  1.0 0.1112436601
H  H357  1  0.02760000  0.23520000  0.22080000  1.0 0.1112436601
H  H358  1  0.51640000  0.22080000  0.23520000  1.0 0.1112436601
H  H359  1  0.22080000  0.51640000  0.02760000  1.0 0.1112436601
H  H360  1  0.23520000  0.02760000  0.51640000  1.0 0.1112436601
H  H361  1  0.01640000  0.52760000  0.73520000  1.0 0.1112436601
H  H362  1  0.52760000  0.01640000  0.72080000  1.0 0.1112436601
H  H363  1  0.73520000  0.72080000  0.01640000  1.0 0.1112436601
H  H364  1  0.72080000  0.73520000  0.52760000  1.0 0.1112436601
H  H365  1  0.73520000  0.01640000  0.52760000  1.0 0.1112436601
H  H366  1  0.72080000  0.52760000  0.01640000  1.0 0.1112436601
H  H367  1  0.01640000  0.73520000  0.72080000  1.0 0.1112436601
H  H368  1  0.52760000  0.72080000  0.73520000  1.0 0.1112436601
H  H369  1  0.52760000  0.73520000  0.01640000  1.0 0.1112436601
H  H370  1  0.01640000  0.72080000  0.52760000  1.0 0.1112436601
H  H371  1  0.72080000  0.01640000  0.73520000  1.0 0.1112436601
H  H372  1  0.73520000  0.52760000  0.72080000  1.0 0.1112436601
H  H373  1  0.48360000  0.97240000  0.77920000  1.0 0.1112436601
H  H374  1  0.97240000  0.48360000  0.76480000  1.0 0.1112436601
H  H375  1  0.76480000  0.77920000  0.97240000  1.0 0.1112436601
H  H376  1  0.77920000  0.76480000  0.48360000  1.0 0.1112436601
H  H377  1  0.76480000  0.48360000  0.77920000  1.0 0.1112436601
H  H378  1  0.77920000  0.97240000  0.76480000  1.0 0.1112436601
H  H379  1  0.48360000  0.76480000  0.97240000  1.0 0.1112436601
H  H380  1  0.97240000  0.77920000  0.48360000  1.0 0.1112436601
H  H381  1  0.97240000  0.76480000  0.77920000  1.0 0.1112436601
H  H382  1  0.48360000  0.77920000  0.76480000  1.0 0.1112436601
H  H383  1  0.77920000  0.48360000  0.97240000  1.0 0.1112436601
H  H384  1  0.76480000  0.97240000  0.48360000  1.0 0.1112436601
H  H385  1  0.98240000  0.48680000  0.21540000  1.0 0.1112436601
H  H386  1  0.48680000  0.98240000  0.31540000  1.0 0.1112436601
H  H387  1  0.21540000  0.31540000  0.98240000  1.0 0.1112436601
H  H388  1  0.31540000  0.21540000  0.48680000  1.0 0.1112436601
H  H389  1  0.21540000  0.98240000  0.48680000  1.0 0.1112436601
H  H390  1  0.31540000  0.48680000  0.98240000  1.0 0.1112436601
H  H391  1  0.98240000  0.21540000  0.31540000  1.0 0.1112436601
H  H392  1  0.48680000  0.31540000  0.21540000  1.0 0.1112436601
H  H393  1  0.48680000  0.21540000  0.98240000  1.0 0.1112436601
H  H394  1  0.98240000  0.31540000  0.48680000  1.0 0.1112436601
H  H395  1  0.31540000  0.98240000  0.21540000  1.0 0.1112436601
H  H396  1  0.21540000  0.48680000  0.31540000  1.0 0.1112436601
H  H397  1  0.51760000  0.01320000  0.18460000  1.0 0.1112436601
H  H398  1  0.01320000  0.51760000  0.28460000  1.0 0.1112436601
H  H399  1  0.28460000  0.18460000  0.01320000  1.0 0.1112436601
H  H400  1  0.18460000  0.28460000  0.51760000  1.0 0.1112436601
H  H401  1  0.28460000  0.51760000  0.18460000  1.0 0.1112436601
H  H402  1  0.18460000  0.01320000  0.28460000  1.0 0.1112436601
H  H403  1  0.51760000  0.28460000  0.01320000  1.0 0.1112436601
H  H404  1  0.01320000  0.18460000  0.51760000  1.0 0.1112436601
H  H405  1  0.01320000  0.28460000  0.18460000  1.0 0.1112436601
H  H406  1  0.51760000  0.18460000  0.28460000  1.0 0.1112436601
H  H407  1  0.18460000  0.51760000  0.01320000  1.0 0.1112436601
H  H408  1  0.28460000  0.01320000  0.51760000  1.0 0.1112436601
H  H409  1  0.01760000  0.51320000  0.78460000  1.0 0.1112436601
H  H410  1  0.51320000  0.01760000  0.68460000  1.0 0.1112436601
H  H411  1  0.78460000  0.68460000  0.01760000  1.0 0.1112436601
H  H412  1  0.68460000  0.78460000  0.51320000  1.0 0.1112436601
H  H413  1  0.78460000  0.01760000  0.51320000  1.0 0.1112436601
H  H414  1  0.68460000  0.51320000  0.01760000  1.0 0.1112436601
H  H415  1  0.01760000  0.78460000  0.68460000  1.0 0.1112436601
H  H416  1  0.51320000  0.68460000  0.78460000  1.0 0.1112436601
H  H417  1  0.51320000  0.78460000  0.01760000  1.0 0.1112436601
H  H418  1  0.01760000  0.68460000  0.51320000  1.0 0.1112436601
H  H419  1  0.68460000  0.01760000  0.78460000  1.0 0.1112436601
H  H420  1  0.78460000  0.51320000  0.68460000  1.0 0.1112436601
H  H421  1  0.48240000  0.98680000  0.81540000  1.0 0.1112436601
H  H422  1  0.98680000  0.48240000  0.71540000  1.0 0.1112436601
H  H423  1  0.71540000  0.81540000  0.98680000  1.0 0.1112436601
H  H424  1  0.81540000  0.71540000  0.48240000  1.0 0.1112436601
H  H425  1  0.71540000  0.48240000  0.81540000  1.0 0.1112436601
H  H426  1  0.81540000  0.98680000  0.71540000  1.0 0.1112436601
H  H427  1  0.48240000  0.71540000  0.98680000  1.0 0.1112436601
H  H428  1  0.98680000  0.81540000  0.48240000  1.0 0.1112436601
H  H429  1  0.98680000  0.71540000  0.81540000  1.0 0.1112436601
H  H430  1  0.48240000  0.81540000  0.71540000  1.0 0.1112436601
H  H431  1  0.81540000  0.48240000  0.98680000  1.0 0.1112436601
H  H432  1  0.71540000  0.98680000  0.48240000  1.0 0.1112436601
C  C1  1  0.94470000  0.44446000  0.13056000  1.0 0.5496370201
C  C2  1  0.44446000  0.94470000  0.48028000  1.0 0.5496370201
C  C3  1  0.13056000  0.48028000  0.94470000  1.0 0.5496370201
C  C4  1  0.48028000  0.13056000  0.44446000  1.0 0.5496370201
C  C5  1  0.13056000  0.94470000  0.44446000  1.0 0.5496370201
C  C6  1  0.48028000  0.44446000  0.94470000  1.0 0.5496370201
C  C7  1  0.94470000  0.13056000  0.48028000  1.0 0.5496370201
C  C8  1  0.44446000  0.48028000  0.13056000  1.0 0.5496370201
C  C9  1  0.44446000  0.13056000  0.94470000  1.0 0.5496370201
C  C10  1  0.94470000  0.48028000  0.44446000  1.0 0.5496370201
C  C11  1  0.48028000  0.94470000  0.13056000  1.0 0.5496370201
C  C12  1  0.13056000  0.44446000  0.48028000  1.0 0.5496370201
C  C13  1  0.55530000  0.05554000  0.01972000  1.0 0.5496370201
C  C14  1  0.05554000  0.55530000  0.36944000  1.0 0.5496370201
C  C15  1  0.36944000  0.01972000  0.05554000  1.0 0.5496370201
C  C16  1  0.01972000  0.36944000  0.55530000  1.0 0.5496370201
C  C17  1  0.36944000  0.55530000  0.01972000  1.0 0.5496370201
C  C18  1  0.01972000  0.05554000  0.36944000  1.0 0.5496370201
C  C19  1  0.55530000  0.36944000  0.05554000  1.0 0.5496370201
C  C20  1  0.05554000  0.01972000  0.55530000  1.0 0.5496370201
C  C21  1  0.05554000  0.36944000  0.01972000  1.0 0.5496370201
C  C22  1  0.55530000  0.01972000  0.36944000  1.0 0.5496370201
C  C23  1  0.01972000  0.55530000  0.05554000  1.0 0.5496370201
C  C24  1  0.36944000  0.05554000  0.55530000  1.0 0.5496370201
C  C25  1  0.05530000  0.55554000  0.86944000  1.0 0.5496370201
C  C26  1  0.55554000  0.05530000  0.51972000  1.0 0.5496370201
C  C27  1  0.86944000  0.51972000  0.05530000  1.0 0.5496370201
C  C28  1  0.51972000  0.86944000  0.55554000  1.0 0.5496370201
C  C29  1  0.86944000  0.05530000  0.55554000  1.0 0.5496370201
C  C30  1  0.51972000  0.55554000  0.05530000  1.0 0.5496370201
C  C31  1  0.05530000  0.86944000  0.51972000  1.0 0.5496370201
C  C32  1  0.55554000  0.51972000  0.86944000  1.0 0.5496370201
C  C33  1  0.55554000  0.86944000  0.05530000  1.0 0.5496370201
C  C34  1  0.05530000  0.51972000  0.55554000  1.0 0.5496370201
C  C35  1  0.51972000  0.05530000  0.86944000  1.0 0.5496370201
C  C36  1  0.86944000  0.55554000  0.51972000  1.0 0.5496370201
C  C37  1  0.44470000  0.94446000  0.98028000  1.0 0.5496370201
C  C38  1  0.94446000  0.44470000  0.63056000  1.0 0.5496370201
C  C39  1  0.63056000  0.98028000  0.94446000  1.0 0.5496370201
C  C40  1  0.98028000  0.63056000  0.44470000  1.0 0.5496370201
C  C41  1  0.63056000  0.44470000  0.98028000  1.0 0.5496370201
C  C42  1  0.98028000  0.94446000  0.63056000  1.0 0.5496370201
C  C43  1  0.44470000  0.63056000  0.94446000  1.0 0.5496370201
C  C44  1  0.94446000  0.98028000  0.44470000  1.0 0.5496370201
C  C45  1  0.94446000  0.63056000  0.98028000  1.0 0.5496370201
C  C46  1  0.44470000  0.98028000  0.63056000  1.0 0.5496370201
C  C47  1  0.98028000  0.44470000  0.94446000  1.0 0.5496370201
C  C48  1  0.63056000  0.94446000  0.44470000  1.0 0.5496370201
C  C49  1  0.95455000  0.43581000  0.19183000  1.0 -0.1328623277
C  C50  1  0.43581000  0.95455000  0.41781000  1.0 -0.1328623277
C  C51  1  0.19183000  0.41781000  0.95455000  1.0 -0.1328623277
C  C52  1  0.41781000  0.19183000  0.43581000  1.0 -0.1328623277
C  C53  1  0.19183000  0.95455000  0.43581000  1.0 -0.1328623277
C  C54  1  0.41781000  0.43581000  0.95455000  1.0 -0.1328623277
C  C55  1  0.95455000  0.19183000  0.41781000  1.0 -0.1328623277
C  C56  1  0.43581000  0.41781000  0.19183000  1.0 -0.1328623277
C  C57  1  0.43581000  0.19183000  0.95455000  1.0 -0.1328623277
C  C58  1  0.95455000  0.41781000  0.43581000  1.0 -0.1328623277
C  C59  1  0.41781000  0.95455000  0.19183000  1.0 -0.1328623277
C  C60  1  0.19183000  0.43581000  0.41781000  1.0 -0.1328623277
C  C61  1  0.54545000  0.06419000  0.08219000  1.0 -0.1328623277
C  C62  1  0.06419000  0.54545000  0.30817000  1.0 -0.1328623277
C  C63  1  0.30817000  0.08219000  0.06419000  1.0 -0.1328623277
C  C64  1  0.08219000  0.30817000  0.54545000  1.0 -0.1328623277
C  C65  1  0.30817000  0.54545000  0.08219000  1.0 -0.1328623277
C  C66  1  0.08219000  0.06419000  0.30817000  1.0 -0.1328623277
C  C67  1  0.54545000  0.30817000  0.06419000  1.0 -0.1328623277
C  C68  1  0.06419000  0.08219000  0.54545000  1.0 -0.1328623277
C  C69  1  0.06419000  0.30817000  0.08219000  1.0 -0.1328623277
C  C70  1  0.54545000  0.08219000  0.30817000  1.0 -0.1328623277
C  C71  1  0.08219000  0.54545000  0.06419000  1.0 -0.1328623277
C  C72  1  0.30817000  0.06419000  0.54545000  1.0 -0.1328623277
C  C73  1  0.04545000  0.56419000  0.80817000  1.0 -0.1328623277
C  C74  1  0.56419000  0.04545000  0.58219000  1.0 -0.1328623277
C  C75  1  0.80817000  0.58219000  0.04545000  1.0 -0.1328623277
C  C76  1  0.58219000  0.80817000  0.56419000  1.0 -0.1328623277
C  C77  1  0.80817000  0.04545000  0.56419000  1.0 -0.1328623277
C  C78  1  0.58219000  0.56419000  0.04545000  1.0 -0.1328623277
C  C79  1  0.04545000  0.80817000  0.58219000  1.0 -0.1328623277
C  C80  1  0.56419000  0.58219000  0.80817000  1.0 -0.1328623277
C  C81  1  0.56419000  0.80817000  0.04545000  1.0 -0.1328623277
C  C82  1  0.04545000  0.58219000  0.56419000  1.0 -0.1328623277
C  C83  1  0.58219000  0.04545000  0.80817000  1.0 -0.1328623277
C  C84  1  0.80817000  0.56419000  0.58219000  1.0 -0.1328623277
C  C85  1  0.45455000  0.93581000  0.91781000  1.0 -0.1328623277
C  C86  1  0.93581000  0.45455000  0.69183000  1.0 -0.1328623277
C  C87  1  0.69183000  0.91781000  0.93581000  1.0 -0.1328623277
C  C88  1  0.91781000  0.69183000  0.45455000  1.0 -0.1328623277
C  C89  1  0.69183000  0.45455000  0.91781000  1.0 -0.1328623277
C  C90  1  0.91781000  0.93581000  0.69183000  1.0 -0.1328623277
C  C91  1  0.45455000  0.69183000  0.93581000  1.0 -0.1328623277
C  C92  1  0.93581000  0.91781000  0.45455000  1.0 -0.1328623277
C  C93  1  0.93581000  0.69183000  0.91781000  1.0 -0.1328623277
C  C94  1  0.45455000  0.91781000  0.69183000  1.0 -0.1328623277
C  C95  1  0.91781000  0.45455000  0.93581000  1.0 -0.1328623277
C  C96  1  0.69183000  0.93581000  0.45455000  1.0 -0.1328623277
C  C97  1  0.95342000  0.41246000  0.17142000  1.0 -0.0397266285
C  C98  1  0.41246000  0.95342000  0.46270000  1.0 -0.0397266285
C  C99  1  0.17142000  0.46270000  0.95342000  1.0 -0.0397266285
C  C100  1  0.46270000  0.17142000  0.41246000  1.0 -0.0397266285
C  C101  1  0.17142000  0.95342000  0.41246000  1.0 -0.0397266285
C  C102  1  0.46270000  0.41246000  0.95342000  1.0 -0.0397266285
C  C103  1  0.95342000  0.17142000  0.46270000  1.0 -0.0397266285
C  C104  1  0.41246000  0.46270000  0.17142000  1.0 -0.0397266285
C  C105  1  0.41246000  0.17142000  0.95342000  1.0 -0.0397266285
C  C106  1  0.95342000  0.46270000  0.41246000  1.0 -0.0397266285
C  C107  1  0.46270000  0.95342000  0.17142000  1.0 -0.0397266285
C  C108  1  0.17142000  0.41246000  0.46270000  1.0 -0.0397266285
C  C109  1  0.54658000  0.08754000  0.03730000  1.0 -0.0397266285
C  C110  1  0.08754000  0.54658000  0.32858000  1.0 -0.0397266285
C  C111  1  0.32858000  0.03730000  0.08754000  1.0 -0.0397266285
C  C112  1  0.03730000  0.32858000  0.54658000  1.0 -0.0397266285
C  C113  1  0.32858000  0.54658000  0.03730000  1.0 -0.0397266285
C  C114  1  0.03730000  0.08754000  0.32858000  1.0 -0.0397266285
C  C115  1  0.54658000  0.32858000  0.08754000  1.0 -0.0397266285
C  C116  1  0.08754000  0.03730000  0.54658000  1.0 -0.0397266285
C  C117  1  0.08754000  0.32858000  0.03730000  1.0 -0.0397266285
C  C118  1  0.54658000  0.03730000  0.32858000  1.0 -0.0397266285
C  C119  1  0.03730000  0.54658000  0.08754000  1.0 -0.0397266285
C  C120  1  0.32858000  0.08754000  0.54658000  1.0 -0.0397266285
C  C121  1  0.04658000  0.58754000  0.82858000  1.0 -0.0397266285
C  C122  1  0.58754000  0.04658000  0.53730000  1.0 -0.0397266285
C  C123  1  0.82858000  0.53730000  0.04658000  1.0 -0.0397266285
C  C124  1  0.53730000  0.82858000  0.58754000  1.0 -0.0397266285
C  C125  1  0.82858000  0.04658000  0.58754000  1.0 -0.0397266285
C  C126  1  0.53730000  0.58754000  0.04658000  1.0 -0.0397266285
C  C127  1  0.04658000  0.82858000  0.53730000  1.0 -0.0397266285
C  C128  1  0.58754000  0.53730000  0.82858000  1.0 -0.0397266285
C  C129  1  0.58754000  0.82858000  0.04658000  1.0 -0.0397266285
C  C130  1  0.04658000  0.53730000  0.58754000  1.0 -0.0397266285
C  C131  1  0.53730000  0.04658000  0.82858000  1.0 -0.0397266285
C  C132  1  0.82858000  0.58754000  0.53730000  1.0 -0.0397266285
C  C133  1  0.45342000  0.91246000  0.96270000  1.0 -0.0397266285
C  C134  1  0.91246000  0.45342000  0.67142000  1.0 -0.0397266285
C  C135  1  0.67142000  0.96270000  0.91246000  1.0 -0.0397266285
C  C136  1  0.96270000  0.67142000  0.45342000  1.0 -0.0397266285
C  C137  1  0.67142000  0.45342000  0.96270000  1.0 -0.0397266285
C  C138  1  0.96270000  0.91246000  0.67142000  1.0 -0.0397266285
C  C139  1  0.45342000  0.67142000  0.91246000  1.0 -0.0397266285
C  C140  1  0.91246000  0.96270000  0.45342000  1.0 -0.0397266285
C  C141  1  0.91246000  0.67142000  0.96270000  1.0 -0.0397266285
C  C142  1  0.45342000  0.96270000  0.67142000  1.0 -0.0397266285
C  C143  1  0.96270000  0.45342000  0.91246000  1.0 -0.0397266285
C  C144  1  0.67142000  0.91246000  0.45342000  1.0 -0.0397266285
C  C145  1  0.95361000  0.36787000  0.19509000  1.0 -0.0983336141
C  C146  1  0.36787000  0.95361000  0.48343000  1.0 -0.0983336141
C  C147  1  0.19509000  0.48343000  0.95361000  1.0 -0.0983336141
C  C148  1  0.48343000  0.19509000  0.36787000  1.0 -0.0983336141
C  C149  1  0.19509000  0.95361000  0.36787000  1.0 -0.0983336141
C  C150  1  0.48343000  0.36787000  0.95361000  1.0 -0.0983336141
C  C151  1  0.95361000  0.19509000  0.48343000  1.0 -0.0983336141
C  C152  1  0.36787000  0.48343000  0.19509000  1.0 -0.0983336141
C  C153  1  0.36787000  0.19509000  0.95361000  1.0 -0.0983336141
C  C154  1  0.95361000  0.48343000  0.36787000  1.0 -0.0983336141
C  C155  1  0.48343000  0.95361000  0.19509000  1.0 -0.0983336141
C  C156  1  0.19509000  0.36787000  0.48343000  1.0 -0.0983336141
C  C157  1  0.54639000  0.13213000  0.01657000  1.0 -0.0983336141
C  C158  1  0.13213000  0.54639000  0.30491000  1.0 -0.0983336141
C  C159  1  0.30491000  0.01657000  0.13213000  1.0 -0.0983336141
C  C160  1  0.01657000  0.30491000  0.54639000  1.0 -0.0983336141
C  C161  1  0.30491000  0.54639000  0.01657000  1.0 -0.0983336141
C  C162  1  0.01657000  0.13213000  0.30491000  1.0 -0.0983336141
C  C163  1  0.54639000  0.30491000  0.13213000  1.0 -0.0983336141
C  C164  1  0.13213000  0.01657000  0.54639000  1.0 -0.0983336141
C  C165  1  0.13213000  0.30491000  0.01657000  1.0 -0.0983336141
C  C166  1  0.54639000  0.01657000  0.30491000  1.0 -0.0983336141
C  C167  1  0.01657000  0.54639000  0.13213000  1.0 -0.0983336141
C  C168  1  0.30491000  0.13213000  0.54639000  1.0 -0.0983336141
C  C169  1  0.04639000  0.63213000  0.80491000  1.0 -0.0983336141
C  C170  1  0.63213000  0.04639000  0.51657000  1.0 -0.0983336141
C  C171  1  0.80491000  0.51657000  0.04639000  1.0 -0.0983336141
C  C172  1  0.51657000  0.80491000  0.63213000  1.0 -0.0983336141
C  C173  1  0.80491000  0.04639000  0.63213000  1.0 -0.0983336141
C  C174  1  0.51657000  0.63213000  0.04639000  1.0 -0.0983336141
C  C175  1  0.04639000  0.80491000  0.51657000  1.0 -0.0983336141
C  C176  1  0.63213000  0.51657000  0.80491000  1.0 -0.0983336141
C  C177  1  0.63213000  0.80491000  0.04639000  1.0 -0.0983336141
C  C178  1  0.04639000  0.51657000  0.63213000  1.0 -0.0983336141
C  C179  1  0.51657000  0.04639000  0.80491000  1.0 -0.0983336141
C  C180  1  0.80491000  0.63213000  0.51657000  1.0 -0.0983336141
C  C181  1  0.45361000  0.86787000  0.98343000  1.0 -0.0983336141
C  C182  1  0.86787000  0.45361000  0.69509000  1.0 -0.0983336141
C  C183  1  0.69509000  0.98343000  0.86787000  1.0 -0.0983336141
C  C184  1  0.98343000  0.69509000  0.45361000  1.0 -0.0983336141
C  C185  1  0.69509000  0.45361000  0.98343000  1.0 -0.0983336141
C  C186  1  0.98343000  0.86787000  0.69509000  1.0 -0.0983336141
C  C187  1  0.45361000  0.69509000  0.86787000  1.0 -0.0983336141
C  C188  1  0.86787000  0.98343000  0.45361000  1.0 -0.0983336141
C  C189  1  0.86787000  0.69509000  0.98343000  1.0 -0.0983336141
C  C190  1  0.45361000  0.98343000  0.69509000  1.0 -0.0983336141
C  C191  1  0.98343000  0.45361000  0.86787000  1.0 -0.0983336141
C  C192  1  0.69509000  0.86787000  0.45361000  1.0 -0.0983336141
C  C193  1  0.95495000  0.34661000  0.23917000  1.0 -0.1145771729
C  C194  1  0.34661000  0.95495000  0.45927000  1.0 -0.1145771729
C  C195  1  0.23917000  0.45927000  0.95495000  1.0 -0.1145771729
C  C196  1  0.45927000  0.23917000  0.34661000  1.0 -0.1145771729
C  C197  1  0.23917000  0.95495000  0.34661000  1.0 -0.1145771729
C  C198  1  0.45927000  0.34661000  0.95495000  1.0 -0.1145771729
C  C199  1  0.95495000  0.23917000  0.45927000  1.0 -0.1145771729
C  C200  1  0.34661000  0.45927000  0.23917000  1.0 -0.1145771729
C  C201  1  0.34661000  0.23917000  0.95495000  1.0 -0.1145771729
C  C202  1  0.95495000  0.45927000  0.34661000  1.0 -0.1145771729
C  C203  1  0.45927000  0.95495000  0.23917000  1.0 -0.1145771729
C  C204  1  0.23917000  0.34661000  0.45927000  1.0 -0.1145771729
C  C205  1  0.54505000  0.15339000  0.04073000  1.0 -0.1145771729
C  C206  1  0.15339000  0.54505000  0.26083000  1.0 -0.1145771729
C  C207  1  0.26083000  0.04073000  0.15339000  1.0 -0.1145771729
C  C208  1  0.04073000  0.26083000  0.54505000  1.0 -0.1145771729
C  C209  1  0.26083000  0.54505000  0.04073000  1.0 -0.1145771729
C  C210  1  0.04073000  0.15339000  0.26083000  1.0 -0.1145771729
C  C211  1  0.54505000  0.26083000  0.15339000  1.0 -0.1145771729
C  C212  1  0.15339000  0.04073000  0.54505000  1.0 -0.1145771729
C  C213  1  0.15339000  0.26083000  0.04073000  1.0 -0.1145771729
C  C214  1  0.54505000  0.04073000  0.26083000  1.0 -0.1145771729
C  C215  1  0.04073000  0.54505000  0.15339000  1.0 -0.1145771729
C  C216  1  0.26083000  0.15339000  0.54505000  1.0 -0.1145771729
C  C217  1  0.04505000  0.65339000  0.76083000  1.0 -0.1145771729
C  C218  1  0.65339000  0.04505000  0.54073000  1.0 -0.1145771729
C  C219  1  0.76083000  0.54073000  0.04505000  1.0 -0.1145771729
C  C220  1  0.54073000  0.76083000  0.65339000  1.0 -0.1145771729
C  C221  1  0.76083000  0.04505000  0.65339000  1.0 -0.1145771729
C  C222  1  0.54073000  0.65339000  0.04505000  1.0 -0.1145771729
C  C223  1  0.04505000  0.76083000  0.54073000  1.0 -0.1145771729
C  C224  1  0.65339000  0.54073000  0.76083000  1.0 -0.1145771729
C  C225  1  0.65339000  0.76083000  0.04505000  1.0 -0.1145771729
C  C226  1  0.04505000  0.54073000  0.65339000  1.0 -0.1145771729
C  C227  1  0.54073000  0.04505000  0.76083000  1.0 -0.1145771729
C  C228  1  0.76083000  0.65339000  0.54073000  1.0 -0.1145771729
C  C229  1  0.45495000  0.84661000  0.95927000  1.0 -0.1145771729
C  C230  1  0.84661000  0.45495000  0.73917000  1.0 -0.1145771729
C  C231  1  0.73917000  0.95927000  0.84661000  1.0 -0.1145771729
C  C232  1  0.95927000  0.73917000  0.45495000  1.0 -0.1145771729
C  C233  1  0.73917000  0.45495000  0.95927000  1.0 -0.1145771729
C  C234  1  0.95927000  0.84661000  0.73917000  1.0 -0.1145771729
C  C235  1  0.45495000  0.73917000  0.84661000  1.0 -0.1145771729
C  C236  1  0.84661000  0.95927000  0.45495000  1.0 -0.1145771729
C  C237  1  0.84661000  0.73917000  0.95927000  1.0 -0.1145771729
C  C238  1  0.45495000  0.95927000  0.73917000  1.0 -0.1145771729
C  C239  1  0.95927000  0.45495000  0.84661000  1.0 -0.1145771729
C  C240  1  0.73917000  0.84661000  0.45495000  1.0 -0.1145771729
C  C241  1  0.95107000  0.37209000  0.26153000  1.0 0.0039052894
C  C242  1  0.37209000  0.95107000  0.41531000  1.0 0.0039052894
C  C243  1  0.26153000  0.41531000  0.95107000  1.0 0.0039052894
C  C244  1  0.41531000  0.26153000  0.37209000  1.0 0.0039052894
C  C245  1  0.26153000  0.95107000  0.37209000  1.0 0.0039052894
C  C246  1  0.41531000  0.37209000  0.95107000  1.0 0.0039052894
C  C247  1  0.95107000  0.26153000  0.41531000  1.0 0.0039052894
C  C248  1  0.37209000  0.41531000  0.26153000  1.0 0.0039052894
C  C249  1  0.37209000  0.26153000  0.95107000  1.0 0.0039052894
C  C250  1  0.95107000  0.41531000  0.37209000  1.0 0.0039052894
C  C251  1  0.41531000  0.95107000  0.26153000  1.0 0.0039052894
C  C252  1  0.26153000  0.37209000  0.41531000  1.0 0.0039052894
C  C253  1  0.54893000  0.12791000  0.08469000  1.0 0.0039052894
C  C254  1  0.12791000  0.54893000  0.23847000  1.0 0.0039052894
C  C255  1  0.23847000  0.08469000  0.12791000  1.0 0.0039052894
C  C256  1  0.08469000  0.23847000  0.54893000  1.0 0.0039052894
C  C257  1  0.23847000  0.54893000  0.08469000  1.0 0.0039052894
C  C258  1  0.08469000  0.12791000  0.23847000  1.0 0.0039052894
C  C259  1  0.54893000  0.23847000  0.12791000  1.0 0.0039052894
C  C260  1  0.12791000  0.08469000  0.54893000  1.0 0.0039052894
C  C261  1  0.12791000  0.23847000  0.08469000  1.0 0.0039052894
C  C262  1  0.54893000  0.08469000  0.23847000  1.0 0.0039052894
C  C263  1  0.08469000  0.54893000  0.12791000  1.0 0.0039052894
C  C264  1  0.23847000  0.12791000  0.54893000  1.0 0.0039052894
C  C265  1  0.04893000  0.62791000  0.73847000  1.0 0.0039052894
C  C266  1  0.62791000  0.04893000  0.58469000  1.0 0.0039052894
C  C267  1  0.73847000  0.58469000  0.04893000  1.0 0.0039052894
C  C268  1  0.58469000  0.73847000  0.62791000  1.0 0.0039052894
C  C269  1  0.73847000  0.04893000  0.62791000  1.0 0.0039052894
C  C270  1  0.58469000  0.62791000  0.04893000  1.0 0.0039052894
C  C271  1  0.04893000  0.73847000  0.58469000  1.0 0.0039052894
C  C272  1  0.62791000  0.58469000  0.73847000  1.0 0.0039052894
C  C273  1  0.62791000  0.73847000  0.04893000  1.0 0.0039052894
C  C274  1  0.04893000  0.58469000  0.62791000  1.0 0.0039052894
C  C275  1  0.58469000  0.04893000  0.73847000  1.0 0.0039052894
C  C276  1  0.73847000  0.62791000  0.58469000  1.0 0.0039052894
C  C277  1  0.45107000  0.87209000  0.91531000  1.0 0.0039052894
C  C278  1  0.87209000  0.45107000  0.76153000  1.0 0.0039052894
C  C279  1  0.76153000  0.91531000  0.87209000  1.0 0.0039052894
C  C280  1  0.91531000  0.76153000  0.45107000  1.0 0.0039052894
C  C281  1  0.76153000  0.45107000  0.91531000  1.0 0.0039052894
C  C282  1  0.91531000  0.87209000  0.76153000  1.0 0.0039052894
C  C283  1  0.45107000  0.76153000  0.87209000  1.0 0.0039052894
C  C284  1  0.87209000  0.91531000  0.45107000  1.0 0.0039052894
C  C285  1  0.87209000  0.76153000  0.91531000  1.0 0.0039052894
C  C286  1  0.45107000  0.91531000  0.76153000  1.0 0.0039052894
C  C287  1  0.91531000  0.45107000  0.87209000  1.0 0.0039052894
C  C288  1  0.76153000  0.87209000  0.45107000  1.0 0.0039052894
C  C289  1  0.95583000  0.41479000  0.23591000  1.0 0.0151278092
C  C290  1  0.41479000  0.95583000  0.39347000  1.0 0.0151278092
C  C291  1  0.23591000  0.39347000  0.95583000  1.0 0.0151278092
C  C292  1  0.39347000  0.23591000  0.41479000  1.0 0.0151278092
C  C293  1  0.23591000  0.95583000  0.41479000  1.0 0.0151278092
C  C294  1  0.39347000  0.41479000  0.95583000  1.0 0.0151278092
C  C295  1  0.95583000  0.23591000  0.39347000  1.0 0.0151278092
C  C296  1  0.41479000  0.39347000  0.23591000  1.0 0.0151278092
C  C297  1  0.41479000  0.23591000  0.95583000  1.0 0.0151278092
C  C298  1  0.95583000  0.39347000  0.41479000  1.0 0.0151278092
C  C299  1  0.39347000  0.95583000  0.23591000  1.0 0.0151278092
C  C300  1  0.23591000  0.41479000  0.39347000  1.0 0.0151278092
C  C301  1  0.54417000  0.08521000  0.10653000  1.0 0.0151278092
C  C302  1  0.08521000  0.54417000  0.26409000  1.0 0.0151278092
C  C303  1  0.26409000  0.10653000  0.08521000  1.0 0.0151278092
C  C304  1  0.10653000  0.26409000  0.54417000  1.0 0.0151278092
C  C305  1  0.26409000  0.54417000  0.10653000  1.0 0.0151278092
C  C306  1  0.10653000  0.08521000  0.26409000  1.0 0.0151278092
C  C307  1  0.54417000  0.26409000  0.08521000  1.0 0.0151278092
C  C308  1  0.08521000  0.10653000  0.54417000  1.0 0.0151278092
C  C309  1  0.08521000  0.26409000  0.10653000  1.0 0.0151278092
C  C310  1  0.54417000  0.10653000  0.26409000  1.0 0.0151278092
C  C311  1  0.10653000  0.54417000  0.08521000  1.0 0.0151278092
C  C312  1  0.26409000  0.08521000  0.54417000  1.0 0.0151278092
C  C313  1  0.04417000  0.58521000  0.76409000  1.0 0.0151278092
C  C314  1  0.58521000  0.04417000  0.60653000  1.0 0.0151278092
C  C315  1  0.76409000  0.60653000  0.04417000  1.0 0.0151278092
C  C316  1  0.60653000  0.76409000  0.58521000  1.0 0.0151278092
C  C317  1  0.76409000  0.04417000  0.58521000  1.0 0.0151278092
C  C318  1  0.60653000  0.58521000  0.04417000  1.0 0.0151278092
C  C319  1  0.04417000  0.76409000  0.60653000  1.0 0.0151278092
C  C320  1  0.58521000  0.60653000  0.76409000  1.0 0.0151278092
C  C321  1  0.58521000  0.76409000  0.04417000  1.0 0.0151278092
C  C322  1  0.04417000  0.60653000  0.58521000  1.0 0.0151278092
C  C323  1  0.60653000  0.04417000  0.76409000  1.0 0.0151278092
C  C324  1  0.76409000  0.58521000  0.60653000  1.0 0.0151278092
C  C325  1  0.45583000  0.91479000  0.89347000  1.0 0.0151278092
C  C326  1  0.91479000  0.45583000  0.73591000  1.0 0.0151278092
C  C327  1  0.73591000  0.89347000  0.91479000  1.0 0.0151278092
C  C328  1  0.89347000  0.73591000  0.45583000  1.0 0.0151278092
C  C329  1  0.73591000  0.45583000  0.89347000  1.0 0.0151278092
C  C330  1  0.89347000  0.91479000  0.73591000  1.0 0.0151278092
C  C331  1  0.45583000  0.73591000  0.91479000  1.0 0.0151278092
C  C332  1  0.91479000  0.89347000  0.45583000  1.0 0.0151278092
C  C333  1  0.91479000  0.73591000  0.89347000  1.0 0.0151278092
C  C334  1  0.45583000  0.89347000  0.73591000  1.0 0.0151278092
C  C335  1  0.89347000  0.45583000  0.91479000  1.0 0.0151278092
C  C336  1  0.73591000  0.91479000  0.45583000  1.0 0.0151278092
C  C337  1  0.95452000  0.43090000  0.26486000  1.0 0.1295069266
C  C338  1  0.43090000  0.95452000  0.34972000  1.0 0.1295069266
C  C339  1  0.26486000  0.34972000  0.95452000  1.0 0.1295069266
C  C340  1  0.34972000  0.26486000  0.43090000  1.0 0.1295069266
C  C341  1  0.26486000  0.95452000  0.43090000  1.0 0.1295069266
C  C342  1  0.34972000  0.43090000  0.95452000  1.0 0.1295069266
C  C343  1  0.95452000  0.26486000  0.34972000  1.0 0.1295069266
C  C344  1  0.43090000  0.34972000  0.26486000  1.0 0.1295069266
C  C345  1  0.43090000  0.26486000  0.95452000  1.0 0.1295069266
C  C346  1  0.95452000  0.34972000  0.43090000  1.0 0.1295069266
C  C347  1  0.34972000  0.95452000  0.26486000  1.0 0.1295069266
C  C348  1  0.26486000  0.43090000  0.34972000  1.0 0.1295069266
C  C349  1  0.54548000  0.06910000  0.15028000  1.0 0.1295069266
C  C350  1  0.06910000  0.54548000  0.23514000  1.0 0.1295069266
C  C351  1  0.23514000  0.15028000  0.06910000  1.0 0.1295069266
C  C352  1  0.15028000  0.23514000  0.54548000  1.0 0.1295069266
C  C353  1  0.23514000  0.54548000  0.15028000  1.0 0.1295069266
C  C354  1  0.15028000  0.06910000  0.23514000  1.0 0.1295069266
C  C355  1  0.54548000  0.23514000  0.06910000  1.0 0.1295069266
C  C356  1  0.06910000  0.15028000  0.54548000  1.0 0.1295069266
C  C357  1  0.06910000  0.23514000  0.15028000  1.0 0.1295069266
C  C358  1  0.54548000  0.15028000  0.23514000  1.0 0.1295069266
C  C359  1  0.15028000  0.54548000  0.06910000  1.0 0.1295069266
C  C360  1  0.23514000  0.06910000  0.54548000  1.0 0.1295069266
C  C361  1  0.04548000  0.56910000  0.73514000  1.0 0.1295069266
C  C362  1  0.56910000  0.04548000  0.65028000  1.0 0.1295069266
C  C363  1  0.73514000  0.65028000  0.04548000  1.0 0.1295069266
C  C364  1  0.65028000  0.73514000  0.56910000  1.0 0.1295069266
C  C365  1  0.73514000  0.04548000  0.56910000  1.0 0.1295069266
C  C366  1  0.65028000  0.56910000  0.04548000  1.0 0.1295069266
C  C367  1  0.04548000  0.73514000  0.65028000  1.0 0.1295069266
C  C368  1  0.56910000  0.65028000  0.73514000  1.0 0.1295069266
C  C369  1  0.56910000  0.73514000  0.04548000  1.0 0.1295069266
C  C370  1  0.04548000  0.65028000  0.56910000  1.0 0.1295069266
C  C371  1  0.65028000  0.04548000  0.73514000  1.0 0.1295069266
C  C372  1  0.73514000  0.56910000  0.65028000  1.0 0.1295069266
C  C373  1  0.45452000  0.93090000  0.84972000  1.0 0.1295069266
C  C374  1  0.93090000  0.45452000  0.76486000  1.0 0.1295069266
C  C375  1  0.76486000  0.84972000  0.93090000  1.0 0.1295069266
C  C376  1  0.84972000  0.76486000  0.45452000  1.0 0.1295069266
C  C377  1  0.76486000  0.45452000  0.84972000  1.0 0.1295069266
C  C378  1  0.84972000  0.93090000  0.76486000  1.0 0.1295069266
C  C379  1  0.45452000  0.76486000  0.93090000  1.0 0.1295069266
C  C380  1  0.93090000  0.84972000  0.45452000  1.0 0.1295069266
C  C381  1  0.93090000  0.76486000  0.84972000  1.0 0.1295069266
C  C382  1  0.45452000  0.84972000  0.76486000  1.0 0.1295069266
C  C383  1  0.84972000  0.45452000  0.93090000  1.0 0.1295069266
C  C384  1  0.76486000  0.93090000  0.45452000  1.0 0.1295069266
C  C385  1  0.94645000  0.39911000  0.30857000  1.0 -0.0397266285
C  C386  1  0.39911000  0.94645000  0.34587000  1.0 -0.0397266285
C  C387  1  0.30857000  0.34587000  0.94645000  1.0 -0.0397266285
C  C388  1  0.34587000  0.30857000  0.39911000  1.0 -0.0397266285
C  C389  1  0.30857000  0.94645000  0.39911000  1.0 -0.0397266285
C  C390  1  0.34587000  0.39911000  0.94645000  1.0 -0.0397266285
C  C391  1  0.94645000  0.30857000  0.34587000  1.0 -0.0397266285
C  C392  1  0.39911000  0.34587000  0.30857000  1.0 -0.0397266285
C  C393  1  0.39911000  0.30857000  0.94645000  1.0 -0.0397266285
C  C394  1  0.94645000  0.34587000  0.39911000  1.0 -0.0397266285
C  C395  1  0.34587000  0.94645000  0.30857000  1.0 -0.0397266285
C  C396  1  0.30857000  0.39911000  0.34587000  1.0 -0.0397266285
C  C397  1  0.55355000  0.10089000  0.15413000  1.0 -0.0397266285
C  C398  1  0.10089000  0.55355000  0.19143000  1.0 -0.0397266285
C  C399  1  0.19143000  0.15413000  0.10089000  1.0 -0.0397266285
C  C400  1  0.15413000  0.19143000  0.55355000  1.0 -0.0397266285
C  C401  1  0.19143000  0.55355000  0.15413000  1.0 -0.0397266285
C  C402  1  0.15413000  0.10089000  0.19143000  1.0 -0.0397266285
C  C403  1  0.55355000  0.19143000  0.10089000  1.0 -0.0397266285
C  C404  1  0.10089000  0.15413000  0.55355000  1.0 -0.0397266285
C  C405  1  0.10089000  0.19143000  0.15413000  1.0 -0.0397266285
C  C406  1  0.55355000  0.15413000  0.19143000  1.0 -0.0397266285
C  C407  1  0.15413000  0.55355000  0.10089000  1.0 -0.0397266285
C  C408  1  0.19143000  0.10089000  0.55355000  1.0 -0.0397266285
C  C409  1  0.05355000  0.60089000  0.69143000  1.0 -0.0397266285
C  C410  1  0.60089000  0.05355000  0.65413000  1.0 -0.0397266285
C  C411  1  0.69143000  0.65413000  0.05355000  1.0 -0.0397266285
C  C412  1  0.65413000  0.69143000  0.60089000  1.0 -0.0397266285
C  C413  1  0.69143000  0.05355000  0.60089000  1.0 -0.0397266285
C  C414  1  0.65413000  0.60089000  0.05355000  1.0 -0.0397266285
C  C415  1  0.05355000  0.69143000  0.65413000  1.0 -0.0397266285
C  C416  1  0.60089000  0.65413000  0.69143000  1.0 -0.0397266285
C  C417  1  0.60089000  0.69143000  0.05355000  1.0 -0.0397266285
C  C418  1  0.05355000  0.65413000  0.60089000  1.0 -0.0397266285
C  C419  1  0.65413000  0.05355000  0.69143000  1.0 -0.0397266285
C  C420  1  0.69143000  0.60089000  0.65413000  1.0 -0.0397266285
C  C421  1  0.44645000  0.89911000  0.84587000  1.0 -0.0397266285
C  C422  1  0.89911000  0.44645000  0.80857000  1.0 -0.0397266285
C  C423  1  0.80857000  0.84587000  0.89911000  1.0 -0.0397266285
C  C424  1  0.84587000  0.80857000  0.44645000  1.0 -0.0397266285
C  C425  1  0.80857000  0.44645000  0.84587000  1.0 -0.0397266285
C  C426  1  0.84587000  0.89911000  0.80857000  1.0 -0.0397266285
C  C427  1  0.44645000  0.80857000  0.89911000  1.0 -0.0397266285
C  C428  1  0.89911000  0.84587000  0.44645000  1.0 -0.0397266285
C  C429  1  0.89911000  0.80857000  0.84587000  1.0 -0.0397266285
C  C430  1  0.44645000  0.84587000  0.80857000  1.0 -0.0397266285
C  C431  1  0.84587000  0.44645000  0.89911000  1.0 -0.0397266285
C  C432  1  0.80857000  0.89911000  0.44645000  1.0 -0.0397266285
C  C433  1  0.94849000  0.36097000  0.30567000  1.0 0.0069737269
C  C434  1  0.36097000  0.94849000  0.38487000  1.0 0.0069737269
C  C435  1  0.30567000  0.38487000  0.94849000  1.0 0.0069737269
C  C436  1  0.38487000  0.30567000  0.36097000  1.0 0.0069737269
C  C437  1  0.30567000  0.94849000  0.36097000  1.0 0.0069737269
C  C438  1  0.38487000  0.36097000  0.94849000  1.0 0.0069737269
C  C439  1  0.94849000  0.30567000  0.38487000  1.0 0.0069737269
C  C440  1  0.36097000  0.38487000  0.30567000  1.0 0.0069737269
C  C441  1  0.36097000  0.30567000  0.94849000  1.0 0.0069737269
C  C442  1  0.94849000  0.38487000  0.36097000  1.0 0.0069737269
C  C443  1  0.38487000  0.94849000  0.30567000  1.0 0.0069737269
C  C444  1  0.30567000  0.36097000  0.38487000  1.0 0.0069737269
C  C445  1  0.55151000  0.13903000  0.11513000  1.0 0.0069737269
C  C446  1  0.13903000  0.55151000  0.19433000  1.0 0.0069737269
C  C447  1  0.19433000  0.11513000  0.13903000  1.0 0.0069737269
C  C448  1  0.11513000  0.19433000  0.55151000  1.0 0.0069737269
C  C449  1  0.19433000  0.55151000  0.11513000  1.0 0.0069737269
C  C450  1  0.11513000  0.13903000  0.19433000  1.0 0.0069737269
C  C451  1  0.55151000  0.19433000  0.13903000  1.0 0.0069737269
C  C452  1  0.13903000  0.11513000  0.55151000  1.0 0.0069737269
C  C453  1  0.13903000  0.19433000  0.11513000  1.0 0.0069737269
C  C454  1  0.55151000  0.11513000  0.19433000  1.0 0.0069737269
C  C455  1  0.11513000  0.55151000  0.13903000  1.0 0.0069737269
C  C456  1  0.19433000  0.13903000  0.55151000  1.0 0.0069737269
C  C457  1  0.05151000  0.63903000  0.69433000  1.0 0.0069737269
C  C458  1  0.63903000  0.05151000  0.61513000  1.0 0.0069737269
C  C459  1  0.69433000  0.61513000  0.05151000  1.0 0.0069737269
C  C460  1  0.61513000  0.69433000  0.63903000  1.0 0.0069737269
C  C461  1  0.69433000  0.05151000  0.63903000  1.0 0.0069737269
C  C462  1  0.61513000  0.63903000  0.05151000  1.0 0.0069737269
C  C463  1  0.05151000  0.69433000  0.61513000  1.0 0.0069737269
C  C464  1  0.63903000  0.61513000  0.69433000  1.0 0.0069737269
C  C465  1  0.63903000  0.69433000  0.05151000  1.0 0.0069737269
C  C466  1  0.05151000  0.61513000  0.63903000  1.0 0.0069737269
C  C467  1  0.61513000  0.05151000  0.69433000  1.0 0.0069737269
C  C468  1  0.69433000  0.63903000  0.61513000  1.0 0.0069737269
C  C469  1  0.44849000  0.86097000  0.88487000  1.0 0.0069737269
C  C470  1  0.86097000  0.44849000  0.80567000  1.0 0.0069737269
C  C471  1  0.80567000  0.88487000  0.86097000  1.0 0.0069737269
C  C472  1  0.88487000  0.80567000  0.44849000  1.0 0.0069737269
C  C473  1  0.80567000  0.44849000  0.88487000  1.0 0.0069737269
C  C474  1  0.88487000  0.86097000  0.80567000  1.0 0.0069737269
C  C475  1  0.44849000  0.80567000  0.86097000  1.0 0.0069737269
C  C476  1  0.86097000  0.88487000  0.44849000  1.0 0.0069737269
C  C477  1  0.86097000  0.80567000  0.88487000  1.0 0.0069737269
C  C478  1  0.44849000  0.88487000  0.80567000  1.0 0.0069737269
C  C479  1  0.88487000  0.44849000  0.86097000  1.0 0.0069737269
C  C480  1  0.80567000  0.86097000  0.44849000  1.0 0.0069737269
C  C481  1  0.91768000  0.47222000  0.27196000  1.0 -0.3944260175
C  C482  1  0.47222000  0.91768000  0.33814000  1.0 -0.3944260175
C  C483  1  0.27196000  0.33814000  0.91768000  1.0 -0.3944260175
C  C484  1  0.33814000  0.27196000  0.47222000  1.0 -0.3944260175
C  C485  1  0.27196000  0.91768000  0.47222000  1.0 -0.3944260175
C  C486  1  0.33814000  0.47222000  0.91768000  1.0 -0.3944260175
C  C487  1  0.91768000  0.27196000  0.33814000  1.0 -0.3944260175
C  C488  1  0.47222000  0.33814000  0.27196000  1.0 -0.3944260175
C  C489  1  0.47222000  0.27196000  0.91768000  1.0 -0.3944260175
C  C490  1  0.91768000  0.33814000  0.47222000  1.0 -0.3944260175
C  C491  1  0.33814000  0.91768000  0.27196000  1.0 -0.3944260175
C  C492  1  0.27196000  0.47222000  0.33814000  1.0 -0.3944260175
C  C493  1  0.58232000  0.02778000  0.16186000  1.0 -0.3944260175
C  C494  1  0.02778000  0.58232000  0.22804000  1.0 -0.3944260175
C  C495  1  0.22804000  0.16186000  0.02778000  1.0 -0.3944260175
C  C496  1  0.16186000  0.22804000  0.58232000  1.0 -0.3944260175
C  C497  1  0.22804000  0.58232000  0.16186000  1.0 -0.3944260175
C  C498  1  0.16186000  0.02778000  0.22804000  1.0 -0.3944260175
C  C499  1  0.58232000  0.22804000  0.02778000  1.0 -0.3944260175
C  C500  1  0.02778000  0.16186000  0.58232000  1.0 -0.3944260175
C  C501  1  0.02778000  0.22804000  0.16186000  1.0 -0.3944260175
C  C502  1  0.58232000  0.16186000  0.22804000  1.0 -0.3944260175
C  C503  1  0.16186000  0.58232000  0.02778000  1.0 -0.3944260175
C  C504  1  0.22804000  0.02778000  0.58232000  1.0 -0.3944260175
C  C505  1  0.08232000  0.52778000  0.72804000  1.0 -0.3944260175
C  C506  1  0.52778000  0.08232000  0.66186000  1.0 -0.3944260175
C  C507  1  0.72804000  0.66186000  0.08232000  1.0 -0.3944260175
C  C508  1  0.66186000  0.72804000  0.52778000  1.0 -0.3944260175
C  C509  1  0.72804000  0.08232000  0.52778000  1.0 -0.3944260175
C  C510  1  0.66186000  0.52778000  0.08232000  1.0 -0.3944260175
C  C511  1  0.08232000  0.72804000  0.66186000  1.0 -0.3944260175
C  C512  1  0.52778000  0.66186000  0.72804000  1.0 -0.3944260175
C  C513  1  0.52778000  0.72804000  0.08232000  1.0 -0.3944260175
C  C514  1  0.08232000  0.66186000  0.52778000  1.0 -0.3944260175
C  C515  1  0.66186000  0.08232000  0.72804000  1.0 -0.3944260175
C  C516  1  0.72804000  0.52778000  0.66186000  1.0 -0.3944260175
C  C517  1  0.41768000  0.97222000  0.83814000  1.0 -0.3944260175
C  C518  1  0.97222000  0.41768000  0.77196000  1.0 -0.3944260175
C  C519  1  0.77196000  0.83814000  0.97222000  1.0 -0.3944260175
C  C520  1  0.83814000  0.77196000  0.41768000  1.0 -0.3944260175
C  C521  1  0.77196000  0.41768000  0.83814000  1.0 -0.3944260175
C  C522  1  0.83814000  0.97222000  0.77196000  1.0 -0.3944260175
C  C523  1  0.41768000  0.77196000  0.97222000  1.0 -0.3944260175
C  C524  1  0.97222000  0.83814000  0.41768000  1.0 -0.3944260175
C  C525  1  0.97222000  0.77196000  0.83814000  1.0 -0.3944260175
C  C526  1  0.41768000  0.83814000  0.77196000  1.0 -0.3944260175
C  C527  1  0.83814000  0.41768000  0.97222000  1.0 -0.3944260175
C  C528  1  0.77196000  0.97222000  0.41768000  1.0 -0.3944260175
C  C529  1  0.98890000  0.46106000  0.24230000  1.0 -0.4440804889
C  C530  1  0.46106000  0.98890000  0.30774000  1.0 -0.4440804889
C  C531  1  0.24230000  0.30774000  0.98890000  1.0 -0.4440804889
C  C532  1  0.30774000  0.24230000  0.46106000  1.0 -0.4440804889
C  C533  1  0.24230000  0.98890000  0.46106000  1.0 -0.4440804889
C  C534  1  0.30774000  0.46106000  0.98890000  1.0 -0.4440804889
C  C535  1  0.98890000  0.24230000  0.30774000  1.0 -0.4440804889
C  C536  1  0.46106000  0.30774000  0.24230000  1.0 -0.4440804889
C  C537  1  0.46106000  0.24230000  0.98890000  1.0 -0.4440804889
C  C538  1  0.98890000  0.30774000  0.46106000  1.0 -0.4440804889
C  C539  1  0.30774000  0.98890000  0.24230000  1.0 -0.4440804889
C  C540  1  0.24230000  0.46106000  0.30774000  1.0 -0.4440804889
C  C541  1  0.51110000  0.03894000  0.19226000  1.0 -0.4440804889
C  C542  1  0.03894000  0.51110000  0.25770000  1.0 -0.4440804889
C  C543  1  0.25770000  0.19226000  0.03894000  1.0 -0.4440804889
C  C544  1  0.19226000  0.25770000  0.51110000  1.0 -0.4440804889
C  C545  1  0.25770000  0.51110000  0.19226000  1.0 -0.4440804889
C  C546  1  0.19226000  0.03894000  0.25770000  1.0 -0.4440804889
C  C547  1  0.51110000  0.25770000  0.03894000  1.0 -0.4440804889
C  C548  1  0.03894000  0.19226000  0.51110000  1.0 -0.4440804889
C  C549  1  0.03894000  0.25770000  0.19226000  1.0 -0.4440804889
C  C550  1  0.51110000  0.19226000  0.25770000  1.0 -0.4440804889
C  C551  1  0.19226000  0.51110000  0.03894000  1.0 -0.4440804889
C  C552  1  0.25770000  0.03894000  0.51110000  1.0 -0.4440804889
C  C553  1  0.01110000  0.53894000  0.75770000  1.0 -0.4440804889
C  C554  1  0.53894000  0.01110000  0.69226000  1.0 -0.4440804889
C  C555  1  0.75770000  0.69226000  0.01110000  1.0 -0.4440804889
C  C556  1  0.69226000  0.75770000  0.53894000  1.0 -0.4440804889
C  C557  1  0.75770000  0.01110000  0.53894000  1.0 -0.4440804889
C  C558  1  0.69226000  0.53894000  0.01110000  1.0 -0.4440804889
C  C559  1  0.01110000  0.75770000  0.69226000  1.0 -0.4440804889
C  C560  1  0.53894000  0.69226000  0.75770000  1.0 -0.4440804889
C  C561  1  0.53894000  0.75770000  0.01110000  1.0 -0.4440804889
C  C562  1  0.01110000  0.69226000  0.53894000  1.0 -0.4440804889
C  C563  1  0.69226000  0.01110000  0.75770000  1.0 -0.4440804889
C  C564  1  0.75770000  0.53894000  0.69226000  1.0 -0.4440804889
C  C565  1  0.48890000  0.96106000  0.80774000  1.0 -0.4440804889
C  C566  1  0.96106000  0.48890000  0.74230000  1.0 -0.4440804889
C  C567  1  0.74230000  0.80774000  0.96106000  1.0 -0.4440804889
C  C568  1  0.80774000  0.74230000  0.48890000  1.0 -0.4440804889
C  C569  1  0.74230000  0.48890000  0.80774000  1.0 -0.4440804889
C  C570  1  0.80774000  0.96106000  0.74230000  1.0 -0.4440804889
C  C571  1  0.48890000  0.74230000  0.96106000  1.0 -0.4440804889
C  C572  1  0.96106000  0.80774000  0.48890000  1.0 -0.4440804889
C  C573  1  0.96106000  0.74230000  0.80774000  1.0 -0.4440804889
C  C574  1  0.48890000  0.80774000  0.74230000  1.0 -0.4440804889
C  C575  1  0.80774000  0.48890000  0.96106000  1.0 -0.4440804889
C  C576  1  0.74230000  0.96106000  0.48890000  1.0 -0.4440804889
O  O1  1  0.94891000  0.42007000  0.10809000  1.0 -0.518832775
O  O2  1  0.42007000  0.94891000  0.52293000  1.0 -0.518832775
O  O3  1  0.10809000  0.52293000  0.94891000  1.0 -0.518832775
O  O4  1  0.52293000  0.10809000  0.42007000  1.0 -0.518832775
O  O5  1  0.10809000  0.94891000  0.42007000  1.0 -0.518832775
O  O6  1  0.52293000  0.42007000  0.94891000  1.0 -0.518832775
O  O7  1  0.94891000  0.10809000  0.52293000  1.0 -0.518832775
O  O8  1  0.42007000  0.52293000  0.10809000  1.0 -0.518832775
O  O9  1  0.42007000  0.10809000  0.94891000  1.0 -0.518832775
O  O10  1  0.94891000  0.52293000  0.42007000  1.0 -0.518832775
O  O11  1  0.52293000  0.94891000  0.10809000  1.0 -0.518832775
O  O12  1  0.10809000  0.42007000  0.52293000  1.0 -0.518832775
O  O13  1  0.55109000  0.07993000  0.97707000  1.0 -0.518832775
O  O14  1  0.07993000  0.55109000  0.39191000  1.0 -0.518832775
O  O15  1  0.39191000  0.97707000  0.07993000  1.0 -0.518832775
O  O16  1  0.97707000  0.39191000  0.55109000  1.0 -0.518832775
O  O17  1  0.39191000  0.55109000  0.97707000  1.0 -0.518832775
O  O18  1  0.97707000  0.07993000  0.39191000  1.0 -0.518832775
O  O19  1  0.55109000  0.39191000  0.07993000  1.0 -0.518832775
O  O20  1  0.07993000  0.97707000  0.55109000  1.0 -0.518832775
O  O21  1  0.07993000  0.39191000  0.97707000  1.0 -0.518832775
O  O22  1  0.55109000  0.97707000  0.39191000  1.0 -0.518832775
O  O23  1  0.97707000  0.55109000  0.07993000  1.0 -0.518832775
O  O24  1  0.39191000  0.07993000  0.55109000  1.0 -0.518832775
O  O25  1  0.05109000  0.57993000  0.89191000  1.0 -0.518832775
O  O26  1  0.57993000  0.05109000  0.47707000  1.0 -0.518832775
O  O27  1  0.89191000  0.47707000  0.05109000  1.0 -0.518832775
O  O28  1  0.47707000  0.89191000  0.57993000  1.0 -0.518832775
O  O29  1  0.89191000  0.05109000  0.57993000  1.0 -0.518832775
O  O30  1  0.47707000  0.57993000  0.05109000  1.0 -0.518832775
O  O31  1  0.05109000  0.89191000  0.47707000  1.0 -0.518832775
O  O32  1  0.57993000  0.47707000  0.89191000  1.0 -0.518832775
O  O33  1  0.57993000  0.89191000  0.05109000  1.0 -0.518832775
O  O34  1  0.05109000  0.47707000  0.57993000  1.0 -0.518832775
O  O35  1  0.47707000  0.05109000  0.89191000  1.0 -0.518832775
O  O36  1  0.89191000  0.57993000  0.47707000  1.0 -0.518832775
O  O37  1  0.44891000  0.92007000  0.02293000  1.0 -0.518832775
O  O38  1  0.92007000  0.44891000  0.60809000  1.0 -0.518832775
O  O39  1  0.60809000  0.02293000  0.92007000  1.0 -0.518832775
O  O40  1  0.02293000  0.60809000  0.44891000  1.0 -0.518832775
O  O41  1  0.60809000  0.44891000  0.02293000  1.0 -0.518832775
O  O42  1  0.02293000  0.92007000  0.60809000  1.0 -0.518832775
O  O43  1  0.44891000  0.60809000  0.92007000  1.0 -0.518832775
O  O44  1  0.92007000  0.02293000  0.44891000  1.0 -0.518832775
O  O45  1  0.92007000  0.60809000  0.02293000  1.0 -0.518832775
O  O46  1  0.44891000  0.02293000  0.60809000  1.0 -0.518832775
O  O47  1  0.02293000  0.44891000  0.92007000  1.0 -0.518832775
O  O48  1  0.60809000  0.92007000  0.44891000  1.0 -0.518832775
O  O49  1  0.94830000  0.48802000  0.11344000  1.0 -0.4794530392
O  O50  1  0.48802000  0.94830000  0.45024000  1.0 -0.4794530392
O  O51  1  0.11344000  0.45024000  0.94830000  1.0 -0.4794530392
O  O52  1  0.45024000  0.11344000  0.48802000  1.0 -0.4794530392
O  O53  1  0.11344000  0.94830000  0.48802000  1.0 -0.4794530392
O  O54  1  0.45024000  0.48802000  0.94830000  1.0 -0.4794530392
O  O55  1  0.94830000  0.11344000  0.45024000  1.0 -0.4794530392
O  O56  1  0.48802000  0.45024000  0.11344000  1.0 -0.4794530392
O  O57  1  0.48802000  0.11344000  0.94830000  1.0 -0.4794530392
O  O58  1  0.94830000  0.45024000  0.48802000  1.0 -0.4794530392
O  O59  1  0.45024000  0.94830000  0.11344000  1.0 -0.4794530392
O  O60  1  0.11344000  0.48802000  0.45024000  1.0 -0.4794530392
O  O61  1  0.55170000  0.01198000  0.04976000  1.0 -0.4794530392
O  O62  1  0.01198000  0.55170000  0.38656000  1.0 -0.4794530392
O  O63  1  0.38656000  0.04976000  0.01198000  1.0 -0.4794530392
O  O64  1  0.04976000  0.38656000  0.55170000  1.0 -0.4794530392
O  O65  1  0.38656000  0.55170000  0.04976000  1.0 -0.4794530392
O  O66  1  0.04976000  0.01198000  0.38656000  1.0 -0.4794530392
O  O67  1  0.55170000  0.38656000  0.01198000  1.0 -0.4794530392
O  O68  1  0.01198000  0.04976000  0.55170000  1.0 -0.4794530392
O  O69  1  0.01198000  0.38656000  0.04976000  1.0 -0.4794530392
O  O70  1  0.55170000  0.04976000  0.38656000  1.0 -0.4794530392
O  O71  1  0.04976000  0.55170000  0.01198000  1.0 -0.4794530392
O  O72  1  0.38656000  0.01198000  0.55170000  1.0 -0.4794530392
O  O73  1  0.05170000  0.51198000  0.88656000  1.0 -0.4794530392
O  O74  1  0.51198000  0.05170000  0.54976000  1.0 -0.4794530392
O  O75  1  0.88656000  0.54976000  0.05170000  1.0 -0.4794530392
O  O76  1  0.54976000  0.88656000  0.51198000  1.0 -0.4794530392
O  O77  1  0.88656000  0.05170000  0.51198000  1.0 -0.4794530392
O  O78  1  0.54976000  0.51198000  0.05170000  1.0 -0.4794530392
O  O79  1  0.05170000  0.88656000  0.54976000  1.0 -0.4794530392
O  O80  1  0.51198000  0.54976000  0.88656000  1.0 -0.4794530392
O  O81  1  0.51198000  0.88656000  0.05170000  1.0 -0.4794530392
O  O82  1  0.05170000  0.54976000  0.51198000  1.0 -0.4794530392
O  O83  1  0.54976000  0.05170000  0.88656000  1.0 -0.4794530392
O  O84  1  0.88656000  0.51198000  0.54976000  1.0 -0.4794530392
O  O85  1  0.44830000  0.98802000  0.95024000  1.0 -0.4794530392
O  O86  1  0.98802000  0.44830000  0.61344000  1.0 -0.4794530392
O  O87  1  0.61344000  0.95024000  0.98802000  1.0 -0.4794530392
O  O88  1  0.95024000  0.61344000  0.44830000  1.0 -0.4794530392
O  O89  1  0.61344000  0.44830000  0.95024000  1.0 -0.4794530392
O  O90  1  0.95024000  0.98802000  0.61344000  1.0 -0.4794530392
O  O91  1  0.44830000  0.61344000  0.98802000  1.0 -0.4794530392
O  O92  1  0.98802000  0.95024000  0.44830000  1.0 -0.4794530392
O  O93  1  0.98802000  0.61344000  0.95024000  1.0 -0.4794530392
O  O94  1  0.44830000  0.95024000  0.61344000  1.0 -0.4794530392
O  O95  1  0.95024000  0.44830000  0.98802000  1.0 -0.4794530392
O  O96  1  0.61344000  0.98802000  0.44830000  1.0 -0.4794530392
O  O97  1  0.94820000  0.49200000  0.05180000  1.0 -0.368142197
O  O98  1  0.49200000  0.94820000  0.50800000  1.0 -0.368142197
O  O99  1  0.05180000  0.50800000  0.94820000  1.0 -0.368142197
O  O100  1  0.50800000  0.05180000  0.49200000  1.0 -0.368142197
O  O101  1  0.05180000  0.94820000  0.49200000  1.0 -0.368142197
O  O102  1  0.50800000  0.49200000  0.94820000  1.0 -0.368142197
O  O103  1  0.94820000  0.05180000  0.50800000  1.0 -0.368142197
O  O104  1  0.49200000  0.50800000  0.05180000  1.0 -0.368142197
O  O105  1  0.49200000  0.05180000  0.94820000  1.0 -0.368142197
O  O106  1  0.94820000  0.50800000  0.49200000  1.0 -0.368142197
O  O107  1  0.50800000  0.94820000  0.05180000  1.0 -0.368142197
O  O108  1  0.05180000  0.49200000  0.50800000  1.0 -0.368142197
O  O109  1  0.55180000  0.00800000  0.99200000  1.0 -0.368142197
O  O110  1  0.00800000  0.55180000  0.44820000  1.0 -0.368142197
O  O111  1  0.44820000  0.99200000  0.00800000  1.0 -0.368142197
O  O112  1  0.99200000  0.44820000  0.55180000  1.0 -0.368142197
O  O113  1  0.44820000  0.55180000  0.99200000  1.0 -0.368142197
O  O114  1  0.99200000  0.00800000  0.44820000  1.0 -0.368142197
O  O115  1  0.55180000  0.44820000  0.00800000  1.0 -0.368142197
O  O116  1  0.00800000  0.99200000  0.55180000  1.0 -0.368142197
O  O117  1  0.00800000  0.44820000  0.99200000  1.0 -0.368142197
O  O118  1  0.55180000  0.99200000  0.44820000  1.0 -0.368142197
O  O119  1  0.99200000  0.55180000  0.00800000  1.0 -0.368142197
O  O120  1  0.44820000  0.00800000  0.55180000  1.0 -0.368142197
O  O121  1  0.00000000  0.50000000  0.00000000  1.0 0.1979686622
O  O122  1  0.50000000  0.00000000  0.50000000  1.0 0.1979686622
O  O123  1  0.00000000  0.00000000  0.50000000  1.0 0.1979686622
O  O124  1  0.50000000  0.50000000  0.00000000  1.0 0.1979686622
O  O125  1  0.50000000  0.00000000  0.00000000  1.0 0.1979686622
O  O126  1  0.00000000  0.50000000  0.50000000  1.0 0.1979686622
