# DDEC6 charges by PACMAN v1.1 (https://github.com/mtap-research/PACMAN-charge/)
data_VETTAR_ASR_pacman
_symmetry_space_group_name_H-M   'P 1'
_cell_length_a   35.17430000
_cell_length_b   35.17430000
_cell_length_c   35.17430000
_cell_angle_alpha   60.00000000
_cell_angle_beta   60.00000000
_cell_angle_gamma   60.00000000
_symmetry_Int_Tables_number   1
_chemical_formula_structural   Ni2H36C48ClO12
_chemical_formula_sum   'Ni24 H432 C576 Cl12 O144'
_cell_volume   30772.40164049
_cell_formula_units_Z   12
loop_
 _symmetry_equiv_pos_site_id
 _symmetry_equiv_pos_as_xyz
  1  'x, y, z'
loop_
 _atom_site_type_symbol
 _atom_site_label
 _atom_site_symmetry_multiplicity
 _atom_site_fract_x
 _atom_site_fract_y
 _atom_site_fract_z
 _atom_site_occupancy
 _atom_site_charge
Ni  Ni1  1  0.46685000  0.94459000  0.05541000  1.0 0.5643202985
Ni  Ni2  1  0.94459000  0.46685000  0.53315000  1.0 0.5643202985
Ni  Ni3  1  0.05541000  0.53315000  0.46685000  1.0 0.5643202985
Ni  Ni4  1  0.53315000  0.05541000  0.94459000  1.0 0.5643202985
Ni  Ni5  1  0.05541000  0.46685000  0.94459000  1.0 0.5643202985
Ni  Ni6  1  0.53315000  0.94459000  0.46685000  1.0 0.5643202985
Ni  Ni7  1  0.46685000  0.05541000  0.53315000  1.0 0.5643202985
Ni  Ni8  1  0.94459000  0.53315000  0.05541000  1.0 0.5643202985
Ni  Ni9  1  0.94459000  0.05541000  0.46685000  1.0 0.5643202985
Ni  Ni10  1  0.46685000  0.53315000  0.94459000  1.0 0.5643202985
Ni  Ni11  1  0.53315000  0.46685000  0.05541000  1.0 0.5643202985
Ni  Ni12  1  0.05541000  0.94459000  0.53315000  1.0 0.5643202985
Ni  Ni13  1  0.03315000  0.55541000  0.96685000  1.0 0.5643202985
Ni  Ni14  1  0.55541000  0.03315000  0.44459000  1.0 0.5643202985
Ni  Ni15  1  0.44459000  0.96685000  0.55541000  1.0 0.5643202985
Ni  Ni16  1  0.96685000  0.44459000  0.03315000  1.0 0.5643202985
Ni  Ni17  1  0.44459000  0.03315000  0.96685000  1.0 0.5643202985
Ni  Ni18  1  0.96685000  0.55541000  0.44459000  1.0 0.5643202985
Ni  Ni19  1  0.03315000  0.44459000  0.55541000  1.0 0.5643202985
Ni  Ni20  1  0.55541000  0.96685000  0.03315000  1.0 0.5643202985
Ni  Ni21  1  0.55541000  0.44459000  0.96685000  1.0 0.5643202985
Ni  Ni22  1  0.03315000  0.96685000  0.44459000  1.0 0.5643202985
Ni  Ni23  1  0.96685000  0.03315000  0.55541000  1.0 0.5643202985
Ni  Ni24  1  0.44459000  0.55541000  0.03315000  1.0 0.5643202985
H  H1  1  0.32090000  0.97710000  0.14810000  1.0 0.1221041184
H  H2  1  0.97710000  0.32090000  0.55390000  1.0 0.1221041184
H  H3  1  0.14810000  0.55390000  0.32090000  1.0 0.1221041184
H  H4  1  0.55390000  0.14810000  0.97710000  1.0 0.1221041184
H  H5  1  0.14810000  0.32090000  0.97710000  1.0 0.1221041184
H  H6  1  0.55390000  0.97710000  0.32090000  1.0 0.1221041184
H  H7  1  0.32090000  0.14810000  0.55390000  1.0 0.1221041184
H  H8  1  0.97710000  0.55390000  0.14810000  1.0 0.1221041184
H  H9  1  0.97710000  0.14810000  0.32090000  1.0 0.1221041184
H  H10  1  0.32090000  0.55390000  0.97710000  1.0 0.1221041184
H  H11  1  0.55390000  0.32090000  0.14810000  1.0 0.1221041184
H  H12  1  0.14810000  0.97710000  0.55390000  1.0 0.1221041184
H  H13  1  0.17910000  0.52290000  0.94610000  1.0 0.1221041184
H  H14  1  0.52290000  0.17910000  0.35190000  1.0 0.1221041184
H  H15  1  0.35190000  0.94610000  0.52290000  1.0 0.1221041184
H  H16  1  0.94610000  0.35190000  0.17910000  1.0 0.1221041184
H  H17  1  0.35190000  0.17910000  0.94610000  1.0 0.1221041184
H  H18  1  0.94610000  0.52290000  0.35190000  1.0 0.1221041184
H  H19  1  0.17910000  0.35190000  0.52290000  1.0 0.1221041184
H  H20  1  0.52290000  0.94610000  0.17910000  1.0 0.1221041184
H  H21  1  0.52290000  0.35190000  0.94610000  1.0 0.1221041184
H  H22  1  0.17910000  0.94610000  0.35190000  1.0 0.1221041184
H  H23  1  0.94610000  0.17910000  0.52290000  1.0 0.1221041184
H  H24  1  0.35190000  0.52290000  0.17910000  1.0 0.1221041184
H  H25  1  0.67910000  0.02290000  0.85190000  1.0 0.1221041184
H  H26  1  0.02290000  0.67910000  0.44610000  1.0 0.1221041184
H  H27  1  0.85190000  0.44610000  0.67910000  1.0 0.1221041184
H  H28  1  0.44610000  0.85190000  0.02290000  1.0 0.1221041184
H  H29  1  0.85190000  0.67910000  0.02290000  1.0 0.1221041184
H  H30  1  0.44610000  0.02290000  0.67910000  1.0 0.1221041184
H  H31  1  0.67910000  0.85190000  0.44610000  1.0 0.1221041184
H  H32  1  0.02290000  0.44610000  0.85190000  1.0 0.1221041184
H  H33  1  0.02290000  0.85190000  0.67910000  1.0 0.1221041184
H  H34  1  0.67910000  0.44610000  0.02290000  1.0 0.1221041184
H  H35  1  0.44610000  0.67910000  0.85190000  1.0 0.1221041184
H  H36  1  0.85190000  0.02290000  0.44610000  1.0 0.1221041184
H  H37  1  0.82090000  0.47710000  0.05390000  1.0 0.1221041184
H  H38  1  0.47710000  0.82090000  0.64810000  1.0 0.1221041184
H  H39  1  0.64810000  0.05390000  0.47710000  1.0 0.1221041184
H  H40  1  0.05390000  0.64810000  0.82090000  1.0 0.1221041184
H  H41  1  0.64810000  0.82090000  0.05390000  1.0 0.1221041184
H  H42  1  0.05390000  0.47710000  0.64810000  1.0 0.1221041184
H  H43  1  0.82090000  0.64810000  0.47710000  1.0 0.1221041184
H  H44  1  0.47710000  0.05390000  0.82090000  1.0 0.1221041184
H  H45  1  0.47710000  0.64810000  0.05390000  1.0 0.1221041184
H  H46  1  0.82090000  0.05390000  0.64810000  1.0 0.1221041184
H  H47  1  0.05390000  0.82090000  0.47710000  1.0 0.1221041184
H  H48  1  0.64810000  0.47710000  0.82090000  1.0 0.1221041184
H  H49  1  0.32330000  0.09230000  0.03550000  1.0 0.1294266035
H  H50  1  0.09230000  0.32330000  0.54890000  1.0 0.1294266035
H  H51  1  0.03550000  0.54890000  0.32330000  1.0 0.1294266035
H  H52  1  0.54890000  0.03550000  0.09230000  1.0 0.1294266035
H  H53  1  0.03550000  0.32330000  0.09230000  1.0 0.1294266035
H  H54  1  0.54890000  0.09230000  0.32330000  1.0 0.1294266035
H  H55  1  0.32330000  0.03550000  0.54890000  1.0 0.1294266035
H  H56  1  0.09230000  0.54890000  0.03550000  1.0 0.1294266035
H  H57  1  0.09230000  0.03550000  0.32330000  1.0 0.1294266035
H  H58  1  0.32330000  0.54890000  0.09230000  1.0 0.1294266035
H  H59  1  0.54890000  0.32330000  0.03550000  1.0 0.1294266035
H  H60  1  0.03550000  0.09230000  0.54890000  1.0 0.1294266035
H  H61  1  0.17670000  0.40770000  0.95110000  1.0 0.1294266035
H  H62  1  0.40770000  0.17670000  0.46450000  1.0 0.1294266035
H  H63  1  0.46450000  0.95110000  0.40770000  1.0 0.1294266035
H  H64  1  0.95110000  0.46450000  0.17670000  1.0 0.1294266035
H  H65  1  0.46450000  0.17670000  0.95110000  1.0 0.1294266035
H  H66  1  0.95110000  0.40770000  0.46450000  1.0 0.1294266035
H  H67  1  0.17670000  0.46450000  0.40770000  1.0 0.1294266035
H  H68  1  0.40770000  0.95110000  0.17670000  1.0 0.1294266035
H  H69  1  0.40770000  0.46450000  0.95110000  1.0 0.1294266035
H  H70  1  0.17670000  0.95110000  0.46450000  1.0 0.1294266035
H  H71  1  0.95110000  0.17670000  0.40770000  1.0 0.1294266035
H  H72  1  0.46450000  0.40770000  0.17670000  1.0 0.1294266035
H  H73  1  0.67670000  0.90770000  0.96450000  1.0 0.1294266035
H  H74  1  0.90770000  0.67670000  0.45110000  1.0 0.1294266035
H  H75  1  0.96450000  0.45110000  0.67670000  1.0 0.1294266035
H  H76  1  0.45110000  0.96450000  0.90770000  1.0 0.1294266035
H  H77  1  0.96450000  0.67670000  0.90770000  1.0 0.1294266035
H  H78  1  0.45110000  0.90770000  0.67670000  1.0 0.1294266035
H  H79  1  0.67670000  0.96450000  0.45110000  1.0 0.1294266035
H  H80  1  0.90770000  0.45110000  0.96450000  1.0 0.1294266035
H  H81  1  0.90770000  0.96450000  0.67670000  1.0 0.1294266035
H  H82  1  0.67670000  0.45110000  0.90770000  1.0 0.1294266035
H  H83  1  0.45110000  0.67670000  0.96450000  1.0 0.1294266035
H  H84  1  0.96450000  0.90770000  0.45110000  1.0 0.1294266035
H  H85  1  0.82330000  0.59230000  0.04890000  1.0 0.1294266035
H  H86  1  0.59230000  0.82330000  0.53550000  1.0 0.1294266035
H  H87  1  0.53550000  0.04890000  0.59230000  1.0 0.1294266035
H  H88  1  0.04890000  0.53550000  0.82330000  1.0 0.1294266035
H  H89  1  0.53550000  0.82330000  0.04890000  1.0 0.1294266035
H  H90  1  0.04890000  0.59230000  0.53550000  1.0 0.1294266035
H  H91  1  0.82330000  0.53550000  0.59230000  1.0 0.1294266035
H  H92  1  0.59230000  0.04890000  0.82330000  1.0 0.1294266035
H  H93  1  0.59230000  0.53550000  0.04890000  1.0 0.1294266035
H  H94  1  0.82330000  0.04890000  0.53550000  1.0 0.1294266035
H  H95  1  0.04890000  0.82330000  0.59230000  1.0 0.1294266035
H  H96  1  0.53550000  0.59230000  0.82330000  1.0 0.1294266035
H  H97  1  0.24340000  0.01540000  0.18880000  1.0 0.1086057058
H  H98  1  0.01540000  0.24340000  0.55240000  1.0 0.1086057058
H  H99  1  0.18880000  0.55240000  0.24340000  1.0 0.1086057058
H  H100  1  0.55240000  0.18880000  0.01540000  1.0 0.1086057058
H  H101  1  0.18880000  0.24340000  0.01540000  1.0 0.1086057058
H  H102  1  0.55240000  0.01540000  0.24340000  1.0 0.1086057058
H  H103  1  0.24340000  0.18880000  0.55240000  1.0 0.1086057058
H  H104  1  0.01540000  0.55240000  0.18880000  1.0 0.1086057058
H  H105  1  0.01540000  0.18880000  0.24340000  1.0 0.1086057058
H  H106  1  0.24340000  0.55240000  0.01540000  1.0 0.1086057058
H  H107  1  0.55240000  0.24340000  0.18880000  1.0 0.1086057058
H  H108  1  0.18880000  0.01540000  0.55240000  1.0 0.1086057058
H  H109  1  0.25660000  0.48460000  0.94760000  1.0 0.1086057058
H  H110  1  0.48460000  0.25660000  0.31120000  1.0 0.1086057058
H  H111  1  0.31120000  0.94760000  0.48460000  1.0 0.1086057058
H  H112  1  0.94760000  0.31120000  0.25660000  1.0 0.1086057058
H  H113  1  0.31120000  0.25660000  0.94760000  1.0 0.1086057058
H  H114  1  0.94760000  0.48460000  0.31120000  1.0 0.1086057058
H  H115  1  0.25660000  0.31120000  0.48460000  1.0 0.1086057058
H  H116  1  0.48460000  0.94760000  0.25660000  1.0 0.1086057058
H  H117  1  0.48460000  0.31120000  0.94760000  1.0 0.1086057058
H  H118  1  0.25660000  0.94760000  0.31120000  1.0 0.1086057058
H  H119  1  0.94760000  0.25660000  0.48460000  1.0 0.1086057058
H  H120  1  0.31120000  0.48460000  0.25660000  1.0 0.1086057058
H  H121  1  0.75660000  0.98460000  0.81120000  1.0 0.1086057058
H  H122  1  0.98460000  0.75660000  0.44760000  1.0 0.1086057058
H  H123  1  0.81120000  0.44760000  0.75660000  1.0 0.1086057058
H  H124  1  0.44760000  0.81120000  0.98460000  1.0 0.1086057058
H  H125  1  0.81120000  0.75660000  0.98460000  1.0 0.1086057058
H  H126  1  0.44760000  0.98460000  0.75660000  1.0 0.1086057058
H  H127  1  0.75660000  0.81120000  0.44760000  1.0 0.1086057058
H  H128  1  0.98460000  0.44760000  0.81120000  1.0 0.1086057058
H  H129  1  0.98460000  0.81120000  0.75660000  1.0 0.1086057058
H  H130  1  0.75660000  0.44760000  0.98460000  1.0 0.1086057058
H  H131  1  0.44760000  0.75660000  0.81120000  1.0 0.1086057058
H  H132  1  0.81120000  0.98460000  0.44760000  1.0 0.1086057058
H  H133  1  0.74340000  0.51540000  0.05240000  1.0 0.1086057058
H  H134  1  0.51540000  0.74340000  0.68880000  1.0 0.1086057058
H  H135  1  0.68880000  0.05240000  0.51540000  1.0 0.1086057058
H  H136  1  0.05240000  0.68880000  0.74340000  1.0 0.1086057058
H  H137  1  0.68880000  0.74340000  0.05240000  1.0 0.1086057058
H  H138  1  0.05240000  0.51540000  0.68880000  1.0 0.1086057058
H  H139  1  0.74340000  0.68880000  0.51540000  1.0 0.1086057058
H  H140  1  0.51540000  0.05240000  0.74340000  1.0 0.1086057058
H  H141  1  0.51540000  0.68880000  0.05240000  1.0 0.1086057058
H  H142  1  0.74340000  0.05240000  0.68880000  1.0 0.1086057058
H  H143  1  0.05240000  0.74340000  0.51540000  1.0 0.1086057058
H  H144  1  0.68880000  0.51540000  0.74340000  1.0 0.1086057058
H  H145  1  0.21640000  0.12780000  0.03320000  1.0 0.1294266035
H  H146  1  0.12780000  0.21640000  0.62260000  1.0 0.1294266035
H  H147  1  0.03320000  0.62260000  0.21640000  1.0 0.1294266035
H  H148  1  0.62260000  0.03320000  0.12780000  1.0 0.1294266035
H  H149  1  0.03320000  0.21640000  0.12780000  1.0 0.1294266035
H  H150  1  0.62260000  0.12780000  0.21640000  1.0 0.1294266035
H  H151  1  0.21640000  0.03320000  0.62260000  1.0 0.1294266035
H  H152  1  0.12780000  0.62260000  0.03320000  1.0 0.1294266035
H  H153  1  0.12780000  0.03320000  0.21640000  1.0 0.1294266035
H  H154  1  0.21640000  0.62260000  0.12780000  1.0 0.1294266035
H  H155  1  0.62260000  0.21640000  0.03320000  1.0 0.1294266035
H  H156  1  0.03320000  0.12780000  0.62260000  1.0 0.1294266035
H  H157  1  0.28360000  0.37220000  0.87740000  1.0 0.1294266035
H  H158  1  0.37220000  0.28360000  0.46680000  1.0 0.1294266035
H  H159  1  0.46680000  0.87740000  0.37220000  1.0 0.1294266035
H  H160  1  0.87740000  0.46680000  0.28360000  1.0 0.1294266035
H  H161  1  0.46680000  0.28360000  0.87740000  1.0 0.1294266035
H  H162  1  0.87740000  0.37220000  0.46680000  1.0 0.1294266035
H  H163  1  0.28360000  0.46680000  0.37220000  1.0 0.1294266035
H  H164  1  0.37220000  0.87740000  0.28360000  1.0 0.1294266035
H  H165  1  0.37220000  0.46680000  0.87740000  1.0 0.1294266035
H  H166  1  0.28360000  0.87740000  0.46680000  1.0 0.1294266035
H  H167  1  0.87740000  0.28360000  0.37220000  1.0 0.1294266035
H  H168  1  0.46680000  0.37220000  0.28360000  1.0 0.1294266035
H  H169  1  0.78360000  0.87220000  0.96680000  1.0 0.1294266035
H  H170  1  0.87220000  0.78360000  0.37740000  1.0 0.1294266035
H  H171  1  0.96680000  0.37740000  0.78360000  1.0 0.1294266035
H  H172  1  0.37740000  0.96680000  0.87220000  1.0 0.1294266035
H  H173  1  0.96680000  0.78360000  0.87220000  1.0 0.1294266035
H  H174  1  0.37740000  0.87220000  0.78360000  1.0 0.1294266035
H  H175  1  0.78360000  0.96680000  0.37740000  1.0 0.1294266035
H  H176  1  0.87220000  0.37740000  0.96680000  1.0 0.1294266035
H  H177  1  0.87220000  0.96680000  0.78360000  1.0 0.1294266035
H  H178  1  0.78360000  0.37740000  0.87220000  1.0 0.1294266035
H  H179  1  0.37740000  0.78360000  0.96680000  1.0 0.1294266035
H  H180  1  0.96680000  0.87220000  0.37740000  1.0 0.1294266035
H  H181  1  0.71640000  0.62780000  0.12260000  1.0 0.1294266035
H  H182  1  0.62780000  0.71640000  0.53320000  1.0 0.1294266035
H  H183  1  0.53320000  0.12260000  0.62780000  1.0 0.1294266035
H  H184  1  0.12260000  0.53320000  0.71640000  1.0 0.1294266035
H  H185  1  0.53320000  0.71640000  0.12260000  1.0 0.1294266035
H  H186  1  0.12260000  0.62780000  0.53320000  1.0 0.1294266035
H  H187  1  0.71640000  0.53320000  0.62780000  1.0 0.1294266035
H  H188  1  0.62780000  0.12260000  0.71640000  1.0 0.1294266035
H  H189  1  0.62780000  0.53320000  0.12260000  1.0 0.1294266035
H  H190  1  0.71640000  0.12260000  0.53320000  1.0 0.1294266035
H  H191  1  0.12260000  0.71640000  0.62780000  1.0 0.1294266035
H  H192  1  0.53320000  0.62780000  0.71640000  1.0 0.1294266035
H  H193  1  0.26060000  0.14480000  0.00180000  1.0 0.1221041184
H  H194  1  0.14480000  0.26060000  0.59280000  1.0 0.1221041184
H  H195  1  0.00180000  0.59280000  0.26060000  1.0 0.1221041184
H  H196  1  0.59280000  0.00180000  0.14480000  1.0 0.1221041184
H  H197  1  0.00180000  0.26060000  0.14480000  1.0 0.1221041184
H  H198  1  0.59280000  0.14480000  0.26060000  1.0 0.1221041184
H  H199  1  0.26060000  0.00180000  0.59280000  1.0 0.1221041184
H  H200  1  0.14480000  0.59280000  0.00180000  1.0 0.1221041184
H  H201  1  0.14480000  0.00180000  0.26060000  1.0 0.1221041184
H  H202  1  0.26060000  0.59280000  0.14480000  1.0 0.1221041184
H  H203  1  0.59280000  0.26060000  0.00180000  1.0 0.1221041184
H  H204  1  0.00180000  0.14480000  0.59280000  1.0 0.1221041184
H  H205  1  0.23940000  0.35520000  0.90720000  1.0 0.1221041184
H  H206  1  0.35520000  0.23940000  0.49820000  1.0 0.1221041184
H  H207  1  0.49820000  0.90720000  0.35520000  1.0 0.1221041184
H  H208  1  0.90720000  0.49820000  0.23940000  1.0 0.1221041184
H  H209  1  0.49820000  0.23940000  0.90720000  1.0 0.1221041184
H  H210  1  0.90720000  0.35520000  0.49820000  1.0 0.1221041184
H  H211  1  0.23940000  0.49820000  0.35520000  1.0 0.1221041184
H  H212  1  0.35520000  0.90720000  0.23940000  1.0 0.1221041184
H  H213  1  0.35520000  0.49820000  0.90720000  1.0 0.1221041184
H  H214  1  0.23940000  0.90720000  0.49820000  1.0 0.1221041184
H  H215  1  0.90720000  0.23940000  0.35520000  1.0 0.1221041184
H  H216  1  0.49820000  0.35520000  0.23940000  1.0 0.1221041184
H  H217  1  0.73940000  0.85520000  0.99820000  1.0 0.1221041184
H  H218  1  0.85520000  0.73940000  0.40720000  1.0 0.1221041184
H  H219  1  0.99820000  0.40720000  0.73940000  1.0 0.1221041184
H  H220  1  0.40720000  0.99820000  0.85520000  1.0 0.1221041184
H  H221  1  0.99820000  0.73940000  0.85520000  1.0 0.1221041184
H  H222  1  0.40720000  0.85520000  0.73940000  1.0 0.1221041184
H  H223  1  0.73940000  0.99820000  0.40720000  1.0 0.1221041184
H  H224  1  0.85520000  0.40720000  0.99820000  1.0 0.1221041184
H  H225  1  0.85520000  0.99820000  0.73940000  1.0 0.1221041184
H  H226  1  0.73940000  0.40720000  0.85520000  1.0 0.1221041184
H  H227  1  0.40720000  0.73940000  0.99820000  1.0 0.1221041184
H  H228  1  0.99820000  0.85520000  0.40720000  1.0 0.1221041184
H  H229  1  0.76060000  0.64480000  0.09280000  1.0 0.1221041184
H  H230  1  0.64480000  0.76060000  0.50180000  1.0 0.1221041184
H  H231  1  0.50180000  0.09280000  0.64480000  1.0 0.1221041184
H  H232  1  0.09280000  0.50180000  0.76060000  1.0 0.1221041184
H  H233  1  0.50180000  0.76060000  0.09280000  1.0 0.1221041184
H  H234  1  0.09280000  0.64480000  0.50180000  1.0 0.1221041184
H  H235  1  0.76060000  0.50180000  0.64480000  1.0 0.1221041184
H  H236  1  0.64480000  0.09280000  0.76060000  1.0 0.1221041184
H  H237  1  0.64480000  0.50180000  0.09280000  1.0 0.1221041184
H  H238  1  0.76060000  0.09280000  0.50180000  1.0 0.1221041184
H  H239  1  0.09280000  0.76060000  0.64480000  1.0 0.1221041184
H  H240  1  0.50180000  0.64480000  0.76060000  1.0 0.1221041184
H  H241  1  0.20940000  0.18220000  0.01200000  1.0 0.1221041184
H  H242  1  0.18220000  0.20940000  0.59640000  1.0 0.1221041184
H  H243  1  0.01200000  0.59640000  0.20940000  1.0 0.1221041184
H  H244  1  0.59640000  0.01200000  0.18220000  1.0 0.1221041184
H  H245  1  0.01200000  0.20940000  0.18220000  1.0 0.1221041184
H  H246  1  0.59640000  0.18220000  0.20940000  1.0 0.1221041184
H  H247  1  0.20940000  0.01200000  0.59640000  1.0 0.1221041184
H  H248  1  0.18220000  0.59640000  0.01200000  1.0 0.1221041184
H  H249  1  0.18220000  0.01200000  0.20940000  1.0 0.1221041184
H  H250  1  0.20940000  0.59640000  0.18220000  1.0 0.1221041184
H  H251  1  0.59640000  0.20940000  0.01200000  1.0 0.1221041184
H  H252  1  0.01200000  0.18220000  0.59640000  1.0 0.1221041184
H  H253  1  0.29060000  0.31780000  0.90360000  1.0 0.1221041184
H  H254  1  0.31780000  0.29060000  0.48800000  1.0 0.1221041184
H  H255  1  0.48800000  0.90360000  0.31780000  1.0 0.1221041184
H  H256  1  0.90360000  0.48800000  0.29060000  1.0 0.1221041184
H  H257  1  0.48800000  0.29060000  0.90360000  1.0 0.1221041184
H  H258  1  0.90360000  0.31780000  0.48800000  1.0 0.1221041184
H  H259  1  0.29060000  0.48800000  0.31780000  1.0 0.1221041184
H  H260  1  0.31780000  0.90360000  0.29060000  1.0 0.1221041184
H  H261  1  0.31780000  0.48800000  0.90360000  1.0 0.1221041184
H  H262  1  0.29060000  0.90360000  0.48800000  1.0 0.1221041184
H  H263  1  0.90360000  0.29060000  0.31780000  1.0 0.1221041184
H  H264  1  0.48800000  0.31780000  0.29060000  1.0 0.1221041184
H  H265  1  0.79060000  0.81780000  0.98800000  1.0 0.1221041184
H  H266  1  0.81780000  0.79060000  0.40360000  1.0 0.1221041184
H  H267  1  0.98800000  0.40360000  0.79060000  1.0 0.1221041184
H  H268  1  0.40360000  0.98800000  0.81780000  1.0 0.1221041184
H  H269  1  0.98800000  0.79060000  0.81780000  1.0 0.1221041184
H  H270  1  0.40360000  0.81780000  0.79060000  1.0 0.1221041184
H  H271  1  0.79060000  0.98800000  0.40360000  1.0 0.1221041184
H  H272  1  0.81780000  0.40360000  0.98800000  1.0 0.1221041184
H  H273  1  0.81780000  0.98800000  0.79060000  1.0 0.1221041184
H  H274  1  0.79060000  0.40360000  0.81780000  1.0 0.1221041184
H  H275  1  0.40360000  0.79060000  0.98800000  1.0 0.1221041184
H  H276  1  0.98800000  0.81780000  0.40360000  1.0 0.1221041184
H  H277  1  0.70940000  0.68220000  0.09640000  1.0 0.1221041184
H  H278  1  0.68220000  0.70940000  0.51200000  1.0 0.1221041184
H  H279  1  0.51200000  0.09640000  0.68220000  1.0 0.1221041184
H  H280  1  0.09640000  0.51200000  0.70940000  1.0 0.1221041184
H  H281  1  0.51200000  0.70940000  0.09640000  1.0 0.1221041184
H  H282  1  0.09640000  0.68220000  0.51200000  1.0 0.1221041184
H  H283  1  0.70940000  0.51200000  0.68220000  1.0 0.1221041184
H  H284  1  0.68220000  0.09640000  0.70940000  1.0 0.1221041184
H  H285  1  0.68220000  0.51200000  0.09640000  1.0 0.1221041184
H  H286  1  0.70940000  0.09640000  0.51200000  1.0 0.1221041184
H  H287  1  0.09640000  0.70940000  0.68220000  1.0 0.1221041184
H  H288  1  0.51200000  0.68220000  0.70940000  1.0 0.1221041184
H  H289  1  0.25660000  0.17820000  0.08340000  1.0 0.1358163878
H  H290  1  0.17820000  0.25660000  0.48180000  1.0 0.1358163878
H  H291  1  0.08340000  0.48180000  0.25660000  1.0 0.1358163878
H  H292  1  0.48180000  0.08340000  0.17820000  1.0 0.1358163878
H  H293  1  0.08340000  0.25660000  0.17820000  1.0 0.1358163878
H  H294  1  0.48180000  0.17820000  0.25660000  1.0 0.1358163878
H  H295  1  0.25660000  0.08340000  0.48180000  1.0 0.1358163878
H  H296  1  0.17820000  0.48180000  0.08340000  1.0 0.1358163878
H  H297  1  0.17820000  0.08340000  0.25660000  1.0 0.1358163878
H  H298  1  0.25660000  0.48180000  0.17820000  1.0 0.1358163878
H  H299  1  0.48180000  0.25660000  0.08340000  1.0 0.1358163878
H  H300  1  0.08340000  0.17820000  0.48180000  1.0 0.1358163878
H  H301  1  0.24340000  0.32180000  0.01820000  1.0 0.1358163878
H  H302  1  0.32180000  0.24340000  0.41660000  1.0 0.1358163878
H  H303  1  0.41660000  0.01820000  0.32180000  1.0 0.1358163878
H  H304  1  0.01820000  0.41660000  0.24340000  1.0 0.1358163878
H  H305  1  0.41660000  0.24340000  0.01820000  1.0 0.1358163878
H  H306  1  0.01820000  0.32180000  0.41660000  1.0 0.1358163878
H  H307  1  0.24340000  0.41660000  0.32180000  1.0 0.1358163878
H  H308  1  0.32180000  0.01820000  0.24340000  1.0 0.1358163878
H  H309  1  0.32180000  0.41660000  0.01820000  1.0 0.1358163878
H  H310  1  0.24340000  0.01820000  0.41660000  1.0 0.1358163878
H  H311  1  0.01820000  0.24340000  0.32180000  1.0 0.1358163878
H  H312  1  0.41660000  0.32180000  0.24340000  1.0 0.1358163878
H  H313  1  0.74340000  0.82180000  0.91660000  1.0 0.1358163878
H  H314  1  0.82180000  0.74340000  0.51820000  1.0 0.1358163878
H  H315  1  0.91660000  0.51820000  0.74340000  1.0 0.1358163878
H  H316  1  0.51820000  0.91660000  0.82180000  1.0 0.1358163878
H  H317  1  0.91660000  0.74340000  0.82180000  1.0 0.1358163878
H  H318  1  0.51820000  0.82180000  0.74340000  1.0 0.1358163878
H  H319  1  0.74340000  0.91660000  0.51820000  1.0 0.1358163878
H  H320  1  0.82180000  0.51820000  0.91660000  1.0 0.1358163878
H  H321  1  0.82180000  0.91660000  0.74340000  1.0 0.1358163878
H  H322  1  0.74340000  0.51820000  0.82180000  1.0 0.1358163878
H  H323  1  0.51820000  0.74340000  0.91660000  1.0 0.1358163878
H  H324  1  0.91660000  0.82180000  0.51820000  1.0 0.1358163878
H  H325  1  0.75660000  0.67820000  0.98180000  1.0 0.1358163878
H  H326  1  0.67820000  0.75660000  0.58340000  1.0 0.1358163878
H  H327  1  0.58340000  0.98180000  0.67820000  1.0 0.1358163878
H  H328  1  0.98180000  0.58340000  0.75660000  1.0 0.1358163878
H  H329  1  0.58340000  0.75660000  0.98180000  1.0 0.1358163878
H  H330  1  0.98180000  0.67820000  0.58340000  1.0 0.1358163878
H  H331  1  0.75660000  0.58340000  0.67820000  1.0 0.1358163878
H  H332  1  0.67820000  0.98180000  0.75660000  1.0 0.1358163878
H  H333  1  0.67820000  0.58340000  0.98180000  1.0 0.1358163878
H  H334  1  0.75660000  0.98180000  0.58340000  1.0 0.1358163878
H  H335  1  0.98180000  0.75660000  0.67820000  1.0 0.1358163878
H  H336  1  0.58340000  0.67820000  0.75660000  1.0 0.1358163878
H  H337  1  0.23530000  0.21330000  0.04210000  1.0 0.1221041184
H  H338  1  0.21330000  0.23530000  0.50930000  1.0 0.1221041184
H  H339  1  0.04210000  0.50930000  0.23530000  1.0 0.1221041184
H  H340  1  0.50930000  0.04210000  0.21330000  1.0 0.1221041184
H  H341  1  0.04210000  0.23530000  0.21330000  1.0 0.1221041184
H  H342  1  0.50930000  0.21330000  0.23530000  1.0 0.1221041184
H  H343  1  0.23530000  0.04210000  0.50930000  1.0 0.1221041184
H  H344  1  0.21330000  0.50930000  0.04210000  1.0 0.1221041184
H  H345  1  0.21330000  0.04210000  0.23530000  1.0 0.1221041184
H  H346  1  0.23530000  0.50930000  0.21330000  1.0 0.1221041184
H  H347  1  0.50930000  0.23530000  0.04210000  1.0 0.1221041184
H  H348  1  0.04210000  0.21330000  0.50930000  1.0 0.1221041184
H  H349  1  0.26470000  0.28670000  0.99070000  1.0 0.1221041184
H  H350  1  0.28670000  0.26470000  0.45790000  1.0 0.1221041184
H  H351  1  0.45790000  0.99070000  0.28670000  1.0 0.1221041184
H  H352  1  0.99070000  0.45790000  0.26470000  1.0 0.1221041184
H  H353  1  0.45790000  0.26470000  0.99070000  1.0 0.1221041184
H  H354  1  0.99070000  0.28670000  0.45790000  1.0 0.1221041184
H  H355  1  0.26470000  0.45790000  0.28670000  1.0 0.1221041184
H  H356  1  0.28670000  0.99070000  0.26470000  1.0 0.1221041184
H  H357  1  0.28670000  0.45790000  0.99070000  1.0 0.1221041184
H  H358  1  0.26470000  0.99070000  0.45790000  1.0 0.1221041184
H  H359  1  0.99070000  0.26470000  0.28670000  1.0 0.1221041184
H  H360  1  0.45790000  0.28670000  0.26470000  1.0 0.1221041184
H  H361  1  0.76470000  0.78670000  0.95790000  1.0 0.1221041184
H  H362  1  0.78670000  0.76470000  0.49070000  1.0 0.1221041184
H  H363  1  0.95790000  0.49070000  0.76470000  1.0 0.1221041184
H  H364  1  0.49070000  0.95790000  0.78670000  1.0 0.1221041184
H  H365  1  0.95790000  0.76470000  0.78670000  1.0 0.1221041184
H  H366  1  0.49070000  0.78670000  0.76470000  1.0 0.1221041184
H  H367  1  0.76470000  0.95790000  0.49070000  1.0 0.1221041184
H  H368  1  0.78670000  0.49070000  0.95790000  1.0 0.1221041184
H  H369  1  0.78670000  0.95790000  0.76470000  1.0 0.1221041184
H  H370  1  0.76470000  0.49070000  0.78670000  1.0 0.1221041184
H  H371  1  0.49070000  0.76470000  0.95790000  1.0 0.1221041184
H  H372  1  0.95790000  0.78670000  0.49070000  1.0 0.1221041184
H  H373  1  0.73530000  0.71330000  0.00930000  1.0 0.1221041184
H  H374  1  0.71330000  0.73530000  0.54210000  1.0 0.1221041184
H  H375  1  0.54210000  0.00930000  0.71330000  1.0 0.1221041184
H  H376  1  0.00930000  0.54210000  0.73530000  1.0 0.1221041184
H  H377  1  0.54210000  0.73530000  0.00930000  1.0 0.1221041184
H  H378  1  0.00930000  0.71330000  0.54210000  1.0 0.1221041184
H  H379  1  0.73530000  0.54210000  0.71330000  1.0 0.1221041184
H  H380  1  0.71330000  0.00930000  0.73530000  1.0 0.1221041184
H  H381  1  0.71330000  0.54210000  0.00930000  1.0 0.1221041184
H  H382  1  0.73530000  0.00930000  0.54210000  1.0 0.1221041184
H  H383  1  0.00930000  0.73530000  0.71330000  1.0 0.1221041184
H  H384  1  0.54210000  0.71330000  0.73530000  1.0 0.1221041184
H  H385  1  0.28570000  0.17470000  0.03210000  1.0 0.1221041184
H  H386  1  0.17470000  0.28570000  0.50750000  1.0 0.1221041184
H  H387  1  0.03210000  0.50750000  0.28570000  1.0 0.1221041184
H  H388  1  0.50750000  0.03210000  0.17470000  1.0 0.1221041184
H  H389  1  0.03210000  0.28570000  0.17470000  1.0 0.1221041184
H  H390  1  0.50750000  0.17470000  0.28570000  1.0 0.1221041184
H  H391  1  0.28570000  0.03210000  0.50750000  1.0 0.1221041184
H  H392  1  0.17470000  0.50750000  0.03210000  1.0 0.1221041184
H  H393  1  0.17470000  0.03210000  0.28570000  1.0 0.1221041184
H  H394  1  0.28570000  0.50750000  0.17470000  1.0 0.1221041184
H  H395  1  0.50750000  0.28570000  0.03210000  1.0 0.1221041184
H  H396  1  0.03210000  0.17470000  0.50750000  1.0 0.1221041184
H  H397  1  0.21430000  0.32530000  0.99250000  1.0 0.1221041184
H  H398  1  0.32530000  0.21430000  0.46790000  1.0 0.1221041184
H  H399  1  0.46790000  0.99250000  0.32530000  1.0 0.1221041184
H  H400  1  0.99250000  0.46790000  0.21430000  1.0 0.1221041184
H  H401  1  0.46790000  0.21430000  0.99250000  1.0 0.1221041184
H  H402  1  0.99250000  0.32530000  0.46790000  1.0 0.1221041184
H  H403  1  0.21430000  0.46790000  0.32530000  1.0 0.1221041184
H  H404  1  0.32530000  0.99250000  0.21430000  1.0 0.1221041184
H  H405  1  0.32530000  0.46790000  0.99250000  1.0 0.1221041184
H  H406  1  0.21430000  0.99250000  0.46790000  1.0 0.1221041184
H  H407  1  0.99250000  0.21430000  0.32530000  1.0 0.1221041184
H  H408  1  0.46790000  0.32530000  0.21430000  1.0 0.1221041184
H  H409  1  0.71430000  0.82530000  0.96790000  1.0 0.1221041184
H  H410  1  0.82530000  0.71430000  0.49250000  1.0 0.1221041184
H  H411  1  0.96790000  0.49250000  0.71430000  1.0 0.1221041184
H  H412  1  0.49250000  0.96790000  0.82530000  1.0 0.1221041184
H  H413  1  0.96790000  0.71430000  0.82530000  1.0 0.1221041184
H  H414  1  0.49250000  0.82530000  0.71430000  1.0 0.1221041184
H  H415  1  0.71430000  0.96790000  0.49250000  1.0 0.1221041184
H  H416  1  0.82530000  0.49250000  0.96790000  1.0 0.1221041184
H  H417  1  0.82530000  0.96790000  0.71430000  1.0 0.1221041184
H  H418  1  0.71430000  0.49250000  0.82530000  1.0 0.1221041184
H  H419  1  0.49250000  0.71430000  0.96790000  1.0 0.1221041184
H  H420  1  0.96790000  0.82530000  0.49250000  1.0 0.1221041184
H  H421  1  0.78570000  0.67470000  0.00750000  1.0 0.1221041184
H  H422  1  0.67470000  0.78570000  0.53210000  1.0 0.1221041184
H  H423  1  0.53210000  0.00750000  0.67470000  1.0 0.1221041184
H  H424  1  0.00750000  0.53210000  0.78570000  1.0 0.1221041184
H  H425  1  0.53210000  0.78570000  0.00750000  1.0 0.1221041184
H  H426  1  0.00750000  0.67470000  0.53210000  1.0 0.1221041184
H  H427  1  0.78570000  0.53210000  0.67470000  1.0 0.1221041184
H  H428  1  0.67470000  0.00750000  0.78570000  1.0 0.1221041184
H  H429  1  0.67470000  0.53210000  0.00750000  1.0 0.1221041184
H  H430  1  0.78570000  0.00750000  0.53210000  1.0 0.1221041184
H  H431  1  0.00750000  0.78570000  0.67470000  1.0 0.1221041184
H  H432  1  0.53210000  0.67470000  0.78570000  1.0 0.1221041184
C  C1  1  0.37950000  0.00490000  0.06670000  1.0 0.471625138
C  C2  1  0.00490000  0.37950000  0.54890000  1.0 0.471625138
C  C3  1  0.06670000  0.54890000  0.37950000  1.0 0.471625138
C  C4  1  0.54890000  0.06670000  0.00490000  1.0 0.471625138
C  C5  1  0.06670000  0.37950000  0.00490000  1.0 0.471625138
C  C6  1  0.54890000  0.00490000  0.37950000  1.0 0.471625138
C  C7  1  0.37950000  0.06670000  0.54890000  1.0 0.471625138
C  C8  1  0.00490000  0.54890000  0.06670000  1.0 0.471625138
C  C9  1  0.00490000  0.06670000  0.37950000  1.0 0.471625138
C  C10  1  0.37950000  0.54890000  0.00490000  1.0 0.471625138
C  C11  1  0.54890000  0.37950000  0.06670000  1.0 0.471625138
C  C12  1  0.06670000  0.00490000  0.54890000  1.0 0.471625138
C  C13  1  0.12050000  0.49510000  0.95110000  1.0 0.471625138
C  C14  1  0.49510000  0.12050000  0.43330000  1.0 0.471625138
C  C15  1  0.43330000  0.95110000  0.49510000  1.0 0.471625138
C  C16  1  0.95110000  0.43330000  0.12050000  1.0 0.471625138
C  C17  1  0.43330000  0.12050000  0.95110000  1.0 0.471625138
C  C18  1  0.95110000  0.49510000  0.43330000  1.0 0.471625138
C  C19  1  0.12050000  0.43330000  0.49510000  1.0 0.471625138
C  C20  1  0.49510000  0.95110000  0.12050000  1.0 0.471625138
C  C21  1  0.49510000  0.43330000  0.95110000  1.0 0.471625138
C  C22  1  0.12050000  0.95110000  0.43330000  1.0 0.471625138
C  C23  1  0.95110000  0.12050000  0.49510000  1.0 0.471625138
C  C24  1  0.43330000  0.49510000  0.12050000  1.0 0.471625138
C  C25  1  0.62050000  0.99510000  0.93330000  1.0 0.471625138
C  C26  1  0.99510000  0.62050000  0.45110000  1.0 0.471625138
C  C27  1  0.93330000  0.45110000  0.62050000  1.0 0.471625138
C  C28  1  0.45110000  0.93330000  0.99510000  1.0 0.471625138
C  C29  1  0.93330000  0.62050000  0.99510000  1.0 0.471625138
C  C30  1  0.45110000  0.99510000  0.62050000  1.0 0.471625138
C  C31  1  0.62050000  0.93330000  0.45110000  1.0 0.471625138
C  C32  1  0.99510000  0.45110000  0.93330000  1.0 0.471625138
C  C33  1  0.99510000  0.93330000  0.62050000  1.0 0.471625138
C  C34  1  0.62050000  0.45110000  0.99510000  1.0 0.471625138
C  C35  1  0.45110000  0.62050000  0.93330000  1.0 0.471625138
C  C36  1  0.93330000  0.99510000  0.45110000  1.0 0.471625138
C  C37  1  0.87950000  0.50490000  0.04890000  1.0 0.471625138
C  C38  1  0.50490000  0.87950000  0.56670000  1.0 0.471625138
C  C39  1  0.56670000  0.04890000  0.50490000  1.0 0.471625138
C  C40  1  0.04890000  0.56670000  0.87950000  1.0 0.471625138
C  C41  1  0.56670000  0.87950000  0.04890000  1.0 0.471625138
C  C42  1  0.04890000  0.50490000  0.56670000  1.0 0.471625138
C  C43  1  0.87950000  0.56670000  0.50490000  1.0 0.471625138
C  C44  1  0.50490000  0.04890000  0.87950000  1.0 0.471625138
C  C45  1  0.50490000  0.56670000  0.04890000  1.0 0.471625138
C  C46  1  0.87950000  0.04890000  0.56670000  1.0 0.471625138
C  C47  1  0.04890000  0.87950000  0.50490000  1.0 0.471625138
C  C48  1  0.56670000  0.50490000  0.87950000  1.0 0.471625138
C  C49  1  0.32930000  0.03210000  0.08810000  1.0 -0.0418961153
C  C50  1  0.03210000  0.32930000  0.55050000  1.0 -0.0418961153
C  C51  1  0.08810000  0.55050000  0.32930000  1.0 -0.0418961153
C  C52  1  0.55050000  0.08810000  0.03210000  1.0 -0.0418961153
C  C53  1  0.08810000  0.32930000  0.03210000  1.0 -0.0418961153
C  C54  1  0.55050000  0.03210000  0.32930000  1.0 -0.0418961153
C  C55  1  0.32930000  0.08810000  0.55050000  1.0 -0.0418961153
C  C56  1  0.03210000  0.55050000  0.08810000  1.0 -0.0418961153
C  C57  1  0.03210000  0.08810000  0.32930000  1.0 -0.0418961153
C  C58  1  0.32930000  0.55050000  0.03210000  1.0 -0.0418961153
C  C59  1  0.55050000  0.32930000  0.08810000  1.0 -0.0418961153
C  C60  1  0.08810000  0.03210000  0.55050000  1.0 -0.0418961153
C  C61  1  0.17070000  0.46790000  0.94950000  1.0 -0.0418961153
C  C62  1  0.46790000  0.17070000  0.41190000  1.0 -0.0418961153
C  C63  1  0.41190000  0.94950000  0.46790000  1.0 -0.0418961153
C  C64  1  0.94950000  0.41190000  0.17070000  1.0 -0.0418961153
C  C65  1  0.41190000  0.17070000  0.94950000  1.0 -0.0418961153
C  C66  1  0.94950000  0.46790000  0.41190000  1.0 -0.0418961153
C  C67  1  0.17070000  0.41190000  0.46790000  1.0 -0.0418961153
C  C68  1  0.46790000  0.94950000  0.17070000  1.0 -0.0418961153
C  C69  1  0.46790000  0.41190000  0.94950000  1.0 -0.0418961153
C  C70  1  0.17070000  0.94950000  0.41190000  1.0 -0.0418961153
C  C71  1  0.94950000  0.17070000  0.46790000  1.0 -0.0418961153
C  C72  1  0.41190000  0.46790000  0.17070000  1.0 -0.0418961153
C  C73  1  0.67070000  0.96790000  0.91190000  1.0 -0.0418961153
C  C74  1  0.96790000  0.67070000  0.44950000  1.0 -0.0418961153
C  C75  1  0.91190000  0.44950000  0.67070000  1.0 -0.0418961153
C  C76  1  0.44950000  0.91190000  0.96790000  1.0 -0.0418961153
C  C77  1  0.91190000  0.67070000  0.96790000  1.0 -0.0418961153
C  C78  1  0.44950000  0.96790000  0.67070000  1.0 -0.0418961153
C  C79  1  0.67070000  0.91190000  0.44950000  1.0 -0.0418961153
C  C80  1  0.96790000  0.44950000  0.91190000  1.0 -0.0418961153
C  C81  1  0.96790000  0.91190000  0.67070000  1.0 -0.0418961153
C  C82  1  0.67070000  0.44950000  0.96790000  1.0 -0.0418961153
C  C83  1  0.44950000  0.67070000  0.91190000  1.0 -0.0418961153
C  C84  1  0.91190000  0.96790000  0.44950000  1.0 -0.0418961153
C  C85  1  0.82930000  0.53210000  0.05050000  1.0 -0.0418961153
C  C86  1  0.53210000  0.82930000  0.58810000  1.0 -0.0418961153
C  C87  1  0.58810000  0.05050000  0.53210000  1.0 -0.0418961153
C  C88  1  0.05050000  0.58810000  0.82930000  1.0 -0.0418961153
C  C89  1  0.58810000  0.82930000  0.05050000  1.0 -0.0418961153
C  C90  1  0.05050000  0.53210000  0.58810000  1.0 -0.0418961153
C  C91  1  0.82930000  0.58810000  0.53210000  1.0 -0.0418961153
C  C92  1  0.53210000  0.05050000  0.82930000  1.0 -0.0418961153
C  C93  1  0.53210000  0.58810000  0.05050000  1.0 -0.0418961153
C  C94  1  0.82930000  0.05050000  0.58810000  1.0 -0.0418961153
C  C95  1  0.05050000  0.82930000  0.53210000  1.0 -0.0418961153
C  C96  1  0.58810000  0.53210000  0.82930000  1.0 -0.0418961153
C  C97  1  0.30540000  0.00880000  0.13320000  1.0 -0.1151021392
C  C98  1  0.00880000  0.30540000  0.55260000  1.0 -0.1151021392
C  C99  1  0.13320000  0.55260000  0.30540000  1.0 -0.1151021392
C  C100  1  0.55260000  0.13320000  0.00880000  1.0 -0.1151021392
C  C101  1  0.13320000  0.30540000  0.00880000  1.0 -0.1151021392
C  C102  1  0.55260000  0.00880000  0.30540000  1.0 -0.1151021392
C  C103  1  0.30540000  0.13320000  0.55260000  1.0 -0.1151021392
C  C104  1  0.00880000  0.55260000  0.13320000  1.0 -0.1151021392
C  C105  1  0.00880000  0.13320000  0.30540000  1.0 -0.1143966094
C  C106  1  0.30540000  0.55260000  0.00880000  1.0 -0.1151021392
C  C107  1  0.55260000  0.30540000  0.13320000  1.0 -0.1151021392
C  C108  1  0.13320000  0.00880000  0.55260000  1.0 -0.1151021392
C  C109  1  0.19460000  0.49120000  0.94740000  1.0 -0.1151021392
C  C110  1  0.49120000  0.19460000  0.36680000  1.0 -0.1151021392
C  C111  1  0.36680000  0.94740000  0.49120000  1.0 -0.1151021392
C  C112  1  0.94740000  0.36680000  0.19460000  1.0 -0.1151021392
C  C113  1  0.36680000  0.19460000  0.94740000  1.0 -0.1151021392
C  C114  1  0.94740000  0.49120000  0.36680000  1.0 -0.1151021392
C  C115  1  0.19460000  0.36680000  0.49120000  1.0 -0.1151021392
C  C116  1  0.49120000  0.94740000  0.19460000  1.0 -0.1151021392
C  C117  1  0.49120000  0.36680000  0.94740000  1.0 -0.1151021392
C  C118  1  0.19460000  0.94740000  0.36680000  1.0 -0.1151021392
C  C119  1  0.94740000  0.19460000  0.49120000  1.0 -0.1151021392
C  C120  1  0.36680000  0.49120000  0.19460000  1.0 -0.1143966094
C  C121  1  0.69460000  0.99120000  0.86680000  1.0 -0.1151021392
C  C122  1  0.99120000  0.69460000  0.44740000  1.0 -0.1151021392
C  C123  1  0.86680000  0.44740000  0.69460000  1.0 -0.1151021392
C  C124  1  0.44740000  0.86680000  0.99120000  1.0 -0.1151021392
C  C125  1  0.86680000  0.69460000  0.99120000  1.0 -0.1151021392
C  C126  1  0.44740000  0.99120000  0.69460000  1.0 -0.1151021392
C  C127  1  0.69460000  0.86680000  0.44740000  1.0 -0.1151021392
C  C128  1  0.99120000  0.44740000  0.86680000  1.0 -0.1151021392
C  C129  1  0.99120000  0.86680000  0.69460000  1.0 -0.1151021392
C  C130  1  0.69460000  0.44740000  0.99120000  1.0 -0.1151021392
C  C131  1  0.44740000  0.69460000  0.86680000  1.0 -0.1151021392
C  C132  1  0.86680000  0.99120000  0.44740000  1.0 -0.1151021392
C  C133  1  0.80540000  0.50880000  0.05260000  1.0 -0.1151021392
C  C134  1  0.50880000  0.80540000  0.63320000  1.0 -0.1151021392
C  C135  1  0.63320000  0.05260000  0.50880000  1.0 -0.1151021392
C  C136  1  0.05260000  0.63320000  0.80540000  1.0 -0.1151021392
C  C137  1  0.63320000  0.80540000  0.05260000  1.0 -0.1151021392
C  C138  1  0.05260000  0.50880000  0.63320000  1.0 -0.1151021392
C  C139  1  0.80540000  0.63320000  0.50880000  1.0 -0.1151021392
C  C140  1  0.50880000  0.05260000  0.80540000  1.0 -0.1151021392
C  C141  1  0.50880000  0.63320000  0.05260000  1.0 -0.1151021392
C  C142  1  0.80540000  0.05260000  0.63320000  1.0 -0.1151021392
C  C143  1  0.05260000  0.80540000  0.50880000  1.0 -0.1151021392
C  C144  1  0.63320000  0.50880000  0.80540000  1.0 -0.1151021392
C  C145  1  0.30730000  0.07610000  0.06610000  1.0 -0.1349287316
C  C146  1  0.07610000  0.30730000  0.55050000  1.0 -0.1349287316
C  C147  1  0.06610000  0.55050000  0.30730000  1.0 -0.1357107238
C  C148  1  0.55050000  0.06610000  0.07610000  1.0 -0.1349287316
C  C149  1  0.06610000  0.30730000  0.07610000  1.0 -0.1357107238
C  C150  1  0.55050000  0.07610000  0.30730000  1.0 -0.1349287316
C  C151  1  0.30730000  0.06610000  0.55050000  1.0 -0.1357107238
C  C152  1  0.07610000  0.55050000  0.06610000  1.0 -0.1349287316
C  C153  1  0.07610000  0.06610000  0.30730000  1.0 -0.1349287316
C  C154  1  0.30730000  0.55050000  0.07610000  1.0 -0.1357107238
C  C155  1  0.55050000  0.30730000  0.06610000  1.0 -0.1349287316
C  C156  1  0.06610000  0.07610000  0.55050000  1.0 -0.1349287316
C  C157  1  0.19270000  0.42390000  0.94950000  1.0 -0.1349287316
C  C158  1  0.42390000  0.19270000  0.43390000  1.0 -0.1349287316
C  C159  1  0.43390000  0.94950000  0.42390000  1.0 -0.1349287316
C  C160  1  0.94950000  0.43390000  0.19270000  1.0 -0.1357107238
C  C161  1  0.43390000  0.19270000  0.94950000  1.0 -0.1349287316
C  C162  1  0.94950000  0.42390000  0.43390000  1.0 -0.1349287316
C  C163  1  0.19270000  0.43390000  0.42390000  1.0 -0.1349287316
C  C164  1  0.42390000  0.94950000  0.19270000  1.0 -0.1349287316
C  C165  1  0.42390000  0.43390000  0.94950000  1.0 -0.1349287316
C  C166  1  0.19270000  0.94950000  0.43390000  1.0 -0.1349287316
C  C167  1  0.94950000  0.19270000  0.42390000  1.0 -0.1349287316
C  C168  1  0.43390000  0.42390000  0.19270000  1.0 -0.1349287316
C  C169  1  0.69270000  0.92390000  0.93390000  1.0 -0.1349287316
C  C170  1  0.92390000  0.69270000  0.44950000  1.0 -0.1349287316
C  C171  1  0.93390000  0.44950000  0.69270000  1.0 -0.1349287316
C  C172  1  0.44950000  0.93390000  0.92390000  1.0 -0.1349287316
C  C173  1  0.93390000  0.69270000  0.92390000  1.0 -0.1349287316
C  C174  1  0.44950000  0.92390000  0.69270000  1.0 -0.1349287316
C  C175  1  0.69270000  0.93390000  0.44950000  1.0 -0.1349287316
C  C176  1  0.92390000  0.44950000  0.93390000  1.0 -0.1349287316
C  C177  1  0.92390000  0.93390000  0.69270000  1.0 -0.1357107238
C  C178  1  0.69270000  0.44950000  0.92390000  1.0 -0.1349287316
C  C179  1  0.44950000  0.69270000  0.93390000  1.0 -0.1349287316
C  C180  1  0.93390000  0.92390000  0.44950000  1.0 -0.1349287316
C  C181  1  0.80730000  0.57610000  0.05050000  1.0 -0.1357107238
C  C182  1  0.57610000  0.80730000  0.56610000  1.0 -0.1349287316
C  C183  1  0.56610000  0.05050000  0.57610000  1.0 -0.1349287316
C  C184  1  0.05050000  0.56610000  0.80730000  1.0 -0.1349287316
C  C185  1  0.56610000  0.80730000  0.05050000  1.0 -0.1349287316
C  C186  1  0.05050000  0.57610000  0.56610000  1.0 -0.1349287316
C  C187  1  0.80730000  0.56610000  0.57610000  1.0 -0.1349287316
C  C188  1  0.57610000  0.05050000  0.80730000  1.0 -0.1349287316
C  C189  1  0.57610000  0.56610000  0.05050000  1.0 -0.1349287316
C  C190  1  0.80730000  0.05050000  0.56610000  1.0 -0.1349287316
C  C191  1  0.05050000  0.80730000  0.57610000  1.0 -0.1357107238
C  C192  1  0.56610000  0.57610000  0.80730000  1.0 -0.1349287316
C  C193  1  0.25900000  0.03080000  0.15740000  1.0 -0.153171193
C  C194  1  0.03080000  0.25900000  0.55280000  1.0 -0.153171193
C  C195  1  0.15740000  0.55280000  0.25900000  1.0 -0.153171193
C  C196  1  0.55280000  0.15740000  0.03080000  1.0 -0.153171193
C  C197  1  0.15740000  0.25900000  0.03080000  1.0 -0.153171193
C  C198  1  0.55280000  0.03080000  0.25900000  1.0 -0.153171193
C  C199  1  0.25900000  0.15740000  0.55280000  1.0 -0.153171193
C  C200  1  0.03080000  0.55280000  0.15740000  1.0 -0.153171193
C  C201  1  0.03080000  0.15740000  0.25900000  1.0 -0.153171193
C  C202  1  0.25900000  0.55280000  0.03080000  1.0 -0.153171193
C  C203  1  0.55280000  0.25900000  0.15740000  1.0 -0.153171193
C  C204  1  0.15740000  0.03080000  0.55280000  1.0 -0.153171193
C  C205  1  0.24100000  0.46920000  0.94720000  1.0 -0.153171193
C  C206  1  0.46920000  0.24100000  0.34260000  1.0 -0.153171193
C  C207  1  0.34260000  0.94720000  0.46920000  1.0 -0.153171193
C  C208  1  0.94720000  0.34260000  0.24100000  1.0 -0.153171193
C  C209  1  0.34260000  0.24100000  0.94720000  1.0 -0.153171193
C  C210  1  0.94720000  0.46920000  0.34260000  1.0 -0.153171193
C  C211  1  0.24100000  0.34260000  0.46920000  1.0 -0.153171193
C  C212  1  0.46920000  0.94720000  0.24100000  1.0 -0.153171193
C  C213  1  0.46920000  0.34260000  0.94720000  1.0 -0.153171193
C  C214  1  0.24100000  0.94720000  0.34260000  1.0 -0.153171193
C  C215  1  0.94720000  0.24100000  0.46920000  1.0 -0.153171193
C  C216  1  0.34260000  0.46920000  0.24100000  1.0 -0.153171193
C  C217  1  0.74100000  0.96920000  0.84260000  1.0 -0.153171193
C  C218  1  0.96920000  0.74100000  0.44720000  1.0 -0.153171193
C  C219  1  0.84260000  0.44720000  0.74100000  1.0 -0.153171193
C  C220  1  0.44720000  0.84260000  0.96920000  1.0 -0.153171193
C  C221  1  0.84260000  0.74100000  0.96920000  1.0 -0.153171193
C  C222  1  0.44720000  0.96920000  0.74100000  1.0 -0.153171193
C  C223  1  0.74100000  0.84260000  0.44720000  1.0 -0.153171193
C  C224  1  0.96920000  0.44720000  0.84260000  1.0 -0.153171193
C  C225  1  0.96920000  0.84260000  0.74100000  1.0 -0.153171193
C  C226  1  0.74100000  0.44720000  0.96920000  1.0 -0.153171193
C  C227  1  0.44720000  0.74100000  0.84260000  1.0 -0.153171193
C  C228  1  0.84260000  0.96920000  0.44720000  1.0 -0.153171193
C  C229  1  0.75900000  0.53080000  0.05280000  1.0 -0.153171193
C  C230  1  0.53080000  0.75900000  0.65740000  1.0 -0.153171193
C  C231  1  0.65740000  0.05280000  0.53080000  1.0 -0.153171193
C  C232  1  0.05280000  0.65740000  0.75900000  1.0 -0.153171193
C  C233  1  0.65740000  0.75900000  0.05280000  1.0 -0.153171193
C  C234  1  0.05280000  0.53080000  0.65740000  1.0 -0.153171193
C  C235  1  0.75900000  0.65740000  0.53080000  1.0 -0.153171193
C  C236  1  0.53080000  0.05280000  0.75900000  1.0 -0.153171193
C  C237  1  0.53080000  0.65740000  0.05280000  1.0 -0.153171193
C  C238  1  0.75900000  0.05280000  0.65740000  1.0 -0.153171193
C  C239  1  0.05280000  0.75900000  0.53080000  1.0 -0.153171193
C  C240  1  0.65740000  0.53080000  0.75900000  1.0 -0.153171193
C  C241  1  0.23722000  0.07618000  0.13286000  1.0 0.0301837077
C  C242  1  0.07618000  0.23722000  0.55374000  1.0 0.0301837077
C  C243  1  0.13286000  0.55374000  0.23722000  1.0 0.0301837077
C  C244  1  0.55374000  0.13286000  0.07618000  1.0 0.0301837077
C  C245  1  0.13286000  0.23722000  0.07618000  1.0 0.0301837077
C  C246  1  0.55374000  0.07618000  0.23722000  1.0 0.0301837077
C  C247  1  0.23722000  0.13286000  0.55374000  1.0 0.0301837077
C  C248  1  0.07618000  0.55374000  0.13286000  1.0 0.0301837077
C  C249  1  0.07618000  0.13286000  0.23722000  1.0 0.0301837077
C  C250  1  0.23722000  0.55374000  0.07618000  1.0 0.0301837077
C  C251  1  0.55374000  0.23722000  0.13286000  1.0 0.0301837077
C  C252  1  0.13286000  0.07618000  0.55374000  1.0 0.0301837077
C  C253  1  0.26278000  0.42382000  0.94626000  1.0 0.0301837077
C  C254  1  0.42382000  0.26278000  0.36714000  1.0 0.0301837077
C  C255  1  0.36714000  0.94626000  0.42382000  1.0 0.0301837077
C  C256  1  0.94626000  0.36714000  0.26278000  1.0 0.0301837077
C  C257  1  0.36714000  0.26278000  0.94626000  1.0 0.0301837077
C  C258  1  0.94626000  0.42382000  0.36714000  1.0 0.0301837077
C  C259  1  0.26278000  0.36714000  0.42382000  1.0 0.0301837077
C  C260  1  0.42382000  0.94626000  0.26278000  1.0 0.0301837077
C  C261  1  0.42382000  0.36714000  0.94626000  1.0 0.0301837077
C  C262  1  0.26278000  0.94626000  0.36714000  1.0 0.0301837077
C  C263  1  0.94626000  0.26278000  0.42382000  1.0 0.0301837077
C  C264  1  0.36714000  0.42382000  0.26278000  1.0 0.0301837077
C  C265  1  0.76278000  0.92382000  0.86714000  1.0 0.0301837077
C  C266  1  0.92382000  0.76278000  0.44626000  1.0 0.0301837077
C  C267  1  0.86714000  0.44626000  0.76278000  1.0 0.0301837077
C  C268  1  0.44626000  0.86714000  0.92382000  1.0 0.0301837077
C  C269  1  0.86714000  0.76278000  0.92382000  1.0 0.0301837077
C  C270  1  0.44626000  0.92382000  0.76278000  1.0 0.0301837077
C  C271  1  0.76278000  0.86714000  0.44626000  1.0 0.0301837077
C  C272  1  0.92382000  0.44626000  0.86714000  1.0 0.0301837077
C  C273  1  0.92382000  0.86714000  0.76278000  1.0 0.0301837077
C  C274  1  0.76278000  0.44626000  0.92382000  1.0 0.0301837077
C  C275  1  0.44626000  0.76278000  0.86714000  1.0 0.0301837077
C  C276  1  0.86714000  0.92382000  0.44626000  1.0 0.0301837077
C  C277  1  0.73722000  0.57618000  0.05374000  1.0 0.0301837077
C  C278  1  0.57618000  0.73722000  0.63286000  1.0 0.0301837077
C  C279  1  0.63286000  0.05374000  0.57618000  1.0 0.0301837077
C  C280  1  0.05374000  0.63286000  0.73722000  1.0 0.0301837077
C  C281  1  0.63286000  0.73722000  0.05374000  1.0 0.0301837077
C  C282  1  0.05374000  0.57618000  0.63286000  1.0 0.0301837077
C  C283  1  0.73722000  0.63286000  0.57618000  1.0 0.0301837077
C  C284  1  0.57618000  0.05374000  0.73722000  1.0 0.0301837077
C  C285  1  0.57618000  0.63286000  0.05374000  1.0 0.0301837077
C  C286  1  0.73722000  0.05374000  0.63286000  1.0 0.0301837077
C  C287  1  0.05374000  0.73722000  0.57618000  1.0 0.0301837077
C  C288  1  0.63286000  0.57618000  0.73722000  1.0 0.0301837077
C  C289  1  0.26243000  0.09745000  0.08747000  1.0 0.0301837077
C  C290  1  0.09745000  0.26243000  0.55265000  1.0 0.0301837077
C  C291  1  0.08747000  0.55265000  0.26243000  1.0 0.0301837077
C  C292  1  0.55265000  0.08747000  0.09745000  1.0 0.0301837077
C  C293  1  0.08747000  0.26243000  0.09745000  1.0 0.0301837077
C  C294  1  0.55265000  0.09745000  0.26243000  1.0 0.0301837077
C  C295  1  0.26243000  0.08747000  0.55265000  1.0 0.0301837077
C  C296  1  0.09745000  0.55265000  0.08747000  1.0 0.0301837077
C  C297  1  0.09745000  0.08747000  0.26243000  1.0 0.0301837077
C  C298  1  0.26243000  0.55265000  0.09745000  1.0 0.0301837077
C  C299  1  0.55265000  0.26243000  0.08747000  1.0 0.0301837077
C  C300  1  0.08747000  0.09745000  0.55265000  1.0 0.0301837077
C  C301  1  0.23757000  0.40255000  0.94735000  1.0 0.0301837077
C  C302  1  0.40255000  0.23757000  0.41253000  1.0 0.0301837077
C  C303  1  0.41253000  0.94735000  0.40255000  1.0 0.0301837077
C  C304  1  0.94735000  0.41253000  0.23757000  1.0 0.0301837077
C  C305  1  0.41253000  0.23757000  0.94735000  1.0 0.0301837077
C  C306  1  0.94735000  0.40255000  0.41253000  1.0 0.0301837077
C  C307  1  0.23757000  0.41253000  0.40255000  1.0 0.0301837077
C  C308  1  0.40255000  0.94735000  0.23757000  1.0 0.0301837077
C  C309  1  0.40255000  0.41253000  0.94735000  1.0 0.0301837077
C  C310  1  0.23757000  0.94735000  0.41253000  1.0 0.0301837077
C  C311  1  0.94735000  0.23757000  0.40255000  1.0 0.0301837077
C  C312  1  0.41253000  0.40255000  0.23757000  1.0 0.0301837077
C  C313  1  0.73757000  0.90255000  0.91253000  1.0 0.0301837077
C  C314  1  0.90255000  0.73757000  0.44735000  1.0 0.0301837077
C  C315  1  0.91253000  0.44735000  0.73757000  1.0 0.0301837077
C  C316  1  0.44735000  0.91253000  0.90255000  1.0 0.0301837077
C  C317  1  0.91253000  0.73757000  0.90255000  1.0 0.0301837077
C  C318  1  0.44735000  0.90255000  0.73757000  1.0 0.0301837077
C  C319  1  0.73757000  0.91253000  0.44735000  1.0 0.0301837077
C  C320  1  0.90255000  0.44735000  0.91253000  1.0 0.0301837077
C  C321  1  0.90255000  0.91253000  0.73757000  1.0 0.0301837077
C  C322  1  0.73757000  0.44735000  0.90255000  1.0 0.0301837077
C  C323  1  0.44735000  0.73757000  0.91253000  1.0 0.0301837077
C  C324  1  0.91253000  0.90255000  0.44735000  1.0 0.0301837077
C  C325  1  0.76243000  0.59745000  0.05265000  1.0 0.0301837077
C  C326  1  0.59745000  0.76243000  0.58747000  1.0 0.0301837077
C  C327  1  0.58747000  0.05265000  0.59745000  1.0 0.0301837077
C  C328  1  0.05265000  0.58747000  0.76243000  1.0 0.0301837077
C  C329  1  0.58747000  0.76243000  0.05265000  1.0 0.0301837077
C  C330  1  0.05265000  0.59745000  0.58747000  1.0 0.0301837077
C  C331  1  0.76243000  0.58747000  0.59745000  1.0 0.0301837077
C  C332  1  0.59745000  0.05265000  0.76243000  1.0 0.0301837077
C  C333  1  0.59745000  0.58747000  0.05265000  1.0 0.0301837077
C  C334  1  0.76243000  0.05265000  0.58747000  1.0 0.0301837077
C  C335  1  0.05265000  0.76243000  0.59745000  1.0 0.0301837077
C  C336  1  0.58747000  0.59745000  0.76243000  1.0 0.0301837077
C  C337  1  0.23244000  0.14758000  0.06684000  1.0 0.1771103286
C  C338  1  0.14758000  0.23244000  0.55314000  1.0 0.1771103286
C  C339  1  0.06684000  0.55314000  0.23244000  1.0 0.1771103286
C  C340  1  0.55314000  0.06684000  0.14758000  1.0 0.1771103286
C  C341  1  0.06684000  0.23244000  0.14758000  1.0 0.1771103286
C  C342  1  0.55314000  0.14758000  0.23244000  1.0 0.1771103286
C  C343  1  0.23244000  0.06684000  0.55314000  1.0 0.1771103286
C  C344  1  0.14758000  0.55314000  0.06684000  1.0 0.1771103286
C  C345  1  0.14758000  0.06684000  0.23244000  1.0 0.1771103286
C  C346  1  0.23244000  0.55314000  0.14758000  1.0 0.1771103286
C  C347  1  0.55314000  0.23244000  0.06684000  1.0 0.1771103286
C  C348  1  0.06684000  0.14758000  0.55314000  1.0 0.1771103286
C  C349  1  0.26756000  0.35242000  0.94686000  1.0 0.1771103286
C  C350  1  0.35242000  0.26756000  0.43316000  1.0 0.1771103286
C  C351  1  0.43316000  0.94686000  0.35242000  1.0 0.1771103286
C  C352  1  0.94686000  0.43316000  0.26756000  1.0 0.1771103286
C  C353  1  0.43316000  0.26756000  0.94686000  1.0 0.1771103286
C  C354  1  0.94686000  0.35242000  0.43316000  1.0 0.1771103286
C  C355  1  0.26756000  0.43316000  0.35242000  1.0 0.1771103286
C  C356  1  0.35242000  0.94686000  0.26756000  1.0 0.1771103286
C  C357  1  0.35242000  0.43316000  0.94686000  1.0 0.1771103286
C  C358  1  0.26756000  0.94686000  0.43316000  1.0 0.1771103286
C  C359  1  0.94686000  0.26756000  0.35242000  1.0 0.1771103286
C  C360  1  0.43316000  0.35242000  0.26756000  1.0 0.1771103286
C  C361  1  0.76756000  0.85242000  0.93316000  1.0 0.1771103286
C  C362  1  0.85242000  0.76756000  0.44686000  1.0 0.1771103286
C  C363  1  0.93316000  0.44686000  0.76756000  1.0 0.1771103286
C  C364  1  0.44686000  0.93316000  0.85242000  1.0 0.1771103286
C  C365  1  0.93316000  0.76756000  0.85242000  1.0 0.1771103286
C  C366  1  0.44686000  0.85242000  0.76756000  1.0 0.1771103286
C  C367  1  0.76756000  0.93316000  0.44686000  1.0 0.1771103286
C  C368  1  0.85242000  0.44686000  0.93316000  1.0 0.1771103286
C  C369  1  0.85242000  0.93316000  0.76756000  1.0 0.1771103286
C  C370  1  0.76756000  0.44686000  0.85242000  1.0 0.1771103286
C  C371  1  0.44686000  0.76756000  0.93316000  1.0 0.1771103286
C  C372  1  0.93316000  0.85242000  0.44686000  1.0 0.1771103286
C  C373  1  0.73244000  0.64758000  0.05314000  1.0 0.1771103286
C  C374  1  0.64758000  0.73244000  0.56684000  1.0 0.1771103286
C  C375  1  0.56684000  0.05314000  0.64758000  1.0 0.1771103286
C  C376  1  0.05314000  0.56684000  0.73244000  1.0 0.1771103286
C  C377  1  0.56684000  0.73244000  0.05314000  1.0 0.1771103286
C  C378  1  0.05314000  0.64758000  0.56684000  1.0 0.1771103286
C  C379  1  0.73244000  0.56684000  0.64758000  1.0 0.1771103286
C  C380  1  0.64758000  0.05314000  0.73244000  1.0 0.1771103286
C  C381  1  0.64758000  0.56684000  0.05314000  1.0 0.1771103286
C  C382  1  0.73244000  0.05314000  0.56684000  1.0 0.1771103286
C  C383  1  0.05314000  0.73244000  0.64758000  1.0 0.1771103286
C  C384  1  0.56684000  0.64758000  0.73244000  1.0 0.1771103286
C  C385  1  0.22945000  0.15095000  0.02495000  1.0 -0.4454971478
C  C386  1  0.15095000  0.22945000  0.59465000  1.0 -0.4454971478
C  C387  1  0.02495000  0.59465000  0.22945000  1.0 -0.4454971478
C  C388  1  0.59465000  0.02495000  0.15095000  1.0 -0.4454971478
C  C389  1  0.02495000  0.22945000  0.15095000  1.0 -0.4454971478
C  C390  1  0.59465000  0.15095000  0.22945000  1.0 -0.4454971478
C  C391  1  0.22945000  0.02495000  0.59465000  1.0 -0.4454971478
C  C392  1  0.15095000  0.59465000  0.02495000  1.0 -0.4454971478
C  C393  1  0.15095000  0.02495000  0.22945000  1.0 -0.4454971478
C  C394  1  0.22945000  0.59465000  0.15095000  1.0 -0.4454971478
C  C395  1  0.59465000  0.22945000  0.02495000  1.0 -0.4454971478
C  C396  1  0.02495000  0.15095000  0.59465000  1.0 -0.4454971478
C  C397  1  0.27055000  0.34905000  0.90535000  1.0 -0.4454971478
C  C398  1  0.34905000  0.27055000  0.47505000  1.0 -0.4454971478
C  C399  1  0.47505000  0.90535000  0.34905000  1.0 -0.4454971478
C  C400  1  0.90535000  0.47505000  0.27055000  1.0 -0.4454971478
C  C401  1  0.47505000  0.27055000  0.90535000  1.0 -0.4454971478
C  C402  1  0.90535000  0.34905000  0.47505000  1.0 -0.4454971478
C  C403  1  0.27055000  0.47505000  0.34905000  1.0 -0.4454971478
C  C404  1  0.34905000  0.90535000  0.27055000  1.0 -0.4454971478
C  C405  1  0.34905000  0.47505000  0.90535000  1.0 -0.4454971478
C  C406  1  0.27055000  0.90535000  0.47505000  1.0 -0.4454971478
C  C407  1  0.90535000  0.27055000  0.34905000  1.0 -0.4454971478
C  C408  1  0.47505000  0.34905000  0.27055000  1.0 -0.4454971478
C  C409  1  0.77055000  0.84905000  0.97505000  1.0 -0.4454971478
C  C410  1  0.84905000  0.77055000  0.40535000  1.0 -0.4454971478
C  C411  1  0.97505000  0.40535000  0.77055000  1.0 -0.4454971478
C  C412  1  0.40535000  0.97505000  0.84905000  1.0 -0.4454971478
C  C413  1  0.97505000  0.77055000  0.84905000  1.0 -0.4454971478
C  C414  1  0.40535000  0.84905000  0.77055000  1.0 -0.4454971478
C  C415  1  0.77055000  0.97505000  0.40535000  1.0 -0.4454971478
C  C416  1  0.84905000  0.40535000  0.97505000  1.0 -0.4454971478
C  C417  1  0.84905000  0.97505000  0.77055000  1.0 -0.4454971478
C  C418  1  0.77055000  0.40535000  0.84905000  1.0 -0.4454971478
C  C419  1  0.40535000  0.77055000  0.97505000  1.0 -0.4454971478
C  C420  1  0.97505000  0.84905000  0.40535000  1.0 -0.4454971478
C  C421  1  0.72945000  0.65095000  0.09465000  1.0 -0.4454971478
C  C422  1  0.65095000  0.72945000  0.52495000  1.0 -0.4454971478
C  C423  1  0.52495000  0.09465000  0.65095000  1.0 -0.4454971478
C  C424  1  0.09465000  0.52495000  0.72945000  1.0 -0.4454971478
C  C425  1  0.52495000  0.72945000  0.09465000  1.0 -0.4454971478
C  C426  1  0.09465000  0.65095000  0.52495000  1.0 -0.4454971478
C  C427  1  0.72945000  0.52495000  0.65095000  1.0 -0.4454971478
C  C428  1  0.65095000  0.09465000  0.72945000  1.0 -0.4454971478
C  C429  1  0.65095000  0.52495000  0.09465000  1.0 -0.4454971478
C  C430  1  0.72945000  0.09465000  0.52495000  1.0 -0.4454971478
C  C431  1  0.09465000  0.72945000  0.65095000  1.0 -0.4454971478
C  C432  1  0.52495000  0.65095000  0.72945000  1.0 -0.4454971478
C  C433  1  0.25457000  0.18137000  0.05503000  1.0 -0.4689164113
C  C434  1  0.18137000  0.25457000  0.50903000  1.0 -0.4689164113
C  C435  1  0.05503000  0.50903000  0.25457000  1.0 -0.4689164113
C  C436  1  0.50903000  0.05503000  0.18137000  1.0 -0.4689164113
C  C437  1  0.05503000  0.25457000  0.18137000  1.0 -0.4689164113
C  C438  1  0.50903000  0.18137000  0.25457000  1.0 -0.4689164113
C  C439  1  0.25457000  0.05503000  0.50903000  1.0 -0.4689164113
C  C440  1  0.18137000  0.50903000  0.05503000  1.0 -0.4689164113
C  C441  1  0.18137000  0.05503000  0.25457000  1.0 -0.4689164113
C  C442  1  0.25457000  0.50903000  0.18137000  1.0 -0.4689164113
C  C443  1  0.50903000  0.25457000  0.05503000  1.0 -0.4689164113
C  C444  1  0.05503000  0.18137000  0.50903000  1.0 -0.4689164113
C  C445  1  0.24543000  0.31863000  0.99097000  1.0 -0.4689164113
C  C446  1  0.31863000  0.24543000  0.44497000  1.0 -0.4689164113
C  C447  1  0.44497000  0.99097000  0.31863000  1.0 -0.4689164113
C  C448  1  0.99097000  0.44497000  0.24543000  1.0 -0.4689164113
C  C449  1  0.44497000  0.24543000  0.99097000  1.0 -0.4689164113
C  C450  1  0.99097000  0.31863000  0.44497000  1.0 -0.4689164113
C  C451  1  0.24543000  0.44497000  0.31863000  1.0 -0.4689164113
C  C452  1  0.31863000  0.99097000  0.24543000  1.0 -0.4689164113
C  C453  1  0.31863000  0.44497000  0.99097000  1.0 -0.4689164113
C  C454  1  0.24543000  0.99097000  0.44497000  1.0 -0.4689164113
C  C455  1  0.99097000  0.24543000  0.31863000  1.0 -0.4689164113
C  C456  1  0.44497000  0.31863000  0.24543000  1.0 -0.4689164113
C  C457  1  0.74543000  0.81863000  0.94497000  1.0 -0.4689164113
C  C458  1  0.81863000  0.74543000  0.49097000  1.0 -0.4689164113
C  C459  1  0.94497000  0.49097000  0.74543000  1.0 -0.4689164113
C  C460  1  0.49097000  0.94497000  0.81863000  1.0 -0.4689164113
C  C461  1  0.94497000  0.74543000  0.81863000  1.0 -0.4689164113
C  C462  1  0.49097000  0.81863000  0.74543000  1.0 -0.4689164113
C  C463  1  0.74543000  0.94497000  0.49097000  1.0 -0.4689164113
C  C464  1  0.81863000  0.49097000  0.94497000  1.0 -0.4689164113
C  C465  1  0.81863000  0.94497000  0.74543000  1.0 -0.4689164113
C  C466  1  0.74543000  0.49097000  0.81863000  1.0 -0.4689164113
C  C467  1  0.49097000  0.74543000  0.94497000  1.0 -0.4689164113
C  C468  1  0.94497000  0.81863000  0.49097000  1.0 -0.4689164113
C  C469  1  0.75457000  0.68137000  0.00903000  1.0 -0.4689164113
C  C470  1  0.68137000  0.75457000  0.55503000  1.0 -0.4689164113
C  C471  1  0.55503000  0.00903000  0.68137000  1.0 -0.4689164113
C  C472  1  0.00903000  0.55503000  0.75457000  1.0 -0.4689164113
C  C473  1  0.55503000  0.75457000  0.00903000  1.0 -0.4689164113
C  C474  1  0.00903000  0.68137000  0.55503000  1.0 -0.4689164113
C  C475  1  0.75457000  0.55503000  0.68137000  1.0 -0.4689164113
C  C476  1  0.68137000  0.00903000  0.75457000  1.0 -0.4689164113
C  C477  1  0.68137000  0.55503000  0.00903000  1.0 -0.4689164113
C  C478  1  0.75457000  0.00903000  0.55503000  1.0 -0.4689164113
C  C479  1  0.00903000  0.75457000  0.68137000  1.0 -0.4689164113
C  C480  1  0.55503000  0.68137000  0.75457000  1.0 -0.4689164113
C  C481  1  0.18628000  0.15160000  0.10728000  1.0 -0.0085753384
C  C482  1  0.15160000  0.18628000  0.55484000  1.0 -0.0085753384
C  C483  1  0.10728000  0.55484000  0.18628000  1.0 -0.0085753384
C  C484  1  0.55484000  0.10728000  0.15160000  1.0 -0.0085753384
C  C485  1  0.10728000  0.18628000  0.15160000  1.0 -0.0085753384
C  C486  1  0.55484000  0.15160000  0.18628000  1.0 -0.0085753384
C  C487  1  0.18628000  0.10728000  0.55484000  1.0 -0.0085753384
C  C488  1  0.15160000  0.55484000  0.10728000  1.0 -0.0085753384
C  C489  1  0.15160000  0.10728000  0.18628000  1.0 -0.0085753384
C  C490  1  0.18628000  0.55484000  0.15160000  1.0 -0.0085753384
C  C491  1  0.55484000  0.18628000  0.10728000  1.0 -0.0085753384
C  C492  1  0.10728000  0.15160000  0.55484000  1.0 -0.0085753384
C  C493  1  0.31372000  0.34840000  0.94516000  1.0 -0.0085753384
C  C494  1  0.34840000  0.31372000  0.39272000  1.0 -0.0085753384
C  C495  1  0.39272000  0.94516000  0.34840000  1.0 -0.0085753384
C  C496  1  0.94516000  0.39272000  0.31372000  1.0 -0.0085753384
C  C497  1  0.39272000  0.31372000  0.94516000  1.0 -0.0085753384
C  C498  1  0.94516000  0.34840000  0.39272000  1.0 -0.0085753384
C  C499  1  0.31372000  0.39272000  0.34840000  1.0 -0.0085753384
C  C500  1  0.34840000  0.94516000  0.31372000  1.0 -0.0085753384
C  C501  1  0.34840000  0.39272000  0.94516000  1.0 -0.0085753384
C  C502  1  0.31372000  0.94516000  0.39272000  1.0 -0.0085753384
C  C503  1  0.94516000  0.31372000  0.34840000  1.0 -0.0085753384
C  C504  1  0.39272000  0.34840000  0.31372000  1.0 -0.0085753384
C  C505  1  0.81372000  0.84840000  0.89272000  1.0 -0.0085753384
C  C506  1  0.84840000  0.81372000  0.44516000  1.0 -0.0085753384
C  C507  1  0.89272000  0.44516000  0.81372000  1.0 -0.0085753384
C  C508  1  0.44516000  0.89272000  0.84840000  1.0 -0.0085753384
C  C509  1  0.89272000  0.81372000  0.84840000  1.0 -0.0085753384
C  C510  1  0.44516000  0.84840000  0.81372000  1.0 -0.0085753384
C  C511  1  0.81372000  0.89272000  0.44516000  1.0 -0.0085753384
C  C512  1  0.84840000  0.44516000  0.89272000  1.0 -0.0085753384
C  C513  1  0.84840000  0.89272000  0.81372000  1.0 -0.0085753384
C  C514  1  0.81372000  0.44516000  0.84840000  1.0 -0.0085753384
C  C515  1  0.44516000  0.81372000  0.89272000  1.0 -0.0085753384
C  C516  1  0.89272000  0.84840000  0.44516000  1.0 -0.0085753384
C  C517  1  0.68628000  0.65160000  0.05484000  1.0 -0.0085753384
C  C518  1  0.65160000  0.68628000  0.60728000  1.0 -0.0085753384
C  C519  1  0.60728000  0.05484000  0.65160000  1.0 -0.0085753384
C  C520  1  0.05484000  0.60728000  0.68628000  1.0 -0.0085753384
C  C521  1  0.60728000  0.68628000  0.05484000  1.0 -0.0085753384
C  C522  1  0.05484000  0.65160000  0.60728000  1.0 -0.0085753384
C  C523  1  0.68628000  0.60728000  0.65160000  1.0 -0.0085753384
C  C524  1  0.65160000  0.05484000  0.68628000  1.0 -0.0085753384
C  C525  1  0.65160000  0.60728000  0.05484000  1.0 -0.0085753384
C  C526  1  0.68628000  0.05484000  0.60728000  1.0 -0.0085753384
C  C527  1  0.05484000  0.68628000  0.65160000  1.0 -0.0085753384
C  C528  1  0.60728000  0.65160000  0.68628000  1.0 -0.0085753384
C  C529  1  0.18973000  0.11085000  0.14583000  1.0 -0.0418961153
C  C530  1  0.11085000  0.18973000  0.55359000  1.0 -0.0418961153
C  C531  1  0.14583000  0.55359000  0.18973000  1.0 -0.0418961153
C  C532  1  0.55359000  0.14583000  0.11085000  1.0 -0.0418961153
C  C533  1  0.14583000  0.18973000  0.11085000  1.0 -0.0418961153
C  C534  1  0.55359000  0.11085000  0.18973000  1.0 -0.0418961153
C  C535  1  0.18973000  0.14583000  0.55359000  1.0 -0.0418961153
C  C536  1  0.11085000  0.55359000  0.14583000  1.0 -0.0418961153
C  C537  1  0.11085000  0.14583000  0.18973000  1.0 -0.0418961153
C  C538  1  0.18973000  0.55359000  0.11085000  1.0 -0.0418961153
C  C539  1  0.55359000  0.18973000  0.14583000  1.0 -0.0418961153
C  C540  1  0.14583000  0.11085000  0.55359000  1.0 -0.0418961153
C  C541  1  0.31027000  0.38915000  0.94641000  1.0 -0.0418961153
C  C542  1  0.38915000  0.31027000  0.35417000  1.0 -0.0418961153
C  C543  1  0.35417000  0.94641000  0.38915000  1.0 -0.0418961153
C  C544  1  0.94641000  0.35417000  0.31027000  1.0 -0.0418961153
C  C545  1  0.35417000  0.31027000  0.94641000  1.0 -0.0418961153
C  C546  1  0.94641000  0.38915000  0.35417000  1.0 -0.0418961153
C  C547  1  0.31027000  0.35417000  0.38915000  1.0 -0.0418961153
C  C548  1  0.38915000  0.94641000  0.31027000  1.0 -0.0418961153
C  C549  1  0.38915000  0.35417000  0.94641000  1.0 -0.0418961153
C  C550  1  0.31027000  0.94641000  0.35417000  1.0 -0.0418961153
C  C551  1  0.94641000  0.31027000  0.38915000  1.0 -0.0418961153
C  C552  1  0.35417000  0.38915000  0.31027000  1.0 -0.0418961153
C  C553  1  0.81027000  0.88915000  0.85417000  1.0 -0.0418961153
C  C554  1  0.88915000  0.81027000  0.44641000  1.0 -0.0418961153
C  C555  1  0.85417000  0.44641000  0.81027000  1.0 -0.0418961153
C  C556  1  0.44641000  0.85417000  0.88915000  1.0 -0.0418961153
C  C557  1  0.85417000  0.81027000  0.88915000  1.0 -0.0418961153
C  C558  1  0.44641000  0.88915000  0.81027000  1.0 -0.0418961153
C  C559  1  0.81027000  0.85417000  0.44641000  1.0 -0.0418961153
C  C560  1  0.88915000  0.44641000  0.85417000  1.0 -0.0418961153
C  C561  1  0.88915000  0.85417000  0.81027000  1.0 -0.0418961153
C  C562  1  0.81027000  0.44641000  0.88915000  1.0 -0.0418961153
C  C563  1  0.44641000  0.81027000  0.85417000  1.0 -0.0418961153
C  C564  1  0.85417000  0.88915000  0.44641000  1.0 -0.0418961153
C  C565  1  0.68973000  0.61085000  0.05359000  1.0 -0.0418961153
C  C566  1  0.61085000  0.68973000  0.64583000  1.0 -0.0418961153
C  C567  1  0.64583000  0.05359000  0.61085000  1.0 -0.0418961153
C  C568  1  0.05359000  0.64583000  0.68973000  1.0 -0.0418961153
C  C569  1  0.64583000  0.68973000  0.05359000  1.0 -0.0418961153
C  C570  1  0.05359000  0.61085000  0.64583000  1.0 -0.0418961153
C  C571  1  0.68973000  0.64583000  0.61085000  1.0 -0.0418961153
C  C572  1  0.61085000  0.05359000  0.68973000  1.0 -0.0418961153
C  C573  1  0.61085000  0.64583000  0.05359000  1.0 -0.0418961153
C  C574  1  0.68973000  0.05359000  0.64583000  1.0 -0.0418961153
C  C575  1  0.05359000  0.68973000  0.61085000  1.0 -0.0418961153
C  C576  1  0.64583000  0.61085000  0.68973000  1.0 -0.0418961153
Cl  Cl1  1  0.49195000  0.00805000  0.00805000  1.0 0.1887897885
Cl  Cl2  1  0.00805000  0.49195000  0.49195000  1.0 0.1887897885
Cl  Cl3  1  0.00805000  0.49195000  0.00805000  1.0 0.1887897885
Cl  Cl4  1  0.49195000  0.00805000  0.49195000  1.0 0.1887897885
Cl  Cl5  1  0.00805000  0.00805000  0.49195000  1.0 0.1887897885
Cl  Cl6  1  0.49195000  0.49195000  0.00805000  1.0 0.1887897885
Cl  Cl7  1  0.50805000  0.99195000  0.99195000  1.0 0.1887897885
Cl  Cl8  1  0.99195000  0.50805000  0.50805000  1.0 0.1887897885
Cl  Cl9  1  0.99195000  0.50805000  0.99195000  1.0 0.1887897885
Cl  Cl10  1  0.50805000  0.99195000  0.50805000  1.0 0.1887897885
Cl  Cl11  1  0.99195000  0.99195000  0.50805000  1.0 0.1887897885
Cl  Cl12  1  0.50805000  0.50805000  0.99195000  1.0 0.1887897885
O  O1  1  0.39910000  0.96710000  0.08750000  1.0 -0.3339735413
O  O2  1  0.96710000  0.39910000  0.54630000  1.0 -0.3339735413
O  O3  1  0.08750000  0.54630000  0.39910000  1.0 -0.3339735413
O  O4  1  0.54630000  0.08750000  0.96710000  1.0 -0.3339735413
O  O5  1  0.08750000  0.39910000  0.96710000  1.0 -0.3339735413
O  O6  1  0.54630000  0.96710000  0.39910000  1.0 -0.3339735413
O  O7  1  0.39910000  0.08750000  0.54630000  1.0 -0.3339735413
O  O8  1  0.96710000  0.54630000  0.08750000  1.0 -0.3339735413
O  O9  1  0.96710000  0.08750000  0.39910000  1.0 -0.3339735413
O  O10  1  0.39910000  0.54630000  0.96710000  1.0 -0.3339735413
O  O11  1  0.54630000  0.39910000  0.08750000  1.0 -0.3339735413
O  O12  1  0.08750000  0.96710000  0.54630000  1.0 -0.3339735413
O  O13  1  0.10090000  0.53290000  0.95370000  1.0 -0.3339735413
O  O14  1  0.53290000  0.10090000  0.41250000  1.0 -0.3339735413
O  O15  1  0.41250000  0.95370000  0.53290000  1.0 -0.3339735413
O  O16  1  0.95370000  0.41250000  0.10090000  1.0 -0.3339735413
O  O17  1  0.41250000  0.10090000  0.95370000  1.0 -0.3339735413
O  O18  1  0.95370000  0.53290000  0.41250000  1.0 -0.3339735413
O  O19  1  0.10090000  0.41250000  0.53290000  1.0 -0.3339735413
O  O20  1  0.53290000  0.95370000  0.10090000  1.0 -0.3339735413
O  O21  1  0.53290000  0.41250000  0.95370000  1.0 -0.3339735413
O  O22  1  0.10090000  0.95370000  0.41250000  1.0 -0.3339735413
O  O23  1  0.95370000  0.10090000  0.53290000  1.0 -0.3339735413
O  O24  1  0.41250000  0.53290000  0.10090000  1.0 -0.3339735413
O  O25  1  0.60090000  0.03290000  0.91250000  1.0 -0.3339735413
O  O26  1  0.03290000  0.60090000  0.45370000  1.0 -0.3339735413
O  O27  1  0.91250000  0.45370000  0.60090000  1.0 -0.3339735413
O  O28  1  0.45370000  0.91250000  0.03290000  1.0 -0.3339735413
O  O29  1  0.91250000  0.60090000  0.03290000  1.0 -0.3339735413
O  O30  1  0.45370000  0.03290000  0.60090000  1.0 -0.3339735413
O  O31  1  0.60090000  0.91250000  0.45370000  1.0 -0.3339735413
O  O32  1  0.03290000  0.45370000  0.91250000  1.0 -0.3339735413
O  O33  1  0.03290000  0.91250000  0.60090000  1.0 -0.3339735413
O  O34  1  0.60090000  0.45370000  0.03290000  1.0 -0.3339735413
O  O35  1  0.45370000  0.60090000  0.91250000  1.0 -0.3339735413
O  O36  1  0.91250000  0.03290000  0.45370000  1.0 -0.3339735413
O  O37  1  0.89910000  0.46710000  0.04630000  1.0 -0.3339735413
O  O38  1  0.46710000  0.89910000  0.58750000  1.0 -0.3339735413
O  O39  1  0.58750000  0.04630000  0.46710000  1.0 -0.3339735413
O  O40  1  0.04630000  0.58750000  0.89910000  1.0 -0.3339735413
O  O41  1  0.58750000  0.89910000  0.04630000  1.0 -0.3339735413
O  O42  1  0.04630000  0.46710000  0.58750000  1.0 -0.3339735413
O  O43  1  0.89910000  0.58750000  0.46710000  1.0 -0.3339735413
O  O44  1  0.46710000  0.04630000  0.89910000  1.0 -0.3339735413
O  O45  1  0.46710000  0.58750000  0.04630000  1.0 -0.3339735413
O  O46  1  0.89910000  0.04630000  0.58750000  1.0 -0.3339735413
O  O47  1  0.04630000  0.89910000  0.46710000  1.0 -0.3339735413
O  O48  1  0.58750000  0.46710000  0.89910000  1.0 -0.3339735413
O  O49  1  0.40490000  0.02670000  0.04150000  1.0 -0.2517726199
O  O50  1  0.02670000  0.40490000  0.52690000  1.0 -0.2517726199
O  O51  1  0.04150000  0.52690000  0.40490000  1.0 -0.2517726199
O  O52  1  0.52690000  0.04150000  0.02670000  1.0 -0.2517726199
O  O53  1  0.04150000  0.40490000  0.02670000  1.0 -0.2517726199
O  O54  1  0.52690000  0.02670000  0.40490000  1.0 -0.2517726199
O  O55  1  0.40490000  0.04150000  0.52690000  1.0 -0.2517726199
O  O56  1  0.02670000  0.52690000  0.04150000  1.0 -0.2517726199
O  O57  1  0.02670000  0.04150000  0.40490000  1.0 -0.2517726199
O  O58  1  0.40490000  0.52690000  0.02670000  1.0 -0.2517726199
O  O59  1  0.52690000  0.40490000  0.04150000  1.0 -0.2517726199
O  O60  1  0.04150000  0.02670000  0.52690000  1.0 -0.2517726199
O  O61  1  0.09510000  0.47330000  0.97310000  1.0 -0.2517726199
O  O62  1  0.47330000  0.09510000  0.45850000  1.0 -0.2517726199
O  O63  1  0.45850000  0.97310000  0.47330000  1.0 -0.2517726199
O  O64  1  0.97310000  0.45850000  0.09510000  1.0 -0.2517726199
O  O65  1  0.45850000  0.09510000  0.97310000  1.0 -0.2517726199
O  O66  1  0.97310000  0.47330000  0.45850000  1.0 -0.2517726199
O  O67  1  0.09510000  0.45850000  0.47330000  1.0 -0.2517726199
O  O68  1  0.47330000  0.97310000  0.09510000  1.0 -0.2517726199
O  O69  1  0.47330000  0.45850000  0.97310000  1.0 -0.2517726199
O  O70  1  0.09510000  0.97310000  0.45850000  1.0 -0.2517726199
O  O71  1  0.97310000  0.09510000  0.47330000  1.0 -0.2517726199
O  O72  1  0.45850000  0.47330000  0.09510000  1.0 -0.2517726199
O  O73  1  0.59510000  0.97330000  0.95850000  1.0 -0.2517726199
O  O74  1  0.97330000  0.59510000  0.47310000  1.0 -0.2517726199
O  O75  1  0.95850000  0.47310000  0.59510000  1.0 -0.2517726199
O  O76  1  0.47310000  0.95850000  0.97330000  1.0 -0.2517726199
O  O77  1  0.95850000  0.59510000  0.97330000  1.0 -0.2517726199
O  O78  1  0.47310000  0.97330000  0.59510000  1.0 -0.2517726199
O  O79  1  0.59510000  0.95850000  0.47310000  1.0 -0.2517726199
O  O80  1  0.97330000  0.47310000  0.95850000  1.0 -0.2517726199
O  O81  1  0.97330000  0.95850000  0.59510000  1.0 -0.2517726199
O  O82  1  0.59510000  0.47310000  0.97330000  1.0 -0.2517726199
O  O83  1  0.47310000  0.59510000  0.95850000  1.0 -0.2517726199
O  O84  1  0.95850000  0.97330000  0.47310000  1.0 -0.2517726199
O  O85  1  0.90490000  0.52670000  0.02690000  1.0 -0.2517726199
O  O86  1  0.52670000  0.90490000  0.54150000  1.0 -0.2517726199
O  O87  1  0.54150000  0.02690000  0.52670000  1.0 -0.2517726199
O  O88  1  0.02690000  0.54150000  0.90490000  1.0 -0.2517726199
O  O89  1  0.54150000  0.90490000  0.02690000  1.0 -0.2517726199
O  O90  1  0.02690000  0.52670000  0.54150000  1.0 -0.2517726199
O  O91  1  0.90490000  0.54150000  0.52670000  1.0 -0.2517726199
O  O92  1  0.52670000  0.02690000  0.90490000  1.0 -0.2517726199
O  O93  1  0.52670000  0.54150000  0.02690000  1.0 -0.2517726199
O  O94  1  0.90490000  0.02690000  0.54150000  1.0 -0.2517726199
O  O95  1  0.02690000  0.90490000  0.52670000  1.0 -0.2517726199
O  O96  1  0.54150000  0.52670000  0.90490000  1.0 -0.2517726199
O  O97  1  0.39020000  0.02560000  0.01080000  1.0 -0.153171193
O  O98  1  0.02560000  0.39020000  0.57340000  1.0 -0.157393753
O  O99  1  0.01080000  0.57340000  0.39020000  1.0 -0.157393753
O  O100  1  0.57340000  0.01080000  0.02560000  1.0 -0.157393753
O  O101  1  0.01080000  0.39020000  0.02560000  1.0 -0.157393753
O  O102  1  0.57340000  0.02560000  0.39020000  1.0 -0.157393753
O  O103  1  0.39020000  0.01080000  0.57340000  1.0 -0.153171193
O  O104  1  0.02560000  0.57340000  0.01080000  1.0 -0.157393753
O  O105  1  0.02560000  0.01080000  0.39020000  1.0 -0.157393753
O  O106  1  0.39020000  0.57340000  0.02560000  1.0 -0.157393753
O  O107  1  0.57340000  0.39020000  0.01080000  1.0 -0.157393753
O  O108  1  0.01080000  0.02560000  0.57340000  1.0 -0.157393753
O  O109  1  0.10980000  0.47440000  0.92660000  1.0 -0.157393753
O  O110  1  0.47440000  0.10980000  0.48920000  1.0 -0.157393753
O  O111  1  0.48920000  0.92660000  0.47440000  1.0 -0.157393753
O  O112  1  0.92660000  0.48920000  0.10980000  1.0 -0.153171193
O  O113  1  0.48920000  0.10980000  0.92660000  1.0 -0.157393753
O  O114  1  0.92660000  0.47440000  0.48920000  1.0 -0.157393753
O  O115  1  0.10980000  0.48920000  0.47440000  1.0 -0.157393753
O  O116  1  0.47440000  0.92660000  0.10980000  1.0 -0.157393753
O  O117  1  0.47440000  0.48920000  0.92660000  1.0 -0.157393753
O  O118  1  0.10980000  0.92660000  0.48920000  1.0 -0.157393753
O  O119  1  0.92660000  0.10980000  0.47440000  1.0 -0.153171193
O  O120  1  0.48920000  0.47440000  0.10980000  1.0 -0.157393753
O  O121  1  0.60980000  0.97440000  0.98920000  1.0 -0.157393753
O  O122  1  0.97440000  0.60980000  0.42660000  1.0 -0.157393753
O  O123  1  0.98920000  0.42660000  0.60980000  1.0 -0.157393753
O  O124  1  0.42660000  0.98920000  0.97440000  1.0 -0.157393753
O  O125  1  0.98920000  0.60980000  0.97440000  1.0 -0.157393753
O  O126  1  0.42660000  0.97440000  0.60980000  1.0 -0.157393753
O  O127  1  0.60980000  0.98920000  0.42660000  1.0 -0.157393753
O  O128  1  0.97440000  0.42660000  0.98920000  1.0 -0.157393753
O  O129  1  0.97440000  0.98920000  0.60980000  1.0 -0.153171193
O  O130  1  0.60980000  0.42660000  0.97440000  1.0 -0.157393753
O  O131  1  0.42660000  0.60980000  0.98920000  1.0 -0.157393753
O  O132  1  0.98920000  0.97440000  0.42660000  1.0 -0.157393753
O  O133  1  0.89020000  0.52560000  0.07340000  1.0 -0.153171193
O  O134  1  0.52560000  0.89020000  0.51080000  1.0 -0.153171193
O  O135  1  0.51080000  0.07340000  0.52560000  1.0 -0.157393753
O  O136  1  0.07340000  0.51080000  0.89020000  1.0 -0.157393753
O  O137  1  0.51080000  0.89020000  0.07340000  1.0 -0.157393753
O  O138  1  0.07340000  0.52560000  0.51080000  1.0 -0.157393753
O  O139  1  0.89020000  0.51080000  0.52560000  1.0 -0.157393753
O  O140  1  0.52560000  0.07340000  0.89020000  1.0 -0.153171193
O  O141  1  0.52560000  0.51080000  0.07340000  1.0 -0.157393753
O  O142  1  0.89020000  0.07340000  0.51080000  1.0 -0.153171193
O  O143  1  0.07340000  0.89020000  0.52560000  1.0 -0.153171193
O  O144  1  0.51080000  0.52560000  0.89020000  1.0 -0.153171193
