# DDEC6 charges by PACMAN v1.1 (https://github.com/mtap-research/PACMAN-charge/)
data_VEWDAF_ASR_pacman
_symmetry_space_group_name_H-M   'P 1'
_cell_length_a   24.43900000
_cell_length_b   27.62300000
_cell_length_c   31.46700000
_cell_angle_alpha   90.00000000
_cell_angle_beta   90.00000000
_cell_angle_gamma   90.00000000
_symmetry_Int_Tables_number   1
_chemical_formula_structural   CuH8C14N3O4
_chemical_formula_sum   'Cu32 H256 C448 N96 O128'
_cell_volume   21242.69506510
_cell_formula_units_Z   32
loop_
 _symmetry_equiv_pos_site_id
 _symmetry_equiv_pos_as_xyz
  1  'x, y, z'
loop_
 _atom_site_type_symbol
 _atom_site_label
 _atom_site_symmetry_multiplicity
 _atom_site_fract_x
 _atom_site_fract_y
 _atom_site_fract_z
 _atom_site_occupancy
 _atom_site_charge
Cu  Cu1  1  0.48857000  0.73622000  0.75041000  1.0 0.7785395301
Cu  Cu2  1  0.76162000  0.52143000  0.74910000  1.0 0.7785395301
Cu  Cu3  1  0.51143000  0.26378000  0.75041000  1.0 0.7785395301
Cu  Cu4  1  0.23838000  0.47857000  0.74910000  1.0 0.7785395301
Cu  Cu5  1  0.01143000  0.23622000  0.24959000  1.0 0.7785395301
Cu  Cu6  1  0.73838000  0.02143000  0.25090000  1.0 0.7785395301
Cu  Cu7  1  0.98857000  0.76378000  0.24959000  1.0 0.7785395301
Cu  Cu8  1  0.26162000  0.97857000  0.25090000  1.0 0.7785395301
Cu  Cu9  1  0.51143000  0.26378000  0.24959000  1.0 0.7785395301
Cu  Cu10  1  0.23838000  0.47857000  0.25090000  1.0 0.7785395301
Cu  Cu11  1  0.48857000  0.73622000  0.24959000  1.0 0.7785395301
Cu  Cu12  1  0.76162000  0.52143000  0.25090000  1.0 0.7785395301
Cu  Cu13  1  0.98857000  0.76378000  0.75041000  1.0 0.7785395301
Cu  Cu14  1  0.26162000  0.97857000  0.74910000  1.0 0.7785395301
Cu  Cu15  1  0.01143000  0.23622000  0.75041000  1.0 0.7785395301
Cu  Cu16  1  0.73838000  0.02143000  0.74910000  1.0 0.7785395301
Cu  Cu17  1  0.68808000  0.82524000  0.00000000  1.0 0.8726673596
Cu  Cu18  1  0.77655000  0.76873000  0.00000000  1.0 0.8726673596
Cu  Cu19  1  0.31192000  0.17476000  0.00000000  1.0 0.8726673596
Cu  Cu20  1  0.22345000  0.23127000  0.00000000  1.0 0.8726673596
Cu  Cu21  1  0.81192000  0.32524000  0.00000000  1.0 0.8750814414
Cu  Cu22  1  0.72345000  0.26873000  0.00000000  1.0 0.8726673596
Cu  Cu23  1  0.18808000  0.67476000  0.00000000  1.0 0.8726673596
Cu  Cu24  1  0.27655000  0.73127000  0.00000000  1.0 0.8726673596
Cu  Cu25  1  0.69921000  0.76875000  0.50000000  1.0 0.8329873001
Cu  Cu26  1  0.77939000  0.83456000  0.50000000  1.0 0.9058995462
Cu  Cu27  1  0.30079000  0.23125000  0.50000000  1.0 0.8329873001
Cu  Cu28  1  0.22061000  0.16544000  0.50000000  1.0 0.9058995462
Cu  Cu29  1  0.80079000  0.26875000  0.50000000  1.0 0.8329873001
Cu  Cu30  1  0.72061000  0.33456000  0.50000000  1.0 0.9058995462
Cu  Cu31  1  0.19921000  0.73125000  0.50000000  1.0 0.8329873001
Cu  Cu32  1  0.27939000  0.66544000  0.50000000  1.0 0.9058995462
H  H1  1  0.87850000  0.66100000  0.82130000  1.0 0.1408975253
H  H2  1  0.93070000  0.72810000  0.81870000  1.0 0.1315399623
H  H3  1  0.80240000  0.80910000  0.79610000  1.0 0.1315399623
H  H4  1  0.74660000  0.74150000  0.79730000  1.0 0.1228165878
H  H5  1  0.63820000  0.59020000  0.83580000  1.0 0.1584146241
H  H6  1  0.67050000  0.54130000  0.83890000  1.0 0.17020942
H  H7  1  0.64480000  0.55730000  0.79550000  1.0 0.17020942
H  H8  1  0.92210000  0.95290000  0.83520000  1.0 0.1408975253
H  H9  1  0.95700000  0.95950000  0.79370000  1.0 0.1584146241
H  H10  1  0.98570000  0.94510000  0.83640000  1.0 0.1584146241
H  H11  1  0.73750000  0.68030000  0.89460000  1.0 0.1494259575
H  H12  1  0.59890000  0.76280000  0.89370000  1.0 0.1408975253
H  H13  1  0.63520000  0.67650000  0.79520000  1.0 0.1494259575
H  H14  1  0.86370000  0.83410000  0.89450000  1.0 0.1494259575
H  H15  1  0.73390000  0.92160000  0.90360000  1.0 0.1408975253
H  H16  1  0.83130000  0.93140000  0.80150000  1.0 0.1408975253
H  H17  1  0.55480000  0.70910000  0.67570000  1.0 0.1408975253
H  H18  1  0.61800000  0.64650000  0.67610000  1.0 0.1408975253
H  H19  1  0.73570000  0.73760000  0.70820000  1.0 0.1228165878
H  H20  1  0.67250000  0.80070000  0.71120000  1.0 0.1315399623
H  H21  1  0.53760000  0.93180000  0.67060000  1.0 0.1408975253
H  H22  1  0.50050000  0.93640000  0.71100000  1.0 0.1584146241
H  H23  1  0.47520000  0.91900000  0.66780000  1.0 0.1584146241
H  H24  1  0.86820000  0.61080000  0.66760000  1.0 0.1494259575
H  H25  1  0.84890000  0.55700000  0.66230000  1.0 0.17020942
H  H26  1  0.86590000  0.57650000  0.70720000  1.0 0.17020942
H  H27  1  0.60590000  0.82050000  0.61070000  1.0 0.1494259575
H  H28  1  0.72660000  0.91920000  0.60280000  1.0 0.1408975253
H  H29  1  0.63000000  0.91410000  0.70470000  1.0 0.1408975253
H  H30  1  0.75290000  0.68440000  0.60480000  1.0 0.1494259575
H  H31  1  0.87790000  0.78020000  0.60290000  1.0 0.1408975253
H  H32  1  0.85730000  0.69270000  0.70480000  1.0 0.1408975253
H  H33  1  0.12150000  0.33900000  0.82130000  1.0 0.1408975253
H  H34  1  0.06930000  0.27190000  0.81870000  1.0 0.1315399623
H  H35  1  0.19760000  0.19090000  0.79610000  1.0 0.1315399623
H  H36  1  0.25340000  0.25850000  0.79730000  1.0 0.1228165878
H  H37  1  0.36180000  0.40980000  0.83580000  1.0 0.1584146241
H  H38  1  0.32950000  0.45870000  0.83890000  1.0 0.17020942
H  H39  1  0.35520000  0.44270000  0.79550000  1.0 0.17020942
H  H40  1  0.07790000  0.04710000  0.83520000  1.0 0.1408975253
H  H41  1  0.04300000  0.04050000  0.79370000  1.0 0.1584146241
H  H42  1  0.01430000  0.05490000  0.83640000  1.0 0.1584146241
H  H43  1  0.26250000  0.31970000  0.89460000  1.0 0.1494259575
H  H44  1  0.40110000  0.23720000  0.89370000  1.0 0.1408975253
H  H45  1  0.36480000  0.32350000  0.79520000  1.0 0.1494259575
H  H46  1  0.13630000  0.16590000  0.89450000  1.0 0.1494259575
H  H47  1  0.26610000  0.07840000  0.90360000  1.0 0.1408975253
H  H48  1  0.16870000  0.06860000  0.80150000  1.0 0.1408975253
H  H49  1  0.44520000  0.29090000  0.67570000  1.0 0.1408975253
H  H50  1  0.38200000  0.35350000  0.67610000  1.0 0.1408975253
H  H51  1  0.26430000  0.26240000  0.70820000  1.0 0.1228165878
H  H52  1  0.32750000  0.19930000  0.71120000  1.0 0.1315399623
H  H53  1  0.46240000  0.06820000  0.67060000  1.0 0.1408975253
H  H54  1  0.49950000  0.06360000  0.71100000  1.0 0.1584146241
H  H55  1  0.52480000  0.08100000  0.66780000  1.0 0.1584146241
H  H56  1  0.13180000  0.38920000  0.66760000  1.0 0.1494259575
H  H57  1  0.15110000  0.44300000  0.66230000  1.0 0.17020942
H  H58  1  0.13410000  0.42350000  0.70720000  1.0 0.17020942
H  H59  1  0.39410000  0.17950000  0.61070000  1.0 0.1494259575
H  H60  1  0.27340000  0.08080000  0.60280000  1.0 0.1408975253
H  H61  1  0.37000000  0.08590000  0.70470000  1.0 0.1408975253
H  H62  1  0.24710000  0.31560000  0.60480000  1.0 0.1494259575
H  H63  1  0.12210000  0.21980000  0.60290000  1.0 0.1408975253
H  H64  1  0.14270000  0.30730000  0.70480000  1.0 0.1408975253
H  H65  1  0.62150000  0.16100000  0.17870000  1.0 0.1408975253
H  H66  1  0.56930000  0.22810000  0.18130000  1.0 0.1315399623
H  H67  1  0.69760000  0.30910000  0.20390000  1.0 0.1315399623
H  H68  1  0.75340000  0.24150000  0.20270000  1.0 0.1228165878
H  H69  1  0.86180000  0.09020000  0.16420000  1.0 0.1584146241
H  H70  1  0.82950000  0.04130000  0.16110000  1.0 0.17020942
H  H71  1  0.85520000  0.05730000  0.20450000  1.0 0.17020942
H  H72  1  0.57790000  0.45290000  0.16480000  1.0 0.1408975253
H  H73  1  0.54300000  0.45950000  0.20630000  1.0 0.1584146241
H  H74  1  0.51430000  0.44510000  0.16360000  1.0 0.1584146241
H  H75  1  0.76250000  0.18030000  0.10540000  1.0 0.1494259575
H  H76  1  0.90110000  0.26280000  0.10630000  1.0 0.1408975253
H  H77  1  0.86480000  0.17650000  0.20480000  1.0 0.1494259575
H  H78  1  0.63630000  0.33410000  0.10550000  1.0 0.1494259575
H  H79  1  0.76610000  0.42160000  0.09640000  1.0 0.1408975253
H  H80  1  0.66870000  0.43140000  0.19850000  1.0 0.1408975253
H  H81  1  0.94520000  0.20910000  0.32430000  1.0 0.1408975253
H  H82  1  0.88200000  0.14650000  0.32390000  1.0 0.1408975253
H  H83  1  0.76430000  0.23760000  0.29180000  1.0 0.1228165878
H  H84  1  0.82750000  0.30070000  0.28880000  1.0 0.1315399623
H  H85  1  0.96240000  0.43180000  0.32940000  1.0 0.1408975253
H  H86  1  0.99950000  0.43640000  0.28900000  1.0 0.1584146241
H  H87  1  0.02480000  0.41900000  0.33220000  1.0 0.1584146241
H  H88  1  0.63180000  0.11080000  0.33240000  1.0 0.1494259575
H  H89  1  0.65110000  0.05700000  0.33770000  1.0 0.17020942
H  H90  1  0.63410000  0.07650000  0.29280000  1.0 0.17020942
H  H91  1  0.89410000  0.32050000  0.38930000  1.0 0.1494259575
H  H92  1  0.77340000  0.41920000  0.39720000  1.0 0.1408975253
H  H93  1  0.87000000  0.41410000  0.29530000  1.0 0.1408975253
H  H94  1  0.74710000  0.18440000  0.39520000  1.0 0.1494259575
H  H95  1  0.62210000  0.28020000  0.39710000  1.0 0.1408975253
H  H96  1  0.64270000  0.19270000  0.29520000  1.0 0.1408975253
H  H97  1  0.37850000  0.83900000  0.17870000  1.0 0.1408975253
H  H98  1  0.43070000  0.77190000  0.18130000  1.0 0.1315399623
H  H99  1  0.30240000  0.69090000  0.20390000  1.0 0.1315399623
H  H100  1  0.24660000  0.75850000  0.20270000  1.0 0.1228165878
H  H101  1  0.13820000  0.90980000  0.16420000  1.0 0.1584146241
H  H102  1  0.17050000  0.95870000  0.16110000  1.0 0.17020942
H  H103  1  0.14480000  0.94270000  0.20450000  1.0 0.17020942
H  H104  1  0.42210000  0.54710000  0.16480000  1.0 0.1408975253
H  H105  1  0.45700000  0.54050000  0.20630000  1.0 0.1584146241
H  H106  1  0.48570000  0.55490000  0.16360000  1.0 0.1584146241
H  H107  1  0.23750000  0.81970000  0.10540000  1.0 0.1494259575
H  H108  1  0.09890000  0.73720000  0.10630000  1.0 0.1494259575
H  H109  1  0.13520000  0.82350000  0.20480000  1.0 0.1494259575
H  H110  1  0.36370000  0.66590000  0.10550000  1.0 0.1494259575
H  H111  1  0.23390000  0.57840000  0.09640000  1.0 0.1408975253
H  H112  1  0.33130000  0.56860000  0.19850000  1.0 0.1408975253
H  H113  1  0.05480000  0.79090000  0.32430000  1.0 0.1408975253
H  H114  1  0.11800000  0.85350000  0.32390000  1.0 0.1408975253
H  H115  1  0.23570000  0.76240000  0.29180000  1.0 0.1228165878
H  H116  1  0.17250000  0.69930000  0.28880000  1.0 0.1315399623
H  H117  1  0.03760000  0.56820000  0.32940000  1.0 0.1408975253
H  H118  1  0.00050000  0.56360000  0.28900000  1.0 0.1584146241
H  H119  1  0.97520000  0.58100000  0.33220000  1.0 0.1584146241
H  H120  1  0.36820000  0.88920000  0.33240000  1.0 0.1494259575
H  H121  1  0.34890000  0.94300000  0.33770000  1.0 0.17020942
H  H122  1  0.36590000  0.92350000  0.29280000  1.0 0.17020942
H  H123  1  0.10590000  0.67950000  0.38930000  1.0 0.1494259575
H  H124  1  0.22660000  0.58080000  0.39720000  1.0 0.1408975253
H  H125  1  0.13000000  0.58590000  0.29530000  1.0 0.1408975253
H  H126  1  0.25290000  0.81560000  0.39520000  1.0 0.1494259575
H  H127  1  0.37790000  0.71980000  0.39710000  1.0 0.1408975253
H  H128  1  0.35730000  0.80730000  0.29520000  1.0 0.1408975253
H  H129  1  0.12150000  0.33900000  0.17870000  1.0 0.1408975253
H  H130  1  0.06930000  0.27190000  0.18130000  1.0 0.1315399623
H  H131  1  0.19760000  0.19090000  0.20390000  1.0 0.1315399623
H  H132  1  0.25340000  0.25850000  0.20270000  1.0 0.1228165878
H  H133  1  0.36180000  0.40980000  0.16420000  1.0 0.1584146241
H  H134  1  0.32950000  0.45870000  0.16110000  1.0 0.17020942
H  H135  1  0.35520000  0.44270000  0.20450000  1.0 0.17020942
H  H136  1  0.07790000  0.04710000  0.16480000  1.0 0.1408975253
H  H137  1  0.04300000  0.04050000  0.20630000  1.0 0.1584146241
H  H138  1  0.01430000  0.05490000  0.16360000  1.0 0.1584146241
H  H139  1  0.26250000  0.31970000  0.10540000  1.0 0.1494259575
H  H140  1  0.40110000  0.23720000  0.10630000  1.0 0.1494259575
H  H141  1  0.36480000  0.32350000  0.20480000  1.0 0.1494259575
H  H142  1  0.13630000  0.16590000  0.10550000  1.0 0.1494259575
H  H143  1  0.26610000  0.07840000  0.09640000  1.0 0.1408975253
H  H144  1  0.16870000  0.06860000  0.19850000  1.0 0.1408975253
H  H145  1  0.44520000  0.29090000  0.32430000  1.0 0.1408975253
H  H146  1  0.38200000  0.35350000  0.32390000  1.0 0.1408975253
H  H147  1  0.26430000  0.26240000  0.29180000  1.0 0.1228165878
H  H148  1  0.32750000  0.19930000  0.28880000  1.0 0.1315399623
H  H149  1  0.46240000  0.06820000  0.32940000  1.0 0.1408975253
H  H150  1  0.49950000  0.06360000  0.28900000  1.0 0.1584146241
H  H151  1  0.52480000  0.08100000  0.33220000  1.0 0.1584146241
H  H152  1  0.13180000  0.38920000  0.33240000  1.0 0.1494259575
H  H153  1  0.15110000  0.44300000  0.33770000  1.0 0.17020942
H  H154  1  0.13410000  0.42350000  0.29280000  1.0 0.17020942
H  H155  1  0.39410000  0.17950000  0.38930000  1.0 0.1494259575
H  H156  1  0.27340000  0.08080000  0.39720000  1.0 0.1408975253
H  H157  1  0.37000000  0.08590000  0.29530000  1.0 0.1408975253
H  H158  1  0.24710000  0.31560000  0.39520000  1.0 0.1494259575
H  H159  1  0.12210000  0.21980000  0.39710000  1.0 0.1408975253
H  H160  1  0.14270000  0.30730000  0.29520000  1.0 0.1408975253
H  H161  1  0.87850000  0.66100000  0.17870000  1.0 0.1408975253
H  H162  1  0.93070000  0.72810000  0.18130000  1.0 0.1315399623
H  H163  1  0.80240000  0.80910000  0.20390000  1.0 0.1315399623
H  H164  1  0.74660000  0.74150000  0.20270000  1.0 0.1228165878
H  H165  1  0.63820000  0.59020000  0.16420000  1.0 0.1584146241
H  H166  1  0.67050000  0.54130000  0.16110000  1.0 0.17020942
H  H167  1  0.64480000  0.55730000  0.20450000  1.0 0.17020942
H  H168  1  0.92210000  0.95290000  0.16480000  1.0 0.1408975253
H  H169  1  0.95700000  0.95950000  0.20630000  1.0 0.1584146241
H  H170  1  0.98570000  0.94510000  0.16360000  1.0 0.1584146241
H  H171  1  0.73750000  0.68030000  0.10540000  1.0 0.1494259575
H  H172  1  0.59890000  0.76280000  0.10630000  1.0 0.1494259575
H  H173  1  0.63520000  0.67650000  0.20480000  1.0 0.1494259575
H  H174  1  0.86370000  0.83410000  0.10550000  1.0 0.1494259575
H  H175  1  0.73390000  0.92160000  0.09640000  1.0 0.1408975253
H  H176  1  0.83130000  0.93140000  0.19850000  1.0 0.1408975253
H  H177  1  0.55480000  0.70910000  0.32430000  1.0 0.1408975253
H  H178  1  0.61800000  0.64650000  0.32390000  1.0 0.1408975253
H  H179  1  0.73570000  0.73760000  0.29180000  1.0 0.1228165878
H  H180  1  0.67250000  0.80070000  0.28880000  1.0 0.1315399623
H  H181  1  0.53760000  0.93180000  0.32940000  1.0 0.1408975253
H  H182  1  0.50050000  0.93640000  0.28900000  1.0 0.1584146241
H  H183  1  0.47520000  0.91900000  0.33220000  1.0 0.1584146241
H  H184  1  0.86820000  0.61080000  0.33240000  1.0 0.1494259575
H  H185  1  0.84890000  0.55700000  0.33770000  1.0 0.17020942
H  H186  1  0.86590000  0.57650000  0.29280000  1.0 0.17020942
H  H187  1  0.60590000  0.82050000  0.38930000  1.0 0.1494259575
H  H188  1  0.72660000  0.91920000  0.39720000  1.0 0.1408975253
H  H189  1  0.63000000  0.91410000  0.29530000  1.0 0.1408975253
H  H190  1  0.75290000  0.68440000  0.39520000  1.0 0.1494259575
H  H191  1  0.87790000  0.78020000  0.39710000  1.0 0.1408975253
H  H192  1  0.85730000  0.69270000  0.29520000  1.0 0.1408975253
H  H193  1  0.37850000  0.83900000  0.82130000  1.0 0.1408975253
H  H194  1  0.43070000  0.77190000  0.81870000  1.0 0.1315399623
H  H195  1  0.30240000  0.69090000  0.79610000  1.0 0.1315399623
H  H196  1  0.24660000  0.75850000  0.79730000  1.0 0.1228165878
H  H197  1  0.13820000  0.90980000  0.83580000  1.0 0.1584146241
H  H198  1  0.17050000  0.95870000  0.83890000  1.0 0.17020942
H  H199  1  0.14480000  0.94270000  0.79550000  1.0 0.17020942
H  H200  1  0.42210000  0.54710000  0.83520000  1.0 0.1408975253
H  H201  1  0.45700000  0.54050000  0.79370000  1.0 0.1584146241
H  H202  1  0.48570000  0.55490000  0.83640000  1.0 0.1584146241
H  H203  1  0.23750000  0.81970000  0.89460000  1.0 0.1494259575
H  H204  1  0.09890000  0.73720000  0.89370000  1.0 0.1494259575
H  H205  1  0.13520000  0.82350000  0.79520000  1.0 0.1494259575
H  H206  1  0.36370000  0.66590000  0.89450000  1.0 0.1494259575
H  H207  1  0.23390000  0.57840000  0.90360000  1.0 0.1408975253
H  H208  1  0.33130000  0.56860000  0.80150000  1.0 0.1408975253
H  H209  1  0.05480000  0.79090000  0.67570000  1.0 0.1408975253
H  H210  1  0.11800000  0.85350000  0.67610000  1.0 0.1408975253
H  H211  1  0.23570000  0.76240000  0.70820000  1.0 0.1228165878
H  H212  1  0.17250000  0.69930000  0.71120000  1.0 0.1315399623
H  H213  1  0.03760000  0.56820000  0.67060000  1.0 0.1408975253
H  H214  1  0.00050000  0.56360000  0.71100000  1.0 0.1584146241
H  H215  1  0.97520000  0.58100000  0.66780000  1.0 0.1584146241
H  H216  1  0.36820000  0.88920000  0.66760000  1.0 0.1494259575
H  H217  1  0.34890000  0.94300000  0.66230000  1.0 0.17020942
H  H218  1  0.36590000  0.92350000  0.70720000  1.0 0.17020942
H  H219  1  0.10590000  0.67950000  0.61070000  1.0 0.1494259575
H  H220  1  0.22660000  0.58080000  0.60280000  1.0 0.1408975253
H  H221  1  0.13000000  0.58590000  0.70470000  1.0 0.1408975253
H  H222  1  0.25290000  0.81560000  0.60480000  1.0 0.1494259575
H  H223  1  0.37790000  0.71980000  0.60290000  1.0 0.1408975253
H  H224  1  0.35730000  0.80730000  0.70480000  1.0 0.1408975253
H  H225  1  0.62150000  0.16100000  0.82130000  1.0 0.1408975253
H  H226  1  0.56930000  0.22810000  0.81870000  1.0 0.1315399623
H  H227  1  0.69760000  0.30910000  0.79610000  1.0 0.1315399623
H  H228  1  0.75340000  0.24150000  0.79730000  1.0 0.1228165878
H  H229  1  0.86180000  0.09020000  0.83580000  1.0 0.1584146241
H  H230  1  0.82950000  0.04130000  0.83890000  1.0 0.17020942
H  H231  1  0.85520000  0.05730000  0.79550000  1.0 0.17020942
H  H232  1  0.57790000  0.45290000  0.83520000  1.0 0.1408975253
H  H233  1  0.54300000  0.45950000  0.79370000  1.0 0.1584146241
H  H234  1  0.51430000  0.44510000  0.83640000  1.0 0.1584146241
H  H235  1  0.76250000  0.18030000  0.89460000  1.0 0.1494259575
H  H236  1  0.90110000  0.26280000  0.89370000  1.0 0.1408975253
H  H237  1  0.86480000  0.17650000  0.79520000  1.0 0.1494259575
H  H238  1  0.63630000  0.33410000  0.89450000  1.0 0.1494259575
H  H239  1  0.76610000  0.42160000  0.90360000  1.0 0.1408975253
H  H240  1  0.66870000  0.43140000  0.80150000  1.0 0.1408975253
H  H241  1  0.94520000  0.20910000  0.67570000  1.0 0.1408975253
H  H242  1  0.88200000  0.14650000  0.67610000  1.0 0.1408975253
H  H243  1  0.76430000  0.23760000  0.70820000  1.0 0.1228165878
H  H244  1  0.82750000  0.30070000  0.71120000  1.0 0.1315399623
H  H245  1  0.96240000  0.43180000  0.67060000  1.0 0.1408975253
H  H246  1  0.99950000  0.43640000  0.71100000  1.0 0.1584146241
H  H247  1  0.02480000  0.41900000  0.66780000  1.0 0.1584146241
H  H248  1  0.63180000  0.11080000  0.66760000  1.0 0.1494259575
H  H249  1  0.65110000  0.05700000  0.66230000  1.0 0.17020942
H  H250  1  0.63410000  0.07650000  0.70720000  1.0 0.17020942
H  H251  1  0.89410000  0.32050000  0.61070000  1.0 0.1494259575
H  H252  1  0.77340000  0.41920000  0.60280000  1.0 0.1408975253
H  H253  1  0.87000000  0.41410000  0.70470000  1.0 0.1408975253
H  H254  1  0.74710000  0.18440000  0.60480000  1.0 0.1494259575
H  H255  1  0.62210000  0.28020000  0.60290000  1.0 0.1408975253
H  H256  1  0.64270000  0.19270000  0.70480000  1.0 0.1408975253
C  C1  1  0.80700000  0.69310000  0.80820000  1.0 0.0206513673
C  C2  1  0.86220000  0.69070000  0.81570000  1.0 -0.0838353456
C  C3  1  0.89310000  0.73120000  0.81480000  1.0 -0.1101945389
C  C4  1  0.87210000  0.77640000  0.80850000  1.0 0.0206513673
C  C5  1  0.81800000  0.77900000  0.80140000  1.0 -0.1101945389
C  C6  1  0.78410000  0.73830000  0.80160000  1.0 -0.1206739395
C  C7  1  0.77610000  0.64680000  0.80560000  1.0 0.2382391999
C  C8  1  0.71300000  0.59380000  0.81010000  1.0 0.3473291314
C  C9  1  0.66230000  0.56850000  0.82100000  1.0 -0.5207149574
C  C10  1  0.90740000  0.81660000  0.80400000  1.0 0.2287032558
C  C11  1  0.94520000  0.88770000  0.80880000  1.0 0.3364073551
C  C12  1  0.95320000  0.94130000  0.81950000  1.0 -0.5207149574
C  C13  1  0.68930000  0.67350000  0.84150000  1.0 0.1494259575
C  C14  1  0.70570000  0.69080000  0.88130000  1.0 -0.1933703804
C  C15  1  0.66970000  0.72620000  0.90000000  1.0 0.0074987094
C  C16  1  0.62200000  0.74070000  0.88040000  1.0 -0.1101945389
C  C17  1  0.60880000  0.72260000  0.84120000  1.0 0.0074987094
C  C18  1  0.64380000  0.68870000  0.82190000  1.0 -0.1703605214
C  C19  1  0.69040000  0.74920000  0.94050000  1.0 0.5854763007
C  C20  1  0.55850000  0.74020000  0.81840000  1.0 0.5532779908
C  C21  1  0.85370000  0.87960000  0.84340000  1.0 0.1584146241
C  C22  1  0.84110000  0.85780000  0.88290000  1.0 -0.1760408813
C  C23  1  0.79500000  0.87240000  0.90340000  1.0 0.0074987094
C  C24  1  0.76320000  0.91000000  0.88780000  1.0 -0.0999365693
C  C25  1  0.77550000  0.93060000  0.84770000  1.0 -0.0090453539
C  C26  1  0.82140000  0.91640000  0.82680000  1.0 -0.1580097014
C  C27  1  0.77420000  0.84470000  0.94330000  1.0 0.5801919094
C  C28  1  0.73850000  0.96800000  0.82820000  1.0 0.5622761564
C  C29  1  0.60630000  0.76060000  0.69600000  1.0 0.0206513673
C  C30  1  0.59090000  0.71520000  0.68350000  1.0 -0.0999365693
C  C31  1  0.62960000  0.67770000  0.68260000  1.0 -0.0838353456
C  C32  1  0.68230000  0.68520000  0.69060000  1.0 0.0206513673
C  C33  1  0.69910000  0.73170000  0.70200000  1.0 -0.1206739395
C  C34  1  0.66100000  0.76960000  0.70420000  1.0 -0.1101945389
C  C35  1  0.56420000  0.79670000  0.70150000  1.0 0.2382391999
C  C36  1  0.51960000  0.86740000  0.69690000  1.0 0.3364073551
C  C37  1  0.50710000  0.91810000  0.68560000  1.0 -0.5207149574
C  C38  1  0.72100000  0.64490000  0.69250000  1.0 0.2287032558
C  C39  1  0.79230000  0.59960000  0.68870000  1.0 0.334632746
C  C40  1  0.84870000  0.58470000  0.68080000  1.0 -0.5207149574
C  C41  1  0.61330000  0.86520000  0.65930000  1.0 0.1408975253
C  C42  1  0.62580000  0.84630000  0.62180000  1.0 -0.1703605214
C  C43  1  0.67000000  0.86630000  0.59930000  1.0 0.0049125632
C  C44  1  0.69760000  0.90510000  0.61740000  1.0 -0.0999365693
C  C45  1  0.68280000  0.92330000  0.65690000  1.0 0.0074987094
C  C46  1  0.64040000  0.90280000  0.67810000  1.0 -0.1580097014
C  C47  1  0.68970000  0.84360000  0.55870000  1.0 0.5801919094
C  C48  1  0.71730000  0.96250000  0.67850000  1.0 0.5532779908
C  C49  1  0.80090000  0.68260000  0.65790000  1.0 0.17020942
C  C50  1  0.78260000  0.69900000  0.61800000  1.0 -0.2012895773
C  C51  1  0.80960000  0.73700000  0.59880000  1.0 0.0206513673
C  C52  1  0.85800000  0.75660000  0.61730000  1.0 -0.1101945389
C  C53  1  0.87520000  0.74100000  0.65630000  1.0 0.0206513673
C  C54  1  0.84620000  0.70320000  0.67800000  1.0 -0.2012895773
C  C55  1  0.78540000  0.75580000  0.55770000  1.0 0.5622761564
C  C56  1  0.92330000  0.76200000  0.67990000  1.0 0.5622761564
C  C57  1  0.19300000  0.30690000  0.80820000  1.0 0.0206513673
C  C58  1  0.13780000  0.30930000  0.81570000  1.0 -0.0838353456
C  C59  1  0.10690000  0.26880000  0.81480000  1.0 -0.1101945389
C  C60  1  0.12790000  0.22360000  0.80850000  1.0 0.0206513673
C  C61  1  0.18200000  0.22100000  0.80140000  1.0 -0.1101945389
C  C62  1  0.21590000  0.26170000  0.80160000  1.0 -0.1206739395
C  C63  1  0.22390000  0.35320000  0.80560000  1.0 0.2382391999
C  C64  1  0.28700000  0.40620000  0.81010000  1.0 0.3473291314
C  C65  1  0.33770000  0.43150000  0.82100000  1.0 -0.5207149574
C  C66  1  0.09260000  0.18340000  0.80400000  1.0 0.2287032558
C  C67  1  0.05480000  0.11230000  0.80880000  1.0 0.3364073551
C  C68  1  0.04680000  0.05870000  0.81950000  1.0 -0.5207149574
C  C69  1  0.31070000  0.32650000  0.84150000  1.0 0.1494259575
C  C70  1  0.29430000  0.30920000  0.88130000  1.0 -0.1933703804
C  C71  1  0.33030000  0.27380000  0.90000000  1.0 0.0074987094
C  C72  1  0.37800000  0.25930000  0.88040000  1.0 -0.1101945389
C  C73  1  0.39120000  0.27740000  0.84120000  1.0 0.0074987094
C  C74  1  0.35620000  0.31130000  0.82190000  1.0 -0.1703605214
C  C75  1  0.30960000  0.25080000  0.94050000  1.0 0.5854763007
C  C76  1  0.44150000  0.25980000  0.81840000  1.0 0.5532779908
C  C77  1  0.14630000  0.12040000  0.84340000  1.0 0.1584146241
C  C78  1  0.15890000  0.14220000  0.88290000  1.0 -0.1760408813
C  C79  1  0.20500000  0.12760000  0.90340000  1.0 0.0074987094
C  C80  1  0.23680000  0.09000000  0.88780000  1.0 -0.0999365693
C  C81  1  0.22450000  0.06940000  0.84770000  1.0 -0.0090453539
C  C82  1  0.17860000  0.08360000  0.82680000  1.0 -0.1580097014
C  C83  1  0.22580000  0.15530000  0.94330000  1.0 0.5801919094
C  C84  1  0.26150000  0.03200000  0.82820000  1.0 0.5622761564
C  C85  1  0.39370000  0.23940000  0.69600000  1.0 0.0206513673
C  C86  1  0.40910000  0.28480000  0.68350000  1.0 -0.0999365693
C  C87  1  0.37040000  0.32230000  0.68260000  1.0 -0.0838353456
C  C88  1  0.31770000  0.31480000  0.69060000  1.0 0.0206513673
C  C89  1  0.30090000  0.26830000  0.70200000  1.0 -0.1206739395
C  C90  1  0.33900000  0.23040000  0.70420000  1.0 -0.1101945389
C  C91  1  0.43580000  0.20330000  0.70150000  1.0 0.2382391999
C  C92  1  0.48040000  0.13260000  0.69690000  1.0 0.3364073551
C  C93  1  0.49290000  0.08190000  0.68560000  1.0 -0.5207149574
C  C94  1  0.27900000  0.35510000  0.69250000  1.0 0.2287032558
C  C95  1  0.20770000  0.40040000  0.68870000  1.0 0.334632746
C  C96  1  0.15130000  0.41530000  0.68080000  1.0 -0.5207149574
C  C97  1  0.38670000  0.13480000  0.65930000  1.0 0.1408975253
C  C98  1  0.37420000  0.15370000  0.62180000  1.0 -0.1703605214
C  C99  1  0.33000000  0.13370000  0.59930000  1.0 0.0074987094
C  C100  1  0.30240000  0.09490000  0.61740000  1.0 -0.0999365693
C  C101  1  0.31720000  0.07670000  0.65690000  1.0 0.0074987094
C  C102  1  0.35960000  0.09720000  0.67810000  1.0 -0.1580097014
C  C103  1  0.31030000  0.15640000  0.55870000  1.0 0.5801919094
C  C104  1  0.28270000  0.03750000  0.67850000  1.0 0.5532779908
C  C105  1  0.19910000  0.31740000  0.65790000  1.0 0.17020942
C  C106  1  0.21740000  0.30100000  0.61800000  1.0 -0.2012895773
C  C107  1  0.19040000  0.26300000  0.59880000  1.0 0.0206513673
C  C108  1  0.14200000  0.24340000  0.61730000  1.0 -0.1101945389
C  C109  1  0.12480000  0.25900000  0.65630000  1.0 0.0206513673
C  C110  1  0.15380000  0.29680000  0.67800000  1.0 -0.2012895773
C  C111  1  0.21460000  0.24420000  0.55770000  1.0 0.5622761564
C  C112  1  0.07670000  0.23800000  0.67990000  1.0 0.5622761564
C  C113  1  0.69300000  0.19310000  0.19180000  1.0 0.0206513673
C  C114  1  0.63780000  0.19070000  0.18430000  1.0 -0.0838353456
C  C115  1  0.60690000  0.23120000  0.18520000  1.0 -0.1101945389
C  C116  1  0.62790000  0.27640000  0.19150000  1.0 0.0206513673
C  C117  1  0.68200000  0.27900000  0.19860000  1.0 -0.1101945389
C  C118  1  0.71590000  0.23830000  0.19840000  1.0 -0.1206739395
C  C119  1  0.72390000  0.14680000  0.19440000  1.0 0.2382391999
C  C120  1  0.78700000  0.09380000  0.18990000  1.0 0.3473291314
C  C121  1  0.83770000  0.06850000  0.17900000  1.0 -0.5207149574
C  C122  1  0.59260000  0.31660000  0.19600000  1.0 0.2287032558
C  C123  1  0.55480000  0.38770000  0.19120000  1.0 0.3364073551
C  C124  1  0.54680000  0.44130000  0.18050000  1.0 -0.5207149574
C  C125  1  0.81070000  0.17350000  0.15850000  1.0 0.1494259575
C  C126  1  0.79430000  0.19080000  0.11870000  1.0 -0.1933703804
C  C127  1  0.83030000  0.22620000  0.10000000  1.0 0.0074987094
C  C128  1  0.87800000  0.24070000  0.11960000  1.0 -0.1101945389
C  C129  1  0.89120000  0.22260000  0.15880000  1.0 0.0074987094
C  C130  1  0.85620000  0.18870000  0.17810000  1.0 -0.1703605214
C  C131  1  0.80960000  0.24920000  0.05950000  1.0 0.5854763007
C  C132  1  0.94150000  0.24020000  0.18160000  1.0 0.5532779908
C  C133  1  0.64630000  0.37960000  0.15660000  1.0 0.1584146241
C  C134  1  0.65890000  0.35780000  0.11710000  1.0 -0.1760408813
C  C135  1  0.70500000  0.37240000  0.09660000  1.0 0.0074987094
C  C136  1  0.73680000  0.41000000  0.11220000  1.0 -0.0999365693
C  C137  1  0.72450000  0.43060000  0.15230000  1.0 -0.0090453539
C  C138  1  0.67860000  0.41640000  0.17320000  1.0 -0.1580097014
C  C139  1  0.72580000  0.34470000  0.05670000  1.0 0.5801919094
C  C140  1  0.76150000  0.46800000  0.17180000  1.0 0.5622761564
C  C141  1  0.89370000  0.26060000  0.30400000  1.0 0.0206513673
C  C142  1  0.90910000  0.21520000  0.31650000  1.0 -0.0999365693
C  C143  1  0.87040000  0.17770000  0.31740000  1.0 -0.0838353456
C  C144  1  0.81770000  0.18520000  0.30940000  1.0 0.0206513673
C  C145  1  0.80090000  0.23170000  0.29800000  1.0 -0.1206739395
C  C146  1  0.83900000  0.26960000  0.29580000  1.0 -0.1101945389
C  C147  1  0.93580000  0.29670000  0.29850000  1.0 0.2382391999
C  C148  1  0.98040000  0.36740000  0.30310000  1.0 0.3364073551
C  C149  1  0.99290000  0.41810000  0.31440000  1.0 -0.5207149574
C  C150  1  0.77900000  0.14490000  0.30750000  1.0 0.2287032558
C  C151  1  0.70770000  0.09960000  0.31130000  1.0 0.334632746
C  C152  1  0.65130000  0.08470000  0.31920000  1.0 -0.5207149574
C  C153  1  0.88670000  0.36520000  0.34070000  1.0 0.1408975253
C  C154  1  0.87420000  0.34630000  0.37820000  1.0 -0.1703605214
C  C155  1  0.83000000  0.36630000  0.40070000  1.0 0.0074987094
C  C156  1  0.80240000  0.40510000  0.38260000  1.0 -0.0999365693
C  C157  1  0.81720000  0.42330000  0.34310000  1.0 0.0074987094
C  C158  1  0.85960000  0.40280000  0.32190000  1.0 -0.1580097014
C  C159  1  0.81030000  0.34360000  0.44130000  1.0 0.5801919094
C  C160  1  0.78270000  0.46250000  0.32150000  1.0 0.5532779908
C  C161  1  0.69910000  0.18260000  0.34210000  1.0 0.17020942
C  C162  1  0.71740000  0.19900000  0.38200000  1.0 -0.2012895773
C  C163  1  0.69040000  0.23700000  0.40120000  1.0 0.0206513673
C  C164  1  0.64200000  0.25660000  0.38270000  1.0 -0.1101945389
C  C165  1  0.62480000  0.24100000  0.34370000  1.0 0.0206513673
C  C166  1  0.65380000  0.20320000  0.32200000  1.0 -0.2012895773
C  C167  1  0.71460000  0.25580000  0.44230000  1.0 0.5622761564
C  C168  1  0.57670000  0.26200000  0.32010000  1.0 0.5622761564
C  C169  1  0.30700000  0.80690000  0.19180000  1.0 0.0206513673
C  C170  1  0.36220000  0.80930000  0.18430000  1.0 -0.0838353456
C  C171  1  0.39310000  0.76880000  0.18520000  1.0 -0.1101945389
C  C172  1  0.37210000  0.72360000  0.19150000  1.0 0.0206513673
C  C173  1  0.31800000  0.72100000  0.19860000  1.0 -0.1101945389
C  C174  1  0.28410000  0.76170000  0.19840000  1.0 -0.1206739395
C  C175  1  0.27610000  0.85320000  0.19440000  1.0 0.2382391999
C  C176  1  0.21300000  0.90620000  0.18990000  1.0 0.3473291314
C  C177  1  0.16230000  0.93150000  0.17900000  1.0 -0.5207149574
C  C178  1  0.40740000  0.68340000  0.19600000  1.0 0.2287032558
C  C179  1  0.44520000  0.61230000  0.19120000  1.0 0.3364073551
C  C180  1  0.45320000  0.55870000  0.18050000  1.0 -0.5207149574
C  C181  1  0.18930000  0.82650000  0.15850000  1.0 0.1494259575
C  C182  1  0.20570000  0.80920000  0.11870000  1.0 -0.1933703804
C  C183  1  0.16970000  0.77380000  0.10000000  1.0 0.0074987094
C  C184  1  0.12200000  0.75930000  0.11960000  1.0 -0.1101945389
C  C185  1  0.10880000  0.77740000  0.15880000  1.0 0.0074987094
C  C186  1  0.14380000  0.81130000  0.17810000  1.0 -0.1703605214
C  C187  1  0.19040000  0.75080000  0.05950000  1.0 0.5854763007
C  C188  1  0.05850000  0.75980000  0.18160000  1.0 0.5532779908
C  C189  1  0.35370000  0.62040000  0.15660000  1.0 0.1584146241
C  C190  1  0.34110000  0.64220000  0.11710000  1.0 -0.1760408813
C  C191  1  0.29500000  0.62760000  0.09660000  1.0 0.0074987094
C  C192  1  0.26320000  0.59000000  0.11220000  1.0 -0.0999365693
C  C193  1  0.27550000  0.56940000  0.15230000  1.0 -0.0090453539
C  C194  1  0.32140000  0.58360000  0.17320000  1.0 -0.1580097014
C  C195  1  0.27420000  0.65530000  0.05670000  1.0 0.5801919094
C  C196  1  0.23850000  0.53200000  0.17180000  1.0 0.5622761564
C  C197  1  0.10630000  0.73940000  0.30400000  1.0 0.0206513673
C  C198  1  0.09090000  0.78480000  0.31650000  1.0 -0.0949147725
C  C199  1  0.12960000  0.82230000  0.31740000  1.0 -0.0838353456
C  C200  1  0.18230000  0.81480000  0.30940000  1.0 0.0206513673
C  C201  1  0.19910000  0.76830000  0.29800000  1.0 -0.1206739395
C  C202  1  0.16100000  0.73040000  0.29580000  1.0 -0.1101945389
C  C203  1  0.06420000  0.70330000  0.29850000  1.0 0.2382391999
C  C204  1  0.01960000  0.63260000  0.30310000  1.0 0.3364073551
C  C205  1  0.00710000  0.58190000  0.31440000  1.0 -0.5207149574
C  C206  1  0.22100000  0.85510000  0.30750000  1.0 0.2287032558
C  C207  1  0.29230000  0.90040000  0.31130000  1.0 0.334632746
C  C208  1  0.34870000  0.91530000  0.31920000  1.0 -0.5207149574
C  C209  1  0.11330000  0.63480000  0.34070000  1.0 0.1408975253
C  C210  1  0.12580000  0.65370000  0.37820000  1.0 -0.1703605214
C  C211  1  0.17000000  0.63370000  0.40070000  1.0 0.0074987094
C  C212  1  0.19760000  0.59490000  0.38260000  1.0 -0.0999365693
C  C213  1  0.18280000  0.57670000  0.34310000  1.0 0.0074987094
C  C214  1  0.14040000  0.59720000  0.32190000  1.0 -0.1580097014
C  C215  1  0.18970000  0.65640000  0.44130000  1.0 0.5801919094
C  C216  1  0.21730000  0.53750000  0.32150000  1.0 0.5532779908
C  C217  1  0.30090000  0.81740000  0.34210000  1.0 0.17020942
C  C218  1  0.28260000  0.80100000  0.38200000  1.0 -0.2012895773
C  C219  1  0.30960000  0.76300000  0.40120000  1.0 0.0206513673
C  C220  1  0.35800000  0.74340000  0.38270000  1.0 -0.1101945389
C  C221  1  0.37520000  0.75900000  0.34370000  1.0 0.0206513673
C  C222  1  0.34620000  0.79680000  0.32200000  1.0 -0.2012895773
C  C223  1  0.28540000  0.74420000  0.44230000  1.0 0.5622761564
C  C224  1  0.42330000  0.73800000  0.32010000  1.0 0.5622761564
C  C225  1  0.19300000  0.30690000  0.19180000  1.0 0.0206513673
C  C226  1  0.13780000  0.30930000  0.18430000  1.0 -0.0838353456
C  C227  1  0.10690000  0.26880000  0.18520000  1.0 -0.1101945389
C  C228  1  0.12790000  0.22360000  0.19150000  1.0 0.0206513673
C  C229  1  0.18200000  0.22100000  0.19860000  1.0 -0.1101945389
C  C230  1  0.21590000  0.26170000  0.19840000  1.0 -0.1206739395
C  C231  1  0.22390000  0.35320000  0.19440000  1.0 0.2382391999
C  C232  1  0.28700000  0.40620000  0.18990000  1.0 0.3473291314
C  C233  1  0.33770000  0.43150000  0.17900000  1.0 -0.5207149574
C  C234  1  0.09260000  0.18340000  0.19600000  1.0 0.2287032558
C  C235  1  0.05480000  0.11230000  0.19120000  1.0 0.3364073551
C  C236  1  0.04680000  0.05870000  0.18050000  1.0 -0.5207149574
C  C237  1  0.31070000  0.32650000  0.15850000  1.0 0.1494259575
C  C238  1  0.29430000  0.30920000  0.11870000  1.0 -0.1933703804
C  C239  1  0.33030000  0.27380000  0.10000000  1.0 0.0074987094
C  C240  1  0.37800000  0.25930000  0.11960000  1.0 -0.1101945389
C  C241  1  0.39120000  0.27740000  0.15880000  1.0 0.0074987094
C  C242  1  0.35620000  0.31130000  0.17810000  1.0 -0.1703605214
C  C243  1  0.30960000  0.25080000  0.05950000  1.0 0.5854763007
C  C244  1  0.44150000  0.25980000  0.18160000  1.0 0.5532779908
C  C245  1  0.14630000  0.12040000  0.15660000  1.0 0.1584146241
C  C246  1  0.15890000  0.14220000  0.11710000  1.0 -0.1760408813
C  C247  1  0.20500000  0.12760000  0.09660000  1.0 0.0074987094
C  C248  1  0.23680000  0.09000000  0.11220000  1.0 -0.0999365693
C  C249  1  0.22450000  0.06940000  0.15230000  1.0 -0.0090453539
C  C250  1  0.17860000  0.08360000  0.17320000  1.0 -0.1580097014
C  C251  1  0.22580000  0.15530000  0.05670000  1.0 0.5801919094
C  C252  1  0.26150000  0.03200000  0.17180000  1.0 0.5622761564
C  C253  1  0.39370000  0.23940000  0.30400000  1.0 0.0206513673
C  C254  1  0.40910000  0.28480000  0.31650000  1.0 -0.0949147725
C  C255  1  0.37040000  0.32230000  0.31740000  1.0 -0.0838353456
C  C256  1  0.31770000  0.31480000  0.30940000  1.0 0.0206513673
C  C257  1  0.30090000  0.26830000  0.29800000  1.0 -0.1206739395
C  C258  1  0.33900000  0.23040000  0.29580000  1.0 -0.1101945389
C  C259  1  0.43580000  0.20330000  0.29850000  1.0 0.2382391999
C  C260  1  0.48040000  0.13260000  0.30310000  1.0 0.3364073551
C  C261  1  0.49290000  0.08190000  0.31440000  1.0 -0.5207149574
C  C262  1  0.27900000  0.35510000  0.30750000  1.0 0.2287032558
C  C263  1  0.20770000  0.40040000  0.31130000  1.0 0.334632746
C  C264  1  0.15130000  0.41530000  0.31920000  1.0 -0.5207149574
C  C265  1  0.38670000  0.13480000  0.34070000  1.0 0.1408975253
C  C266  1  0.37420000  0.15370000  0.37820000  1.0 -0.1703605214
C  C267  1  0.33000000  0.13370000  0.40070000  1.0 0.0074987094
C  C268  1  0.30240000  0.09490000  0.38260000  1.0 -0.0999365693
C  C269  1  0.31720000  0.07670000  0.34310000  1.0 0.0074987094
C  C270  1  0.35960000  0.09720000  0.32190000  1.0 -0.1580097014
C  C271  1  0.31030000  0.15640000  0.44130000  1.0 0.5801919094
C  C272  1  0.28270000  0.03750000  0.32150000  1.0 0.5532779908
C  C273  1  0.19910000  0.31740000  0.34210000  1.0 0.17020942
C  C274  1  0.21740000  0.30100000  0.38200000  1.0 -0.2012895773
C  C275  1  0.19040000  0.26300000  0.40120000  1.0 0.0206513673
C  C276  1  0.14200000  0.24340000  0.38270000  1.0 -0.1101945389
C  C277  1  0.12480000  0.25900000  0.34370000  1.0 0.0206513673
C  C278  1  0.15380000  0.29680000  0.32200000  1.0 -0.2012895773
C  C279  1  0.21460000  0.24420000  0.44230000  1.0 0.5622761564
C  C280  1  0.07670000  0.23800000  0.32010000  1.0 0.5622761564
C  C281  1  0.80700000  0.69310000  0.19180000  1.0 0.0206513673
C  C282  1  0.86220000  0.69070000  0.18430000  1.0 -0.0838353456
C  C283  1  0.89310000  0.73120000  0.18520000  1.0 -0.1101945389
C  C284  1  0.87210000  0.77640000  0.19150000  1.0 0.0206513673
C  C285  1  0.81800000  0.77900000  0.19860000  1.0 -0.1101945389
C  C286  1  0.78410000  0.73830000  0.19840000  1.0 -0.1206739395
C  C287  1  0.77610000  0.64680000  0.19440000  1.0 0.2382391999
C  C288  1  0.71300000  0.59380000  0.18990000  1.0 0.3473291314
C  C289  1  0.66230000  0.56850000  0.17900000  1.0 -0.5207149574
C  C290  1  0.90740000  0.81660000  0.19600000  1.0 0.2287032558
C  C291  1  0.94520000  0.88770000  0.19120000  1.0 0.3364073551
C  C292  1  0.95320000  0.94130000  0.18050000  1.0 -0.5207149574
C  C293  1  0.68930000  0.67350000  0.15850000  1.0 0.1494259575
C  C294  1  0.70570000  0.69080000  0.11870000  1.0 -0.1933703804
C  C295  1  0.66970000  0.72620000  0.10000000  1.0 0.0074987094
C  C296  1  0.62200000  0.74070000  0.11960000  1.0 -0.1101945389
C  C297  1  0.60880000  0.72260000  0.15880000  1.0 0.0074987094
C  C298  1  0.64380000  0.68870000  0.17810000  1.0 -0.1703605214
C  C299  1  0.69040000  0.74920000  0.05950000  1.0 0.5854763007
C  C300  1  0.55850000  0.74020000  0.18160000  1.0 0.5532779908
C  C301  1  0.85370000  0.87960000  0.15660000  1.0 0.1584146241
C  C302  1  0.84110000  0.85780000  0.11710000  1.0 -0.1760408813
C  C303  1  0.79500000  0.87240000  0.09660000  1.0 0.0074987094
C  C304  1  0.76320000  0.91000000  0.11220000  1.0 -0.0999365693
C  C305  1  0.77550000  0.93060000  0.15230000  1.0 -0.0090453539
C  C306  1  0.82140000  0.91640000  0.17320000  1.0 -0.1580097014
C  C307  1  0.77420000  0.84470000  0.05670000  1.0 0.5801919094
C  C308  1  0.73850000  0.96800000  0.17180000  1.0 0.5622761564
C  C309  1  0.60630000  0.76060000  0.30400000  1.0 0.0206513673
C  C310  1  0.59090000  0.71520000  0.31650000  1.0 -0.0949147725
C  C311  1  0.62960000  0.67770000  0.31740000  1.0 -0.0838353456
C  C312  1  0.68230000  0.68520000  0.30940000  1.0 0.0206513673
C  C313  1  0.69910000  0.73170000  0.29800000  1.0 -0.1206739395
C  C314  1  0.66100000  0.76960000  0.29580000  1.0 -0.1101945389
C  C315  1  0.56420000  0.79670000  0.29850000  1.0 0.2382391999
C  C316  1  0.51960000  0.86740000  0.30310000  1.0 0.3364073551
C  C317  1  0.50710000  0.91810000  0.31440000  1.0 -0.5207149574
C  C318  1  0.72100000  0.64490000  0.30750000  1.0 0.2287032558
C  C319  1  0.79230000  0.59960000  0.31130000  1.0 0.334632746
C  C320  1  0.84870000  0.58470000  0.31920000  1.0 -0.5207149574
C  C321  1  0.61330000  0.86520000  0.34070000  1.0 0.1408975253
C  C322  1  0.62580000  0.84630000  0.37820000  1.0 -0.1703605214
C  C323  1  0.67000000  0.86630000  0.40070000  1.0 0.0049125632
C  C324  1  0.69760000  0.90510000  0.38260000  1.0 -0.0999365693
C  C325  1  0.68280000  0.92330000  0.34310000  1.0 0.0074987094
C  C326  1  0.64040000  0.90280000  0.32190000  1.0 -0.1580097014
C  C327  1  0.68970000  0.84360000  0.44130000  1.0 0.5801919094
C  C328  1  0.71730000  0.96250000  0.32150000  1.0 0.5532779908
C  C329  1  0.80090000  0.68260000  0.34210000  1.0 0.17020942
C  C330  1  0.78260000  0.69900000  0.38200000  1.0 -0.2012895773
C  C331  1  0.80960000  0.73700000  0.40120000  1.0 0.0206513673
C  C332  1  0.85800000  0.75660000  0.38270000  1.0 -0.1101945389
C  C333  1  0.87520000  0.74100000  0.34370000  1.0 0.0206513673
C  C334  1  0.84620000  0.70320000  0.32200000  1.0 -0.2012895773
C  C335  1  0.78540000  0.75580000  0.44230000  1.0 0.5622761564
C  C336  1  0.92330000  0.76200000  0.32010000  1.0 0.5622761564
C  C337  1  0.30700000  0.80690000  0.80820000  1.0 0.0206513673
C  C338  1  0.36220000  0.80930000  0.81570000  1.0 -0.0838353456
C  C339  1  0.39310000  0.76880000  0.81480000  1.0 -0.1101945389
C  C340  1  0.37210000  0.72360000  0.80850000  1.0 0.0206513673
C  C341  1  0.31800000  0.72100000  0.80140000  1.0 -0.1101945389
C  C342  1  0.28410000  0.76170000  0.80160000  1.0 -0.1206739395
C  C343  1  0.27610000  0.85320000  0.80560000  1.0 0.2382391999
C  C344  1  0.21300000  0.90620000  0.81010000  1.0 0.3473291314
C  C345  1  0.16230000  0.93150000  0.82100000  1.0 -0.5207149574
C  C346  1  0.40740000  0.68340000  0.80400000  1.0 0.2287032558
C  C347  1  0.44520000  0.61230000  0.80880000  1.0 0.3364073551
C  C348  1  0.45320000  0.55870000  0.81950000  1.0 -0.5207149574
C  C349  1  0.18930000  0.82650000  0.84150000  1.0 0.1494259575
C  C350  1  0.20570000  0.80920000  0.88130000  1.0 -0.1933703804
C  C351  1  0.16970000  0.77380000  0.90000000  1.0 0.0074987094
C  C352  1  0.12200000  0.75930000  0.88040000  1.0 -0.1101945389
C  C353  1  0.10880000  0.77740000  0.84120000  1.0 0.0074987094
C  C354  1  0.14380000  0.81130000  0.82190000  1.0 -0.1703605214
C  C355  1  0.19040000  0.75080000  0.94050000  1.0 0.5854763007
C  C356  1  0.05850000  0.75980000  0.81840000  1.0 0.5532779908
C  C357  1  0.35370000  0.62040000  0.84340000  1.0 0.1584146241
C  C358  1  0.34110000  0.64220000  0.88290000  1.0 -0.1760408813
C  C359  1  0.29500000  0.62760000  0.90340000  1.0 0.0074987094
C  C360  1  0.26320000  0.59000000  0.88780000  1.0 -0.0999365693
C  C361  1  0.27550000  0.56940000  0.84770000  1.0 -0.0090453539
C  C362  1  0.32140000  0.58360000  0.82680000  1.0 -0.1580097014
C  C363  1  0.27420000  0.65530000  0.94330000  1.0 0.5801919094
C  C364  1  0.23850000  0.53200000  0.82820000  1.0 0.5622761564
C  C365  1  0.10630000  0.73940000  0.69600000  1.0 0.0206513673
C  C366  1  0.09090000  0.78480000  0.68350000  1.0 -0.0949147725
C  C367  1  0.12960000  0.82230000  0.68260000  1.0 -0.0838353456
C  C368  1  0.18230000  0.81480000  0.69060000  1.0 0.0206513673
C  C369  1  0.19910000  0.76830000  0.70200000  1.0 -0.1206739395
C  C370  1  0.16100000  0.73040000  0.70420000  1.0 -0.1101945389
C  C371  1  0.06420000  0.70330000  0.70150000  1.0 0.2382391999
C  C372  1  0.01960000  0.63260000  0.69690000  1.0 0.3364073551
C  C373  1  0.00710000  0.58190000  0.68560000  1.0 -0.5207149574
C  C374  1  0.22100000  0.85510000  0.69250000  1.0 0.2287032558
C  C375  1  0.29230000  0.90040000  0.68870000  1.0 0.334632746
C  C376  1  0.34870000  0.91530000  0.68080000  1.0 -0.5207149574
C  C377  1  0.11330000  0.63480000  0.65930000  1.0 0.1408975253
C  C378  1  0.12580000  0.65370000  0.62180000  1.0 -0.1703605214
C  C379  1  0.17000000  0.63370000  0.59930000  1.0 0.0074987094
C  C380  1  0.19760000  0.59490000  0.61740000  1.0 -0.0999365693
C  C381  1  0.18280000  0.57670000  0.65690000  1.0 0.0074987094
C  C382  1  0.14040000  0.59720000  0.67810000  1.0 -0.1580097014
C  C383  1  0.18970000  0.65640000  0.55870000  1.0 0.5801919094
C  C384  1  0.21730000  0.53750000  0.67850000  1.0 0.5532779908
C  C385  1  0.30090000  0.81740000  0.65790000  1.0 0.17020942
C  C386  1  0.28260000  0.80100000  0.61800000  1.0 -0.2012895773
C  C387  1  0.30960000  0.76300000  0.59880000  1.0 0.0206513673
C  C388  1  0.35800000  0.74340000  0.61730000  1.0 -0.1101945389
C  C389  1  0.37520000  0.75900000  0.65630000  1.0 0.0206513673
C  C390  1  0.34620000  0.79680000  0.67800000  1.0 -0.2012895773
C  C391  1  0.28540000  0.74420000  0.55770000  1.0 0.5622761564
C  C392  1  0.42330000  0.73800000  0.67990000  1.0 0.5622761564
C  C393  1  0.69300000  0.19310000  0.80820000  1.0 0.0206513673
C  C394  1  0.63780000  0.19070000  0.81570000  1.0 -0.0838353456
C  C395  1  0.60690000  0.23120000  0.81480000  1.0 -0.1101945389
C  C396  1  0.62790000  0.27640000  0.80850000  1.0 0.0206513673
C  C397  1  0.68200000  0.27900000  0.80140000  1.0 -0.1101945389
C  C398  1  0.71590000  0.23830000  0.80160000  1.0 -0.1206739395
C  C399  1  0.72390000  0.14680000  0.80560000  1.0 0.2382391999
C  C400  1  0.78700000  0.09380000  0.81010000  1.0 0.3473291314
C  C401  1  0.83770000  0.06850000  0.82100000  1.0 -0.5207149574
C  C402  1  0.59260000  0.31660000  0.80400000  1.0 0.2287032558
C  C403  1  0.55480000  0.38770000  0.80880000  1.0 0.3364073551
C  C404  1  0.54680000  0.44130000  0.81950000  1.0 -0.5207149574
C  C405  1  0.81070000  0.17350000  0.84150000  1.0 0.1494259575
C  C406  1  0.79430000  0.19080000  0.88130000  1.0 -0.1933703804
C  C407  1  0.83030000  0.22620000  0.90000000  1.0 0.0074987094
C  C408  1  0.87800000  0.24070000  0.88040000  1.0 -0.1101945389
C  C409  1  0.89120000  0.22260000  0.84120000  1.0 0.0074987094
C  C410  1  0.85620000  0.18870000  0.82190000  1.0 -0.1703605214
C  C411  1  0.80960000  0.24920000  0.94050000  1.0 0.5854763007
C  C412  1  0.94150000  0.24020000  0.81840000  1.0 0.5532779908
C  C413  1  0.64630000  0.37960000  0.84340000  1.0 0.1584146241
C  C414  1  0.65890000  0.35780000  0.88290000  1.0 -0.1760408813
C  C415  1  0.70500000  0.37240000  0.90340000  1.0 0.0074987094
C  C416  1  0.73680000  0.41000000  0.88780000  1.0 -0.0999365693
C  C417  1  0.72450000  0.43060000  0.84770000  1.0 -0.0090453539
C  C418  1  0.67860000  0.41640000  0.82680000  1.0 -0.1580097014
C  C419  1  0.72580000  0.34470000  0.94330000  1.0 0.5801919094
C  C420  1  0.76150000  0.46800000  0.82820000  1.0 0.5622761564
C  C421  1  0.89370000  0.26060000  0.69600000  1.0 0.0206513673
C  C422  1  0.90910000  0.21520000  0.68350000  1.0 -0.0999365693
C  C423  1  0.87040000  0.17770000  0.68260000  1.0 -0.0838353456
C  C424  1  0.81770000  0.18520000  0.69060000  1.0 0.0206513673
C  C425  1  0.80090000  0.23170000  0.70200000  1.0 -0.1206739395
C  C426  1  0.83900000  0.26960000  0.70420000  1.0 -0.1101945389
C  C427  1  0.93580000  0.29670000  0.70150000  1.0 0.2382391999
C  C428  1  0.98040000  0.36740000  0.69690000  1.0 0.3364073551
C  C429  1  0.99290000  0.41810000  0.68560000  1.0 -0.5207149574
C  C430  1  0.77900000  0.14490000  0.69250000  1.0 0.2287032558
C  C431  1  0.70770000  0.09960000  0.68870000  1.0 0.334632746
C  C432  1  0.65130000  0.08470000  0.68080000  1.0 -0.5207149574
C  C433  1  0.88670000  0.36520000  0.65930000  1.0 0.1408975253
C  C434  1  0.87420000  0.34630000  0.62180000  1.0 -0.1703605214
C  C435  1  0.83000000  0.36630000  0.59930000  1.0 0.0074987094
C  C436  1  0.80240000  0.40510000  0.61740000  1.0 -0.0999365693
C  C437  1  0.81720000  0.42330000  0.65690000  1.0 0.0074987094
C  C438  1  0.85960000  0.40280000  0.67810000  1.0 -0.1580097014
C  C439  1  0.81030000  0.34360000  0.55870000  1.0 0.5801919094
C  C440  1  0.78270000  0.46250000  0.67850000  1.0 0.5532779908
C  C441  1  0.69910000  0.18260000  0.65790000  1.0 0.17020942
C  C442  1  0.71740000  0.19900000  0.61800000  1.0 -0.2012895773
C  C443  1  0.69040000  0.23700000  0.59880000  1.0 0.0206513673
C  C444  1  0.64200000  0.25660000  0.61730000  1.0 -0.1101945389
C  C445  1  0.62480000  0.24100000  0.65630000  1.0 0.0206513673
C  C446  1  0.65380000  0.20320000  0.67800000  1.0 -0.2012895773
C  C447  1  0.71460000  0.25580000  0.55770000  1.0 0.5622761564
C  C448  1  0.57670000  0.26200000  0.67990000  1.0 0.5622761564
N  N1  1  0.79600000  0.60870000  0.78800000  1.0 -0.2670466703
N  N2  1  0.75330000  0.57460000  0.79040000  1.0 -0.2594022163
N  N3  1  0.72460000  0.63990000  0.82032000  1.0 -0.1101945389
N  N4  1  0.95570000  0.81670000  0.78387000  1.0 -0.22730326
N  N5  1  0.98040000  0.86180000  0.78750000  1.0 -0.2594022163
N  N6  1  0.90040000  0.86290000  0.81970000  1.0 -0.1101945389
N  N7  1  0.51760000  0.79360000  0.72092000  1.0 -0.2237595254
N  N8  1  0.48790000  0.83600000  0.71740000  1.0 -0.2839162991
N  N9  1  0.56870000  0.84390000  0.68397000  1.0 -0.1291970116
N  N10  1  0.70790000  0.60270000  0.70890000  1.0 -0.2670466703
N  N11  1  0.75480000  0.57420000  0.70584000  1.0 -0.2457167478
N  N12  1  0.77320000  0.64510000  0.67867000  1.0 -0.0999365693
N  N13  1  0.20400000  0.39130000  0.78800000  1.0 -0.2670466703
N  N14  1  0.24670000  0.42540000  0.79040000  1.0 -0.2594022163
N  N15  1  0.27540000  0.36010000  0.82032000  1.0 -0.1101945389
N  N16  1  0.04430000  0.18330000  0.78387000  1.0 -0.22730326
N  N17  1  0.01960000  0.13820000  0.78750000  1.0 -0.2594022163
N  N18  1  0.09960000  0.13710000  0.81970000  1.0 -0.1101945389
N  N19  1  0.48240000  0.20640000  0.72092000  1.0 -0.2237595254
N  N20  1  0.51210000  0.16400000  0.71740000  1.0 -0.2839162991
N  N21  1  0.43130000  0.15610000  0.68397000  1.0 -0.1291970116
N  N22  1  0.29210000  0.39730000  0.70890000  1.0 -0.2670466703
N  N23  1  0.24520000  0.42580000  0.70584000  1.0 -0.2457167478
N  N24  1  0.22680000  0.35490000  0.67867000  1.0 -0.0999365693
N  N25  1  0.70400000  0.10870000  0.21200000  1.0 -0.2670466703
N  N26  1  0.74670000  0.07460000  0.20960000  1.0 -0.2594022163
N  N27  1  0.77540000  0.13990000  0.17968000  1.0 -0.1101945389
N  N28  1  0.54430000  0.31670000  0.21613000  1.0 -0.22730326
N  N29  1  0.51960000  0.36180000  0.21250000  1.0 -0.2594022163
N  N30  1  0.59960000  0.36290000  0.18030000  1.0 -0.1101945389
N  N31  1  0.98240000  0.29360000  0.27908000  1.0 -0.2237595254
N  N32  1  0.01210000  0.33600000  0.28260000  1.0 -0.2839162991
N  N33  1  0.93130000  0.34390000  0.31603000  1.0 -0.1291970116
N  N34  1  0.79210000  0.10270000  0.29110000  1.0 -0.2670466703
N  N35  1  0.74520000  0.07420000  0.29416000  1.0 -0.2457167478
N  N36  1  0.72680000  0.14510000  0.32133000  1.0 -0.1101945389
N  N37  1  0.29600000  0.89130000  0.21200000  1.0 -0.2670466703
N  N38  1  0.25330000  0.92540000  0.20960000  1.0 -0.2594022163
N  N39  1  0.22460000  0.86010000  0.17968000  1.0 -0.1101945389
N  N40  1  0.45570000  0.68330000  0.21613000  1.0 -0.22730326
N  N41  1  0.48040000  0.63820000  0.21250000  1.0 -0.2594022163
N  N42  1  0.40040000  0.63710000  0.18030000  1.0 -0.1101945389
N  N43  1  0.01760000  0.70640000  0.27908000  1.0 -0.2237595254
N  N44  1  0.98790000  0.66400000  0.28260000  1.0 -0.2839162991
N  N45  1  0.06870000  0.65610000  0.31603000  1.0 -0.1291970116
N  N46  1  0.20790000  0.89730000  0.29110000  1.0 -0.2670466703
N  N47  1  0.25480000  0.92580000  0.29416000  1.0 -0.2457167478
N  N48  1  0.27320000  0.85490000  0.32133000  1.0 -0.0999365693
N  N49  1  0.20400000  0.39130000  0.21200000  1.0 -0.2670466703
N  N50  1  0.24670000  0.42540000  0.20960000  1.0 -0.2594022163
N  N51  1  0.27540000  0.36010000  0.17968000  1.0 -0.1101945389
N  N52  1  0.04430000  0.18330000  0.21613000  1.0 -0.22730326
N  N53  1  0.01960000  0.13820000  0.21250000  1.0 -0.2594022163
N  N54  1  0.09960000  0.13710000  0.18030000  1.0 -0.1101945389
N  N55  1  0.48240000  0.20640000  0.27908000  1.0 -0.2237595254
N  N56  1  0.51210000  0.16400000  0.28260000  1.0 -0.2839162991
N  N57  1  0.43130000  0.15610000  0.31603000  1.0 -0.1291970116
N  N58  1  0.29210000  0.39730000  0.29110000  1.0 -0.2670466703
N  N59  1  0.24520000  0.42580000  0.29416000  1.0 -0.2457167478
N  N60  1  0.22680000  0.35490000  0.32133000  1.0 -0.0999365693
N  N61  1  0.79600000  0.60870000  0.21200000  1.0 -0.2670466703
N  N62  1  0.75330000  0.57460000  0.20960000  1.0 -0.2594022163
N  N63  1  0.72460000  0.63990000  0.17968000  1.0 -0.1101945389
N  N64  1  0.95570000  0.81670000  0.21613000  1.0 -0.22730326
N  N65  1  0.98040000  0.86180000  0.21250000  1.0 -0.2594022163
N  N66  1  0.90040000  0.86290000  0.18030000  1.0 -0.1101945389
N  N67  1  0.51760000  0.79360000  0.27908000  1.0 -0.2237595254
N  N68  1  0.48790000  0.83600000  0.28260000  1.0 -0.2839162991
N  N69  1  0.56870000  0.84390000  0.31603000  1.0 -0.1291970116
N  N70  1  0.70790000  0.60270000  0.29110000  1.0 -0.2670466703
N  N71  1  0.75480000  0.57420000  0.29416000  1.0 -0.2457167478
N  N72  1  0.77320000  0.64510000  0.32133000  1.0 -0.0999365693
N  N73  1  0.29600000  0.89130000  0.78800000  1.0 -0.2670466703
N  N74  1  0.25330000  0.92540000  0.79040000  1.0 -0.2594022163
N  N75  1  0.22460000  0.86010000  0.82032000  1.0 -0.1101945389
N  N76  1  0.45570000  0.68330000  0.78387000  1.0 -0.22730326
N  N77  1  0.48040000  0.63820000  0.78750000  1.0 -0.2594022163
N  N78  1  0.40040000  0.63710000  0.81970000  1.0 -0.1101945389
N  N79  1  0.01760000  0.70640000  0.72092000  1.0 -0.2237595254
N  N80  1  0.98790000  0.66400000  0.71740000  1.0 -0.2839162991
N  N81  1  0.06870000  0.65610000  0.68397000  1.0 -0.1291970116
N  N82  1  0.20790000  0.89730000  0.70890000  1.0 -0.2670466703
N  N83  1  0.25480000  0.92580000  0.70584000  1.0 -0.2457167478
N  N84  1  0.27320000  0.85490000  0.67867000  1.0 -0.0999365693
N  N85  1  0.70400000  0.10870000  0.78800000  1.0 -0.2670466703
N  N86  1  0.74670000  0.07460000  0.79040000  1.0 -0.2594022163
N  N87  1  0.77540000  0.13990000  0.82032000  1.0 -0.1101945389
N  N88  1  0.54430000  0.31670000  0.78387000  1.0 -0.22730326
N  N89  1  0.51960000  0.36180000  0.78750000  1.0 -0.2594022163
N  N90  1  0.59960000  0.36290000  0.81970000  1.0 -0.1101945389
N  N91  1  0.98240000  0.29360000  0.72092000  1.0 -0.2237595254
N  N92  1  0.01210000  0.33600000  0.71740000  1.0 -0.2839162991
N  N93  1  0.93130000  0.34390000  0.68397000  1.0 -0.1291970116
N  N94  1  0.79210000  0.10270000  0.70890000  1.0 -0.2670466703
N  N95  1  0.74520000  0.07420000  0.70584000  1.0 -0.2457167478
N  N96  1  0.72680000  0.14510000  0.67867000  1.0 -0.1101945389
O  O1  1  0.66050000  0.78210000  0.95565000  1.0 -0.5092972302
O  O2  1  0.73530000  0.73570000  0.95575000  1.0 -0.5299874353
O  O3  1  0.55570000  0.72730000  0.77941000  1.0 -0.5388217616
O  O4  1  0.52500000  0.76160000  0.83837000  1.0 -0.5092972302
O  O5  1  0.72770000  0.85910000  0.95675000  1.0 -0.5299874353
O  O6  1  0.80460000  0.81100000  0.95651000  1.0 -0.5092972302
O  O7  1  0.74260000  0.97070000  0.78847000  1.0 -0.5388217616
O  O8  1  0.70860000  0.99170000  0.85210000  1.0 -0.5207149574
O  O9  1  0.66510000  0.80870000  0.54492000  1.0 -0.4755819523
O  O10  1  0.73470000  0.86270000  0.54415000  1.0 -0.5388217616
O  O11  1  0.70070000  0.97760000  0.71221000  1.0 -0.499443748
O  O12  1  0.76200000  0.97220000  0.66110000  1.0 -0.5388217616
O  O13  1  0.74380000  0.73930000  0.54389000  1.0 -0.4662999222
O  O14  1  0.81180000  0.79490000  0.54376000  1.0 -0.5388217616
O  O15  1  0.92350000  0.75810000  0.72002000  1.0 -0.5299874353
O  O16  1  0.95900000  0.78270000  0.65744000  1.0 -0.5712896967
O  O17  1  0.33950000  0.21790000  0.95565000  1.0 -0.5092972302
O  O18  1  0.26470000  0.26430000  0.95575000  1.0 -0.5299874353
O  O19  1  0.44430000  0.27270000  0.77941000  1.0 -0.5388217616
O  O20  1  0.47500000  0.23840000  0.83837000  1.0 -0.5092972302
O  O21  1  0.27230000  0.14090000  0.95675000  1.0 -0.5299874353
O  O22  1  0.19540000  0.18900000  0.95651000  1.0 -0.5092972302
O  O23  1  0.25740000  0.02930000  0.78847000  1.0 -0.5388217616
O  O24  1  0.29140000  0.00830000  0.85210000  1.0 -0.5207149574
O  O25  1  0.33490000  0.19130000  0.54492000  1.0 -0.4755819523
O  O26  1  0.26530000  0.13730000  0.54415000  1.0 -0.5388217616
O  O27  1  0.29930000  0.02240000  0.71221000  1.0 -0.499443748
O  O28  1  0.23800000  0.02780000  0.66110000  1.0 -0.5299874353
O  O29  1  0.25620000  0.26070000  0.54389000  1.0 -0.4662999222
O  O30  1  0.18820000  0.20510000  0.54376000  1.0 -0.5388217616
O  O31  1  0.07650000  0.24190000  0.72002000  1.0 -0.5299874353
O  O32  1  0.04100000  0.21730000  0.65744000  1.0 -0.5712896967
O  O33  1  0.83950000  0.28210000  0.04435000  1.0 -0.5092972302
O  O34  1  0.76470000  0.23570000  0.04425000  1.0 -0.5299874353
O  O35  1  0.94430000  0.22730000  0.22059000  1.0 -0.5388217616
O  O36  1  0.97500000  0.26160000  0.16163000  1.0 -0.5092972302
O  O37  1  0.77230000  0.35910000  0.04325000  1.0 -0.5299874353
O  O38  1  0.69540000  0.31100000  0.04349000  1.0 -0.5092972302
O  O39  1  0.75740000  0.47070000  0.21153000  1.0 -0.5388217616
O  O40  1  0.79140000  0.49170000  0.14790000  1.0 -0.5207149574
O  O41  1  0.83490000  0.30870000  0.45508000  1.0 -0.4755819523
O  O42  1  0.76530000  0.36270000  0.45585000  1.0 -0.5453159594
O  O43  1  0.79930000  0.47760000  0.28779000  1.0 -0.499443748
O  O44  1  0.73800000  0.47220000  0.33890000  1.0 -0.5388217616
O  O45  1  0.75620000  0.23930000  0.45611000  1.0 -0.4662999222
O  O46  1  0.68820000  0.29490000  0.45624000  1.0 -0.5388217616
O  O47  1  0.57650000  0.25810000  0.27998000  1.0 -0.5299874353
O  O48  1  0.54100000  0.28270000  0.34256000  1.0 -0.5712896967
O  O49  1  0.16050000  0.71790000  0.04435000  1.0 -0.5092972302
O  O50  1  0.23530000  0.76430000  0.04425000  1.0 -0.5299874353
O  O51  1  0.05570000  0.77270000  0.22059000  1.0 -0.5388217616
O  O52  1  0.02500000  0.73840000  0.16163000  1.0 -0.5092972302
O  O53  1  0.22770000  0.64090000  0.04325000  1.0 -0.5299874353
O  O54  1  0.30460000  0.68900000  0.04349000  1.0 -0.5092972302
O  O55  1  0.24260000  0.52930000  0.21153000  1.0 -0.5388217616
O  O56  1  0.20860000  0.50830000  0.14790000  1.0 -0.5207149574
O  O57  1  0.16510000  0.69130000  0.45508000  1.0 -0.4755819523
O  O58  1  0.23470000  0.63730000  0.45585000  1.0 -0.5453159594
O  O59  1  0.20070000  0.52240000  0.28779000  1.0 -0.499443748
O  O60  1  0.26200000  0.52780000  0.33890000  1.0 -0.5388217616
O  O61  1  0.24380000  0.76070000  0.45611000  1.0 -0.4662999222
O  O62  1  0.31180000  0.70510000  0.45624000  1.0 -0.5388217616
O  O63  1  0.42350000  0.74190000  0.27998000  1.0 -0.5299874353
O  O64  1  0.45900000  0.71730000  0.34256000  1.0 -0.5712896967
O  O65  1  0.33950000  0.21790000  0.04435000  1.0 -0.5092972302
O  O66  1  0.26470000  0.26430000  0.04425000  1.0 -0.5299874353
O  O67  1  0.44430000  0.27270000  0.22059000  1.0 -0.5388217616
O  O68  1  0.47500000  0.23840000  0.16163000  1.0 -0.5092972302
O  O69  1  0.27230000  0.14090000  0.04325000  1.0 -0.5299874353
O  O70  1  0.19540000  0.18900000  0.04349000  1.0 -0.5092972302
O  O71  1  0.25740000  0.02930000  0.21153000  1.0 -0.5388217616
O  O72  1  0.29140000  0.00830000  0.14790000  1.0 -0.5207149574
O  O73  1  0.33490000  0.19130000  0.45508000  1.0 -0.4755819523
O  O74  1  0.26530000  0.13730000  0.45585000  1.0 -0.5453159594
O  O75  1  0.29930000  0.02240000  0.28779000  1.0 -0.499443748
O  O76  1  0.23800000  0.02780000  0.33890000  1.0 -0.5388217616
O  O77  1  0.25620000  0.26070000  0.45611000  1.0 -0.4662999222
O  O78  1  0.18820000  0.20510000  0.45624000  1.0 -0.5388217616
O  O79  1  0.07650000  0.24190000  0.27998000  1.0 -0.5299874353
O  O80  1  0.04100000  0.21730000  0.34256000  1.0 -0.5712896967
O  O81  1  0.66050000  0.78210000  0.04435000  1.0 -0.5092972302
O  O82  1  0.73530000  0.73570000  0.04425000  1.0 -0.5299874353
O  O83  1  0.55570000  0.72730000  0.22059000  1.0 -0.5388217616
O  O84  1  0.52500000  0.76160000  0.16163000  1.0 -0.5092972302
O  O85  1  0.72770000  0.85910000  0.04325000  1.0 -0.5299874353
O  O86  1  0.80460000  0.81100000  0.04349000  1.0 -0.5092972302
O  O87  1  0.74260000  0.97070000  0.21153000  1.0 -0.5388217616
O  O88  1  0.70860000  0.99170000  0.14790000  1.0 -0.5207149574
O  O89  1  0.66510000  0.80870000  0.45508000  1.0 -0.4755819523
O  O90  1  0.73470000  0.86270000  0.45585000  1.0 -0.5453159594
O  O91  1  0.70070000  0.97760000  0.28779000  1.0 -0.499443748
O  O92  1  0.76200000  0.97220000  0.33890000  1.0 -0.5388217616
O  O93  1  0.74380000  0.73930000  0.45611000  1.0 -0.4662999222
O  O94  1  0.81180000  0.79490000  0.45624000  1.0 -0.5388217616
O  O95  1  0.92350000  0.75810000  0.27998000  1.0 -0.5299874353
O  O96  1  0.95900000  0.78270000  0.34256000  1.0 -0.5712896967
O  O97  1  0.16050000  0.71790000  0.95565000  1.0 -0.5092972302
O  O98  1  0.23530000  0.76430000  0.95575000  1.0 -0.5299874353
O  O99  1  0.05570000  0.77270000  0.77941000  1.0 -0.5388217616
O  O100  1  0.02500000  0.73840000  0.83837000  1.0 -0.5092972302
O  O101  1  0.22770000  0.64090000  0.95675000  1.0 -0.5299874353
O  O102  1  0.30460000  0.68900000  0.95651000  1.0 -0.5092972302
O  O103  1  0.24260000  0.52930000  0.78847000  1.0 -0.5388217616
O  O104  1  0.20860000  0.50830000  0.85210000  1.0 -0.5207149574
O  O105  1  0.16510000  0.69130000  0.54492000  1.0 -0.4755819523
O  O106  1  0.23470000  0.63730000  0.54415000  1.0 -0.5388217616
O  O107  1  0.20070000  0.52240000  0.71221000  1.0 -0.499443748
O  O108  1  0.26200000  0.52780000  0.66110000  1.0 -0.5388217616
O  O109  1  0.24380000  0.76070000  0.54389000  1.0 -0.4662999222
O  O110  1  0.31180000  0.70510000  0.54376000  1.0 -0.5388217616
O  O111  1  0.42350000  0.74190000  0.72002000  1.0 -0.5299874353
O  O112  1  0.45900000  0.71730000  0.65744000  1.0 -0.5712896967
O  O113  1  0.83950000  0.28210000  0.95565000  1.0 -0.5092972302
O  O114  1  0.76470000  0.23570000  0.95575000  1.0 -0.5299874353
O  O115  1  0.94430000  0.22730000  0.77941000  1.0 -0.5388217616
O  O116  1  0.97500000  0.26160000  0.83837000  1.0 -0.5092972302
O  O117  1  0.77230000  0.35910000  0.95675000  1.0 -0.5299874353
O  O118  1  0.69540000  0.31100000  0.95651000  1.0 -0.5092972302
O  O119  1  0.75740000  0.47070000  0.78847000  1.0 -0.5388217616
O  O120  1  0.79140000  0.49170000  0.85210000  1.0 -0.5207149574
O  O121  1  0.83490000  0.30870000  0.54492000  1.0 -0.4755819523
O  O122  1  0.76530000  0.36270000  0.54415000  1.0 -0.5453159594
O  O123  1  0.79930000  0.47760000  0.71221000  1.0 -0.499443748
O  O124  1  0.73800000  0.47220000  0.66110000  1.0 -0.5388217616
O  O125  1  0.75620000  0.23930000  0.54389000  1.0 -0.4662999222
O  O126  1  0.68820000  0.29490000  0.54376000  1.0 -0.5388217616
O  O127  1  0.57650000  0.25810000  0.72002000  1.0 -0.5299874353
O  O128  1  0.54100000  0.28270000  0.65744000  1.0 -0.5712896967
