# DDEC6 charges by PACMAN v1.1 (https://github.com/mtap-research/PACMAN-charge/)
data_VEXYON_ASR_pacman
_symmetry_space_group_name_H-M   'P 1'
_cell_length_a   18.59500000
_cell_length_b   18.59500000
_cell_length_c   18.59500000
_cell_angle_alpha   90.00000000
_cell_angle_beta   90.00000000
_cell_angle_gamma   90.00000000
_symmetry_Int_Tables_number   1
_chemical_formula_structural   Cu4H8C24N32Cl
_chemical_formula_sum   'Cu12 H24 C72 N96 Cl3'
_cell_volume   6429.66799487
_cell_formula_units_Z   3
loop_
 _symmetry_equiv_pos_site_id
 _symmetry_equiv_pos_as_xyz
  1  'x, y, z'
loop_
 _atom_site_type_symbol
 _atom_site_label
 _atom_site_symmetry_multiplicity
 _atom_site_fract_x
 _atom_site_fract_y
 _atom_site_fract_z
 _atom_site_occupancy
 _atom_site_charge
Cu  Cu1  1  0.50000000  0.13693000  0.00000000  1.0 0.540079898
Cu  Cu2  1  0.86307000  0.50000000  0.00000000  1.0 0.540079898
Cu  Cu3  1  0.50000000  0.86307000  0.00000000  1.0 0.540079898
Cu  Cu4  1  0.00000000  0.50000000  0.13693000  1.0 0.540079898
Cu  Cu5  1  0.13693000  0.50000000  0.00000000  1.0 0.540079898
Cu  Cu6  1  0.50000000  0.00000000  0.13693000  1.0 0.540079898
Cu  Cu7  1  0.00000000  0.50000000  0.86307000  1.0 0.540079898
Cu  Cu8  1  0.50000000  0.00000000  0.86307000  1.0 0.540079898
Cu  Cu9  1  0.13693000  0.00000000  0.50000000  1.0 0.540079898
Cu  Cu10  1  0.00000000  0.86307000  0.50000000  1.0 0.540079898
Cu  Cu11  1  0.00000000  0.13693000  0.50000000  1.0 0.540079898
Cu  Cu12  1  0.86307000  0.00000000  0.50000000  1.0 0.540079898
H  H1  1  0.26100000  0.26100000  0.89240000  1.0 0.1323636933
H  H2  1  0.73900000  0.26100000  0.89240000  1.0 0.1323636933
H  H3  1  0.26100000  0.73900000  0.10760000  1.0 0.1323636933
H  H4  1  0.89240000  0.26100000  0.26100000  1.0 0.1323636933
H  H5  1  0.73900000  0.73900000  0.89240000  1.0 0.1323636933
H  H6  1  0.26100000  0.26100000  0.10760000  1.0 0.1323636933
H  H7  1  0.73900000  0.89240000  0.26100000  1.0 0.1323636933
H  H8  1  0.26100000  0.73900000  0.89240000  1.0 0.1323636933
H  H9  1  0.73900000  0.26100000  0.10760000  1.0 0.1323636933
H  H10  1  0.10760000  0.73900000  0.26100000  1.0 0.1323636933
H  H11  1  0.73900000  0.73900000  0.10760000  1.0 0.1323636933
H  H12  1  0.26100000  0.10760000  0.26100000  1.0 0.1323636933
H  H13  1  0.89240000  0.73900000  0.73900000  1.0 0.1323636933
H  H14  1  0.73900000  0.10760000  0.73900000  1.0 0.1323636933
H  H15  1  0.10760000  0.26100000  0.73900000  1.0 0.1323636933
H  H16  1  0.26100000  0.89240000  0.73900000  1.0 0.1323636933
H  H17  1  0.26100000  0.89240000  0.26100000  1.0 0.1323636933
H  H18  1  0.89240000  0.73900000  0.26100000  1.0 0.1323636933
H  H19  1  0.10760000  0.26100000  0.26100000  1.0 0.1323636933
H  H20  1  0.89240000  0.26100000  0.73900000  1.0 0.1323636933
H  H21  1  0.26100000  0.10760000  0.73900000  1.0 0.1323636933
H  H22  1  0.10760000  0.73900000  0.73900000  1.0 0.1323636933
H  H23  1  0.73900000  0.89240000  0.73900000  1.0 0.1323636933
H  H24  1  0.73900000  0.10760000  0.26100000  1.0 0.1323636933
C  C1  1  0.33620000  0.14850000  0.85150000  1.0 0.2362410185
C  C2  1  0.85150000  0.33620000  0.85150000  1.0 0.2362410185
C  C3  1  0.33620000  0.85150000  0.14850000  1.0 0.2362410185
C  C4  1  0.85150000  0.33620000  0.14850000  1.0 0.2362410185
C  C5  1  0.66380000  0.85150000  0.85150000  1.0 0.2362410185
C  C6  1  0.14850000  0.33620000  0.14850000  1.0 0.2362410185
C  C7  1  0.66380000  0.85150000  0.14850000  1.0 0.2362410185
C  C8  1  0.14850000  0.66380000  0.85150000  1.0 0.2362410185
C  C9  1  0.66380000  0.14850000  0.14850000  1.0 0.2362410185
C  C10  1  0.14850000  0.66380000  0.14850000  1.0 0.2362410185
C  C11  1  0.85150000  0.66380000  0.14850000  1.0 0.2362410185
C  C12  1  0.33620000  0.14850000  0.14850000  1.0 0.2362410185
C  C13  1  0.85150000  0.66380000  0.85150000  1.0 0.2362410185
C  C14  1  0.66380000  0.14850000  0.85150000  1.0 0.2362410185
C  C15  1  0.14850000  0.33620000  0.85150000  1.0 0.2362410185
C  C16  1  0.33620000  0.85150000  0.85150000  1.0 0.2362410185
C  C17  1  0.14850000  0.85150000  0.33620000  1.0 0.2362410185
C  C18  1  0.85150000  0.85150000  0.33620000  1.0 0.2362410185
C  C19  1  0.14850000  0.14850000  0.33620000  1.0 0.2362410185
C  C20  1  0.85150000  0.14850000  0.66380000  1.0 0.2362410185
C  C21  1  0.14850000  0.14850000  0.66380000  1.0 0.2362410185
C  C22  1  0.14850000  0.85150000  0.66380000  1.0 0.2362410185
C  C23  1  0.85150000  0.85150000  0.66380000  1.0 0.2362410185
C  C24  1  0.85150000  0.14850000  0.33620000  1.0 0.2362410185
C  C25  1  0.27230000  0.18050000  0.81950000  1.0 0.0378845162
C  C26  1  0.81950000  0.27230000  0.81950000  1.0 0.0378845162
C  C27  1  0.27230000  0.81950000  0.18050000  1.0 0.0378845162
C  C28  1  0.81950000  0.27230000  0.18050000  1.0 0.0378845162
C  C29  1  0.72770000  0.81950000  0.81950000  1.0 0.0378845162
C  C30  1  0.18050000  0.27230000  0.18050000  1.0 0.0378845162
C  C31  1  0.72770000  0.81950000  0.18050000  1.0 0.0378845162
C  C32  1  0.18050000  0.72770000  0.81950000  1.0 0.0378845162
C  C33  1  0.72770000  0.18050000  0.18050000  1.0 0.0378845162
C  C34  1  0.18050000  0.72770000  0.18050000  1.0 0.0378845162
C  C35  1  0.81950000  0.72770000  0.18050000  1.0 0.0378845162
C  C36  1  0.27230000  0.18050000  0.18050000  1.0 0.0378845162
C  C37  1  0.81950000  0.72770000  0.81950000  1.0 0.0378845162
C  C38  1  0.72770000  0.18050000  0.81950000  1.0 0.0378845162
C  C39  1  0.18050000  0.27230000  0.81950000  1.0 0.0378845162
C  C40  1  0.27230000  0.81950000  0.81950000  1.0 0.0378845162
C  C41  1  0.18050000  0.81950000  0.27230000  1.0 0.0378845162
C  C42  1  0.81950000  0.81950000  0.27230000  1.0 0.0378845162
C  C43  1  0.18050000  0.18050000  0.27230000  1.0 0.0378845162
C  C44  1  0.81950000  0.18050000  0.72770000  1.0 0.0378845162
C  C45  1  0.18050000  0.18050000  0.72770000  1.0 0.0378845162
C  C46  1  0.18050000  0.81950000  0.72770000  1.0 0.0378845162
C  C47  1  0.81950000  0.81950000  0.72770000  1.0 0.0378845162
C  C48  1  0.81950000  0.18050000  0.27230000  1.0 0.0378845162
C  C49  1  0.24130000  0.24130000  0.85090000  1.0 -0.1064282319
C  C50  1  0.75870000  0.24130000  0.85090000  1.0 -0.1064282319
C  C51  1  0.24130000  0.75870000  0.14910000  1.0 -0.1064282319
C  C52  1  0.85090000  0.24130000  0.24130000  1.0 -0.1064282319
C  C53  1  0.75870000  0.75870000  0.85090000  1.0 -0.1064282319
C  C54  1  0.24130000  0.24130000  0.14910000  1.0 -0.1064282319
C  C55  1  0.75870000  0.85090000  0.24130000  1.0 -0.1064282319
C  C56  1  0.24130000  0.75870000  0.85090000  1.0 -0.1064282319
C  C57  1  0.75870000  0.24130000  0.14910000  1.0 -0.1064282319
C  C58  1  0.14910000  0.75870000  0.24130000  1.0 -0.1064282319
C  C59  1  0.75870000  0.75870000  0.14910000  1.0 -0.1064282319
C  C60  1  0.24130000  0.14910000  0.24130000  1.0 -0.1064282319
C  C61  1  0.85090000  0.75870000  0.75870000  1.0 -0.1064282319
C  C62  1  0.75870000  0.14910000  0.75870000  1.0 -0.1064282319
C  C63  1  0.14910000  0.24130000  0.75870000  1.0 -0.1064282319
C  C64  1  0.24130000  0.85090000  0.75870000  1.0 -0.1064282319
C  C65  1  0.24130000  0.85090000  0.24130000  1.0 -0.1064282319
C  C66  1  0.85090000  0.75870000  0.24130000  1.0 -0.1064282319
C  C67  1  0.14910000  0.24130000  0.24130000  1.0 -0.1064282319
C  C68  1  0.85090000  0.24130000  0.75870000  1.0 -0.1064282319
C  C69  1  0.24130000  0.14910000  0.75870000  1.0 -0.1064282319
C  C70  1  0.14910000  0.75870000  0.75870000  1.0 -0.1064282319
C  C71  1  0.75870000  0.85090000  0.75870000  1.0 -0.1064282319
C  C72  1  0.75870000  0.14910000  0.24130000  1.0 -0.1064282319
N  N1  1  0.42504000  0.13009000  0.92080000  1.0 -0.0180007277
N  N2  1  0.86991000  0.42504000  0.92080000  1.0 -0.0180007277
N  N3  1  0.42504000  0.86991000  0.07920000  1.0 -0.0180007277
N  N4  1  0.92080000  0.42504000  0.13009000  1.0 -0.0180007277
N  N5  1  0.57496000  0.86991000  0.92080000  1.0 -0.0180007277
N  N6  1  0.13009000  0.42504000  0.07920000  1.0 -0.0180007277
N  N7  1  0.57496000  0.92080000  0.13009000  1.0 -0.0180007277
N  N8  1  0.13009000  0.57496000  0.92080000  1.0 -0.0180007277
N  N9  1  0.57496000  0.13009000  0.07920000  1.0 -0.0180007277
N  N10  1  0.07920000  0.57496000  0.13009000  1.0 -0.0180007277
N  N11  1  0.86991000  0.57496000  0.07920000  1.0 -0.0180007277
N  N12  1  0.42504000  0.07920000  0.13009000  1.0 -0.0180007277
N  N13  1  0.92080000  0.57496000  0.86991000  1.0 -0.0180007277
N  N14  1  0.57496000  0.07920000  0.86991000  1.0 -0.0180007277
N  N15  1  0.07920000  0.42504000  0.86991000  1.0 -0.0180007277
N  N16  1  0.42504000  0.92080000  0.86991000  1.0 -0.0180007277
N  N17  1  0.13009000  0.92080000  0.42504000  1.0 -0.0180007277
N  N18  1  0.92080000  0.86991000  0.42504000  1.0 -0.0180007277
N  N19  1  0.07920000  0.13009000  0.42504000  1.0 -0.0180007277
N  N20  1  0.92080000  0.13009000  0.57496000  1.0 -0.0180007277
N  N21  1  0.13009000  0.07920000  0.57496000  1.0 -0.0180007277
N  N22  1  0.07920000  0.86991000  0.57496000  1.0 -0.0180007277
N  N23  1  0.86991000  0.92080000  0.57496000  1.0 -0.0180007277
N  N24  1  0.86991000  0.07920000  0.42504000  1.0 -0.0180007277
N  N25  1  0.57496000  0.86991000  0.07920000  1.0 -0.0180007277
N  N26  1  0.13009000  0.57496000  0.07920000  1.0 -0.0180007277
N  N27  1  0.57496000  0.13009000  0.92080000  1.0 -0.0180007277
N  N28  1  0.07920000  0.57496000  0.86991000  1.0 -0.0180007277
N  N29  1  0.42504000  0.13009000  0.07920000  1.0 -0.0180007277
N  N30  1  0.86991000  0.57496000  0.92080000  1.0 -0.0180007277
N  N31  1  0.42504000  0.07920000  0.86991000  1.0 -0.0180007277
N  N32  1  0.86991000  0.42504000  0.07920000  1.0 -0.0180007277
N  N33  1  0.42504000  0.86991000  0.92080000  1.0 -0.0180007277
N  N34  1  0.92080000  0.42504000  0.86991000  1.0 -0.0180007277
N  N35  1  0.13009000  0.42504000  0.92080000  1.0 -0.0180007277
N  N36  1  0.57496000  0.92080000  0.86991000  1.0 -0.0180007277
N  N37  1  0.07920000  0.42504000  0.13009000  1.0 -0.0180007277
N  N38  1  0.42504000  0.92080000  0.13009000  1.0 -0.0180007277
N  N39  1  0.92080000  0.57496000  0.13009000  1.0 -0.0180007277
N  N40  1  0.57496000  0.07920000  0.13009000  1.0 -0.0180007277
N  N41  1  0.86991000  0.07920000  0.57496000  1.0 -0.0180007277
N  N42  1  0.07920000  0.13009000  0.57496000  1.0 -0.0180007277
N  N43  1  0.92080000  0.86991000  0.57496000  1.0 -0.0180007277
N  N44  1  0.07920000  0.86991000  0.42504000  1.0 -0.0180007277
N  N45  1  0.86991000  0.92080000  0.42504000  1.0 -0.0180007277
N  N46  1  0.92080000  0.13009000  0.42504000  1.0 -0.0180007277
N  N47  1  0.13009000  0.07920000  0.42504000  1.0 -0.0180007277
N  N48  1  0.13009000  0.92080000  0.57496000  1.0 -0.0180007277
N  N49  1  0.36954000  0.17470000  0.91070000  1.0 -0.2347916351
N  N50  1  0.82530000  0.36954000  0.91070000  1.0 -0.2347916351
N  N51  1  0.36954000  0.82530000  0.08930000  1.0 -0.2347916351
N  N52  1  0.91070000  0.36954000  0.17470000  1.0 -0.2347916351
N  N53  1  0.63046000  0.82530000  0.91070000  1.0 -0.2347916351
N  N54  1  0.17470000  0.36954000  0.08930000  1.0 -0.2347916351
N  N55  1  0.63046000  0.91070000  0.17470000  1.0 -0.2353504734
N  N56  1  0.17470000  0.63046000  0.91070000  1.0 -0.2347916351
N  N57  1  0.63046000  0.17470000  0.08930000  1.0 -0.2347916351
N  N58  1  0.08930000  0.63046000  0.17470000  1.0 -0.2347916351
N  N59  1  0.82530000  0.63046000  0.08930000  1.0 -0.2353504734
N  N60  1  0.36954000  0.08930000  0.17470000  1.0 -0.2347916351
N  N61  1  0.91070000  0.63046000  0.82530000  1.0 -0.2347916351
N  N62  1  0.63046000  0.08930000  0.82530000  1.0 -0.2347916351
N  N63  1  0.08930000  0.36954000  0.82530000  1.0 -0.2347916351
N  N64  1  0.36954000  0.91070000  0.82530000  1.0 -0.2347916351
N  N65  1  0.17470000  0.91070000  0.36954000  1.0 -0.2347916351
N  N66  1  0.91070000  0.82530000  0.36954000  1.0 -0.2347916351
N  N67  1  0.08930000  0.17470000  0.36954000  1.0 -0.2347916351
N  N68  1  0.91070000  0.17470000  0.63046000  1.0 -0.2347916351
N  N69  1  0.17470000  0.08930000  0.63046000  1.0 -0.2347916351
N  N70  1  0.08930000  0.82530000  0.63046000  1.0 -0.2347916351
N  N71  1  0.82530000  0.91070000  0.63046000  1.0 -0.2353504734
N  N72  1  0.82530000  0.08930000  0.36954000  1.0 -0.2347916351
N  N73  1  0.63046000  0.82530000  0.08930000  1.0 -0.2353504734
N  N74  1  0.17470000  0.63046000  0.08930000  1.0 -0.2347916351
N  N75  1  0.63046000  0.17470000  0.91070000  1.0 -0.2347916351
N  N76  1  0.08930000  0.63046000  0.82530000  1.0 -0.2347916351
N  N77  1  0.36954000  0.17470000  0.08930000  1.0 -0.2347916351
N  N78  1  0.82530000  0.63046000  0.91070000  1.0 -0.2347916351
N  N79  1  0.36954000  0.08930000  0.82530000  1.0 -0.2347916351
N  N80  1  0.82530000  0.36954000  0.08930000  1.0 -0.2347916351
N  N81  1  0.36954000  0.82530000  0.91070000  1.0 -0.2347916351
N  N82  1  0.91070000  0.36954000  0.82530000  1.0 -0.2347916351
N  N83  1  0.17470000  0.36954000  0.91070000  1.0 -0.2347916351
N  N84  1  0.63046000  0.91070000  0.82530000  1.0 -0.2347916351
N  N85  1  0.08930000  0.36954000  0.17470000  1.0 -0.2347916351
N  N86  1  0.36954000  0.91070000  0.17470000  1.0 -0.2353504734
N  N87  1  0.91070000  0.63046000  0.17470000  1.0 -0.2347916351
N  N88  1  0.63046000  0.08930000  0.17470000  1.0 -0.2347916351
N  N89  1  0.82530000  0.08930000  0.63046000  1.0 -0.2347916351
N  N90  1  0.08930000  0.17470000  0.63046000  1.0 -0.2347916351
N  N91  1  0.91070000  0.82530000  0.63046000  1.0 -0.2347916351
N  N92  1  0.08930000  0.82530000  0.36954000  1.0 -0.2347916351
N  N93  1  0.82530000  0.91070000  0.36954000  1.0 -0.2353504734
N  N94  1  0.91070000  0.17470000  0.36954000  1.0 -0.2347916351
N  N95  1  0.17470000  0.08930000  0.36954000  1.0 -0.2347916351
N  N96  1  0.17470000  0.91070000  0.63046000  1.0 -0.2347916351
Cl  Cl1  1  0.50000000  0.00000000  0.00000000  1.0 -0.516200556
Cl  Cl2  1  0.00000000  0.50000000  0.00000000  1.0 -0.5144178407
Cl  Cl3  1  0.00000000  0.00000000  0.50000000  1.0 -0.5144178407
