# DDEC6 charges by PACMAN v1.1 (https://github.com/mtap-research/PACMAN-charge/)
data_VEYREY_FSR_pacman
_symmetry_space_group_name_H-M   'P 1'
_cell_length_a   26.96680000
_cell_length_b   26.96680000
_cell_length_c   26.96680000
_cell_angle_alpha   115.56800000
_cell_angle_beta   115.56800000
_cell_angle_gamma   97.86490000
_symmetry_Int_Tables_number   1
_chemical_formula_structural   Cu6Si3H66C114(N2O15)2
_chemical_formula_sum   'Cu24 Si12 H264 C456 N16 O120'
_cell_volume   14645.94119509
_cell_formula_units_Z   4
loop_
 _symmetry_equiv_pos_site_id
 _symmetry_equiv_pos_as_xyz
  1  'x, y, z'
loop_
 _atom_site_type_symbol
 _atom_site_label
 _atom_site_symmetry_multiplicity
 _atom_site_fract_x
 _atom_site_fract_y
 _atom_site_fract_z
 _atom_site_occupancy
 _atom_site_charge
Cu  Cu1  1  0.99243000  0.04363000  0.72532000  1.0 0.8720417001
Cu  Cu2  1  0.31831000  0.26711000  0.27468000  1.0 0.8720417001
Cu  Cu3  1  0.04363000  0.31831000  0.05120000  1.0 0.8720417001
Cu  Cu4  1  0.26711000  0.99243000  0.94880000  1.0 0.8720417001
Cu  Cu5  1  0.00757000  0.95637000  0.27468000  1.0 0.8720417001
Cu  Cu6  1  0.68169000  0.73289000  0.72532000  1.0 0.8720417001
Cu  Cu7  1  0.95637000  0.68169000  0.94880000  1.0 0.8720417001
Cu  Cu8  1  0.73289000  0.00757000  0.05120000  1.0 0.8720417001
Cu  Cu9  1  0.99658000  0.06039000  0.63719000  1.0 0.8461659305
Cu  Cu10  1  0.42320000  0.35939000  0.36281000  1.0 0.8461659305
Cu  Cu11  1  0.06039000  0.42320000  0.06381000  1.0 0.8461659305
Cu  Cu12  1  0.35939000  0.99658000  0.93619000  1.0 0.8461659305
Cu  Cu13  1  0.00342000  0.93961000  0.36281000  1.0 0.8461659305
Cu  Cu14  1  0.57680000  0.64061000  0.63719000  1.0 0.8461659305
Cu  Cu15  1  0.93961000  0.57680000  0.93619000  1.0 0.8461659305
Cu  Cu16  1  0.64061000  0.00342000  0.06381000  1.0 0.8461659305
Cu  Cu17  1  0.72502000  0.03954000  0.76456000  1.0 0.9090246313
Cu  Cu18  1  0.27498000  0.96046000  0.23544000  1.0 0.9090246313
Cu  Cu19  1  0.03954000  0.27498000  0.31452000  1.0 0.9090246313
Cu  Cu20  1  0.96046000  0.72502000  0.68548000  1.0 0.9090246313
Cu  Cu21  1  0.63477000  0.05804000  0.69281000  1.0 0.8810716473
Cu  Cu22  1  0.36523000  0.94196000  0.30719000  1.0 0.8810716473
Cu  Cu23  1  0.05804000  0.36523000  0.42327000  1.0 0.8810716473
Cu  Cu24  1  0.94196000  0.63477000  0.57673000  1.0 0.8810716473
Si  Si1  1  0.11056000  0.71853000  0.25135000  1.0 0.8720417001
Si  Si2  1  0.46718000  0.85921000  0.74865000  1.0 0.8720417001
Si  Si3  1  0.71853000  0.46718000  0.60797000  1.0 0.8720417001
Si  Si4  1  0.85921000  0.11056000  0.39203000  1.0 0.8720417001
Si  Si5  1  0.88944000  0.28147000  0.74865000  1.0 0.8720417001
Si  Si6  1  0.53282000  0.14079000  0.25135000  1.0 0.8720417001
Si  Si7  1  0.28147000  0.53282000  0.39203000  1.0 0.8720417001
Si  Si8  1  0.14079000  0.88944000  0.60797000  1.0 0.8720417001
Si  Si9  1  0.39071000  0.14897000  0.53968000  1.0 0.6524569743
Si  Si10  1  0.60929000  0.85103000  0.46032000  1.0 0.6551569455
Si  Si11  1  0.14897000  0.60929000  0.75826000  1.0 0.6524569743
Si  Si12  1  0.85103000  0.39071000  0.24174000  1.0 0.6524569743
H  H1  1  0.47200000  0.71880000  0.53840000  1.0 0.1197698678
H  H2  1  0.18040000  0.93360000  0.46160000  1.0 0.1197698678
H  H3  1  0.71880000  0.18040000  0.24680000  1.0 0.1197698678
H  H4  1  0.93360000  0.47200000  0.75320000  1.0 0.1197698678
H  H5  1  0.52800000  0.28120000  0.46160000  1.0 0.1197698678
H  H6  1  0.81960000  0.06640000  0.53840000  1.0 0.1197698678
H  H7  1  0.28120000  0.81960000  0.75320000  1.0 0.1197698678
H  H8  1  0.06640000  0.52800000  0.24680000  1.0 0.1197698678
H  H9  1  0.49910000  0.87960000  0.56330000  1.0 0.1387654337
H  H10  1  0.31630000  0.93580000  0.43670000  1.0 0.1387654337
H  H11  1  0.87960000  0.31630000  0.38050000  1.0 0.1387654337
H  H12  1  0.93580000  0.49910000  0.61950000  1.0 0.1387654337
H  H13  1  0.50090000  0.12040000  0.43670000  1.0 0.1387654337
H  H14  1  0.68370000  0.06420000  0.56330000  1.0 0.1387654337
H  H15  1  0.12040000  0.68370000  0.61950000  1.0 0.1387654337
H  H16  1  0.06420000  0.50090000  0.38050000  1.0 0.1387654337
H  H17  1  0.63700000  0.85120000  0.66980000  1.0 0.1481110916
H  H18  1  0.18140000  0.96720000  0.33020000  1.0 0.1481110916
H  H19  1  0.85120000  0.18140000  0.21420000  1.0 0.1481110916
H  H20  1  0.96720000  0.63700000  0.78580000  1.0 0.1481110916
H  H21  1  0.36300000  0.14880000  0.33020000  1.0 0.1481110916
H  H22  1  0.81860000  0.03280000  0.66980000  1.0 0.1481110916
H  H23  1  0.14880000  0.81860000  0.78580000  1.0 0.1481110916
H  H24  1  0.03280000  0.36300000  0.21420000  1.0 0.1481110916
H  H25  1  0.17050000  0.03980000  0.81870000  1.0 0.1387654337
H  H26  1  0.22110000  0.35180000  0.18130000  1.0 0.1387654337
H  H27  1  0.03980000  0.22110000  0.86930000  1.0 0.1387654337
H  H28  1  0.35180000  0.17050000  0.13070000  1.0 0.1387654337
H  H29  1  0.82950000  0.96020000  0.18130000  1.0 0.1387654337
H  H30  1  0.77890000  0.64820000  0.81870000  1.0 0.1387654337
H  H31  1  0.96020000  0.77890000  0.13070000  1.0 0.1387654337
H  H32  1  0.64820000  0.82950000  0.86930000  1.0 0.1387654337
H  H33  1  0.32020000  0.07850000  0.81950000  1.0 0.1310915343
H  H34  1  0.25900000  0.50070000  0.18050000  1.0 0.1310915343
H  H35  1  0.07850000  0.25900000  0.75830000  1.0 0.1310915343
H  H36  1  0.50070000  0.32020000  0.24170000  1.0 0.1310915343
H  H37  1  0.67980000  0.92150000  0.18050000  1.0 0.1310915343
H  H38  1  0.74100000  0.49930000  0.81950000  1.0 0.1310915343
H  H39  1  0.92150000  0.74100000  0.24170000  1.0 0.1310915343
H  H40  1  0.49930000  0.67980000  0.75830000  1.0 0.1310915343
H  H41  1  0.17850000  0.09730000  0.70680000  1.0 0.1310915343
H  H42  1  0.39050000  0.47170000  0.29320000  1.0 0.1310915343
H  H43  1  0.09730000  0.39050000  0.91880000  1.0 0.1310915343
H  H44  1  0.47170000  0.17850000  0.08120000  1.0 0.1310915343
H  H45  1  0.82150000  0.90270000  0.29320000  1.0 0.1310915343
H  H46  1  0.60950000  0.52830000  0.70680000  1.0 0.1310915343
H  H47  1  0.90270000  0.60950000  0.08120000  1.0 0.1310915343
H  H48  1  0.52830000  0.82150000  0.91880000  1.0 0.1310915343
H  H49  1  0.95960000  0.88190000  0.50150000  1.0 0.1310915343
H  H50  1  0.38040000  0.45810000  0.49850000  1.0 0.1310915343
H  H51  1  0.88190000  0.38040000  0.92230000  1.0 0.1310915343
H  H52  1  0.45810000  0.95960000  0.07770000  1.0 0.1310915343
H  H53  1  0.04040000  0.11810000  0.49850000  1.0 0.1310915343
H  H54  1  0.61960000  0.54190000  0.50150000  1.0 0.1310915343
H  H55  1  0.11810000  0.61960000  0.07770000  1.0 0.1310915343
H  H56  1  0.54190000  0.04040000  0.92230000  1.0 0.1310915343
H  H57  1  0.94630000  0.72460000  0.48310000  1.0 0.1387654337
H  H58  1  0.24150000  0.46320000  0.51690000  1.0 0.1387654337
H  H59  1  0.72460000  0.24150000  0.77830000  1.0 0.1387654337
H  H60  1  0.46320000  0.94630000  0.22170000  1.0 0.1387654337
H  H61  1  0.05370000  0.27540000  0.51690000  1.0 0.1387654337
H  H62  1  0.75850000  0.53680000  0.48310000  1.0 0.1387654337
H  H63  1  0.27540000  0.75850000  0.22170000  1.0 0.1387654337
H  H64  1  0.53680000  0.05370000  0.77830000  1.0 0.1387654337
H  H65  1  0.94490000  0.85330000  0.62960000  1.0 0.1481110916
H  H66  1  0.22370000  0.31530000  0.37040000  1.0 0.1481110916
H  H67  1  0.85330000  0.22370000  0.90840000  1.0 0.1481110916
H  H68  1  0.31530000  0.94490000  0.09160000  1.0 0.1481110916
H  H69  1  0.05510000  0.14670000  0.37040000  1.0 0.1481110916
H  H70  1  0.77630000  0.68470000  0.62960000  1.0 0.1481110916
H  H71  1  0.14670000  0.77630000  0.09160000  1.0 0.1481110916
H  H72  1  0.68470000  0.05510000  0.90840000  1.0 0.1481110916
H  H73  1  0.05250000  0.84210000  0.39140000  1.0 0.1387654337
H  H74  1  0.45070000  0.66110000  0.60860000  1.0 0.1387654337
H  H75  1  0.84210000  0.45070000  0.78960000  1.0 0.1387654337
H  H76  1  0.66110000  0.05250000  0.21040000  1.0 0.1387654337
H  H77  1  0.94750000  0.15790000  0.60860000  1.0 0.1387654337
H  H78  1  0.54930000  0.33890000  0.39140000  1.0 0.1387654337
H  H79  1  0.15790000  0.54930000  0.21040000  1.0 0.1387654337
H  H80  1  0.33890000  0.94750000  0.78960000  1.0 0.1387654337
H  H81  1  0.09890000  0.82230000  0.33580000  1.0 0.1197698678
H  H82  1  0.48650000  0.76310000  0.66420000  1.0 0.1197698678
H  H83  1  0.82230000  0.48650000  0.72340000  1.0 0.1197698678
H  H84  1  0.76310000  0.09890000  0.27660000  1.0 0.1197698678
H  H85  1  0.90110000  0.17770000  0.66420000  1.0 0.1197698678
H  H86  1  0.51350000  0.23690000  0.33580000  1.0 0.1197698678
H  H87  1  0.17770000  0.51350000  0.27660000  1.0 0.1197698678
H  H88  1  0.23690000  0.90110000  0.72340000  1.0 0.1197698678
H  H89  1  0.03040000  0.64800000  0.26540000  1.0 0.1197698678
H  H90  1  0.38260000  0.76500000  0.73460000  1.0 0.1197698678
H  H91  1  0.64800000  0.38260000  0.61760000  1.0 0.1197698678
H  H92  1  0.76500000  0.03040000  0.38240000  1.0 0.1197698678
H  H93  1  0.96960000  0.35200000  0.73460000  1.0 0.1197698678
H  H94  1  0.61740000  0.23500000  0.26540000  1.0 0.1197698678
H  H95  1  0.35200000  0.61740000  0.38240000  1.0 0.1197698678
H  H96  1  0.23500000  0.96960000  0.61760000  1.0 0.1197698678
H  H97  1  0.98330000  0.66680000  0.32050000  1.0 0.1197698678
H  H98  1  0.34630000  0.66280000  0.67950000  1.0 0.1197698678
H  H99  1  0.66680000  0.34630000  0.68350000  1.0 0.1197698678
H  H100  1  0.66280000  0.98330000  0.31650000  1.0 0.1197698678
H  H101  1  0.01670000  0.33320000  0.67950000  1.0 0.1197698678
H  H102  1  0.65370000  0.33720000  0.32050000  1.0 0.1197698678
H  H103  1  0.33320000  0.65370000  0.31650000  1.0 0.1197698678
H  H104  1  0.33720000  0.01670000  0.68350000  1.0 0.1197698678
H  H105  1  0.06880000  0.61320000  0.19840000  1.0 0.1592261211
H  H106  1  0.41480000  0.87040000  0.80160000  1.0 0.1592261211
H  H107  1  0.61320000  0.41480000  0.54440000  1.0 0.1592261211
H  H108  1  0.87040000  0.06880000  0.45560000  1.0 0.1592261211
H  H109  1  0.93120000  0.38680000  0.80160000  1.0 0.1592261211
H  H110  1  0.58520000  0.12960000  0.19840000  1.0 0.1592261211
H  H111  1  0.38680000  0.58520000  0.45560000  1.0 0.1592261211
H  H112  1  0.12960000  0.93120000  0.54440000  1.0 0.1592261211
H  H113  1  0.09750000  0.62890000  0.16460000  1.0 0.1712041685
H  H114  1  0.46430000  0.93290000  0.83540000  1.0 0.1712041685
H  H115  1  0.62890000  0.46430000  0.53140000  1.0 0.1712041685
H  H116  1  0.93290000  0.09750000  0.46860000  1.0 0.1712041685
H  H117  1  0.90250000  0.37110000  0.83540000  1.0 0.1712041685
H  H118  1  0.53570000  0.06710000  0.16460000  1.0 0.1712041685
H  H119  1  0.37110000  0.53570000  0.46860000  1.0 0.1712041685
H  H120  1  0.06710000  0.90250000  0.53140000  1.0 0.1712041685
H  H121  1  0.03470000  0.63040000  0.14850000  1.0 0.1712041685
H  H122  1  0.48190000  0.88620000  0.85150000  1.0 0.1712041685
H  H123  1  0.63040000  0.48190000  0.59570000  1.0 0.1712041685
H  H124  1  0.88620000  0.03470000  0.40430000  1.0 0.1712041685
H  H125  1  0.96530000  0.36960000  0.85150000  1.0 0.1712041685
H  H126  1  0.51810000  0.11380000  0.14850000  1.0 0.1712041685
H  H127  1  0.36960000  0.51810000  0.40430000  1.0 0.1712041685
H  H128  1  0.11380000  0.96530000  0.59570000  1.0 0.1712041685
H  H129  1  0.07430000  0.76150000  0.18960000  1.0 0.1712041685
H  H130  1  0.57190000  0.88470000  0.81040000  1.0 0.1712041685
H  H131  1  0.76150000  0.57190000  0.68720000  1.0 0.1712041685
H  H132  1  0.88470000  0.07430000  0.31280000  1.0 0.1712041685
H  H133  1  0.92570000  0.23850000  0.81040000  1.0 0.1712041685
H  H134  1  0.42810000  0.11530000  0.18960000  1.0 0.1712041685
H  H135  1  0.23850000  0.42810000  0.31280000  1.0 0.1712041685
H  H136  1  0.11530000  0.92570000  0.68720000  1.0 0.1712041685
H  H137  1  0.13900000  0.76670000  0.20630000  1.0 0.1712041685
H  H138  1  0.56040000  0.93270000  0.79370000  1.0 0.1712041685
H  H139  1  0.76670000  0.56040000  0.62770000  1.0 0.1712041685
H  H140  1  0.93270000  0.13900000  0.37230000  1.0 0.1712041685
H  H141  1  0.86100000  0.23330000  0.79370000  1.0 0.1712041685
H  H142  1  0.43960000  0.06730000  0.20630000  1.0 0.1712041685
H  H143  1  0.23330000  0.43960000  0.37230000  1.0 0.1712041685
H  H144  1  0.06730000  0.86100000  0.62770000  1.0 0.1712041685
H  H145  1  0.13030000  0.81140000  0.25990000  1.0 0.1592261211
H  H146  1  0.55150000  0.87040000  0.74010000  1.0 0.1592261211
H  H147  1  0.81140000  0.55150000  0.68110000  1.0 0.1592261211
H  H148  1  0.87040000  0.13030000  0.31890000  1.0 0.1592261211
H  H149  1  0.86970000  0.18860000  0.74010000  1.0 0.1592261211
H  H150  1  0.44850000  0.12960000  0.25990000  1.0 0.1592261211
H  H151  1  0.18860000  0.44850000  0.31890000  1.0 0.1592261211
H  H152  1  0.12960000  0.86970000  0.68110000  1.0 0.1592261211
H  H153  1  0.16350000  0.67650000  0.33560000  1.0 0.1197698678
H  H154  1  0.34090000  0.82790000  0.66440000  1.0 0.1197698678
H  H155  1  0.67650000  0.34090000  0.51300000  1.0 0.1197698678
H  H156  1  0.82790000  0.16350000  0.48700000  1.0 0.1197698678
H  H157  1  0.83650000  0.32350000  0.66440000  1.0 0.1197698678
H  H158  1  0.65910000  0.17210000  0.33560000  1.0 0.1197698678
H  H159  1  0.32350000  0.65910000  0.48700000  1.0 0.1197698678
H  H160  1  0.17210000  0.83650000  0.51300000  1.0 0.1197698678
H  H161  1  0.25670000  0.69400000  0.41430000  1.0 0.1197698678
H  H162  1  0.27970000  0.84240000  0.58570000  1.0 0.1197698678
H  H163  1  0.69400000  0.27970000  0.43730000  1.0 0.1197698678
H  H164  1  0.84240000  0.25670000  0.56270000  1.0 0.1197698678
H  H165  1  0.74330000  0.30600000  0.58570000  1.0 0.1197698678
H  H166  1  0.72030000  0.15760000  0.41430000  1.0 0.1197698678
H  H167  1  0.30600000  0.72030000  0.56270000  1.0 0.1197698678
H  H168  1  0.15760000  0.74330000  0.43730000  1.0 0.1197698678
H  H169  1  0.32870000  0.81790000  0.39240000  1.0 0.1387654337
H  H170  1  0.42550000  0.93630000  0.60760000  1.0 0.1387654337
H  H171  1  0.81790000  0.42550000  0.48920000  1.0 0.1387654337
H  H172  1  0.93630000  0.32870000  0.51080000  1.0 0.1387654337
H  H173  1  0.67130000  0.18210000  0.60760000  1.0 0.1387654337
H  H174  1  0.57450000  0.06370000  0.39240000  1.0 0.1387654337
H  H175  1  0.18210000  0.57450000  0.51080000  1.0 0.1387654337
H  H176  1  0.06370000  0.67130000  0.48920000  1.0 0.1387654337
H  H177  1  0.23490000  0.80220000  0.31810000  1.0 0.1197698678
H  H178  1  0.48410000  0.91680000  0.68190000  1.0 0.1197698678
H  H179  1  0.80220000  0.48410000  0.56730000  1.0 0.1197698678
H  H180  1  0.91680000  0.23490000  0.43270000  1.0 0.1197698678
H  H181  1  0.76510000  0.19780000  0.68190000  1.0 0.1197698678
H  H182  1  0.51590000  0.08320000  0.31810000  1.0 0.1197698678
H  H183  1  0.19780000  0.51590000  0.43270000  1.0 0.1197698678
H  H184  1  0.08320000  0.76510000  0.56730000  1.0 0.1197698678
H  H185  1  0.40090000  0.23310000  0.66380000  1.0 0.0471796612
H  H186  1  0.56930000  0.73710000  0.33620000  1.0 0.0471796612
H  H187  1  0.23310000  0.56930000  0.83220000  1.0 0.0471796612
H  H188  1  0.73710000  0.40090000  0.16780000  1.0 0.0471796612
H  H189  1  0.59910000  0.76690000  0.33620000  1.0 0.0471796612
H  H190  1  0.43070000  0.26290000  0.66380000  1.0 0.0471796612
H  H191  1  0.76690000  0.43070000  0.16780000  1.0 0.0471796612
H  H192  1  0.26290000  0.59910000  0.83220000  1.0 0.0471796612
H  H193  1  0.37810000  0.21690000  0.73360000  1.0 0.1310915343
H  H194  1  0.48330000  0.64450000  0.26640000  1.0 0.1310915343
H  H195  1  0.21690000  0.48330000  0.83880000  1.0 0.1310915343
H  H196  1  0.64450000  0.37810000  0.16120000  1.0 0.1310915343
H  H197  1  0.62190000  0.78310000  0.26640000  1.0 0.1310915343
H  H198  1  0.51670000  0.35550000  0.73360000  1.0 0.1310915343
H  H199  1  0.78310000  0.51670000  0.16120000  1.0 0.1310915343
H  H200  1  0.35550000  0.62190000  0.83880000  1.0 0.1310915343
H  H201  1  0.27670000  0.05080000  0.59190000  1.0 0.1124957331
H  H202  1  0.45890000  0.68480000  0.40810000  1.0 0.1124957331
H  H203  1  0.05080000  0.45890000  0.77410000  1.0 0.1124957331
H  H204  1  0.68480000  0.27670000  0.22590000  1.0 0.1124957331
H  H205  1  0.72330000  0.94920000  0.40810000  1.0 0.1124957331
H  H206  1  0.54110000  0.31520000  0.59190000  1.0 0.1124957331
H  H207  1  0.94920000  0.54110000  0.22590000  1.0 0.1124957331
H  H208  1  0.31520000  0.72330000  0.77410000  1.0 0.1124957331
H  H209  1  0.30370000  0.06500000  0.52650000  1.0 0.1481110916
H  H210  1  0.53850000  0.77720000  0.47350000  1.0 0.1481110916
H  H211  1  0.06500000  0.53850000  0.76130000  1.0 0.1481110916
H  H212  1  0.77720000  0.30370000  0.23870000  1.0 0.1481110916
H  H213  1  0.69630000  0.93500000  0.47350000  1.0 0.1481110916
H  H214  1  0.46150000  0.22280000  0.52650000  1.0 0.1481110916
H  H215  1  0.93500000  0.46150000  0.23870000  1.0 0.1481110916
H  H216  1  0.22280000  0.69630000  0.76130000  1.0 0.1481110916
H  H217  1  0.33860000  0.12210000  0.43010000  1.0 0.0471796612
H  H218  1  0.69200000  0.90850000  0.56990000  1.0 0.0471796612
H  H219  1  0.12210000  0.69200000  0.78350000  1.0 0.0471796612
H  H220  1  0.90850000  0.33860000  0.21650000  1.0 0.0471796612
H  H221  1  0.66140000  0.87790000  0.56990000  1.0 0.0471796612
H  H222  1  0.30800000  0.09150000  0.43010000  1.0 0.0471796612
H  H223  1  0.87790000  0.30800000  0.21650000  1.0 0.0471796612
H  H224  1  0.09150000  0.66140000  0.78350000  1.0 0.0471796612
H  H225  1  0.32060000  0.16940000  0.47000000  1.0 0.0412526536
H  H226  1  0.69940000  0.85060000  0.53000000  1.0 0.0412526536
H  H227  1  0.16940000  0.69940000  0.84880000  1.0 0.0412526536
H  H228  1  0.85060000  0.32060000  0.15120000  1.0 0.0412526536
H  H229  1  0.67940000  0.83060000  0.53000000  1.0 0.0412526536
H  H230  1  0.30060000  0.14940000  0.47000000  1.0 0.0412526536
H  H231  1  0.83060000  0.30060000  0.15120000  1.0 0.0412526536
H  H232  1  0.14940000  0.67940000  0.84880000  1.0 0.0412526536
H  H233  1  0.29280000  0.10220000  0.44580000  1.0 0.0412526536
H  H234  1  0.65640000  0.84700000  0.55420000  1.0 0.0412526536
H  H235  1  0.10220000  0.65640000  0.80940000  1.0 0.0412526536
H  H236  1  0.84700000  0.29280000  0.19060000  1.0 0.0412526536
H  H237  1  0.70720000  0.89780000  0.55420000  1.0 0.0412526536
H  H238  1  0.34360000  0.15300000  0.44580000  1.0 0.0412526536
H  H239  1  0.89780000  0.34360000  0.19060000  1.0 0.0412526536
H  H240  1  0.15300000  0.70720000  0.80940000  1.0 0.0412526536
H  H241  1  0.39240000  0.05600000  0.48060000  1.0 0.0471796612
H  H242  1  0.57540000  0.91180000  0.51940000  1.0 0.0471796612
H  H243  1  0.05600000  0.57540000  0.66360000  1.0 0.0471796612
H  H244  1  0.91180000  0.39240000  0.33640000  1.0 0.0471796612
H  H245  1  0.60760000  0.94400000  0.51940000  1.0 0.0471796612
H  H246  1  0.42460000  0.08820000  0.48060000  1.0 0.0471796612
H  H247  1  0.94400000  0.42460000  0.33640000  1.0 0.0471796612
H  H248  1  0.08820000  0.60760000  0.66360000  1.0 0.0471796612
H  H249  1  0.44560000  0.09080000  0.55460000  1.0 0.0471796612
H  H250  1  0.53620000  0.89100000  0.44540000  1.0 0.0471796612
H  H251  1  0.09080000  0.53620000  0.64520000  1.0 0.0471796612
H  H252  1  0.89100000  0.44560000  0.35480000  1.0 0.0471796612
H  H253  1  0.55440000  0.90920000  0.44540000  1.0 0.0471796612
H  H254  1  0.46380000  0.10900000  0.55460000  1.0 0.0471796612
H  H255  1  0.90920000  0.46380000  0.35480000  1.0 0.0471796612
H  H256  1  0.10900000  0.55440000  0.64520000  1.0 0.0471796612
H  H257  1  0.45040000  0.10730000  0.50730000  1.0 0.031592675
H  H258  1  0.60000000  0.94310000  0.49270000  1.0 0.0412526536
H  H259  1  0.10730000  0.60000000  0.65690000  1.0 0.0412526536
H  H260  1  0.94310000  0.45040000  0.34310000  1.0 0.0412526536
H  H261  1  0.54960000  0.89270000  0.49270000  1.0 0.0412526536
H  H262  1  0.40000000  0.05690000  0.50730000  1.0 0.031592675
H  H263  1  0.89270000  0.40000000  0.34310000  1.0 0.0412526536
H  H264  1  0.05690000  0.54960000  0.65690000  1.0 0.0412526536
C  C1  1  0.58297000  0.74003000  0.63006000  1.0 0.5701369416
C  C2  1  0.10997000  0.95291000  0.36994000  1.0 0.5701369416
C  C3  1  0.74003000  0.10997000  0.15706000  1.0 0.5701369416
C  C4  1  0.95291000  0.58297000  0.84294000  1.0 0.5701369416
C  C5  1  0.41703000  0.25997000  0.36994000  1.0 0.5701369416
C  C6  1  0.89003000  0.04709000  0.63006000  1.0 0.5701369416
C  C7  1  0.25997000  0.89003000  0.84294000  1.0 0.5701369416
C  C8  1  0.04709000  0.41703000  0.15706000  1.0 0.5701369416
C  C9  1  0.55868000  0.77924000  0.60804000  1.0 -0.0098750913
C  C10  1  0.17120000  0.95064000  0.39196000  1.0 -0.0098750913
C  C11  1  0.77924000  0.17120000  0.22056000  1.0 -0.0098750913
C  C12  1  0.95064000  0.55868000  0.77944000  1.0 -0.0098750913
C  C13  1  0.44132000  0.22076000  0.39196000  1.0 -0.0098750913
C  C14  1  0.82880000  0.04936000  0.60804000  1.0 -0.0098750913
C  C15  1  0.22076000  0.82880000  0.77944000  1.0 -0.0098750913
C  C16  1  0.04936000  0.44132000  0.22056000  1.0 -0.0098750913
C  C17  1  0.49756000  0.75816000  0.55940000  1.0 -0.1465866169
C  C18  1  0.19876000  0.93816000  0.44060000  1.0 -0.1465866169
C  C19  1  0.75816000  0.19876000  0.26060000  1.0 -0.1465866169
C  C20  1  0.93816000  0.49756000  0.73940000  1.0 -0.1465866169
C  C21  1  0.50244000  0.24184000  0.44060000  1.0 -0.1465866169
C  C22  1  0.80124000  0.06184000  0.55940000  1.0 -0.1465866169
C  C23  1  0.24184000  0.80124000  0.73940000  1.0 -0.1465866169
C  C24  1  0.06184000  0.50244000  0.26060000  1.0 -0.1465866169
C  C25  1  0.47591000  0.79531000  0.54300000  1.0 0.1124957331
C  C26  1  0.25231000  0.93291000  0.45700000  1.0 0.1124957331
C  C27  1  0.79531000  0.25231000  0.31940000  1.0 0.1124957331
C  C28  1  0.93291000  0.47591000  0.68060000  1.0 0.1124957331
C  C29  1  0.52409000  0.20469000  0.45700000  1.0 0.1124957331
C  C30  1  0.74769000  0.06709000  0.54300000  1.0 0.1124957331
C  C31  1  0.20469000  0.74769000  0.68060000  1.0 0.1124957331
C  C32  1  0.06709000  0.52409000  0.31940000  1.0 0.1124957331
C  C33  1  0.51411000  0.85421000  0.57410000  1.0 -0.0997233502
C  C34  1  0.28011000  0.94001000  0.42590000  1.0 -0.0997233502
C  C35  1  0.85421000  0.28011000  0.34010000  1.0 -0.0997233502
C  C36  1  0.94001000  0.51411000  0.65990000  1.0 -0.0997233502
C  C37  1  0.48589000  0.14579000  0.42590000  1.0 -0.0997233502
C  C38  1  0.71989000  0.05999000  0.57410000  1.0 -0.0997233502
C  C39  1  0.14579000  0.71989000  0.65990000  1.0 -0.0997233502
C  C40  1  0.05999000  0.48589000  0.34010000  1.0 -0.0997233502
C  C41  1  0.57481000  0.87504000  0.62135000  1.0 0.0032644844
C  C42  1  0.25369000  0.95346000  0.37865000  1.0 0.0032644844
C  C43  1  0.87504000  0.25369000  0.30023000  1.0 0.0032644844
C  C44  1  0.95346000  0.57481000  0.69977000  1.0 0.0032644844
C  C45  1  0.42519000  0.12496000  0.37865000  1.0 0.0032644844
C  C46  1  0.74631000  0.04654000  0.62135000  1.0 0.0032644844
C  C47  1  0.12496000  0.74631000  0.69977000  1.0 0.0032644844
C  C48  1  0.04654000  0.42519000  0.30023000  1.0 0.0032644844
C  C49  1  0.59660000  0.83735000  0.63811000  1.0 -0.08130632
C  C50  1  0.19924000  0.95849000  0.36189000  1.0 -0.08130632
C  C51  1  0.83735000  0.19924000  0.24075000  1.0 -0.08130632
C  C52  1  0.95849000  0.59660000  0.75925000  1.0 -0.08130632
C  C53  1  0.40340000  0.16265000  0.36189000  1.0 -0.08130632
C  C54  1  0.80076000  0.04151000  0.63811000  1.0 -0.08130632
C  C55  1  0.16265000  0.80076000  0.75925000  1.0 -0.08130632
C  C56  1  0.04151000  0.40340000  0.24075000  1.0 -0.08130632
C  C57  1  0.61458000  0.93933000  0.65805000  1.0 0.5357972833
C  C58  1  0.28128000  0.95653000  0.34195000  1.0 0.5357972833
C  C59  1  0.93933000  0.28128000  0.32475000  1.0 0.5357972833
C  C60  1  0.95653000  0.61458000  0.67525000  1.0 0.5357972833
C  C61  1  0.38542000  0.06067000  0.34195000  1.0 0.5357972833
C  C62  1  0.71872000  0.04347000  0.65805000  1.0 0.5345500462
C  C63  1  0.06067000  0.71872000  0.67525000  1.0 0.5357972833
C  C64  1  0.04347000  0.38542000  0.32475000  1.0 0.5345500462
C  C65  1  0.10127000  0.06087000  0.73100000  1.0 0.5701369416
C  C66  1  0.32987000  0.37027000  0.26900000  1.0 0.5701369416
C  C67  1  0.06087000  0.32987000  0.95960000  1.0 0.5701369416
C  C68  1  0.37027000  0.10127000  0.04040000  1.0 0.5701369416
C  C69  1  0.89873000  0.93913000  0.26900000  1.0 0.5701369416
C  C70  1  0.67013000  0.62973000  0.73100000  1.0 0.5701369416
C  C71  1  0.93913000  0.67013000  0.04040000  1.0 0.5701369416
C  C72  1  0.62973000  0.89873000  0.95960000  1.0 0.5701369416
C  C73  1  0.16415000  0.06695000  0.75820000  1.0 -0.0181961169
C  C74  1  0.30875000  0.40595000  0.24180000  1.0 -0.0181961169
C  C75  1  0.06695000  0.30875000  0.90280000  1.0 -0.0181961169
C  C76  1  0.40595000  0.16415000  0.09720000  1.0 -0.0181961169
C  C77  1  0.83585000  0.93305000  0.24180000  1.0 -0.0181961169
C  C78  1  0.69125000  0.59405000  0.75820000  1.0 -0.0181961169
C  C79  1  0.93305000  0.69125000  0.09720000  1.0 -0.0181961169
C  C80  1  0.59405000  0.83585000  0.90280000  1.0 -0.0181961169
C  C81  1  0.19138000  0.05201000  0.80343000  1.0 -0.0997233502
C  C82  1  0.24858000  0.38795000  0.19657000  1.0 -0.0997233502
C  C83  1  0.05201000  0.24858000  0.86063000  1.0 -0.0997233502
C  C84  1  0.38795000  0.19138000  0.13937000  1.0 -0.0997233502
C  C85  1  0.80862000  0.94799000  0.19657000  1.0 -0.0997233502
C  C86  1  0.75142000  0.61205000  0.80343000  1.0 -0.0997233502
C  C87  1  0.94799000  0.75142000  0.13937000  1.0 -0.0997233502
C  C88  1  0.61205000  0.80862000  0.86063000  1.0 -0.0997233502
C  C89  1  0.24889000  0.05499000  0.82590000  1.0 -0.0181961169
C  C90  1  0.22909000  0.42299000  0.17410000  1.0 -0.0181961169
C  C91  1  0.05499000  0.22909000  0.80610000  1.0 -0.0181961169
C  C92  1  0.42299000  0.24889000  0.19390000  1.0 -0.0181961169
C  C93  1  0.75111000  0.94501000  0.17410000  1.0 -0.0181961169
C  C94  1  0.77091000  0.57701000  0.82590000  1.0 -0.0181961169
C  C95  1  0.94501000  0.77091000  0.19390000  1.0 -0.0181961169
C  C96  1  0.57701000  0.75111000  0.80610000  1.0 -0.0181961169
C  C97  1  0.28116000  0.07596000  0.80440000  1.0 -0.1287198075
C  C98  1  0.27156000  0.47676000  0.19560000  1.0 -0.1287198075
C  C99  1  0.07596000  0.27156000  0.79480000  1.0 -0.1287198075
C  C100  1  0.47676000  0.28116000  0.20520000  1.0 -0.1287198075
C  C101  1  0.71884000  0.92404000  0.19560000  1.0 -0.1287198075
C  C102  1  0.72844000  0.52324000  0.80440000  1.0 -0.1287198075
C  C103  1  0.92404000  0.72844000  0.20520000  1.0 -0.1287198075
C  C104  1  0.52324000  0.71884000  0.79480000  1.0 -0.1287198075
C  C105  1  0.25469000  0.09269000  0.76100000  1.0 0.1197698678
C  C106  1  0.33169000  0.49369000  0.23900000  1.0 0.1197698678
C  C107  1  0.09269000  0.33169000  0.83800000  1.0 0.1197698678
C  C108  1  0.49369000  0.25469000  0.16200000  1.0 0.1197698678
C  C109  1  0.74531000  0.90731000  0.23900000  1.0 0.1197698678
C  C110  1  0.66831000  0.50631000  0.76100000  1.0 0.1197698678
C  C111  1  0.90731000  0.66831000  0.16200000  1.0 0.1197698678
C  C112  1  0.50631000  0.74531000  0.83800000  1.0 0.1197698678
C  C113  1  0.19658000  0.08728000  0.73730000  1.0 -0.1287198075
C  C114  1  0.34998000  0.45928000  0.26270000  1.0 -0.1287198075
C  C115  1  0.08728000  0.34998000  0.89070000  1.0 -0.1287198075
C  C116  1  0.45928000  0.19658000  0.10930000  1.0 -0.1287198075
C  C117  1  0.80342000  0.91272000  0.26270000  1.0 -0.1287198075
C  C118  1  0.65002000  0.54072000  0.73730000  1.0 -0.1287198075
C  C119  1  0.91272000  0.65002000  0.10930000  1.0 -0.1287198075
C  C120  1  0.54072000  0.80342000  0.89070000  1.0 -0.1287198075
C  C121  1  0.28400000  0.11110000  0.73450000  1.0 -0.08130632
C  C122  1  0.37660000  0.54950000  0.26550000  1.0 -0.08130632
C  C123  1  0.11110000  0.37660000  0.82710000  1.0 -0.08130632
C  C124  1  0.54950000  0.28400000  0.17290000  1.0 -0.08130632
C  C125  1  0.71600000  0.88890000  0.26550000  1.0 -0.08130632
C  C126  1  0.62340000  0.45050000  0.73450000  1.0 -0.08130632
C  C127  1  0.88890000  0.62340000  0.17290000  1.0 -0.08130632
C  C128  1  0.45050000  0.71600000  0.82710000  1.0 -0.08130632
C  C129  1  0.96122000  0.94132000  0.61010000  1.0 0.5701369416
C  C130  1  0.33122000  0.35112000  0.38990000  1.0 0.5701369416
C  C131  1  0.94132000  0.33122000  0.98010000  1.0 0.5701369416
C  C132  1  0.35112000  0.96122000  0.01990000  1.0 0.5701369416
C  C133  1  0.03878000  0.05868000  0.38990000  1.0 0.5701369416
C  C134  1  0.66878000  0.64888000  0.61010000  1.0 0.5701369416
C  C135  1  0.05868000  0.66878000  0.01990000  1.0 0.5701369416
C  C136  1  0.64888000  0.03878000  0.98010000  1.0 0.5701369416
C  C137  1  0.95182000  0.87762000  0.57100000  1.0 -0.0048380027
C  C138  1  0.30662000  0.38082000  0.42900000  1.0 -0.0098750913
C  C139  1  0.87762000  0.30662000  0.92580000  1.0 -0.0098750913
C  C140  1  0.38082000  0.95182000  0.07420000  1.0 -0.0098750913
C  C141  1  0.04818000  0.12238000  0.42900000  1.0 -0.0098750913
C  C142  1  0.69338000  0.61918000  0.57100000  1.0 -0.0098750913
C  C143  1  0.12238000  0.69338000  0.07420000  1.0 -0.0098750913
C  C144  1  0.61918000  0.04818000  0.92580000  1.0 -0.0098750913
C  C145  1  0.95623000  0.85723000  0.51660000  1.0 -0.1287198075
C  C146  1  0.34063000  0.43963000  0.48340000  1.0 -0.1287198075
C  C147  1  0.85723000  0.34063000  0.90100000  1.0 -0.1287198075
C  C148  1  0.43963000  0.95623000  0.09900000  1.0 -0.1287198075
C  C149  1  0.04377000  0.14277000  0.48340000  1.0 -0.1287198075
C  C150  1  0.65937000  0.56037000  0.51660000  1.0 -0.1287198075
C  C151  1  0.14277000  0.65937000  0.09900000  1.0 -0.1287198075
C  C152  1  0.56037000  0.04377000  0.90100000  1.0 -0.1287198075
C  C153  1  0.95560000  0.80140000  0.48520000  1.0 0.1124957331
C  C154  1  0.31620000  0.47040000  0.51480000  1.0 0.1124957331
C  C155  1  0.80140000  0.31620000  0.84580000  1.0 0.1124957331
C  C156  1  0.47040000  0.95560000  0.15420000  1.0 0.1124957331
C  C157  1  0.04440000  0.19860000  0.51480000  1.0 0.1124957331
C  C158  1  0.68380000  0.52960000  0.48520000  1.0 0.1124957331
C  C159  1  0.19860000  0.68380000  0.15420000  1.0 0.1124957331
C  C160  1  0.52960000  0.04440000  0.84580000  1.0 0.1124957331
C  C161  1  0.94762000  0.76302000  0.50520000  1.0 -0.1465866169
C  C162  1  0.25782000  0.44242000  0.49480000  1.0 -0.1465866169
C  C163  1  0.76302000  0.25782000  0.81540000  1.0 -0.1465866169
C  C164  1  0.44242000  0.94762000  0.18460000  1.0 -0.1465866169
C  C165  1  0.05238000  0.23698000  0.49480000  1.0 -0.1465866169
C  C166  1  0.74218000  0.55758000  0.50520000  1.0 -0.1465866169
C  C167  1  0.23698000  0.74218000  0.18460000  1.0 -0.1465866169
C  C168  1  0.55758000  0.05238000  0.81540000  1.0 -0.1465866169
C  C169  1  0.94596000  0.83967000  0.59209000  1.0 -0.0936649571
C  C170  1  0.24758000  0.35387000  0.40791000  1.0 -0.0936649571
C  C171  1  0.83967000  0.24758000  0.89371000  1.0 -0.0936649571
C  C172  1  0.35387000  0.94596000  0.10629000  1.0 -0.0936649571
C  C173  1  0.05404000  0.16033000  0.40791000  1.0 -0.0936649571
C  C174  1  0.75242000  0.64613000  0.59209000  1.0 -0.0936649571
C  C175  1  0.16033000  0.75242000  0.10629000  1.0 -0.0936649571
C  C176  1  0.64613000  0.05404000  0.89371000  1.0 -0.0936649571
C  C177  1  0.96840000  0.78220000  0.43480000  1.0 -0.0708088166
C  C178  1  0.34740000  0.53360000  0.56520000  1.0 -0.0708088166
C  C179  1  0.78220000  0.34740000  0.81380000  1.0 -0.0708088166
C  C180  1  0.53360000  0.96840000  0.18620000  1.0 -0.0708088166
C  C181  1  0.03160000  0.21780000  0.56520000  1.0 -0.0708088166
C  C182  1  0.65260000  0.46640000  0.43480000  1.0 -0.0708088166
C  C183  1  0.21780000  0.65260000  0.18620000  1.0 -0.0708088166
C  C184  1  0.46640000  0.03160000  0.81380000  1.0 -0.0708088166
C  C185  1  0.98600000  0.76880000  0.39940000  1.0 -0.08130632
C  C186  1  0.36940000  0.58660000  0.60060000  1.0 -0.08130632
C  C187  1  0.76880000  0.36940000  0.78280000  1.0 -0.08130632
C  C188  1  0.58660000  0.98600000  0.21720000  1.0 -0.08130632
C  C189  1  0.01400000  0.23120000  0.60060000  1.0 -0.08130632
C  C190  1  0.63060000  0.41340000  0.39940000  1.0 -0.08130632
C  C191  1  0.23120000  0.63060000  0.21720000  1.0 -0.08130632
C  C192  1  0.41340000  0.01400000  0.78280000  1.0 -0.08130632
C  C193  1  0.01277000  0.75627000  0.36270000  1.0 0.1197698678
C  C194  1  0.39357000  0.65007000  0.63730000  1.0 0.1197698678
C  C195  1  0.75627000  0.39357000  0.74350000  1.0 0.1197698678
C  C196  1  0.65007000  0.01277000  0.25650000  1.0 0.1197698678
C  C197  1  0.98723000  0.24373000  0.63730000  1.0 0.1197698678
C  C198  1  0.60643000  0.34993000  0.36270000  1.0 0.1197698678
C  C199  1  0.24373000  0.60643000  0.25650000  1.0 0.1197698678
C  C200  1  0.34993000  0.98723000  0.74350000  1.0 0.1197698678
C  C201  1  0.04802000  0.80302000  0.36620000  1.0 -0.1213133708
C  C202  1  0.43682000  0.68182000  0.63380000  1.0 -0.1213133708
C  C203  1  0.80302000  0.43682000  0.75500000  1.0 -0.1213133708
C  C204  1  0.68182000  0.04802000  0.24500000  1.0 -0.1213133708
C  C205  1  0.95198000  0.19698000  0.63380000  1.0 -0.1213133708
C  C206  1  0.56318000  0.31818000  0.36620000  1.0 -0.1213133708
C  C207  1  0.19698000  0.56318000  0.24500000  1.0 -0.1213133708
C  C208  1  0.31818000  0.95198000  0.75500000  1.0 -0.1213133708
C  C209  1  0.07537000  0.79087000  0.33250000  1.0 -0.08130632
C  C210  1  0.45837000  0.74287000  0.66750000  1.0 -0.08130632
C  C211  1  0.79087000  0.45837000  0.71550000  1.0 -0.08130632
C  C212  1  0.74287000  0.07537000  0.28450000  1.0 -0.08130632
C  C213  1  0.92463000  0.20913000  0.66750000  1.0 -0.08130632
C  C214  1  0.54163000  0.25713000  0.33250000  1.0 -0.08130632
C  C215  1  0.20913000  0.54163000  0.28450000  1.0 -0.08130632
C  C216  1  0.25713000  0.92463000  0.71550000  1.0 -0.08130632
C  C217  1  0.06896000  0.73276000  0.29320000  1.0 -0.1763746835
C  C218  1  0.43956000  0.77576000  0.70680000  1.0 -0.1763746835
C  C219  1  0.73276000  0.43956000  0.66380000  1.0 -0.1763746835
C  C220  1  0.77576000  0.06896000  0.33620000  1.0 -0.1763746835
C  C221  1  0.93104000  0.26724000  0.70680000  1.0 -0.1763746835
C  C222  1  0.56044000  0.22424000  0.29320000  1.0 -0.1763746835
C  C223  1  0.26724000  0.56044000  0.33620000  1.0 -0.1763746835
C  C224  1  0.22424000  0.93104000  0.66380000  1.0 -0.1763746835
C  C225  1  0.03461000  0.68701000  0.29040000  1.0 -0.08130632
C  C226  1  0.39661000  0.74421000  0.70960000  1.0 -0.08130632
C  C227  1  0.68701000  0.39661000  0.65240000  1.0 -0.08130632
C  C228  1  0.74421000  0.03461000  0.34760000  1.0 -0.08130632
C  C229  1  0.96539000  0.31299000  0.70960000  1.0 -0.08130632
C  C230  1  0.60339000  0.25579000  0.29040000  1.0 -0.08130632
C  C231  1  0.31299000  0.60339000  0.34760000  1.0 -0.08130632
C  C232  1  0.25579000  0.96539000  0.65240000  1.0 -0.08130632
C  C233  1  0.00660000  0.69830000  0.32390000  1.0 -0.1410861913
C  C234  1  0.37440000  0.68270000  0.67610000  1.0 -0.1410861913
C  C235  1  0.69830000  0.37440000  0.69170000  1.0 -0.1410861913
C  C236  1  0.68270000  0.00660000  0.30830000  1.0 -0.1410861913
C  C237  1  0.99340000  0.30170000  0.67610000  1.0 -0.1410861913
C  C238  1  0.62560000  0.31730000  0.32390000  1.0 -0.1410861913
C  C239  1  0.30170000  0.62560000  0.30830000  1.0 -0.1410861913
C  C240  1  0.31730000  0.99340000  0.69170000  1.0 -0.1410861913
C  C241  1  0.07340000  0.63800000  0.18240000  1.0 -0.732055778
C  C242  1  0.45560000  0.89100000  0.81760000  1.0 -0.732055778
C  C243  1  0.63800000  0.45560000  0.56460000  1.0 -0.732055778
C  C244  1  0.89100000  0.07340000  0.43540000  1.0 -0.732055778
C  C245  1  0.92660000  0.36200000  0.81760000  1.0 -0.732055778
C  C246  1  0.54440000  0.10900000  0.18240000  1.0 -0.732055778
C  C247  1  0.36200000  0.54440000  0.43540000  1.0 -0.732055778
C  C248  1  0.10900000  0.92660000  0.56460000  1.0 -0.732055778
C  C249  1  0.11400000  0.77100000  0.22340000  1.0 -0.7457022912
C  C250  1  0.54760000  0.89060000  0.77660000  1.0 -0.7457022912
C  C251  1  0.77100000  0.54760000  0.65700000  1.0 -0.7457022912
C  C252  1  0.89060000  0.11400000  0.34300000  1.0 -0.7457022912
C  C253  1  0.88600000  0.22900000  0.77660000  1.0 -0.7457022912
C  C254  1  0.45240000  0.10940000  0.22340000  1.0 -0.7457022912
C  C255  1  0.22900000  0.45240000  0.34300000  1.0 -0.7457022912
C  C256  1  0.10940000  0.88600000  0.65700000  1.0 -0.7457022912
C  C257  1  0.18876000  0.73456000  0.31500000  1.0 -0.1763746835
C  C258  1  0.41956000  0.87376000  0.68500000  1.0 -0.1763746835
C  C259  1  0.73456000  0.41956000  0.54580000  1.0 -0.1763746835
C  C260  1  0.87376000  0.18876000  0.45420000  1.0 -0.1763746835
C  C261  1  0.81124000  0.26544000  0.68500000  1.0 -0.1763746835
C  C262  1  0.58044000  0.12624000  0.31500000  1.0 -0.1763746835
C  C263  1  0.26544000  0.58044000  0.45420000  1.0 -0.1763746835
C  C264  1  0.12624000  0.81124000  0.54580000  1.0 -0.1763746835
C  C265  1  0.19700000  0.70460000  0.34660000  1.0 -0.08130632
C  C266  1  0.35800000  0.85040000  0.65340000  1.0 -0.08130632
C  C267  1  0.70460000  0.35800000  0.50760000  1.0 -0.08130632
C  C268  1  0.85040000  0.19700000  0.49240000  1.0 -0.08130632
C  C269  1  0.80300000  0.29540000  0.65340000  1.0 -0.08130632
C  C270  1  0.64200000  0.14960000  0.34660000  1.0 -0.08130632
C  C271  1  0.29540000  0.64200000  0.49240000  1.0 -0.08130632
C  C272  1  0.14960000  0.80300000  0.50760000  1.0 -0.08130632
C  C273  1  0.25280000  0.71470000  0.39370000  1.0 -0.1410861913
C  C274  1  0.32100000  0.85910000  0.60630000  1.0 -0.1410861913
C  C275  1  0.71470000  0.32100000  0.46190000  1.0 -0.1410861913
C  C276  1  0.85910000  0.25280000  0.53810000  1.0 -0.1410861913
C  C277  1  0.74720000  0.28530000  0.60630000  1.0 -0.1410861913
C  C278  1  0.67900000  0.14090000  0.39370000  1.0 -0.1410861913
C  C279  1  0.28530000  0.67900000  0.53810000  1.0 -0.1410861913
C  C280  1  0.14090000  0.74720000  0.46190000  1.0 -0.1410861913
C  C281  1  0.29540000  0.78910000  0.38090000  1.0 -0.1410861913
C  C282  1  0.40820000  0.91450000  0.61910000  1.0 -0.1410861913
C  C283  1  0.78910000  0.40820000  0.49370000  1.0 -0.1410861913
C  C284  1  0.91450000  0.29540000  0.50630000  1.0 -0.1410861913
C  C285  1  0.70460000  0.21090000  0.61910000  1.0 -0.1410861913
C  C286  1  0.59180000  0.08550000  0.38090000  1.0 -0.1410861913
C  C287  1  0.21090000  0.59180000  0.50630000  1.0 -0.1410861913
C  C288  1  0.08550000  0.70460000  0.49370000  1.0 -0.1410861913
C  C289  1  0.23940000  0.77880000  0.33560000  1.0 -0.0647029302
C  C290  1  0.44320000  0.90380000  0.66440000  1.0 -0.0647029302
C  C291  1  0.77880000  0.44320000  0.53940000  1.0 -0.0647029302
C  C292  1  0.90380000  0.23940000  0.46060000  1.0 -0.0647029302
C  C293  1  0.76060000  0.22120000  0.66440000  1.0 -0.0647029302
C  C294  1  0.55680000  0.09620000  0.33560000  1.0 -0.0647029302
C  C295  1  0.22120000  0.55680000  0.46060000  1.0 -0.0647029302
C  C296  1  0.09620000  0.76060000  0.53940000  1.0 -0.0647029302
C  C297  1  0.41340000  0.77610000  0.49470000  1.0 -0.08130632
C  C298  1  0.28140000  0.91870000  0.50530000  1.0 -0.08130632
C  C299  1  0.77610000  0.28140000  0.36270000  1.0 -0.08130632
C  C300  1  0.91870000  0.41340000  0.63730000  1.0 -0.08130632
C  C301  1  0.58660000  0.22390000  0.50530000  1.0 -0.08130632
C  C302  1  0.71860000  0.08130000  0.49470000  1.0 -0.08130632
C  C303  1  0.22390000  0.71860000  0.63730000  1.0 -0.08130632
C  C304  1  0.08130000  0.58660000  0.36270000  1.0 -0.08130632
C  C305  1  0.36320000  0.76650000  0.45730000  1.0 -0.1213133708
C  C306  1  0.30920000  0.90590000  0.54270000  1.0 -0.1213133708
C  C307  1  0.76650000  0.30920000  0.40330000  1.0 -0.1213133708
C  C308  1  0.90590000  0.36320000  0.59670000  1.0 -0.1213133708
C  C309  1  0.63680000  0.23350000  0.54270000  1.0 -0.1213133708
C  C310  1  0.69080000  0.09410000  0.45730000  1.0 -0.1213133708
C  C311  1  0.23350000  0.69080000  0.59670000  1.0 -0.1213133708
C  C312  1  0.09410000  0.63680000  0.40330000  1.0 -0.1213133708
C  C313  1  0.30278000  0.75588000  0.40990000  1.0 0.1387654337
C  C314  1  0.34598000  0.89288000  0.59010000  1.0 0.1387654337
C  C315  1  0.75588000  0.34598000  0.45310000  1.0 0.1387654337
C  C316  1  0.89288000  0.30278000  0.54690000  1.0 0.1387654337
C  C317  1  0.69722000  0.24412000  0.59010000  1.0 0.1387654337
C  C318  1  0.65402000  0.10712000  0.40990000  1.0 0.1387654337
C  C319  1  0.24412000  0.65402000  0.54690000  1.0 0.1387654337
C  C320  1  0.10712000  0.69722000  0.45310000  1.0 0.1387654337
C  C321  1  0.94249000  0.74349000  0.58440000  1.0 0.5775329225
C  C322  1  0.15909000  0.35809000  0.41560000  1.0 0.5775329225
C  C323  1  0.74349000  0.15909000  0.80100000  1.0 0.5775329225
C  C324  1  0.35809000  0.94249000  0.19900000  1.0 0.5775329225
C  C325  1  0.05751000  0.25651000  0.41560000  1.0 0.5775329225
C  C326  1  0.84091000  0.64191000  0.58440000  1.0 0.5775329225
C  C327  1  0.25651000  0.84091000  0.19900000  1.0 0.5775329225
C  C328  1  0.64191000  0.05751000  0.80100000  1.0 0.5775329225
C  C329  1  0.94163000  0.78203000  0.55780000  1.0 -0.0181961169
C  C330  1  0.22423000  0.38383000  0.44220000  1.0 -0.0181961169
C  C331  1  0.78203000  0.22423000  0.84040000  1.0 -0.0181961169
C  C332  1  0.38383000  0.94163000  0.15960000  1.0 -0.0181961169
C  C333  1  0.05837000  0.21797000  0.44220000  1.0 -0.0181961169
C  C334  1  0.77577000  0.61617000  0.55780000  1.0 -0.0181961169
C  C335  1  0.21797000  0.77577000  0.15960000  1.0 -0.0181961169
C  C336  1  0.61617000  0.05837000  0.84040000  1.0 -0.0181961169
C  C337  1  0.30329000  0.12219000  0.70650000  1.0 -0.1116255478
C  C338  1  0.41569000  0.59679000  0.29350000  1.0 -0.1116255478
C  C339  1  0.12219000  0.41569000  0.81890000  1.0 -0.1116255478
C  C340  1  0.59679000  0.30329000  0.18110000  1.0 -0.1116255478
C  C341  1  0.69671000  0.87781000  0.29350000  1.0 -0.1116255478
C  C342  1  0.58431000  0.40321000  0.70650000  1.0 -0.1116255478
C  C343  1  0.87781000  0.58431000  0.18110000  1.0 -0.1116255478
C  C344  1  0.40321000  0.69671000  0.81890000  1.0 -0.1116255478
C  C345  1  0.32467000  0.13067000  0.66960000  1.0 0.104892952
C  C346  1  0.46107000  0.65507000  0.33040000  1.0 0.104892952
C  C347  1  0.13067000  0.46107000  0.80600000  1.0 0.1124957331
C  C348  1  0.65507000  0.32467000  0.19400000  1.0 0.104892952
C  C349  1  0.67533000  0.86933000  0.33040000  1.0 0.1124957331
C  C350  1  0.53893000  0.34493000  0.66960000  1.0 0.104892952
C  C351  1  0.86933000  0.53893000  0.19400000  1.0 0.104892952
C  C352  1  0.34493000  0.67533000  0.80600000  1.0 0.1124957331
C  C353  1  0.36430000  0.14160000  0.59130000  1.0 -0.2300531011
C  C354  1  0.55030000  0.77300000  0.40870000  1.0 -0.2300531011
C  C355  1  0.14160000  0.55030000  0.77730000  1.0 -0.2300531011
C  C356  1  0.77300000  0.36430000  0.22270000  1.0 -0.2300531011
C  C357  1  0.63570000  0.85840000  0.40870000  1.0 -0.2300531011
C  C358  1  0.44970000  0.22700000  0.59130000  1.0 -0.2300531011
C  C359  1  0.85840000  0.44970000  0.22270000  1.0 -0.2300531011
C  C360  1  0.22700000  0.63570000  0.77730000  1.0 -0.2300531011
C  C361  1  0.38050000  0.19490000  0.65140000  1.0 0.0412526536
C  C362  1  0.54350000  0.72910000  0.34860000  1.0 0.0412526536
C  C363  1  0.19490000  0.54350000  0.81440000  1.0 0.0412526536
C  C364  1  0.72910000  0.38050000  0.18560000  1.0 0.0412526536
C  C365  1  0.61950000  0.80510000  0.34860000  1.0 0.0412526536
C  C366  1  0.45650000  0.27090000  0.65140000  1.0 0.0412526536
C  C367  1  0.80510000  0.45650000  0.18560000  1.0 0.0412526536
C  C368  1  0.27090000  0.61950000  0.81440000  1.0 0.0412526536
C  C369  1  0.36270000  0.18480000  0.69130000  1.0 -0.1213133708
C  C370  1  0.49350000  0.67140000  0.30870000  1.0 -0.1213133708
C  C371  1  0.18480000  0.49350000  0.82210000  1.0 -0.1213133708
C  C372  1  0.67140000  0.36270000  0.17790000  1.0 -0.1213133708
C  C373  1  0.63730000  0.81520000  0.30870000  1.0 -0.1213133708
C  C374  1  0.50650000  0.32860000  0.69130000  1.0 -0.1213133708
C  C375  1  0.81520000  0.50650000  0.17790000  1.0 -0.1213133708
C  C376  1  0.32860000  0.63730000  0.82210000  1.0 -0.1213133708
C  C377  1  0.30450000  0.08800000  0.60990000  1.0 -0.0997233502
C  C378  1  0.47810000  0.69460000  0.39010000  1.0 -0.0997233502
C  C379  1  0.08800000  0.47810000  0.78350000  1.0 -0.0997233502
C  C380  1  0.69460000  0.30450000  0.21650000  1.0 -0.0997233502
C  C381  1  0.69550000  0.91200000  0.39010000  1.0 -0.0997233502
C  C382  1  0.52190000  0.30540000  0.60990000  1.0 -0.0997233502
C  C383  1  0.91200000  0.52190000  0.21650000  1.0 -0.0997233502
C  C384  1  0.30540000  0.69550000  0.78350000  1.0 -0.0997233502
C  C385  1  0.32340000  0.09600000  0.57040000  1.0 -0.0708088166
C  C386  1  0.52560000  0.75300000  0.42960000  1.0 -0.0708088166
C  C387  1  0.09600000  0.52560000  0.77260000  1.0 -0.0708088166
C  C388  1  0.75300000  0.32340000  0.22740000  1.0 -0.0708088166
C  C389  1  0.67660000  0.90400000  0.42960000  1.0 -0.0708088166
C  C390  1  0.47440000  0.24700000  0.57040000  1.0 -0.0708088166
C  C391  1  0.90400000  0.47440000  0.22740000  1.0 -0.0708088166
C  C392  1  0.24700000  0.67660000  0.77260000  1.0 -0.0708088166
C  C393  1  0.42370000  0.09420000  0.51790000  1.0 -0.3432461865
C  C394  1  0.57630000  0.90580000  0.48210000  1.0 -0.3432461865
C  C395  1  0.09420000  0.57630000  0.67050000  1.0 -0.3432461865
C  C396  1  0.90580000  0.42370000  0.32950000  1.0 -0.3432461865
C  C397  1  0.32820000  0.13390000  0.46210000  1.0 -0.3308014742
C  C398  1  0.67180000  0.86610000  0.53790000  1.0 -0.3308014742
C  C399  1  0.13390000  0.67180000  0.80570000  1.0 -0.3308014742
C  C400  1  0.86610000  0.32820000  0.19430000  1.0 -0.3308014742
C  C401  1  0.27483000  0.03313000  0.86930000  1.0 0.5701369416
C  C402  1  0.16383000  0.40553000  0.13070000  1.0 0.5701369416
C  C403  1  0.03313000  0.16383000  0.75830000  1.0 0.5701369416
C  C404  1  0.40553000  0.27483000  0.24170000  1.0 0.5701369416
C  C405  1  0.72517000  0.96687000  0.13070000  1.0 0.5701369416
C  C406  1  0.83617000  0.59447000  0.86930000  1.0 0.5701369416
C  C407  1  0.96687000  0.83617000  0.24170000  1.0 0.5701369416
C  C408  1  0.59447000  0.72517000  0.75830000  1.0 0.5701369416
C  C409  1  0.95340000  0.07970000  0.81370000  1.0 0.2355195038
C  C410  1  0.26600000  0.13970000  0.18630000  1.0 0.2330624762
C  C411  1  0.07970000  0.26600000  0.12630000  1.0 0.2330624762
C  C412  1  0.13970000  0.95340000  0.87370000  1.0 0.2330624762
C  C413  1  0.04660000  0.92030000  0.18630000  1.0 0.2330624762
C  C414  1  0.73400000  0.86030000  0.81370000  1.0 0.2355195038
C  C415  1  0.92030000  0.73400000  0.87370000  1.0 0.2330624762
C  C416  1  0.86030000  0.04660000  0.12630000  1.0 0.2330624762
C  C417  1  0.91920000  0.14010000  0.87970000  1.0 0.031592675
C  C418  1  0.26040000  0.03950000  0.12030000  1.0 0.031592675
C  C419  1  0.14010000  0.26040000  0.22090000  1.0 0.031592675
C  C420  1  0.03950000  0.91920000  0.77910000  1.0 0.031592675
C  C421  1  0.08080000  0.85990000  0.12030000  1.0 0.031592675
C  C422  1  0.73960000  0.96050000  0.87970000  1.0 0.031592675
C  C423  1  0.85990000  0.73960000  0.77910000  1.0 0.031592675
C  C424  1  0.96050000  0.08080000  0.22090000  1.0 0.031592675
C  C425  1  0.99000000  0.09200000  0.91800000  1.0 0.1387654337
C  C426  1  0.17400000  0.07200000  0.08200000  1.0 0.1387654337
C  C427  1  0.09200000  0.17400000  0.10200000  1.0 0.1387654337
C  C428  1  0.07200000  0.99000000  0.89800000  1.0 0.1387654337
C  C429  1  0.01000000  0.90800000  0.08200000  1.0 0.1387654337
C  C430  1  0.82600000  0.92800000  0.91800000  1.0 0.1387654337
C  C431  1  0.90800000  0.82600000  0.89800000  1.0 0.1387654337
C  C432  1  0.92800000  0.01000000  0.10200000  1.0 0.1387654337
C  C433  1  0.04970000  0.05770000  0.56060000  1.0 0.2495135568
C  C434  1  0.49710000  0.48910000  0.43940000  1.0 0.2495135568
C  C435  1  0.05770000  0.49710000  0.00800000  1.0 0.2495135568
C  C436  1  0.48910000  0.04970000  0.99200000  1.0 0.2495135568
C  C437  1  0.95030000  0.94230000  0.43940000  1.0 0.2495135568
C  C438  1  0.50290000  0.51090000  0.56060000  1.0 0.2495135568
C  C439  1  0.94230000  0.50290000  0.99200000  1.0 0.2495135568
C  C440  1  0.51090000  0.95030000  0.00800000  1.0 0.2495135568
C  C441  1  0.13670000  0.07070000  0.56060000  1.0 -0.0464996536
C  C442  1  0.51010000  0.57610000  0.43940000  1.0 -0.0464996536
C  C443  1  0.07070000  0.51010000  0.93400000  1.0 -0.0464996536
C  C444  1  0.57610000  0.13670000  0.06600000  1.0 -0.0464996536
C  C445  1  0.86330000  0.92930000  0.43940000  1.0 -0.0464996536
C  C446  1  0.48990000  0.42390000  0.56060000  1.0 -0.0464996536
C  C447  1  0.92930000  0.48990000  0.06600000  1.0 -0.0464996536
C  C448  1  0.42390000  0.86330000  0.93400000  1.0 -0.0464996536
C  C449  1  0.12560000  0.15530000  0.63450000  1.0 0.0614215784
C  C450  1  0.52080000  0.49110000  0.36550000  1.0 0.0614215784
C  C451  1  0.15530000  0.52080000  0.02970000  1.0 0.0614215784
C  C452  1  0.49110000  0.12560000  0.97030000  1.0 0.0614215784
C  C453  1  0.87440000  0.84470000  0.36550000  1.0 0.0614215784
C  C454  1  0.47920000  0.50890000  0.63450000  1.0 0.0614215784
C  C455  1  0.84470000  0.47920000  0.97030000  1.0 0.0614215784
C  C456  1  0.50890000  0.87440000  0.02970000  1.0 0.0614215784
N  N1  1  0.94710000  0.09950000  0.86260000  1.0 -0.1287198075
N  N2  1  0.23690000  0.08450000  0.13740000  1.0 -0.1287198075
N  N3  1  0.09950000  0.23690000  0.15240000  1.0 -0.1287198075
N  N4  1  0.08450000  0.94710000  0.84760000  1.0 -0.1287198075
N  N5  1  0.05290000  0.90050000  0.13740000  1.0 -0.1287198075
N  N6  1  0.76310000  0.91550000  0.86260000  1.0 -0.1287198075
N  N7  1  0.90050000  0.76310000  0.84760000  1.0 -0.1287198075
N  N8  1  0.91550000  0.05290000  0.15240000  1.0 -0.1287198075
N  N9  1  0.10840000  0.09780000  0.58880000  1.0 -0.0997233502
N  N10  1  0.50900000  0.51960000  0.41120000  1.0 -0.0997233502
N  N11  1  0.09780000  0.50900000  0.98940000  1.0 -0.0997233502
N  N12  1  0.51960000  0.10840000  0.01060000  1.0 -0.0997233502
N  N13  1  0.89160000  0.90220000  0.41120000  1.0 -0.0997233502
N  N14  1  0.49100000  0.48040000  0.58880000  1.0 -0.0997233502
N  N15  1  0.90220000  0.49100000  0.01060000  1.0 -0.0997233502
N  N16  1  0.48040000  0.89160000  0.98940000  1.0 -0.0997233502
O  O1  1  0.63741000  0.76446000  0.67447000  1.0 -0.5214243942
O  O2  1  0.08999000  0.96294000  0.32553000  1.0 -0.5214243942
O  O3  1  0.76446000  0.08999000  0.12705000  1.0 -0.5214243942
O  O4  1  0.96294000  0.63741000  0.87295000  1.0 -0.5214243942
O  O5  1  0.36259000  0.23554000  0.32553000  1.0 -0.5214243942
O  O6  1  0.91001000  0.03706000  0.67447000  1.0 -0.5214243942
O  O7  1  0.23554000  0.91001000  0.87295000  1.0 -0.5214243942
O  O8  1  0.03706000  0.36259000  0.12705000  1.0 -0.5214243942
O  O9  1  0.54711000  0.68880000  0.60435000  1.0 -0.4983169471
O  O10  1  0.08445000  0.94276000  0.39565000  1.0 -0.4983169471
O  O11  1  0.68880000  0.08445000  0.14169000  1.0 -0.4983169471
O  O12  1  0.94276000  0.54711000  0.85831000  1.0 -0.4983169471
O  O13  1  0.45289000  0.31120000  0.39565000  1.0 -0.4983169471
O  O14  1  0.91555000  0.05724000  0.60435000  1.0 -0.4983169471
O  O15  1  0.31120000  0.91555000  0.85831000  1.0 -0.4983169471
O  O16  1  0.05724000  0.45289000  0.14169000  1.0 -0.4983169471
O  O17  1  0.07712000  0.06315000  0.68097000  1.0 -0.5079616554
O  O18  1  0.38218000  0.39615000  0.31903000  1.0 -0.5079616554
O  O19  1  0.06315000  0.38218000  0.98603000  1.0 -0.5079616554
O  O20  1  0.39615000  0.07712000  0.01397000  1.0 -0.5079616554
O  O21  1  0.92288000  0.93685000  0.31903000  1.0 -0.5079616554
O  O22  1  0.61782000  0.60385000  0.68097000  1.0 -0.5079616554
O  O23  1  0.93685000  0.61782000  0.01397000  1.0 -0.5079616554
O  O24  1  0.60385000  0.92288000  0.98603000  1.0 -0.5079616554
O  O25  1  0.07601000  0.05232000  0.75859000  1.0 -0.4983169471
O  O26  1  0.29373000  0.31742000  0.24141000  1.0 -0.4983169471
O  O27  1  0.05232000  0.29373000  0.97631000  1.0 -0.4983169471
O  O28  1  0.31742000  0.07601000  0.02369000  1.0 -0.4983169471
O  O29  1  0.92399000  0.94768000  0.24141000  1.0 -0.4983169471
O  O30  1  0.70627000  0.68258000  0.75859000  1.0 -0.4983169471
O  O31  1  0.94768000  0.70627000  0.02369000  1.0 -0.4983169471
O  O32  1  0.68258000  0.92399000  0.97631000  1.0 -0.4983169471
O  O33  1  0.66809000  0.95558000  0.70235000  1.0 -0.4885225892
O  O34  1  0.25323000  0.96574000  0.29765000  1.0 -0.4885225892
O  O35  1  0.95558000  0.25323000  0.28749000  1.0 -0.4885225892
O  O36  1  0.96574000  0.66809000  0.71251000  1.0 -0.4885225892
O  O37  1  0.33191000  0.04442000  0.29765000  1.0 -0.4885225892
O  O38  1  0.74677000  0.03426000  0.70235000  1.0 -0.4885225892
O  O39  1  0.04442000  0.74677000  0.71251000  1.0 -0.4885225892
O  O40  1  0.03426000  0.33191000  0.28749000  1.0 -0.4885225892
O  O41  1  0.59190000  0.97168000  0.64192000  1.0 -0.4840025005
O  O42  1  0.32976000  0.94998000  0.35808000  1.0 -0.4885225892
O  O43  1  0.97168000  0.32976000  0.37978000  1.0 -0.4840025005
O  O44  1  0.94998000  0.59190000  0.62022000  1.0 -0.4840025005
O  O45  1  0.40810000  0.02832000  0.35808000  1.0 -0.4840025005
O  O46  1  0.67024000  0.05002000  0.64192000  1.0 -0.4840025005
O  O47  1  0.02832000  0.67024000  0.62022000  1.0 -0.4885225892
O  O48  1  0.05002000  0.40810000  0.37978000  1.0 -0.4840025005
O  O49  1  0.93530000  0.69042000  0.54852000  1.0 -0.5214243942
O  O50  1  0.14190000  0.38678000  0.45148000  1.0 -0.5252238161
O  O51  1  0.69042000  0.14190000  0.75512000  1.0 -0.5252238161
O  O52  1  0.38678000  0.93530000  0.24488000  1.0 -0.5252238161
O  O53  1  0.06470000  0.30958000  0.45148000  1.0 -0.5252238161
O  O54  1  0.85810000  0.61322000  0.54852000  1.0 -0.5252238161
O  O55  1  0.30958000  0.85810000  0.24488000  1.0 -0.5252238161
O  O56  1  0.61322000  0.06470000  0.75512000  1.0 -0.5214243942
O  O57  1  0.95041000  0.76681000  0.64004000  1.0 -0.4983169471
O  O58  1  0.12677000  0.31037000  0.35996000  1.0 -0.4983169471
O  O59  1  0.76681000  0.12677000  0.81640000  1.0 -0.4983169471
O  O60  1  0.31037000  0.95041000  0.18360000  1.0 -0.4983169471
O  O61  1  0.04959000  0.23319000  0.35996000  1.0 -0.4983169471
O  O62  1  0.87323000  0.68963000  0.64004000  1.0 -0.4983169471
O  O63  1  0.23319000  0.87323000  0.18360000  1.0 -0.4983169471
O  O64  1  0.68963000  0.04959000  0.81640000  1.0 -0.4983169471
O  O65  1  0.96521000  0.97192000  0.58701000  1.0 -0.5079616554
O  O66  1  0.38491000  0.37820000  0.41299000  1.0 -0.5079616554
O  O67  1  0.97192000  0.38491000  0.00671000  1.0 -0.5079616554
O  O68  1  0.37820000  0.96521000  0.99329000  1.0 -0.5079616554
O  O69  1  0.03479000  0.02808000  0.41299000  1.0 -0.5079616554
O  O70  1  0.61509000  0.62180000  0.58701000  1.0 -0.5079616554
O  O71  1  0.02808000  0.61509000  0.99329000  1.0 -0.5079616554
O  O72  1  0.62180000  0.03479000  0.00671000  1.0 -0.5079616554
O  O73  1  0.96695000  0.95912000  0.66461000  1.0 -0.4885225892
O  O74  1  0.29451000  0.30234000  0.33539000  1.0 -0.4885225892
O  O75  1  0.95912000  0.29451000  0.99217000  1.0 -0.4885225892
O  O76  1  0.30234000  0.96695000  0.00783000  1.0 -0.4885225892
O  O77  1  0.03305000  0.04088000  0.33539000  1.0 -0.4885225892
O  O78  1  0.70549000  0.69766000  0.66461000  1.0 -0.4885225892
O  O79  1  0.04088000  0.70549000  0.00783000  1.0 -0.4885225892
O  O80  1  0.69766000  0.03305000  0.99217000  1.0 -0.4885225892
O  O81  1  0.32461000  0.03035000  0.88356000  1.0 -0.4885225892
O  O82  1  0.14679000  0.44105000  0.11644000  1.0 -0.4885225892
O  O83  1  0.03035000  0.14679000  0.70574000  1.0 -0.4885225892
O  O84  1  0.44105000  0.32461000  0.29426000  1.0 -0.4885225892
O  O85  1  0.67539000  0.96965000  0.11644000  1.0 -0.4885225892
O  O86  1  0.85321000  0.55895000  0.88356000  1.0 -0.4885225892
O  O87  1  0.96965000  0.85321000  0.29426000  1.0 -0.4885225892
O  O88  1  0.55895000  0.67539000  0.70574000  1.0 -0.4885225892
O  O89  1  0.24327000  0.01972000  0.88925000  1.0 -0.5214243942
O  O90  1  0.13047000  0.35402000  0.11075000  1.0 -0.5214243942
O  O91  1  0.01972000  0.13047000  0.77645000  1.0 -0.5214243942
O  O92  1  0.35402000  0.24327000  0.22355000  1.0 -0.5214243942
O  O93  1  0.75673000  0.98028000  0.11075000  1.0 -0.5214243942
O  O94  1  0.86953000  0.64598000  0.88925000  1.0 -0.5214243942
O  O95  1  0.98028000  0.86953000  0.22355000  1.0 -0.5214243942
O  O96  1  0.64598000  0.75673000  0.77645000  1.0 -0.5214243942
O  O97  1  0.98092000  0.04214000  0.79928000  1.0 -0.4885225892
O  O98  1  0.24286000  0.18164000  0.20072000  1.0 -0.4885225892
O  O99  1  0.04214000  0.24286000  0.06122000  1.0 -0.4885225892
O  O100  1  0.18164000  0.98092000  0.93878000  1.0 -0.4885225892
O  O101  1  0.01908000  0.95786000  0.20072000  1.0 -0.4885225892
O  O102  1  0.75714000  0.81836000  0.79928000  1.0 -0.4885225892
O  O103  1  0.95786000  0.75714000  0.93878000  1.0 -0.4885225892
O  O104  1  0.81836000  0.01908000  0.06122000  1.0 -0.4885225892
O  O105  1  0.01094000  0.07193000  0.56993000  1.0 -0.4133571036
O  O106  1  0.50200000  0.44101000  0.43007000  1.0 -0.4133571036
O  O107  1  0.07193000  0.50200000  0.06099000  1.0 -0.4133571036
O  O108  1  0.44101000  0.01094000  0.93901000  1.0 -0.4133571036
O  O109  1  0.98906000  0.92807000  0.43007000  1.0 -0.4133571036
O  O110  1  0.49800000  0.55899000  0.56993000  1.0 -0.4133571036
O  O111  1  0.92807000  0.49800000  0.93901000  1.0 -0.4133571036
O  O112  1  0.55899000  0.98906000  0.06099000  1.0 -0.4133571036
O  O113  1  0.79830000  0.02530000  0.82360000  1.0 -0.2606504805
O  O114  1  0.20170000  0.97470000  0.17640000  1.0 -0.2606504805
O  O115  1  0.02530000  0.20170000  0.22700000  1.0 -0.2606504805
O  O116  1  0.97470000  0.79830000  0.77300000  1.0 -0.2606504805
O  O117  1  0.56170000  0.07360000  0.63530000  1.0 -0.0936649571
O  O118  1  0.43830000  0.92640000  0.36470000  1.0 -0.0997233502
O  O119  1  0.07360000  0.43830000  0.51190000  1.0 -0.0997233502
O  O120  1  0.92640000  0.56170000  0.48810000  1.0 -0.0997233502
