# DDEC6 charges by PACMAN v1.1 (https://github.com/mtap-research/PACMAN-charge/)
data_VEYWED_ASR_pacman
_symmetry_space_group_name_H-M   'P 1'
_cell_length_a   20.20810000
_cell_length_b   20.20810000
_cell_length_c   28.44000000
_cell_angle_alpha   51.72710000
_cell_angle_beta   128.27300000
_cell_angle_gamma   138.99400000
_symmetry_Int_Tables_number   1
_chemical_formula_structural   Mo12PH108Ru4(C27O22)2
_chemical_formula_sum   'Mo24 P2 H216 Ru8 C108 O88'
_cell_volume   5716.20525788
_cell_formula_units_Z   2
loop_
 _symmetry_equiv_pos_site_id
 _symmetry_equiv_pos_as_xyz
  1  'x, y, z'
loop_
 _atom_site_type_symbol
 _atom_site_label
 _atom_site_symmetry_multiplicity
 _atom_site_fract_x
 _atom_site_fract_y
 _atom_site_fract_z
 _atom_site_occupancy
 _atom_site_charge
Mo  Mo1  1  0.70453000  0.66377000  0.84845000  1.0 2.2285860415
Mo  Mo2  1  0.66377000  0.70453000  0.65155000  1.0 2.2285860415
Mo  Mo3  1  0.29547000  0.33623000  0.15155000  1.0 2.2285860415
Mo  Mo4  1  0.33623000  0.29547000  0.34845000  1.0 2.2285860415
Mo  Mo5  1  0.96373000  0.76581000  0.91376000  1.0 1.7091761665
Mo  Mo6  1  0.76581000  0.96373000  0.58624000  1.0 1.7091761665
Mo  Mo7  1  0.03627000  0.23419000  0.08624000  1.0 1.7091761665
Mo  Mo8  1  0.23419000  0.03627000  0.41376000  1.0 1.7026406761
Mo  Mo9  1  0.79806000  0.61384000  0.81655000  1.0 2.0787329908
Mo  Mo10  1  0.61384000  0.79806000  0.68345000  1.0 2.0787329908
Mo  Mo11  1  0.20194000  0.38616000  0.18345000  1.0 2.0787329908
Mo  Mo12  1  0.38616000  0.20194000  0.31655000  1.0 2.0705366965
Mo  Mo13  1  0.12946000  0.94776000  0.80913000  1.0 2.0615480181
Mo  Mo14  1  0.94776000  0.12946000  0.69087000  1.0 2.0705366965
Mo  Mo15  1  0.87054000  0.05224000  0.19087000  1.0 2.0705366965
Mo  Mo16  1  0.05224000  0.87054000  0.30913000  1.0 2.0705366965
Mo  Mo17  1  0.07275000  0.04877000  0.84315000  1.0 2.0976219412
Mo  Mo18  1  0.04877000  0.07275000  0.65685000  1.0 2.0948002573
Mo  Mo19  1  0.92725000  0.95123000  0.15685000  1.0 2.0976219412
Mo  Mo20  1  0.95123000  0.92725000  0.34315000  1.0 2.0976219412
Mo  Mo21  1  0.81650000  0.94368000  0.80132000  1.0 1.9992997285
Mo  Mo22  1  0.94368000  0.81650000  0.69868000  1.0 1.9992997285
Mo  Mo23  1  0.18350000  0.05632000  0.19868000  1.0 1.9992997285
Mo  Mo24  1  0.05632000  0.18350000  0.30132000  1.0 1.9992997285
P  P1  1  0.87260000  0.87260000  0.75000000  1.0 1.4231261845
P  P2  1  0.12740000  0.12740000  0.25000000  1.0 1.4231261845
H  H1  1  0.17980000  0.68800000  0.86120000  1.0 0.1402861189
H  H2  1  0.68800000  0.17980000  0.63880000  1.0 0.1402861189
H  H3  1  0.82020000  0.31200000  0.13880000  1.0 0.1402861189
H  H4  1  0.31200000  0.82020000  0.36120000  1.0 0.1402861189
H  H5  1  0.12710000  0.68390000  0.79110000  1.0 0.1218038734
H  H6  1  0.68390000  0.12710000  0.70890000  1.0 0.1218038734
H  H7  1  0.87290000  0.31610000  0.20890000  1.0 0.1218038734
H  H8  1  0.31610000  0.87290000  0.29110000  1.0 0.1218038734
H  H9  1  0.08840000  0.70260000  0.81400000  1.0 0.1402861189
H  H10  1  0.70260000  0.08840000  0.68600000  1.0 0.1402861189
H  H11  1  0.91160000  0.29740000  0.18600000  1.0 0.1402861189
H  H12  1  0.29740000  0.91160000  0.31400000  1.0 0.1402861189
H  H13  1  0.01480000  0.41160000  0.88280000  1.0 0.1311255241
H  H14  1  0.41160000  0.01480000  0.61720000  1.0 0.1311255241
H  H15  1  0.98520000  0.58840000  0.11720000  1.0 0.1311255241
H  H16  1  0.58840000  0.98520000  0.38280000  1.0 0.1311255241
H  H17  1  0.08070000  0.50470000  0.83320000  1.0 0.1218038734
H  H18  1  0.50470000  0.08070000  0.66680000  1.0 0.1218038734
H  H19  1  0.91930000  0.49530000  0.16680000  1.0 0.1218038734
H  H20  1  0.49530000  0.91930000  0.33320000  1.0 0.1218038734
H  H21  1  0.13400000  0.51020000  0.90310000  1.0 0.1402861189
H  H22  1  0.51020000  0.13400000  0.59690000  1.0 0.1402861189
H  H23  1  0.86600000  0.48980000  0.09690000  1.0 0.1402861189
H  H24  1  0.48980000  0.86600000  0.40310000  1.0 0.1402861189
H  H25  1  0.93590000  0.53470000  0.75910000  1.0 0.1218038734
H  H26  1  0.53470000  0.93590000  0.74090000  1.0 0.1218038734
H  H27  1  0.06410000  0.46530000  0.24090000  1.0 0.1218038734
H  H28  1  0.46530000  0.06410000  0.25910000  1.0 0.1218038734
H  H29  1  0.87170000  0.44110000  0.80960000  1.0 0.1402861189
H  H30  1  0.44110000  0.87170000  0.69040000  1.0 0.1402861189
H  H31  1  0.12830000  0.55890000  0.19040000  1.0 0.1402861189
H  H32  1  0.55890000  0.12830000  0.30960000  1.0 0.1402861189
H  H33  1  0.90820000  0.55680000  0.78780000  1.0 0.1311255241
H  H34  1  0.55680000  0.90820000  0.71220000  1.0 0.1311255241
H  H35  1  0.09180000  0.44320000  0.21220000  1.0 0.1311255241
H  H36  1  0.44320000  0.09180000  0.28780000  1.0 0.1311255241
H  H37  1  0.32390000  0.88330000  0.93030000  1.0 0.0817367478
H  H38  1  0.88330000  0.32390000  0.56970000  1.0 0.0817367478
H  H39  1  0.67610000  0.11670000  0.06970000  1.0 0.0817367478
H  H40  1  0.11670000  0.67610000  0.43030000  1.0 0.0817367478
H  H41  1  0.39770000  0.84650000  0.97330000  1.0 0.1094024371
H  H42  1  0.84650000  0.39770000  0.52670000  1.0 0.1094024371
H  H43  1  0.60230000  0.15350000  0.02670000  1.0 0.1094024371
H  H44  1  0.15350000  0.60230000  0.47330000  1.0 0.1094024371
H  H45  1  0.27540000  0.76780000  0.94030000  1.0 0.1311255241
H  H46  1  0.76780000  0.27540000  0.55970000  1.0 0.1311255241
H  H47  1  0.72460000  0.23220000  0.05970000  1.0 0.1311255241
H  H48  1  0.23220000  0.72460000  0.44030000  1.0 0.1311255241
H  H49  1  0.37170000  0.71570000  0.06730000  1.0 0.0696832366
H  H50  1  0.71570000  0.37170000  0.43270000  1.0 0.0696832366
H  H51  1  0.62830000  0.28430000  0.93270000  1.0 0.0696832366
H  H52  1  0.28430000  0.62830000  0.56730000  1.0 0.0601056785
H  H53  1  0.45010000  0.84010000  0.05680000  1.0 0.0601056785
H  H54  1  0.84010000  0.45010000  0.44320000  1.0 0.0601056785
H  H55  1  0.54990000  0.15990000  0.94320000  1.0 0.0601056785
H  H56  1  0.15990000  0.54990000  0.55680000  1.0 0.0601056785
H  H57  1  0.38340000  0.76000000  0.10500000  1.0 0.0156810053
H  H58  1  0.76000000  0.38340000  0.39500000  1.0 0.0156810053
H  H59  1  0.61660000  0.24000000  0.89500000  1.0 0.0156810053
H  H60  1  0.24000000  0.61660000  0.60500000  1.0 0.0156810053
H  H61  1  0.25330000  0.86730000  0.97980000  1.0 0.0601056785
H  H62  1  0.86730000  0.25330000  0.52020000  1.0 0.0601056785
H  H63  1  0.74670000  0.13270000  0.02020000  1.0 0.0601056785
H  H64  1  0.13270000  0.74670000  0.47980000  1.0 0.0601056785
H  H65  1  0.27940000  0.81960000  0.05450000  1.0 0.0411703504
H  H66  1  0.81960000  0.27940000  0.44550000  1.0 0.0411703504
H  H67  1  0.72060000  0.18040000  0.94550000  1.0 0.0411703504
H  H68  1  0.18040000  0.72060000  0.55450000  1.0 0.0411703504
H  H69  1  0.37340000  0.91880000  0.02310000  1.0 0.0696832366
H  H70  1  0.91880000  0.37340000  0.47690000  1.0 0.0696832366
H  H71  1  0.62660000  0.08120000  0.97690000  1.0 0.0696832366
H  H72  1  0.08120000  0.62660000  0.52310000  1.0 0.0696832366
H  H73  1  0.31810000  0.29490000  0.94130000  1.0 0.1311255241
H  H74  1  0.29490000  0.31810000  0.55870000  1.0 0.1311255241
H  H75  1  0.68190000  0.70510000  0.05870000  1.0 0.1311255241
H  H76  1  0.70510000  0.68190000  0.44130000  1.0 0.1311255241
H  H77  1  0.25370000  0.34290000  0.89180000  1.0 0.1311255241
H  H78  1  0.34290000  0.25370000  0.60820000  1.0 0.1311255241
H  H79  1  0.74630000  0.65710000  0.10820000  1.0 0.1311255241
H  H80  1  0.65710000  0.74630000  0.39180000  1.0 0.1311255241
H  H81  1  0.37500000  0.41480000  0.92930000  1.0 0.1094024371
H  H82  1  0.41480000  0.37500000  0.57070000  1.0 0.1094024371
H  H83  1  0.62500000  0.58520000  0.07070000  1.0 0.1094024371
H  H84  1  0.58520000  0.62500000  0.42930000  1.0 0.1094024371
H  H85  1  0.33610000  0.28290000  0.07980000  1.0 0.1311255241
H  H86  1  0.28290000  0.33610000  0.42020000  1.0 0.1311255241
H  H87  1  0.66390000  0.71710000  0.92020000  1.0 0.1311255241
H  H88  1  0.71710000  0.66390000  0.57980000  1.0 0.1311255241
H  H89  1  0.36810000  0.25730000  0.05680000  1.0 0.1311255241
H  H90  1  0.25730000  0.36810000  0.44320000  1.0 0.1311255241
H  H91  1  0.63190000  0.74270000  0.94320000  1.0 0.1311255241
H  H92  1  0.74270000  0.63190000  0.55680000  1.0 0.1311255241
H  H93  1  0.42580000  0.37720000  0.04520000  1.0 0.1218038734
H  H94  1  0.37720000  0.42580000  0.45480000  1.0 0.1218038734
H  H95  1  0.57420000  0.62280000  0.95480000  1.0 0.1218038734
H  H96  1  0.62280000  0.57420000  0.54520000  1.0 0.1218038734
H  H97  1  0.20110000  0.37650000  0.93100000  1.0 0.1311255241
H  H98  1  0.37650000  0.20110000  0.56900000  1.0 0.1311255241
H  H99  1  0.79890000  0.62350000  0.06900000  1.0 0.1311255241
H  H100  1  0.62350000  0.79890000  0.43100000  1.0 0.1311255241
H  H101  1  0.23520000  0.35260000  0.00470000  1.0 0.1311255241
H  H102  1  0.35260000  0.23520000  0.49530000  1.0 0.1311255241
H  H103  1  0.76480000  0.64740000  0.99530000  1.0 0.1311255241
H  H104  1  0.64740000  0.76480000  0.50470000  1.0 0.1311255241
H  H105  1  0.32210000  0.45010000  0.96800000  1.0 0.1094024371
H  H106  1  0.45010000  0.32210000  0.53200000  1.0 0.1094024371
H  H107  1  0.67790000  0.54990000  0.03200000  1.0 0.1094024371
H  H108  1  0.54990000  0.67790000  0.46800000  1.0 0.1094024371
H  H109  1  0.92960000  0.23280000  0.92140000  1.0 0.1094024371
H  H110  1  0.23280000  0.92960000  0.57860000  1.0 0.1094024371
H  H111  1  0.07040000  0.76720000  0.07860000  1.0 0.1094024371
H  H112  1  0.76720000  0.07040000  0.42140000  1.0 0.1094024371
H  H113  1  0.91260000  0.23000000  0.85960000  1.0 0.0901865076
H  H114  1  0.23000000  0.91260000  0.64040000  1.0 0.0901865076
H  H115  1  0.08740000  0.77000000  0.14040000  1.0 0.0901865076
H  H116  1  0.77000000  0.08740000  0.35960000  1.0 0.0901865076
H  H117  1  0.83610000  0.23370000  0.85940000  1.0 0.0985601243
H  H118  1  0.23370000  0.83610000  0.64060000  1.0 0.0985601243
H  H119  1  0.16390000  0.76630000  0.14060000  1.0 0.0985601243
H  H120  1  0.76630000  0.16390000  0.35940000  1.0 0.0985601243
H  H121  1  0.82350000  0.07130000  0.99100000  1.0 0.0696832366
H  H122  1  0.07130000  0.82350000  0.50900000  1.0 0.0696832366
H  H123  1  0.17650000  0.92870000  0.00900000  1.0 0.0696832366
H  H124  1  0.92870000  0.17650000  0.49100000  1.0 0.0696832366
H  H125  1  0.72290000  0.06910000  0.93800000  1.0 0.1094024371
H  H126  1  0.06910000  0.72290000  0.56200000  1.0 0.1094024371
H  H127  1  0.27710000  0.93090000  0.06200000  1.0 0.1094024371
H  H128  1  0.93090000  0.27710000  0.43800000  1.0 0.1094024371
H  H129  1  0.71370000  0.96350000  0.97490000  1.0 0.0817367478
H  H130  1  0.96350000  0.71370000  0.52510000  1.0 0.0817367478
H  H131  1  0.28630000  0.03650000  0.02510000  1.0 0.0817367478
H  H132  1  0.03650000  0.28630000  0.47490000  1.0 0.0817367478
H  H133  1  0.75380000  0.06060000  0.82980000  1.0 0.0601056785
H  H134  1  0.06060000  0.75380000  0.67020000  1.0 0.0601056785
H  H135  1  0.24620000  0.93940000  0.17020000  1.0 0.0601056785
H  H136  1  0.93940000  0.24620000  0.32980000  1.0 0.0601056785
H  H137  1  0.66730000  0.95690000  0.86650000  1.0 0.0488620095
H  H138  1  0.95690000  0.66730000  0.63350000  1.0 0.0488620095
H  H139  1  0.33270000  0.04310000  0.13350000  1.0 0.0488620095
H  H140  1  0.04310000  0.33270000  0.36650000  1.0 0.0488620095
H  H141  1  0.67750000  0.06270000  0.83120000  1.0 0.0488620095
H  H142  1  0.06270000  0.67750000  0.66880000  1.0 0.0488620095
H  H143  1  0.32250000  0.93730000  0.16880000  1.0 0.0488620095
H  H144  1  0.93730000  0.32250000  0.33120000  1.0 0.0488620095
H  H145  1  0.24400000  0.85820000  0.95770000  1.0 0.0696832366
H  H146  1  0.85820000  0.24400000  0.54230000  1.0 0.0696832366
H  H147  1  0.75600000  0.14180000  0.04230000  1.0 0.0696832366
H  H148  1  0.14180000  0.75600000  0.45770000  1.0 0.0696832366
H  H149  1  0.32720000  0.91600000  0.01100000  1.0 0.0601056785
H  H150  1  0.91600000  0.32720000  0.48900000  1.0 0.0601056785
H  H151  1  0.67280000  0.08400000  0.98900000  1.0 0.0601056785
H  H152  1  0.08400000  0.67280000  0.51100000  1.0 0.0601056785
H  H153  1  0.36700000  0.91700000  0.97620000  1.0 0.0601056785
H  H154  1  0.91700000  0.36700000  0.52380000  1.0 0.0601056785
H  H155  1  0.63300000  0.08300000  0.02380000  1.0 0.0601056785
H  H156  1  0.08300000  0.63300000  0.47620000  1.0 0.0601056785
H  H157  1  0.44620000  0.81320000  0.09700000  1.0 0.0601056785
H  H158  1  0.81320000  0.44620000  0.40300000  1.0 0.0601056785
H  H159  1  0.55380000  0.18680000  0.90300000  1.0 0.0601056785
H  H160  1  0.18680000  0.55380000  0.59700000  1.0 0.0601056785
H  H161  1  0.35610000  0.68850000  0.11500000  1.0 0.0696832366
H  H162  1  0.68850000  0.35610000  0.38500000  1.0 0.0696832366
H  H163  1  0.64390000  0.31150000  0.88500000  1.0 0.0696832366
H  H164  1  0.31150000  0.64390000  0.61500000  1.0 0.0696832366
H  H165  1  0.38760000  0.74760000  0.05320000  1.0 0.0696832366
H  H166  1  0.74760000  0.38760000  0.44680000  1.0 0.0696832366
H  H167  1  0.61240000  0.25240000  0.94680000  1.0 0.0696832366
H  H168  1  0.25240000  0.61240000  0.55320000  1.0 0.0696832366
H  H169  1  0.28730000  0.81350000  0.09030000  1.0 0.0817367478
H  H170  1  0.81350000  0.28730000  0.40970000  1.0 0.0817367478
H  H171  1  0.71270000  0.18650000  0.90970000  1.0 0.0817367478
H  H172  1  0.18650000  0.71270000  0.59030000  1.0 0.0817367478
H  H173  1  0.21360000  0.68840000  0.10520000  1.0 0.1218038734
H  H174  1  0.68840000  0.21360000  0.39480000  1.0 0.1218038734
H  H175  1  0.78640000  0.31160000  0.89480000  1.0 0.1218038734
H  H176  1  0.31160000  0.78640000  0.60520000  1.0 0.1218038734
H  H177  1  0.33850000  0.75230000  0.13740000  1.0 0.0985601243
H  H178  1  0.75230000  0.33850000  0.36260000  1.0 0.0985601243
H  H179  1  0.66150000  0.24770000  0.86260000  1.0 0.0985601243
H  H180  1  0.24770000  0.66150000  0.63740000  1.0 0.0985601243
H  H181  1  0.78240000  0.02860000  0.98970000  1.0 0.0601056785
H  H182  1  0.02860000  0.78240000  0.51030000  1.0 0.0601056785
H  H183  1  0.21760000  0.97140000  0.01030000  1.0 0.0601056785
H  H184  1  0.97140000  0.21760000  0.48970000  1.0 0.0601056785
H  H185  1  0.82280000  0.14720000  0.94660000  1.0 0.0601056785
H  H186  1  0.14720000  0.82280000  0.55340000  1.0 0.0601056785
H  H187  1  0.17720000  0.85280000  0.05340000  1.0 0.0601056785
H  H188  1  0.85280000  0.17720000  0.44660000  1.0 0.0601056785
H  H189  1  0.70050000  0.05130000  0.92880000  1.0 0.1218038734
H  H190  1  0.05130000  0.70050000  0.57120000  1.0 0.1218038734
H  H191  1  0.29950000  0.94870000  0.07120000  1.0 0.1218038734
H  H192  1  0.94870000  0.29950000  0.42880000  1.0 0.1218038734
H  H193  1  0.79220000  0.11560000  0.82240000  1.0 0.0696832366
H  H194  1  0.11560000  0.79220000  0.67760000  1.0 0.0696832366
H  H195  1  0.20780000  0.88440000  0.17760000  1.0 0.0696832366
H  H196  1  0.88440000  0.20780000  0.32240000  1.0 0.0696832366
H  H197  1  0.70880000  0.11100000  0.82130000  1.0 0.0601056785
H  H198  1  0.11100000  0.70880000  0.67870000  1.0 0.0601056785
H  H199  1  0.29120000  0.88900000  0.17870000  1.0 0.0601056785
H  H200  1  0.88900000  0.29120000  0.32130000  1.0 0.0601056785
H  H201  1  0.83210000  0.20510000  0.83940000  1.0 0.0411703504
H  H202  1  0.20510000  0.83210000  0.66060000  1.0 0.0411703504
H  H203  1  0.16790000  0.79490000  0.16060000  1.0 0.0411703504
H  H204  1  0.79490000  0.16790000  0.33940000  1.0 0.0411703504
H  H205  1  0.67980000  0.91760000  0.88220000  1.0 0.0985601243
H  H206  1  0.91760000  0.67980000  0.61780000  1.0 0.0985601243
H  H207  1  0.32020000  0.08240000  0.11780000  1.0 0.0985601243
H  H208  1  0.08240000  0.32020000  0.38220000  1.0 0.0985601243
H  H209  1  0.68060000  0.88620000  0.94970000  1.0 0.0985601243
H  H210  1  0.88620000  0.68060000  0.55030000  1.0 0.0985601243
H  H211  1  0.31940000  0.11380000  0.05030000  1.0 0.0985601243
H  H212  1  0.11380000  0.31940000  0.44970000  1.0 0.0985601243
H  H213  1  0.61450000  0.92850000  0.88780000  1.0 0.0817367478
H  H214  1  0.92850000  0.61450000  0.61220000  1.0 0.0817367478
H  H215  1  0.38550000  0.07150000  0.11220000  1.0 0.0817367478
H  H216  1  0.07150000  0.38550000  0.38780000  1.0 0.0817367478
Ru  Ru1  1  0.96541000  0.54501000  0.96714000  1.0 0.6889666156
Ru  Ru2  1  0.54501000  0.96541000  0.53286000  1.0 0.6889666156
Ru  Ru3  1  0.03459000  0.45499000  0.03286000  1.0 0.6823510166
Ru  Ru4  1  0.45499000  0.03459000  0.46714000  1.0 0.6889666156
Ru  Ru5  1  0.98837000  0.00511000  0.95369000  1.0 0.6355248924
Ru  Ru6  1  0.00511000  0.98837000  0.54631000  1.0 0.6219578024
Ru  Ru7  1  0.01163000  0.99489000  0.04631000  1.0 0.6277338203
Ru  Ru8  1  0.99489000  0.01163000  0.45369000  1.0 0.6277338203
C  C1  1  0.01740000  0.52520000  0.90510000  1.0 0.5105991002
C  C2  1  0.52520000  0.01740000  0.59490000  1.0 0.5105991002
C  C3  1  0.98260000  0.47480000  0.09490000  1.0 0.5105991002
C  C4  1  0.47480000  0.98260000  0.40510000  1.0 0.5105991002
C  C5  1  0.02940000  0.54440000  0.84870000  1.0 0.1935850393
C  C6  1  0.54440000  0.02940000  0.65130000  1.0 0.1935850393
C  C7  1  0.97060000  0.45560000  0.15130000  1.0 0.1935850393
C  C8  1  0.45560000  0.97060000  0.34870000  1.0 0.1935850393
C  C9  1  0.11410000  0.66610000  0.82670000  1.0 -0.4710805778
C  C10  1  0.66610000  0.11410000  0.67330000  1.0 -0.4710805778
C  C11  1  0.88590000  0.33390000  0.17330000  1.0 -0.4710805778
C  C12  1  0.33390000  0.88590000  0.32670000  1.0 -0.4710805778
C  C13  1  0.06810000  0.48790000  0.86870000  1.0 -0.500690176
C  C14  1  0.48790000  0.06810000  0.63130000  1.0 -0.500690176
C  C15  1  0.93190000  0.51210000  0.13130000  1.0 -0.500690176
C  C16  1  0.51210000  0.93190000  0.36870000  1.0 -0.500690176
C  C17  1  0.92750000  0.51690000  0.79680000  1.0 -0.5104713206
C  C18  1  0.51690000  0.92750000  0.70320000  1.0 -0.5104713206
C  C19  1  0.07250000  0.48310000  0.20320000  1.0 -0.5104713206
C  C20  1  0.48310000  0.07250000  0.29680000  1.0 -0.5104713206
C  C21  1  0.19140000  0.67760000  0.01640000  1.0 0.4213029976
C  C22  1  0.67760000  0.19140000  0.48360000  1.0 0.4213029976
C  C23  1  0.80860000  0.32240000  0.98360000  1.0 0.4213029976
C  C24  1  0.32240000  0.80860000  0.51640000  1.0 0.4213029976
C  C25  1  0.30040000  0.78120000  0.01670000  1.0 0.0985601243
C  C26  1  0.78120000  0.30040000  0.48330000  1.0 0.0985601243
C  C27  1  0.69960000  0.21880000  0.98330000  1.0 0.0985601243
C  C28  1  0.21880000  0.69960000  0.51670000  1.0 0.0985601243
C  C29  1  0.32660000  0.82340000  0.96020000  1.0 -0.4459119503
C  C30  1  0.82340000  0.32660000  0.53980000  1.0 -0.4432716533
C  C31  1  0.67340000  0.17660000  0.03980000  1.0 -0.4432716533
C  C32  1  0.17660000  0.67340000  0.46020000  1.0 -0.4432716533
C  C33  1  0.38250000  0.77350000  0.06510000  1.0 -0.2585928876
C  C34  1  0.77350000  0.38250000  0.43490000  1.0 -0.2585928876
C  C35  1  0.61750000  0.22650000  0.93490000  1.0 -0.2585928876
C  C36  1  0.22650000  0.61750000  0.56510000  1.0 -0.2585928876
C  C37  1  0.30160000  0.85240000  0.01870000  1.0 -0.1490057249
C  C38  1  0.85240000  0.30160000  0.48130000  1.0 -0.1490057249
C  C39  1  0.69840000  0.14760000  0.98130000  1.0 -0.1490057249
C  C40  1  0.14760000  0.69840000  0.51870000  1.0 -0.1490057249
C  C41  1  0.17130000  0.19570000  0.98770000  1.0 0.5040370162
C  C42  1  0.19570000  0.17130000  0.51230000  1.0 0.5040370162
C  C43  1  0.82870000  0.80430000  0.01230000  1.0 0.5040370162
C  C44  1  0.80430000  0.82870000  0.48770000  1.0 0.5040370162
C  C45  1  0.27510000  0.30730000  0.98380000  1.0 0.1696346935
C  C46  1  0.30730000  0.27510000  0.51620000  1.0 0.1696346935
C  C47  1  0.72490000  0.69270000  0.01620000  1.0 0.1696346935
C  C48  1  0.69270000  0.72490000  0.48380000  1.0 0.1696346935
C  C49  1  0.30840000  0.34320000  0.93190000  1.0 -0.4589565584
C  C50  1  0.34320000  0.30840000  0.56810000  1.0 -0.4589565584
C  C51  1  0.69160000  0.65680000  0.06810000  1.0 -0.4589565584
C  C52  1  0.65680000  0.69160000  0.43190000  1.0 -0.4589565584
C  C53  1  0.35870000  0.30610000  0.04710000  1.0 -0.4780384863
C  C54  1  0.30610000  0.35870000  0.45290000  1.0 -0.4780384863
C  C55  1  0.64130000  0.69390000  0.95290000  1.0 -0.4780384863
C  C56  1  0.69390000  0.64130000  0.54710000  1.0 -0.4780384863
C  C57  1  0.25680000  0.37780000  0.97070000  1.0 -0.4589565584
C  C58  1  0.37780000  0.25680000  0.52930000  1.0 -0.4589565584
C  C59  1  0.74320000  0.62220000  0.02930000  1.0 -0.4589565584
C  C60  1  0.62220000  0.74320000  0.47070000  1.0 -0.4589565584
C  C61  1  0.87530000  0.05170000  0.94200000  1.0 0.4620642151
C  C62  1  0.05170000  0.87530000  0.55800000  1.0 0.4620642151
C  C63  1  0.12470000  0.94830000  0.05800000  1.0 0.4620642151
C  C64  1  0.94830000  0.12470000  0.44200000  1.0 0.4620642151
C  C65  1  0.79020000  0.06560000  0.91020000  1.0 0.0901865076
C  C66  1  0.06560000  0.79020000  0.58980000  1.0 0.0901865076
C  C67  1  0.20980000  0.93440000  0.08980000  1.0 0.0901865076
C  C68  1  0.93440000  0.20980000  0.41020000  1.0 0.0901865076
C  C69  1  0.87730000  0.20670000  0.88480000  1.0 -0.3242473368
C  C70  1  0.20670000  0.87730000  0.61520000  1.0 -0.3251769308
C  C71  1  0.12270000  0.79330000  0.11520000  1.0 -0.3251769308
C  C72  1  0.79330000  0.12270000  0.38480000  1.0 -0.3242473368
C  C73  1  0.75990000  0.04010000  0.95740000  1.0 -0.2657198075
C  C74  1  0.04010000  0.75990000  0.54260000  1.0 -0.2657198075
C  C75  1  0.24010000  0.95990000  0.04260000  1.0 -0.2585928876
C  C76  1  0.95990000  0.24010000  0.45740000  1.0 -0.2585928876
C  C77  1  0.71630000  0.03370000  0.85530000  1.0 -0.1754062984
C  C78  1  0.03370000  0.71630000  0.64470000  1.0 -0.1754062984
C  C79  1  0.28370000  0.96630000  0.14470000  1.0 -0.1754062984
C  C80  1  0.96630000  0.28370000  0.35530000  1.0 -0.1754062984
C  C81  1  0.31030000  0.87570000  0.99220000  1.0 -0.1863762204
C  C82  1  0.87570000  0.31030000  0.50780000  1.0 -0.1863762204
C  C83  1  0.68970000  0.12430000  0.00780000  1.0 -0.1863762204
C  C84  1  0.12430000  0.68970000  0.49220000  1.0 -0.1863762204
C  C85  1  0.37860000  0.75340000  0.08020000  1.0 -0.249887117
C  C86  1  0.75340000  0.37860000  0.41980000  1.0 -0.249887117
C  C87  1  0.62140000  0.24660000  0.91980000  1.0 -0.249887117
C  C88  1  0.24660000  0.62140000  0.58020000  1.0 -0.249887117
C  C89  1  0.29590000  0.77230000  0.04230000  1.0 0.0696832366
C  C90  1  0.77230000  0.29590000  0.45770000  1.0 0.0696832366
C  C91  1  0.70410000  0.22770000  0.95770000  1.0 0.0696832366
C  C92  1  0.22770000  0.70410000  0.54230000  1.0 0.0696832366
C  C93  1  0.28260000  0.75500000  0.09920000  1.0 -0.3512760911
C  C94  1  0.75500000  0.28260000  0.40080000  1.0 -0.3512760911
C  C95  1  0.71740000  0.24500000  0.90080000  1.0 -0.3512760911
C  C96  1  0.24500000  0.71740000  0.59920000  1.0 -0.3512760911
C  C97  1  0.77240000  0.07360000  0.94660000  1.0 -0.249887117
C  C98  1  0.07360000  0.77240000  0.55340000  1.0 -0.249887117
C  C99  1  0.22760000  0.92640000  0.05340000  1.0 -0.249887117
C  C100  1  0.92640000  0.22760000  0.44660000  1.0 -0.249887117
C  C101  1  0.78000000  0.13000000  0.84250000  1.0 -0.1710980338
C  C102  1  0.13000000  0.78000000  0.65750000  1.0 -0.1710980338
C  C103  1  0.22000000  0.87000000  0.15750000  1.0 -0.1710980338
C  C104  1  0.87000000  0.22000000  0.34250000  1.0 -0.1710980338
C  C105  1  0.67900000  0.93500000  0.90710000  1.0 -0.3087409724
C  C106  1  0.93500000  0.67900000  0.59290000  1.0 -0.3087409724
C  C107  1  0.32100000  0.06500000  0.09290000  1.0 -0.3087409724
C  C108  1  0.06500000  0.32100000  0.40710000  1.0 -0.3087409724
O  O1  1  0.97770000  0.56250000  0.89480000  1.0 -0.4780384863
O  O2  1  0.56250000  0.97770000  0.60520000  1.0 -0.4780384863
O  O3  1  0.02230000  0.43750000  0.10520000  1.0 -0.4780384863
O  O4  1  0.43750000  0.02230000  0.39480000  1.0 -0.4780384863
O  O5  1  0.11330000  0.68050000  0.97950000  1.0 -0.4589565584
O  O6  1  0.68050000  0.11330000  0.52050000  1.0 -0.4589565584
O  O7  1  0.88670000  0.31950000  0.02050000  1.0 -0.4589565584
O  O8  1  0.31950000  0.88670000  0.47950000  1.0 -0.4589565584
O  O9  1  0.18140000  0.59240000  0.04350000  1.0 -0.4313734387
O  O10  1  0.59240000  0.18140000  0.45650000  1.0 -0.4313734387
O  O11  1  0.81860000  0.40760000  0.95650000  1.0 -0.4313734387
O  O12  1  0.40760000  0.81860000  0.54350000  1.0 -0.4313734387
O  O13  1  0.04730000  0.47570000  0.95900000  1.0 -0.4710805778
O  O14  1  0.47570000  0.04730000  0.54100000  1.0 -0.4780384863
O  O15  1  0.95270000  0.52430000  0.04100000  1.0 -0.4780384863
O  O16  1  0.52430000  0.95270000  0.45900000  1.0 -0.4780384863
O  O17  1  0.12010000  0.15670000  0.94460000  1.0 -0.4710805778
O  O18  1  0.15670000  0.12010000  0.55540000  1.0 -0.4710805778
O  O19  1  0.87990000  0.84330000  0.05540000  1.0 -0.4710805778
O  O20  1  0.84330000  0.87990000  0.44460000  1.0 -0.4710805778
O  O21  1  0.89680000  0.04940000  0.90970000  1.0 -0.493306822
O  O22  1  0.04940000  0.89680000  0.59030000  1.0 -0.493306822
O  O23  1  0.10320000  0.95060000  0.09030000  1.0 -0.493306822
O  O24  1  0.95060000  0.10320000  0.40970000  1.0 -0.493306822
O  O25  1  0.14120000  0.14580000  0.03530000  1.0 -0.4710805778
O  O26  1  0.14580000  0.14120000  0.46470000  1.0 -0.4710805778
O  O27  1  0.85880000  0.85420000  0.96470000  1.0 -0.4780384863
O  O28  1  0.85420000  0.85880000  0.53530000  1.0 -0.4710805778
O  O29  1  0.91870000  0.03910000  0.00000000  1.0 -0.4710805778
O  O30  1  0.03910000  0.91870000  0.50000000  1.0 -0.4710805778
O  O31  1  0.08130000  0.96090000  0.00000000  1.0 -0.4710805778
O  O32  1  0.96090000  0.08130000  0.50000000  1.0 -0.4710805778
O  O33  1  0.84760000  0.77360000  0.80660000  1.0 -0.9603540365
O  O34  1  0.77360000  0.84760000  0.69340000  1.0 -0.9603540365
O  O35  1  0.15240000  0.22640000  0.19340000  1.0 -0.9603540365
O  O36  1  0.22640000  0.15240000  0.30660000  1.0 -0.9603540365
O  O37  1  0.95910000  0.91090000  0.73430000  1.0 -0.967405415
O  O38  1  0.91090000  0.95910000  0.76570000  1.0 -0.967405415
O  O39  1  0.04090000  0.08910000  0.26570000  1.0 -0.967405415
O  O40  1  0.08910000  0.04090000  0.23430000  1.0 -0.967405415
O  O41  1  0.83460000  0.69060000  0.91990000  1.0 -0.8030104403
O  O42  1  0.69060000  0.83460000  0.58010000  1.0 -0.8030104403
O  O43  1  0.16540000  0.30940000  0.08010000  1.0 -0.8030104403
O  O44  1  0.30940000  0.16540000  0.41990000  1.0 -0.8030104403
O  O45  1  0.89770000  0.64010000  0.89500000  1.0 -0.8596839392
O  O46  1  0.64010000  0.89770000  0.60500000  1.0 -0.8596839392
O  O47  1  0.10230000  0.35990000  0.10500000  1.0 -0.8596839392
O  O48  1  0.35990000  0.10230000  0.39500000  1.0 -0.8596839392
O  O49  1  0.69690000  0.57050000  0.84500000  1.0 -0.8596839392
O  O50  1  0.57050000  0.69690000  0.65500000  1.0 -0.8596839392
O  O51  1  0.30310000  0.42950000  0.15500000  1.0 -0.8596839392
O  O52  1  0.42950000  0.30310000  0.34500000  1.0 -0.8596839392
O  O53  1  0.06080000  0.83960000  0.86840000  1.0 -0.8095858061
O  O54  1  0.83960000  0.06080000  0.63160000  1.0 -0.8030104403
O  O55  1  0.93920000  0.16040000  0.13160000  1.0 -0.8095858061
O  O56  1  0.16040000  0.93920000  0.36840000  1.0 -0.8030104403
O  O57  1  0.12840000  0.03400000  0.82100000  1.0 -0.8529162172
O  O58  1  0.03400000  0.12840000  0.67900000  1.0 -0.8529162172
O  O59  1  0.87160000  0.96600000  0.17900000  1.0 -0.8529162172
O  O60  1  0.96600000  0.87160000  0.32100000  1.0 -0.8529162172
O  O61  1  0.01200000  0.89680000  0.89530000  1.0 -0.7832405035
O  O62  1  0.89680000  0.01200000  0.60470000  1.0 -0.7832405035
O  O63  1  0.98800000  0.10320000  0.10470000  1.0 -0.7832405035
O  O64  1  0.10320000  0.98800000  0.39530000  1.0 -0.7832405035
O  O65  1  0.07960000  0.86920000  0.76680000  1.0 -0.8596839392
O  O66  1  0.86920000  0.07960000  0.73320000  1.0 -0.8596839392
O  O67  1  0.92040000  0.13080000  0.23320000  1.0 -0.8529162172
O  O68  1  0.13080000  0.92040000  0.26680000  1.0 -0.8596839392
O  O69  1  0.15380000  0.06780000  0.72700000  1.0 -0.8596839392
O  O70  1  0.06780000  0.15380000  0.77300000  1.0 -0.8596839392
O  O71  1  0.84620000  0.93220000  0.27300000  1.0 -0.8596839392
O  O72  1  0.93220000  0.84620000  0.22700000  1.0 -0.8596839392
O  O73  1  0.95570000  0.00810000  0.85540000  1.0 -0.8871161703
O  O74  1  0.00810000  0.95570000  0.64460000  1.0 -0.8871161703
O  O75  1  0.04430000  0.99190000  0.14460000  1.0 -0.8871161703
O  O76  1  0.99190000  0.04430000  0.35540000  1.0 -0.8871161703
O  O77  1  0.77190000  0.80770000  0.84260000  1.0 -0.8334996615
O  O78  1  0.80770000  0.77190000  0.65740000  1.0 -0.8334996615
O  O79  1  0.22810000  0.19230000  0.15740000  1.0 -0.8334996615
O  O80  1  0.19230000  0.22810000  0.34260000  1.0 -0.8334996615
O  O81  1  0.70160000  0.89100000  0.72610000  1.0 -0.8095858061
O  O82  1  0.89100000  0.70160000  0.77390000  1.0 -0.8095858061
O  O83  1  0.29840000  0.10900000  0.27390000  1.0 -0.8095858061
O  O84  1  0.10900000  0.29840000  0.22610000  1.0 -0.8095858061
O  O85  1  0.63140000  0.69760000  0.76600000  1.0 -0.8734706008
O  O86  1  0.69760000  0.63140000  0.73400000  1.0 -0.8734706008
O  O87  1  0.36860000  0.30240000  0.23400000  1.0 -0.8734706008
O  O88  1  0.30240000  0.36860000  0.26600000  1.0 -0.8754401568
