# DDEC6 charges by PACMAN v1.1 (https://github.com/mtap-research/PACMAN-charge/)
data_VEZQAT_FSR_pacman
_symmetry_space_group_name_H-M   'P 1'
_cell_length_a   36.21900000
_cell_length_b   36.16300000
_cell_length_c   9.92511000
_cell_angle_alpha   82.43910000
_cell_angle_beta   81.79860000
_cell_angle_gamma   15.76240000
_symmetry_Int_Tables_number   1
_chemical_formula_structural   Al9Co5(PO4)14
_chemical_formula_sum   'Al18 Co10 P28 O112'
_cell_volume   3494.47146696
_cell_formula_units_Z   2
loop_
 _symmetry_equiv_pos_site_id
 _symmetry_equiv_pos_as_xyz
  1  'x, y, z'
loop_
 _atom_site_type_symbol
 _atom_site_label
 _atom_site_symmetry_multiplicity
 _atom_site_fract_x
 _atom_site_fract_y
 _atom_site_fract_z
 _atom_site_occupancy
 _atom_site_charge
Al  Al1  1  0.97381000  0.11201000  0.35079000  1.0 1.7417499132
Al  Al2  1  0.35079000  0.56339000  0.97381000  1.0 1.7339009948
Al  Al3  1  0.13799000  0.27619000  0.68661000  1.0 1.7417499132
Al  Al4  1  0.68661000  0.89921000  0.13799000  1.0 1.7339009948
Al  Al5  1  0.00788000  0.71648000  0.25292000  1.0 1.7417499132
Al  Al6  1  0.25292000  0.02272000  0.00788000  1.0 1.7417499132
Al  Al7  1  0.53352000  0.24212000  0.22728000  1.0 1.7417499132
Al  Al8  1  0.22728000  0.99708000  0.53352000  1.0 1.7417499132
Al  Al9  1  0.14090000  0.85910000  0.14090000  1.0 1.7549139566
Al  Al10  1  0.39090000  0.10910000  0.39090000  1.0 1.7565805025
Al  Al11  1  0.07134000  0.87106000  0.66244000  1.0 1.8184590645
Al  Al12  1  0.66244000  0.39516000  0.07134000  1.0 1.8121298857
Al  Al13  1  0.37894000  0.17866000  0.85484000  1.0 1.8184590645
Al  Al14  1  0.85484000  0.58756000  0.37894000  1.0 1.8184590645
Al  Al15  1  0.82401000  0.03813000  0.97379000  1.0 1.7692535527
Al  Al16  1  0.97379000  0.16407000  0.82401000  1.0 1.7692535527
Al  Al17  1  0.21187000  0.42599000  0.08593000  1.0 1.7692535527
Al  Al18  1  0.08593000  0.27621000  0.21187000  1.0 1.7692535527
Co  Co1  1  0.68596000  0.81404000  0.68596000  1.0 1.2291258283
Co  Co2  1  0.43596000  0.56404000  0.43596000  1.0 1.2291258283
Co  Co3  1  0.92438000  0.72450000  0.78508000  1.0 1.2496527739
Co  Co4  1  0.78508000  0.56604000  0.92438000  1.0 1.2496527739
Co  Co5  1  0.52550000  0.32562000  0.68396000  1.0 1.2440622158
Co  Co6  1  0.68396000  0.46492000  0.52550000  1.0 1.2496527739
Co  Co7  1  0.84257000  0.95463000  0.51305000  1.0 1.2496527739
Co  Co8  1  0.51305000  0.68975000  0.84257000  1.0 1.2496527739
Co  Co9  1  0.29537000  0.40743000  0.56025000  1.0 1.2496527739
Co  Co10  1  0.56025000  0.73695000  0.29537000  1.0 1.2496527739
P  P1  1  0.91273000  0.74093000  0.10307000  1.0 1.4497591562
P  P2  1  0.10307000  0.24327000  0.91273000  1.0 1.457236392
P  P3  1  0.50907000  0.33727000  0.00673000  1.0 1.4497591562
P  P4  1  0.00673000  0.14693000  0.50907000  1.0 1.4497591562
P  P5  1  0.70903000  0.86599000  0.82337000  1.0 1.4680960782
P  P6  1  0.82337000  0.60161000  0.70903000  1.0 1.4680960782
P  P7  1  0.38401000  0.54097000  0.64839000  1.0 1.4680960782
P  P8  1  0.64839000  0.42663000  0.38401000  1.0 1.4680960782
P  P9  1  0.85349000  0.01609000  0.65431000  1.0 1.439152003
P  P10  1  0.65431000  0.47611000  0.85349000  1.0 1.439152003
P  P11  1  0.23391000  0.39651000  0.77389000  1.0 1.439152003
P  P12  1  0.77389000  0.59569000  0.23391000  1.0 1.433233387
P  P13  1  0.84993000  0.94213000  0.19587000  1.0 1.433233387
P  P14  1  0.19587000  0.01207000  0.84993000  1.0 1.433233387
P  P15  1  0.30787000  0.40007000  0.23793000  1.0 1.433233387
P  P16  1  0.23793000  0.05413000  0.30787000  1.0 1.433233387
P  P17  1  0.05011000  0.88127000  0.98569000  1.0 1.4497591562
P  P18  1  0.98569000  0.08293000  0.05011000  1.0 1.439152003
P  P19  1  0.36873000  0.19989000  0.16707000  1.0 1.4497591562
P  P20  1  0.16707000  0.26431000  0.36873000  1.0 1.4497591562
P  P21  1  0.98636000  0.73736000  0.57284000  1.0 1.4013221171
P  P22  1  0.57284000  0.70344000  0.98636000  1.0 1.4013221171
P  P23  1  0.51264000  0.26364000  0.54656000  1.0 1.4062497921
P  P24  1  0.54656000  0.67716000  0.51264000  1.0 1.4013221171
P  P25  1  0.12488000  0.89008000  0.44632000  1.0 1.457236392
P  P26  1  0.44632000  0.53872000  0.12488000  1.0 1.457236392
P  P27  1  0.35992000  0.12512000  0.71128000  1.0 1.457236392
P  P28  1  0.71128000  0.80368000  0.35992000  1.0 1.457236392
O  O1  1  0.89213000  0.80113000  0.66727000  1.0 -0.6715242707
O  O2  1  0.66727000  0.63947000  0.89213000  1.0 -0.6715242707
O  O3  1  0.44887000  0.35787000  0.61053000  1.0 -0.6715242707
O  O4  1  0.61053000  0.58273000  0.44887000  1.0 -0.6715242707
O  O5  1  0.86809000  0.95469000  0.07311000  1.0 -0.7574854883
O  O6  1  0.07311000  0.10411000  0.86809000  1.0 -0.7574854883
O  O7  1  0.29531000  0.38191000  0.14589000  1.0 -0.7574854883
O  O8  1  0.14589000  0.17689000  0.29531000  1.0 -0.7574854883
O  O9  1  0.94820000  0.81260000  0.59240000  1.0 -0.6715242707
O  O10  1  0.59240000  0.64680000  0.94820000  1.0 -0.6715242707
O  O11  1  0.43740000  0.30180000  0.60320000  1.0 -0.6715242707
O  O12  1  0.60320000  0.65760000  0.43740000  1.0 -0.6715242707
O  O13  1  0.06262000  0.98942000  0.42458000  1.0 -0.7574854883
O  O14  1  0.42458000  0.52338000  0.06262000  1.0 -0.7574854883
O  O15  1  0.26058000  0.18738000  0.72662000  1.0 -0.7574854883
O  O16  1  0.72662000  0.82542000  0.26058000  1.0 -0.7574854883
O  O17  1  0.92366000  0.76146000  0.18714000  1.0 -0.7501259311
O  O18  1  0.18714000  0.12774000  0.92366000  1.0 -0.7501259311
O  O19  1  0.48854000  0.32634000  0.12226000  1.0 -0.7501259311
O  O20  1  0.12226000  0.06286000  0.48854000  1.0 -0.7574854883
O  O21  1  0.78228000  0.82968000  0.74012000  1.0 -0.6855521095
O  O22  1  0.74012000  0.64792000  0.78228000  1.0 -0.6855521095
O  O23  1  0.42032000  0.46772000  0.60208000  1.0 -0.6855521095
O  O24  1  0.60208000  0.50988000  0.42032000  1.0 -0.6772056394
O  O25  1  0.76289000  0.77809000  0.78091000  1.0 -0.6715242707
O  O26  1  0.78091000  0.67811000  0.76289000  1.0 -0.6772056394
O  O27  1  0.47191000  0.48711000  0.57189000  1.0 -0.6772056394
O  O28  1  0.57189000  0.46909000  0.47191000  1.0 -0.6715242707
O  O29  1  0.93261000  0.97681000  0.60999000  1.0 -0.7762074464
O  O30  1  0.60999000  0.48059000  0.93261000  1.0 -0.7706135405
O  O31  1  0.27319000  0.31739000  0.76941000  1.0 -0.7762074464
O  O32  1  0.76941000  0.64001000  0.27319000  1.0 -0.7706135405
O  O33  1  0.91879000  0.92479000  0.57181000  1.0 -0.6715242707
O  O34  1  0.57181000  0.58461000  0.91879000  1.0 -0.6772056394
O  O35  1  0.32521000  0.33121000  0.66539000  1.0 -0.6715242707
O  O36  1  0.66539000  0.67819000  0.32521000  1.0 -0.6772056394
O  O37  1  0.05234000  0.93614000  0.56046000  1.0 -0.7501259311
O  O38  1  0.56046000  0.45106000  0.05234000  1.0 -0.7386855263
O  O39  1  0.31386000  0.19766000  0.79894000  1.0 -0.7501259311
O  O40  1  0.79894000  0.68954000  0.31386000  1.0 -0.7501259311
O  O41  1  0.92395000  0.98055000  0.02545000  1.0 -0.7235211186
O  O42  1  0.02545000  0.07005000  0.92395000  1.0 -0.7235211186
O  O43  1  0.26945000  0.32605000  0.17995000  1.0 -0.7235211186
O  O44  1  0.17995000  0.22455000  0.26945000  1.0 -0.7235211186
O  O45  1  0.13406000  0.59006000  0.60554000  1.0 -0.7574854883
O  O46  1  0.60554000  0.67034000  0.13406000  1.0 -0.7574854883
O  O47  1  0.65994000  0.11594000  0.57966000  1.0 -0.7501259311
O  O48  1  0.57966000  0.64446000  0.65994000  1.0 -0.7574854883
O  O49  1  0.05795000  0.89975000  0.09205000  1.0 -0.7706135405
O  O50  1  0.09205000  0.95025000  0.05795000  1.0 -0.7706135405
O  O51  1  0.35025000  0.19205000  0.29975000  1.0 -0.7706135405
O  O52  1  0.29975000  0.15795000  0.35025000  1.0 -0.7706135405
O  O53  1  0.90238000  0.76558000  0.95382000  1.0 -0.7386855263
O  O54  1  0.95382000  0.37822000  0.90238000  1.0 -0.7305138849
O  O55  1  0.48442000  0.34762000  0.87178000  1.0 -0.7386855263
O  O56  1  0.87178000  0.29618000  0.48442000  1.0 -0.7305138849
O  O57  1  0.86041000  0.99741000  0.80139000  1.0 -0.8113918595
O  O58  1  0.80139000  0.34079000  0.86041000  1.0 -0.8113918595
O  O59  1  0.25259000  0.38959000  0.90921000  1.0 -0.8113918595
O  O60  1  0.90921000  0.44861000  0.25259000  1.0 -0.8113918595
O  O61  1  0.02723000  0.60283000  0.12137000  1.0 -0.8299594912
O  O62  1  0.12137000  0.24857000  0.02723000  1.0 -0.8190827878
O  O63  1  0.64717000  0.22277000  0.00143000  1.0 -0.8299594912
O  O64  1  0.00143000  0.12863000  0.64717000  1.0 -0.8190827878
O  O65  1  0.04001000  0.08861000  0.39679000  1.0 -0.7098068886
O  O66  1  0.39679000  0.47459000  0.04001000  1.0 -0.7098068886
O  O67  1  0.16139000  0.20999000  0.77541000  1.0 -0.7098068886
O  O68  1  0.77541000  0.85321000  0.16139000  1.0 -0.7098068886
O  O69  1  0.95526000  0.81006000  0.18074000  1.0 -0.7305138849
O  O70  1  0.18074000  0.05394000  0.95526000  1.0 -0.7305138849
O  O71  1  0.43994000  0.29474000  0.19606000  1.0 -0.7305138849
O  O72  1  0.19606000  0.06926000  0.43994000  1.0 -0.7305138849
O  O73  1  0.08146000  0.54646000  0.74774000  1.0 -0.7235211186
O  O74  1  0.74774000  0.62434000  0.08146000  1.0 -0.7235211186
O  O75  1  0.70354000  0.16854000  0.62566000  1.0 -0.7235211186
O  O76  1  0.62566000  0.50226000  0.70354000  1.0 -0.7235211186
O  O77  1  0.04891000  0.90071000  0.84249000  1.0 -0.8366598778
O  O78  1  0.84249000  0.20789000  0.04891000  1.0 -0.8366598778
O  O79  1  0.34929000  0.20109000  0.04211000  1.0 -0.8366598778
O  O80  1  0.04211000  0.40751000  0.34929000  1.0 -0.8366598778
O  O81  1  0.18331000  0.54471000  0.22189000  1.0 -0.8113918595
O  O82  1  0.22189000  0.05009000  0.18331000  1.0 -0.8113918595
O  O83  1  0.70529000  0.06669000  0.19991000  1.0 -0.8113918595
O  O84  1  0.19991000  0.02811000  0.70529000  1.0 -0.8113918595
O  O85  1  0.99637000  0.09657000  0.16963000  1.0 -0.8190827878
O  O86  1  0.16963000  0.73743000  0.99637000  1.0 -0.8190827878
O  O87  1  0.15343000  0.25363000  0.51257000  1.0 -0.8190827878
O  O88  1  0.51257000  0.08037000  0.15343000  1.0 -0.8190827878
O  O89  1  0.09660000  0.89760000  0.31940000  1.0 -0.8113918595
O  O90  1  0.31940000  0.68640000  0.09660000  1.0 -0.8113918595
O  O91  1  0.35240000  0.15340000  0.56360000  1.0 -0.8113918595
O  O92  1  0.56360000  0.93060000  0.35240000  1.0 -0.8113918595
O  O93  1  0.73831000  0.78511000  0.50069000  1.0 -0.7386855263
O  O94  1  0.50069000  0.97589000  0.73831000  1.0 -0.7386855263
O  O95  1  0.46489000  0.51169000  0.27411000  1.0 -0.7386855263
O  O96  1  0.27411000  0.74931000  0.46489000  1.0 -0.7386855263
O  O97  1  0.72855000  0.84575000  0.97905000  1.0 -0.8190827878
O  O98  1  0.97905000  0.44665000  0.72855000  1.0 -0.8190827878
O  O99  1  0.40425000  0.52145000  0.80335000  1.0 -0.8190827878
O  O100  1  0.80335000  0.27095000  0.40425000  1.0 -0.8190827878
O  O101  1  0.96064000  0.75524000  0.42916000  1.0 -0.8113918595
O  O102  1  0.42916000  0.85496000  0.96064000  1.0 -0.8113918595
O  O103  1  0.49476000  0.28936000  0.39504000  1.0 -0.8113918595
O  O104  1  0.39504000  0.82084000  0.49476000  1.0 -0.8190827878
O  O105  1  0.87066000  0.94086000  0.31694000  1.0 -0.7305138849
O  O106  1  0.31694000  0.87154000  0.87066000  1.0 -0.7235211186
O  O107  1  0.30914000  0.37934000  0.37846000  1.0 -0.7235211186
O  O108  1  0.37846000  0.93306000  0.30914000  1.0 -0.7305138849
O  O109  1  0.55882000  0.01362000  0.79798000  1.0 -0.8299594912
O  O110  1  0.79798000  0.62958000  0.55882000  1.0 -0.8299594912
O  O111  1  0.23638000  0.69118000  0.62042000  1.0 -0.8299594912
O  O112  1  0.62042000  0.45202000  0.23638000  1.0 -0.8299594912
