# DDEC6 charges by PACMAN v1.1 (https://github.com/mtap-research/PACMAN-charge/)
data_VEZWEE_ion_pacman
_symmetry_space_group_name_H-M   'P 1'
_cell_length_a   15.25800000
_cell_length_b   21.33300000
_cell_length_c   29.26700000
_cell_angle_alpha   90.00000000
_cell_angle_beta   90.00000000
_cell_angle_gamma   90.00000000
_symmetry_Int_Tables_number   1
_chemical_formula_structural   Mn4H64C64N11Cl7O48
_chemical_formula_sum   'Mn16 H256 C256 N44 Cl28 O192'
_cell_volume   9526.37671604
_cell_formula_units_Z   4
loop_
 _symmetry_equiv_pos_site_id
 _symmetry_equiv_pos_as_xyz
  1  'x, y, z'
loop_
 _atom_site_type_symbol
 _atom_site_label
 _atom_site_symmetry_multiplicity
 _atom_site_fract_x
 _atom_site_fract_y
 _atom_site_fract_z
 _atom_site_occupancy
 _atom_site_charge
Mn  Mn1  1  0.36145000  0.27305000  0.23334000  1.0 1.0596564077
Mn  Mn2  1  0.63855000  0.72695000  0.73334000  1.0 1.0596564077
Mn  Mn3  1  0.86145000  0.22695000  0.23334000  1.0 1.0596564077
Mn  Mn4  1  0.13855000  0.77305000  0.73334000  1.0 1.0596564077
Mn  Mn5  1  0.12909000  0.27696000  0.17966000  1.0 1.0502928607
Mn  Mn6  1  0.87091000  0.72304000  0.67966000  1.0 1.0502928607
Mn  Mn7  1  0.62909000  0.22304000  0.17966000  1.0 1.0502928607
Mn  Mn8  1  0.37091000  0.77696000  0.67966000  1.0 1.0502928607
Mn  Mn9  1  0.17252000  0.50936000  0.15734000  1.0 1.0502928607
Mn  Mn10  1  0.82748000  0.49064000  0.65734000  1.0 1.0502928607
Mn  Mn11  1  0.67252000  0.99064000  0.15734000  1.0 1.0502928607
Mn  Mn12  1  0.32748000  0.00936000  0.65734000  1.0 1.0502928607
Mn  Mn13  1  0.33289000  0.50327000  0.25526000  1.0 1.071215298
Mn  Mn14  1  0.66711000  0.49673000  0.75526000  1.0 1.071215298
Mn  Mn15  1  0.83289000  0.99673000  0.25526000  1.0 1.071215298
Mn  Mn16  1  0.16711000  0.00327000  0.75526000  1.0 1.071215298
H  H1  1  0.29220000  0.13630000  0.32380000  1.0 0.139793653
H  H2  1  0.70780000  0.86370000  0.82380000  1.0 0.139793653
H  H3  1  0.79220000  0.36370000  0.32380000  1.0 0.139793653
H  H4  1  0.20780000  0.63630000  0.82380000  1.0 0.139793653
H  H5  1  0.25510000  0.05320000  0.37000000  1.0 0.1182137434
H  H6  1  0.74490000  0.94680000  0.87000000  1.0 0.1182137434
H  H7  1  0.75510000  0.44680000  0.37000000  1.0 0.1182137434
H  H8  1  0.24490000  0.55320000  0.87000000  1.0 0.1182137434
H  H9  1  0.00930000  0.06100000  0.33020000  1.0 0.1182137434
H  H10  1  0.99070000  0.93900000  0.83020000  1.0 0.1182137434
H  H11  1  0.50930000  0.43900000  0.33020000  1.0 0.1182137434
H  H12  1  0.49070000  0.56100000  0.83020000  1.0 0.1182137434
H  H13  1  0.04260000  0.14140000  0.28230000  1.0 0.1589494459
H  H14  1  0.95740000  0.85860000  0.78230000  1.0 0.1589494459
H  H15  1  0.54260000  0.35860000  0.28230000  1.0 0.1589494459
H  H16  1  0.45740000  0.64140000  0.78230000  1.0 0.1589494459
H  H17  1  0.06480000  0.97160000  0.37410000  1.0 0.1182137434
H  H18  1  0.93520000  0.02840000  0.87410000  1.0 0.1182137434
H  H19  1  0.56480000  0.52840000  0.37410000  1.0 0.1182137434
H  H20  1  0.43520000  0.47160000  0.87410000  1.0 0.1182137434
H  H21  1  0.16150000  0.97270000  0.39270000  1.0 0.1182137434
H  H22  1  0.83850000  0.02730000  0.89270000  1.0 0.1182137434
H  H23  1  0.66150000  0.52730000  0.39270000  1.0 0.1182137434
H  H24  1  0.33850000  0.47270000  0.89270000  1.0 0.1182137434
H  H25  1  0.02140000  0.04330000  0.42570000  1.0 0.1103670559
H  H26  1  0.97860000  0.95670000  0.92570000  1.0 0.1103670559
H  H27  1  0.52140000  0.45670000  0.42570000  1.0 0.1103670559
H  H28  1  0.47860000  0.54330000  0.92570000  1.0 0.1103670559
H  H29  1  0.11860000  0.05780000  0.44000000  1.0 0.1003025041
H  H30  1  0.88140000  0.94220000  0.94000000  1.0 0.1003025041
H  H31  1  0.61860000  0.44220000  0.44000000  1.0 0.1003025041
H  H32  1  0.38140000  0.55780000  0.94000000  1.0 0.1003025041
H  H33  1  0.03590000  0.93940000  0.45770000  1.0 0.1103670559
H  H34  1  0.96410000  0.06060000  0.95770000  1.0 0.1103670559
H  H35  1  0.53590000  0.56060000  0.45770000  1.0 0.1103670559
H  H36  1  0.46410000  0.43940000  0.95770000  1.0 0.1103670559
H  H37  1  0.13160000  0.95630000  0.47360000  1.0 0.1003025041
H  H38  1  0.86840000  0.04370000  0.97360000  1.0 0.1003025041
H  H39  1  0.63160000  0.54370000  0.47360000  1.0 0.1003025041
H  H40  1  0.36840000  0.45630000  0.97360000  1.0 0.1003025041
H  H41  1  0.07340000  0.03940000  0.51970000  1.0 0.1182137434
H  H42  1  0.92660000  0.96060000  0.01970000  1.0 0.1182137434
H  H43  1  0.57340000  0.46060000  0.51970000  1.0 0.1182137434
H  H44  1  0.42660000  0.53940000  0.01970000  1.0 0.1182137434
H  H45  1  0.97810000  0.02040000  0.50470000  1.0 0.1103670559
H  H46  1  0.02190000  0.97960000  0.00470000  1.0 0.1103670559
H  H47  1  0.47810000  0.47960000  0.50470000  1.0 0.1103670559
H  H48  1  0.52190000  0.52040000  0.00470000  1.0 0.1103670559
H  H49  1  0.14850000  0.97780000  0.57690000  1.0 0.130022306
H  H50  1  0.85150000  0.02220000  0.07690000  1.0 0.130022306
H  H51  1  0.64850000  0.52220000  0.57690000  1.0 0.130022306
H  H52  1  0.35150000  0.47780000  0.07690000  1.0 0.130022306
H  H53  1  0.13700000  0.90900000  0.63630000  1.0 0.1491296651
H  H54  1  0.86300000  0.09100000  0.13630000  1.0 0.1491296651
H  H55  1  0.63700000  0.59100000  0.63630000  1.0 0.1491296651
H  H56  1  0.36300000  0.40900000  0.13630000  1.0 0.1491296651
H  H57  1  0.91400000  0.84540000  0.58390000  1.0 0.139793653
H  H58  1  0.08600000  0.15460000  0.08390000  1.0 0.139793653
H  H59  1  0.41400000  0.65460000  0.58390000  1.0 0.139793653
H  H60  1  0.58600000  0.34540000  0.08390000  1.0 0.139793653
H  H61  1  0.92420000  0.92140000  0.52810000  1.0 0.1103670559
H  H62  1  0.07580000  0.07860000  0.02810000  1.0 0.1103670559
H  H63  1  0.42420000  0.57860000  0.52810000  1.0 0.1103670559
H  H64  1  0.57580000  0.42140000  0.02810000  1.0 0.1103670559
H  H65  1  0.43980000  0.13600000  0.13910000  1.0 0.1589494459
H  H66  1  0.56020000  0.86400000  0.63910000  1.0 0.1589494459
H  H67  1  0.93980000  0.36400000  0.13910000  1.0 0.1589494459
H  H68  1  0.06020000  0.63600000  0.63910000  1.0 0.1589494459
H  H69  1  0.48080000  0.06180000  0.08590000  1.0 0.1182137434
H  H70  1  0.51920000  0.93820000  0.58590000  1.0 0.1182137434
H  H71  1  0.98080000  0.43820000  0.08590000  1.0 0.1182137434
H  H72  1  0.01920000  0.56180000  0.58590000  1.0 0.1182137434
H  H73  1  0.28700000  0.10440000  0.00820000  1.0 0.1103670559
H  H74  1  0.71300000  0.89560000  0.50820000  1.0 0.1103670559
H  H75  1  0.78700000  0.39560000  0.00820000  1.0 0.1103670559
H  H76  1  0.21300000  0.60440000  0.50820000  1.0 0.1103670559
H  H77  1  0.23770000  0.17420000  0.06160000  1.0 0.139793653
H  H78  1  0.76230000  0.82580000  0.56160000  1.0 0.139793653
H  H79  1  0.73770000  0.32580000  0.06160000  1.0 0.139793653
H  H80  1  0.26230000  0.67420000  0.56160000  1.0 0.139793653
H  H81  1  0.47500000  0.01020000  0.02090000  1.0 0.1182137434
H  H82  1  0.52500000  0.98980000  0.52090000  1.0 0.1182137434
H  H83  1  0.97500000  0.48980000  0.02090000  1.0 0.1182137434
H  H84  1  0.02500000  0.51020000  0.52090000  1.0 0.1182137434
H  H85  1  0.37790000  0.99740000  0.00550000  1.0 0.1182137434
H  H86  1  0.62210000  0.00260000  0.50550000  1.0 0.1182137434
H  H87  1  0.87790000  0.50260000  0.00550000  1.0 0.1182137434
H  H88  1  0.12210000  0.49740000  0.50550000  1.0 0.1182137434
H  H89  1  0.48590000  0.09050000  0.97110000  1.0 0.1103670559
H  H90  1  0.51410000  0.90950000  0.47110000  1.0 0.1103670559
H  H91  1  0.98590000  0.40950000  0.97110000  1.0 0.1103670559
H  H92  1  0.01410000  0.59050000  0.47110000  1.0 0.1103670559
H  H93  1  0.38690000  0.08310000  0.95750000  1.0 0.1103670559
H  H94  1  0.61310000  0.91690000  0.45750000  1.0 0.1103670559
H  H95  1  0.88690000  0.41690000  0.95750000  1.0 0.1103670559
H  H96  1  0.11310000  0.58310000  0.45750000  1.0 0.1103670559
H  H97  1  0.48180000  0.03500000  0.90170000  1.0 0.1103670559
H  H98  1  0.51820000  0.96500000  0.40170000  1.0 0.1103670559
H  H99  1  0.98180000  0.46500000  0.90170000  1.0 0.1103670559
H  H100  1  0.01820000  0.53500000  0.40170000  1.0 0.1103670559
H  H101  1  0.51600000  0.98880000  0.93930000  1.0 0.1103670559
H  H102  1  0.48400000  0.01120000  0.43930000  1.0 0.1103670559
H  H103  1  0.01600000  0.51120000  0.93930000  1.0 0.1103670559
H  H104  1  0.98400000  0.48880000  0.43930000  1.0 0.1103670559
H  H105  1  0.34490000  0.99350000  0.91290000  1.0 0.1182137434
H  H106  1  0.65510000  0.00650000  0.41290000  1.0 0.1182137434
H  H107  1  0.84490000  0.50650000  0.91290000  1.0 0.1182137434
H  H108  1  0.15510000  0.49350000  0.41290000  1.0 0.1182137434
H  H109  1  0.38890000  0.94250000  0.94390000  1.0 0.1103670559
H  H110  1  0.61110000  0.05750000  0.44390000  1.0 0.1103670559
H  H111  1  0.88890000  0.55750000  0.94390000  1.0 0.1103670559
H  H112  1  0.11110000  0.44250000  0.44390000  1.0 0.1103670559
H  H113  1  0.49650000  0.87270000  0.90700000  1.0 0.1182137434
H  H114  1  0.50350000  0.12730000  0.40700000  1.0 0.1182137434
H  H115  1  0.99650000  0.62730000  0.90700000  1.0 0.1182137434
H  H116  1  0.00350000  0.37270000  0.40700000  1.0 0.1182137434
H  H117  1  0.53040000  0.81220000  0.84550000  1.0 0.1491296651
H  H118  1  0.46960000  0.18780000  0.34550000  1.0 0.1491296651
H  H119  1  0.03040000  0.68780000  0.84550000  1.0 0.1491296651
H  H120  1  0.96960000  0.31220000  0.34550000  1.0 0.1491296651
H  H121  1  0.38860000  0.92700000  0.76760000  1.0 0.1491296651
H  H122  1  0.61140000  0.07300000  0.26760000  1.0 0.1491296651
H  H123  1  0.88860000  0.57300000  0.76760000  1.0 0.1491296651
H  H124  1  0.11140000  0.42700000  0.26760000  1.0 0.1491296651
H  H125  1  0.35310000  0.98580000  0.83190000  1.0 0.130022306
H  H126  1  0.64690000  0.01420000  0.33190000  1.0 0.130022306
H  H127  1  0.85310000  0.51420000  0.83190000  1.0 0.130022306
H  H128  1  0.14690000  0.48580000  0.33190000  1.0 0.130022306
H  H129  1  0.12990000  0.27070000  0.06690000  1.0 0.1491296651
H  H130  1  0.87010000  0.72930000  0.56690000  1.0 0.1491296651
H  H131  1  0.62990000  0.22930000  0.06690000  1.0 0.1491296651
H  H132  1  0.37010000  0.77070000  0.56690000  1.0 0.1491296651
H  H133  1  0.14160000  0.23270000  0.99300000  1.0 0.1182137434
H  H134  1  0.85840000  0.76730000  0.49300000  1.0 0.1182137434
H  H135  1  0.64160000  0.26730000  0.99300000  1.0 0.1182137434
H  H136  1  0.35840000  0.73270000  0.49300000  1.0 0.1182137434
H  H137  1  0.19570000  0.40040000  0.94580000  1.0 0.1182137434
H  H138  1  0.80430000  0.59960000  0.44580000  1.0 0.1182137434
H  H139  1  0.69570000  0.09960000  0.94580000  1.0 0.1182137434
H  H140  1  0.30430000  0.90040000  0.44580000  1.0 0.1182137434
H  H141  1  0.19400000  0.44040000  0.01910000  1.0 0.130022306
H  H142  1  0.80600000  0.55960000  0.51910000  1.0 0.130022306
H  H143  1  0.69400000  0.05960000  0.01910000  1.0 0.130022306
H  H144  1  0.30600000  0.94040000  0.51910000  1.0 0.130022306
H  H145  1  0.21850000  0.24760000  0.92060000  1.0 0.1182137434
H  H146  1  0.78150000  0.75240000  0.42060000  1.0 0.1182137434
H  H147  1  0.71850000  0.25240000  0.92060000  1.0 0.1182137434
H  H148  1  0.28150000  0.74760000  0.42060000  1.0 0.1182137434
H  H149  1  0.21410000  0.31480000  0.89880000  1.0 0.1182137434
H  H150  1  0.78590000  0.68520000  0.39880000  1.0 0.1182137434
H  H151  1  0.71410000  0.18520000  0.89880000  1.0 0.1182137434
H  H152  1  0.28590000  0.81480000  0.39880000  1.0 0.1182137434
H  H153  1  0.06170000  0.30770000  0.89240000  1.0 0.1003025041
H  H154  1  0.93830000  0.69230000  0.39240000  1.0 0.1003025041
H  H155  1  0.56170000  0.19230000  0.89240000  1.0 0.1003025041
H  H156  1  0.43830000  0.80770000  0.39240000  1.0 0.1003025041
H  H157  1  0.06170000  0.24320000  0.91820000  1.0 0.1003025041
H  H158  1  0.93830000  0.75680000  0.41820000  1.0 0.1003025041
H  H159  1  0.56170000  0.25680000  0.91820000  1.0 0.1003025041
H  H160  1  0.43830000  0.74320000  0.41820000  1.0 0.1003025041
H  H161  1  0.13370000  0.26350000  0.82990000  1.0 0.1103670559
H  H162  1  0.86630000  0.73650000  0.32990000  1.0 0.1103670559
H  H163  1  0.63370000  0.23650000  0.82990000  1.0 0.1103670559
H  H164  1  0.36630000  0.76350000  0.32990000  1.0 0.1103670559
H  H165  1  0.14590000  0.20000000  0.85600000  1.0 0.1182137434
H  H166  1  0.85410000  0.80000000  0.35600000  1.0 0.1182137434
H  H167  1  0.64590000  0.30000000  0.85600000  1.0 0.1182137434
H  H168  1  0.35410000  0.70000000  0.35600000  1.0 0.1182137434
H  H169  1  0.03510000  0.18050000  0.80780000  1.0 0.130022306
H  H170  1  0.96490000  0.81950000  0.30780000  1.0 0.130022306
H  H171  1  0.53510000  0.31950000  0.80780000  1.0 0.130022306
H  H172  1  0.46490000  0.68050000  0.30780000  1.0 0.130022306
H  H173  1  0.98790000  0.19060000  0.85490000  1.0 0.1103670559
H  H174  1  0.01210000  0.80940000  0.35490000  1.0 0.1103670559
H  H175  1  0.48790000  0.30940000  0.85490000  1.0 0.1103670559
H  H176  1  0.51210000  0.69060000  0.35490000  1.0 0.1103670559
H  H177  1  0.03720000  0.26180000  0.75400000  1.0 0.1182137434
H  H178  1  0.96280000  0.73820000  0.25400000  1.0 0.1182137434
H  H179  1  0.53720000  0.23820000  0.75400000  1.0 0.1182137434
H  H180  1  0.46280000  0.76180000  0.25400000  1.0 0.1182137434
H  H181  1  0.96360000  0.34410000  0.71940000  1.0 0.1491296651
H  H182  1  0.03640000  0.65590000  0.21940000  1.0 0.1491296651
H  H183  1  0.46360000  0.15590000  0.71940000  1.0 0.1491296651
H  H184  1  0.53640000  0.84410000  0.21940000  1.0 0.1491296651
H  H185  1  0.81550000  0.35930000  0.83350000  1.0 0.1491296651
H  H186  1  0.18450000  0.64070000  0.33350000  1.0 0.1491296651
H  H187  1  0.31550000  0.14070000  0.83350000  1.0 0.1491296651
H  H188  1  0.68450000  0.85930000  0.33350000  1.0 0.1491296651
H  H189  1  0.89320000  0.27630000  0.86350000  1.0 0.1182137434
H  H190  1  0.10680000  0.72370000  0.36350000  1.0 0.1182137434
H  H191  1  0.39320000  0.22370000  0.86350000  1.0 0.1182137434
H  H192  1  0.60680000  0.77630000  0.36350000  1.0 0.1182137434
H  H193  1  0.31040000  0.26360000  0.34520000  1.0 0.1491296651
H  H194  1  0.68960000  0.73640000  0.84520000  1.0 0.1491296651
H  H195  1  0.81040000  0.23640000  0.34520000  1.0 0.1491296651
H  H196  1  0.18960000  0.76360000  0.84520000  1.0 0.1491296651
H  H197  1  0.28890000  0.22660000  0.41740000  1.0 0.1182137434
H  H198  1  0.71110000  0.77340000  0.91740000  1.0 0.1182137434
H  H199  1  0.78890000  0.27340000  0.41740000  1.0 0.1182137434
H  H200  1  0.21110000  0.72660000  0.91740000  1.0 0.1182137434
H  H201  1  0.30580000  0.39750000  0.46570000  1.0 0.1182137434
H  H202  1  0.69420000  0.60250000  0.96570000  1.0 0.1182137434
H  H203  1  0.80580000  0.10250000  0.46570000  1.0 0.1182137434
H  H204  1  0.19420000  0.89750000  0.96570000  1.0 0.1182137434
H  H205  1  0.32860000  0.43790000  0.39470000  1.0 0.139793653
H  H206  1  0.67140000  0.56210000  0.89470000  1.0 0.139793653
H  H207  1  0.82860000  0.06210000  0.39470000  1.0 0.139793653
H  H208  1  0.17140000  0.93790000  0.89470000  1.0 0.139793653
H  H209  1  0.24590000  0.31580000  0.51390000  1.0 0.1103670559
H  H210  1  0.75410000  0.68420000  0.01390000  1.0 0.1103670559
H  H211  1  0.74590000  0.18420000  0.51390000  1.0 0.1103670559
H  H212  1  0.25410000  0.81580000  0.01390000  1.0 0.1103670559
H  H213  1  0.24480000  0.24680000  0.49500000  1.0 0.1103670559
H  H214  1  0.75520000  0.75320000  0.99500000  1.0 0.1103670559
H  H215  1  0.74480000  0.25320000  0.49500000  1.0 0.1103670559
H  H216  1  0.25520000  0.74680000  0.99500000  1.0 0.1103670559
H  H217  1  0.40000000  0.24280000  0.50190000  1.0 0.1003025041
H  H218  1  0.60000000  0.75720000  0.00190000  1.0 0.1003025041
H  H219  1  0.90000000  0.25720000  0.50190000  1.0 0.1003025041
H  H220  1  0.10000000  0.74280000  0.00190000  1.0 0.1003025041
H  H221  1  0.39940000  0.31100000  0.52230000  1.0 0.0909756704
H  H222  1  0.60060000  0.68900000  0.02230000  1.0 0.0909756704
H  H223  1  0.89940000  0.18900000  0.52230000  1.0 0.0909756704
H  H224  1  0.10060000  0.81100000  0.02230000  1.0 0.0909756704
H  H225  1  0.31950000  0.27780000  0.58480000  1.0 0.1103670559
H  H226  1  0.68050000  0.72220000  0.08480000  1.0 0.1103670559
H  H227  1  0.81950000  0.22220000  0.58480000  1.0 0.1103670559
H  H228  1  0.18050000  0.77780000  0.08480000  1.0 0.1103670559
H  H229  1  0.30870000  0.21080000  0.56360000  1.0 0.1182137434
H  H230  1  0.69130000  0.78920000  0.06360000  1.0 0.1182137434
H  H231  1  0.80870000  0.28920000  0.56360000  1.0 0.1182137434
H  H232  1  0.19130000  0.71080000  0.06360000  1.0 0.1182137434
H  H233  1  0.46410000  0.19930000  0.57040000  1.0 0.1103670559
H  H234  1  0.53590000  0.80070000  0.07040000  1.0 0.1103670559
H  H235  1  0.96410000  0.30070000  0.57040000  1.0 0.1103670559
H  H236  1  0.03590000  0.69930000  0.07040000  1.0 0.1103670559
H  H237  1  0.41230000  0.19890000  0.61670000  1.0 0.130022306
H  H238  1  0.58770000  0.80110000  0.11670000  1.0 0.130022306
H  H239  1  0.91230000  0.30110000  0.61670000  1.0 0.130022306
H  H240  1  0.08770000  0.69890000  0.11670000  1.0 0.130022306
H  H241  1  0.41930000  0.29040000  0.66520000  1.0 0.1182137434
H  H242  1  0.58070000  0.70960000  0.16520000  1.0 0.1182137434
H  H243  1  0.91930000  0.20960000  0.66520000  1.0 0.1182137434
H  H244  1  0.08070000  0.79040000  0.16520000  1.0 0.1182137434
H  H245  1  0.50430000  0.37010000  0.69330000  1.0 0.1491296651
H  H246  1  0.49570000  0.62990000  0.19330000  1.0 0.1491296651
H  H247  1  0.00430000  0.12990000  0.69330000  1.0 0.1491296651
H  H248  1  0.99570000  0.87010000  0.19330000  1.0 0.1491296651
H  H249  1  0.65060000  0.35910000  0.58020000  1.0 0.1491296651
H  H250  1  0.34940000  0.64090000  0.08020000  1.0 0.1491296651
H  H251  1  0.15060000  0.14090000  0.58020000  1.0 0.1491296651
H  H252  1  0.84940000  0.85910000  0.08020000  1.0 0.1491296651
H  H253  1  0.56440000  0.27960000  0.55370000  1.0 0.1103670559
H  H254  1  0.43560000  0.72040000  0.05370000  1.0 0.1103670559
H  H255  1  0.06440000  0.22040000  0.55370000  1.0 0.1103670559
H  H256  1  0.93560000  0.77960000  0.05370000  1.0 0.1103670559
C  C1  1  0.19440000  0.20090000  0.26550000  1.0 0.5861597024
C  C2  1  0.80560000  0.79910000  0.76550000  1.0 0.5861597024
C  C3  1  0.69440000  0.29910000  0.26550000  1.0 0.5861597024
C  C4  1  0.30560000  0.70090000  0.76550000  1.0 0.5861597024
C  C5  1  0.16960000  0.14820000  0.29810000  1.0 0.0309038626
C  C6  1  0.83040000  0.85180000  0.79810000  1.0 0.0309038626
C  C7  1  0.66960000  0.35180000  0.29810000  1.0 0.0309038626
C  C8  1  0.33040000  0.64820000  0.79810000  1.0 0.0309038626
C  C9  1  0.23490000  0.12140000  0.32470000  1.0 -0.1609763823
C  C10  1  0.76510000  0.87860000  0.82470000  1.0 -0.1609763823
C  C11  1  0.73490000  0.37860000  0.32470000  1.0 -0.1609763823
C  C12  1  0.26510000  0.62140000  0.82470000  1.0 -0.1609763823
C  C13  1  0.21190000  0.07210000  0.35240000  1.0 0.0557584194
C  C14  1  0.78810000  0.92790000  0.85240000  1.0 0.0557584194
C  C15  1  0.71190000  0.42790000  0.35240000  1.0 0.0557584194
C  C16  1  0.28810000  0.57210000  0.85240000  1.0 0.0557584194
C  C17  1  0.06630000  0.07630000  0.32870000  1.0 -0.0088110114
C  C18  1  0.93370000  0.92370000  0.82870000  1.0 -0.0088110114
C  C19  1  0.56630000  0.42370000  0.32870000  1.0 -0.0088110114
C  C20  1  0.43370000  0.57630000  0.82870000  1.0 -0.0088110114
C  C21  1  0.08630000  0.12420000  0.30050000  1.0 -0.1204673929
C  C22  1  0.91370000  0.87580000  0.80050000  1.0 -0.1204673929
C  C23  1  0.58630000  0.37580000  0.30050000  1.0 -0.1204673929
C  C24  1  0.41370000  0.62420000  0.80050000  1.0 -0.1204673929
C  C25  1  0.10990000  0.99820000  0.38730000  1.0 -0.1301761415
C  C26  1  0.89010000  0.00180000  0.88730000  1.0 -0.1301761415
C  C27  1  0.60990000  0.50180000  0.38730000  1.0 -0.1301761415
C  C28  1  0.39010000  0.49820000  0.88730000  1.0 -0.1301761415
C  C29  1  0.07890000  0.02490000  0.43020000  1.0 -0.1609763823
C  C30  1  0.92110000  0.97510000  0.93020000  1.0 -0.1609763823
C  C31  1  0.57890000  0.47510000  0.43020000  1.0 -0.1609763823
C  C32  1  0.42110000  0.52490000  0.93020000  1.0 -0.1609763823
C  C33  1  0.07380000  0.97320000  0.46760000  1.0 -0.1751671918
C  C34  1  0.92620000  0.02680000  0.96760000  1.0 -0.1751671918
C  C35  1  0.57380000  0.52680000  0.46760000  1.0 -0.1751671918
C  C36  1  0.42620000  0.47320000  0.96760000  1.0 -0.1751671918
C  C37  1  0.03650000  0.00450000  0.51080000  1.0 -0.1389674542
C  C38  1  0.96350000  0.99550000  0.01080000  1.0 -0.1389674542
C  C39  1  0.53650000  0.49550000  0.51080000  1.0 -0.1389674542
C  C40  1  0.46350000  0.50450000  0.01080000  1.0 -0.1389674542
C  C41  1  0.09940000  0.95230000  0.57950000  1.0 0.0202469293
C  C42  1  0.90060000  0.04770000  0.07950000  1.0 0.0202469293
C  C43  1  0.59940000  0.54770000  0.57950000  1.0 0.0202469293
C  C44  1  0.40060000  0.45230000  0.07950000  1.0 0.0202469293
C  C45  1  0.09360000  0.91000000  0.61400000  1.0 -0.1301761415
C  C46  1  0.90640000  0.09000000  0.11400000  1.0 -0.1301761415
C  C47  1  0.59360000  0.59000000  0.61400000  1.0 -0.1301761415
C  C48  1  0.40640000  0.41000000  0.11400000  1.0 -0.1301761415
C  C49  1  0.02590000  0.86960000  0.61630000  1.0 0.0391738823
C  C50  1  0.97410000  0.13040000  0.11630000  1.0 0.0391738823
C  C51  1  0.52590000  0.63040000  0.61630000  1.0 0.0391738823
C  C52  1  0.47410000  0.36960000  0.11630000  1.0 0.0391738823
C  C53  1  0.96110000  0.87310000  0.58350000  1.0 -0.1699037343
C  C54  1  0.03890000  0.12690000  0.08350000  1.0 -0.1699037343
C  C55  1  0.46110000  0.62690000  0.58350000  1.0 -0.1699037343
C  C56  1  0.53890000  0.37310000  0.08350000  1.0 -0.1699037343
C  C57  1  0.96770000  0.91840000  0.55020000  1.0 0.0670777969
C  C58  1  0.03230000  0.08160000  0.05020000  1.0 0.0670777969
C  C59  1  0.46770000  0.58160000  0.55020000  1.0 0.0670777969
C  C60  1  0.53230000  0.41840000  0.05020000  1.0 0.0670777969
C  C61  1  0.01770000  0.82060000  0.65440000  1.0 0.5801110379
C  C62  1  0.98230000  0.17940000  0.15440000  1.0 0.5801110379
C  C63  1  0.51770000  0.67940000  0.65440000  1.0 0.5801110379
C  C64  1  0.48230000  0.32060000  0.15440000  1.0 0.5801110379
C  C65  1  0.29360000  0.20250000  0.14470000  1.0 0.5956888162
C  C66  1  0.70640000  0.79750000  0.64470000  1.0 0.5956888162
C  C67  1  0.79360000  0.29750000  0.14470000  1.0 0.5956888162
C  C68  1  0.20640000  0.70250000  0.64470000  1.0 0.5956888162
C  C69  1  0.32820000  0.15880000  0.10720000  1.0 0.0309038626
C  C70  1  0.67180000  0.84120000  0.60720000  1.0 0.0309038626
C  C71  1  0.82820000  0.34120000  0.10720000  1.0 0.0309038626
C  C72  1  0.17180000  0.65880000  0.60720000  1.0 0.0309038626
C  C73  1  0.40530000  0.12840000  0.11350000  1.0 -0.1389674542
C  C74  1  0.59470000  0.87160000  0.61350000  1.0 -0.1389674542
C  C75  1  0.90530000  0.37160000  0.11350000  1.0 -0.1389674542
C  C76  1  0.09470000  0.62840000  0.61350000  1.0 -0.1389674542
C  C77  1  0.43100000  0.08590000  0.08050000  1.0 0.0486727396
C  C78  1  0.56900000  0.91410000  0.58050000  1.0 0.0486727396
C  C79  1  0.93100000  0.41410000  0.08050000  1.0 0.0486727396
C  C80  1  0.06900000  0.58590000  0.58050000  1.0 0.0486727396
C  C81  1  0.31750000  0.10980000  0.03540000  1.0 -0.0088110114
C  C82  1  0.68250000  0.89020000  0.53540000  1.0 -0.0088110114
C  C83  1  0.81750000  0.39020000  0.03540000  1.0 -0.0088110114
C  C84  1  0.18250000  0.60980000  0.53540000  1.0 -0.0088110114
C  C85  1  0.28790000  0.15090000  0.06770000  1.0 -0.1609763823
C  C86  1  0.71210000  0.84910000  0.56770000  1.0 -0.1609763823
C  C87  1  0.78790000  0.34910000  0.06770000  1.0 -0.1609763823
C  C88  1  0.21210000  0.65090000  0.56770000  1.0 -0.1609763823
C  C89  1  0.42190000  0.02980000  0.00960000  1.0 -0.1301761415
C  C90  1  0.57810000  0.97020000  0.50960000  1.0 -0.1301761415
C  C91  1  0.92190000  0.47020000  0.00960000  1.0 -0.1301761415
C  C92  1  0.07810000  0.52980000  0.50960000  1.0 -0.1301761415
C  C93  1  0.43890000  0.06040000  0.96700000  1.0 -0.1609763823
C  C94  1  0.56110000  0.93960000  0.46700000  1.0 -0.1609763823
C  C95  1  0.93890000  0.43960000  0.96700000  1.0 -0.1609763823
C  C96  1  0.06110000  0.56040000  0.46700000  1.0 -0.1609763823
C  C97  1  0.46520000  0.01220000  0.92910000  1.0 -0.1486454103
C  C98  1  0.53480000  0.98780000  0.42910000  1.0 -0.1486454103
C  C99  1  0.96520000  0.48780000  0.92910000  1.0 -0.1486454103
C  C100  1  0.03480000  0.51220000  0.42910000  1.0 -0.1486454103
C  C101  1  0.39860000  0.97050000  0.91830000  1.0 -0.1486454103
C  C102  1  0.60140000  0.02950000  0.41830000  1.0 -0.1486454103
C  C103  1  0.89860000  0.52950000  0.91830000  1.0 -0.1486454103
C  C104  1  0.10140000  0.47050000  0.41830000  1.0 -0.1486454103
C  C105  1  0.47320000  0.88310000  0.87860000  1.0 0.0391738823
C  C106  1  0.52680000  0.11690000  0.37860000  1.0 0.0391738823
C  C107  1  0.97320000  0.61690000  0.87860000  1.0 0.0391738823
C  C108  1  0.02680000  0.38310000  0.37860000  1.0 0.0391738823
C  C109  1  0.49470000  0.84720000  0.84180000  1.0 -0.1699037343
C  C110  1  0.50530000  0.15280000  0.34180000  1.0 -0.1699037343
C  C111  1  0.99470000  0.65280000  0.84180000  1.0 -0.1699037343
C  C112  1  0.00530000  0.34720000  0.34180000  1.0 -0.1699037343
C  C113  1  0.46340000  0.86290000  0.79920000  1.0 0.0309038626
C  C114  1  0.53660000  0.13710000  0.29920000  1.0 0.0309038626
C  C115  1  0.96340000  0.63710000  0.79920000  1.0 0.0309038626
C  C116  1  0.03660000  0.36290000  0.29920000  1.0 0.0309038626
C  C117  1  0.41030000  0.91520000  0.79600000  1.0 -0.1301761415
C  C118  1  0.58970000  0.08480000  0.29600000  1.0 -0.1301761415
C  C119  1  0.91030000  0.58480000  0.79600000  1.0 -0.1389674542
C  C120  1  0.08970000  0.41520000  0.29600000  1.0 -0.1301761415
C  C121  1  0.38860000  0.95050000  0.83430000  1.0 0.0309038626
C  C122  1  0.61140000  0.04950000  0.33430000  1.0 0.0309038626
C  C123  1  0.88860000  0.54950000  0.83430000  1.0 0.0309038626
C  C124  1  0.11140000  0.45050000  0.33430000  1.0 0.0309038626
C  C125  1  0.48820000  0.82450000  0.75800000  1.0 0.5801110379
C  C126  1  0.51180000  0.17550000  0.25800000  1.0 0.5801110379
C  C127  1  0.98820000  0.67550000  0.75800000  1.0 0.5801110379
C  C128  1  0.01180000  0.32450000  0.25800000  1.0 0.5801110379
C  C129  1  0.15690000  0.38580000  0.09960000  1.0 0.5494334064
C  C130  1  0.84310000  0.61420000  0.59960000  1.0 0.5494334064
C  C131  1  0.65690000  0.11420000  0.09960000  1.0 0.5494334064
C  C132  1  0.34310000  0.88580000  0.59960000  1.0 0.5494334064
C  C133  1  0.15970000  0.35970000  0.05090000  1.0 0.0309038626
C  C134  1  0.84030000  0.64030000  0.55090000  1.0 0.0309038626
C  C135  1  0.65970000  0.14030000  0.05090000  1.0 0.0309038626
C  C136  1  0.34030000  0.85970000  0.55090000  1.0 0.0309038626
C  C137  1  0.14460000  0.29740000  0.04300000  1.0 -0.1486454103
C  C138  1  0.85540000  0.70260000  0.54300000  1.0 -0.1486454103
C  C139  1  0.64460000  0.20260000  0.04300000  1.0 -0.1486454103
C  C140  1  0.35540000  0.79740000  0.54300000  1.0 -0.1486454103
C  C141  1  0.15170000  0.27500000  0.99870000  1.0 0.0391738823
C  C142  1  0.84830000  0.72500000  0.49870000  1.0 0.0391738823
C  C143  1  0.65170000  0.22500000  0.99870000  1.0 0.0391738823
C  C144  1  0.34830000  0.77500000  0.49870000  1.0 0.0391738823
C  C145  1  0.18500000  0.37410000  0.97050000  1.0 0.0309038626
C  C146  1  0.81500000  0.62590000  0.47050000  1.0 0.0309038626
C  C147  1  0.68500000  0.12590000  0.97050000  1.0 0.0309038626
C  C148  1  0.31500000  0.87410000  0.47050000  1.0 0.0309038626
C  C149  1  0.18160000  0.39820000  0.01420000  1.0 -0.1609763823
C  C150  1  0.81840000  0.60180000  0.51420000  1.0 -0.1609763823
C  C151  1  0.68160000  0.10180000  0.01420000  1.0 -0.1609763823
C  C152  1  0.31840000  0.89820000  0.51420000  1.0 -0.1609763823
C  C153  1  0.18340000  0.28540000  0.91840000  1.0 -0.1301761415
C  C154  1  0.81660000  0.71460000  0.41840000  1.0 -0.1301761415
C  C155  1  0.68340000  0.21460000  0.91840000  1.0 -0.1301761415
C  C156  1  0.31660000  0.78540000  0.41840000  1.0 -0.1301761415
C  C157  1  0.09470000  0.26950000  0.89730000  1.0 -0.1889924984
C  C158  1  0.90530000  0.73050000  0.39730000  1.0 -0.1889924984
C  C159  1  0.59470000  0.23050000  0.89730000  1.0 -0.1889924984
C  C160  1  0.40530000  0.76950000  0.39730000  1.0 -0.1889924984
C  C161  1  0.10640000  0.23510000  0.85150000  1.0 -0.1699037343
C  C162  1  0.89360000  0.76490000  0.35150000  1.0 -0.1699037343
C  C163  1  0.60640000  0.26490000  0.85150000  1.0 -0.1699037343
C  C164  1  0.39360000  0.73510000  0.35150000  1.0 -0.1699037343
C  C165  1  0.02220000  0.21110000  0.83130000  1.0 -0.1301761415
C  C166  1  0.97780000  0.78890000  0.33130000  1.0 -0.1301761415
C  C167  1  0.52220000  0.28890000  0.83130000  1.0 -0.1301761415
C  C168  1  0.47780000  0.71110000  0.33130000  1.0 -0.1301761415
C  C169  1  0.99220000  0.28210000  0.76950000  1.0 0.0486727396
C  C170  1  0.00780000  0.71790000  0.26950000  1.0 0.0486727396
C  C171  1  0.49220000  0.21790000  0.76950000  1.0 0.0486727396
C  C172  1  0.50780000  0.78210000  0.26950000  1.0 0.0486727396
C  C173  1  0.94850000  0.33130000  0.74870000  1.0 -0.1486454103
C  C174  1  0.05150000  0.66870000  0.24870000  1.0 -0.1486454103
C  C175  1  0.44850000  0.16870000  0.74870000  1.0 -0.1486454103
C  C176  1  0.55150000  0.83130000  0.24870000  1.0 -0.1486454103
C  C177  1  0.88170000  0.36140000  0.77240000  1.0 0.0486727396
C  C178  1  0.11830000  0.63860000  0.27240000  1.0 0.0486727396
C  C179  1  0.38170000  0.13860000  0.77240000  1.0 0.0486727396
C  C180  1  0.61830000  0.86140000  0.27240000  1.0 0.0486727396
C  C181  1  0.86000000  0.34030000  0.81680000  1.0 -0.1486454103
C  C182  1  0.14000000  0.65970000  0.31680000  1.0 -0.1486454103
C  C183  1  0.36000000  0.15970000  0.81680000  1.0 -0.1486454103
C  C184  1  0.64000000  0.84030000  0.31680000  1.0 -0.1486454103
C  C185  1  0.90680000  0.29100000  0.83440000  1.0 0.0202469293
C  C186  1  0.09320000  0.70900000  0.33440000  1.0 0.0202469293
C  C187  1  0.40680000  0.20900000  0.83440000  1.0 0.0202469293
C  C188  1  0.59320000  0.79100000  0.33440000  1.0 0.0202469293
C  C189  1  0.83290000  0.41550000  0.75020000  1.0 0.5691131465
C  C190  1  0.16710000  0.58450000  0.25020000  1.0 0.5691131465
C  C191  1  0.33290000  0.08450000  0.75020000  1.0 0.5691131465
C  C192  1  0.66710000  0.91550000  0.25020000  1.0 0.5691131465
C  C193  1  0.33620000  0.37940000  0.31430000  1.0 0.5494334064
C  C194  1  0.66380000  0.62060000  0.81430000  1.0 0.5558670126
C  C195  1  0.83620000  0.12060000  0.31430000  1.0 0.5494334064
C  C196  1  0.16380000  0.87940000  0.81430000  1.0 0.5558670126
C  C197  1  0.32180000  0.35370000  0.36160000  1.0 0.0309038626
C  C198  1  0.67820000  0.64630000  0.86160000  1.0 0.0309038626
C  C199  1  0.82180000  0.14630000  0.36160000  1.0 0.0309038626
C  C200  1  0.17820000  0.85370000  0.86160000  1.0 0.0309038626
C  C201  1  0.30970000  0.29150000  0.36960000  1.0 -0.1389674542
C  C202  1  0.69030000  0.70850000  0.86960000  1.0 -0.1389674542
C  C203  1  0.80970000  0.20850000  0.36960000  1.0 -0.1389674542
C  C204  1  0.19030000  0.79150000  0.86960000  1.0 -0.1389674542
C  C205  1  0.29660000  0.26930000  0.41250000  1.0 0.0391738823
C  C206  1  0.70340000  0.73070000  0.91250000  1.0 0.0391738823
C  C207  1  0.79660000  0.23070000  0.41250000  1.0 0.0391738823
C  C208  1  0.20340000  0.76930000  0.91250000  1.0 0.0391738823
C  C209  1  0.30680000  0.37050000  0.44080000  1.0 0.0202469293
C  C210  1  0.69320000  0.62950000  0.94080000  1.0 0.0309038626
C  C211  1  0.80680000  0.12950000  0.44080000  1.0 0.0202469293
C  C212  1  0.19320000  0.87050000  0.94080000  1.0 0.0309038626
C  C213  1  0.32040000  0.39500000  0.39880000  1.0 -0.1699037343
C  C214  1  0.67960000  0.60500000  0.89880000  1.0 -0.1699037343
C  C215  1  0.82040000  0.10500000  0.39880000  1.0 -0.1699037343
C  C216  1  0.17960000  0.89500000  0.89880000  1.0 -0.1699037343
C  C217  1  0.27880000  0.28520000  0.49640000  1.0 -0.1301761415
C  C218  1  0.72120000  0.71480000  0.99640000  1.0 -0.1301761415
C  C219  1  0.77880000  0.21480000  0.49640000  1.0 -0.1301761415
C  C220  1  0.22120000  0.78520000  0.99640000  1.0 -0.1301761415
C  C221  1  0.36610000  0.27240000  0.51980000  1.0 -0.1889924984
C  C222  1  0.63390000  0.72760000  0.01980000  1.0 -0.1889924984
C  C223  1  0.86610000  0.22760000  0.51980000  1.0 -0.1889924984
C  C224  1  0.13390000  0.77240000  0.01980000  1.0 -0.1889924984
C  C225  1  0.34850000  0.24610000  0.56650000  1.0 -0.1699037343
C  C226  1  0.65150000  0.75390000  0.06650000  1.0 -0.1699037343
C  C227  1  0.84850000  0.25390000  0.56650000  1.0 -0.1699037343
C  C228  1  0.15150000  0.74610000  0.06650000  1.0 -0.1699037343
C  C229  1  0.42930000  0.22490000  0.59100000  1.0 -0.1204673929
C  C230  1  0.57070000  0.77510000  0.09100000  1.0 -0.1204673929
C  C231  1  0.92930000  0.27510000  0.59100000  1.0 -0.1204673929
C  C232  1  0.07070000  0.72490000  0.09100000  1.0 -0.1204673929
C  C233  1  0.46710000  0.30450000  0.64840000  1.0 0.0486727396
C  C234  1  0.53290000  0.69550000  0.14840000  1.0 0.0486727396
C  C235  1  0.96710000  0.19550000  0.64840000  1.0 0.0486727396
C  C236  1  0.03290000  0.80450000  0.14840000  1.0 0.0486727396
C  C237  1  0.51760000  0.35150000  0.66540000  1.0 -0.1389674542
C  C238  1  0.48240000  0.64850000  0.16540000  1.0 -0.1389674542
C  C239  1  0.01760000  0.14850000  0.66540000  1.0 -0.1389674542
C  C240  1  0.98240000  0.85150000  0.16540000  1.0 -0.1389674542
C  C241  1  0.59020000  0.37120000  0.63980000  1.0 0.0391738823
C  C242  1  0.40980000  0.62880000  0.13980000  1.0 0.0391738823
C  C243  1  0.09020000  0.12880000  0.63980000  1.0 0.0391738823
C  C244  1  0.90980000  0.87120000  0.13980000  1.0 0.0391738823
C  C245  1  0.60450000  0.34470000  0.59800000  1.0 -0.1486454103
C  C246  1  0.39550000  0.65530000  0.09800000  1.0 -0.1486454103
C  C247  1  0.10450000  0.15530000  0.59800000  1.0 -0.1486454103
C  C248  1  0.89550000  0.84470000  0.09800000  1.0 -0.1486454103
C  C249  1  0.55320000  0.29790000  0.58190000  1.0 -0.0088110114
C  C250  1  0.44680000  0.70210000  0.08190000  1.0 -0.003739937
C  C251  1  0.05320000  0.20210000  0.58190000  1.0 -0.0088110114
C  C252  1  0.94680000  0.79790000  0.08190000  1.0 -0.003739937
C  C253  1  0.65140000  0.42040000  0.66020000  1.0 0.5691131465
C  C254  1  0.34860000  0.57960000  0.16020000  1.0 0.5691131465
C  C255  1  0.15140000  0.07960000  0.66020000  1.0 0.5691131465
C  C256  1  0.84860000  0.92040000  0.16020000  1.0 0.5691131465
N  N1  1  0.24590000  0.33460000  0.20560000  1.0 -0.4688151479
N  N2  1  0.75410000  0.66540000  0.70560000  1.0 -0.4688151479
N  N3  1  0.74590000  0.16540000  0.20560000  1.0 -0.4688151479
N  N4  1  0.25410000  0.83460000  0.70560000  1.0 -0.4688151479
N  N5  1  0.24700000  0.38934000  0.20620000  1.0 0.4629368819
N  N6  1  0.75300000  0.61066000  0.70620000  1.0 0.4629368819
N  N7  1  0.74700000  0.11066000  0.20620000  1.0 0.4629368819
N  N8  1  0.25300000  0.88934000  0.70620000  1.0 0.4629368819
N  N9  1  0.24810000  0.44460000  0.20720000  1.0 -0.508945886
N  N10  1  0.75190000  0.55540000  0.70720000  1.0 -0.508945886
N  N11  1  0.74810000  0.05540000  0.20720000  1.0 -0.508945886
N  N12  1  0.25190000  0.94460000  0.70720000  1.0 -0.508945886
N  N13  1  0.13150000  0.05060000  0.35510000  1.0 0.0909756704
N  N14  1  0.86850000  0.94940000  0.85510000  1.0 0.0909756704
N  N15  1  0.63150000  0.44940000  0.35510000  1.0 0.0909756704
N  N16  1  0.36850000  0.55060000  0.85510000  1.0 0.0909756704
N  N17  1  0.03300000  0.95680000  0.54910000  1.0 0.1003025041
N  N18  1  0.96700000  0.04320000  0.04910000  1.0 0.1003025041
N  N19  1  0.53300000  0.54320000  0.54910000  1.0 0.1003025041
N  N20  1  0.46700000  0.45680000  0.04910000  1.0 0.1003025041
N  N21  1  0.38980000  0.07800000  0.04340000  1.0 0.0909756704
N  N22  1  0.61020000  0.92200000  0.54340000  1.0 0.0909756704
N  N23  1  0.88980000  0.42200000  0.04340000  1.0 0.0909756704
N  N24  1  0.11020000  0.57800000  0.54340000  1.0 0.0909756704
N  N25  1  0.42110000  0.93170000  0.87570000  1.0 0.1003025041
N  N26  1  0.57890000  0.06830000  0.37570000  1.0 0.1003025041
N  N27  1  0.92110000  0.56830000  0.87570000  1.0 0.1003025041
N  N28  1  0.07890000  0.43170000  0.37570000  1.0 0.1003025041
N  N29  1  0.17270000  0.31290000  0.96390000  1.0 0.0780790783
N  N30  1  0.82730000  0.68710000  0.46390000  1.0 0.0780790783
N  N31  1  0.67270000  0.18710000  0.96390000  1.0 0.0780790783
N  N32  1  0.32730000  0.81290000  0.46390000  1.0 0.0780790783
N  N33  1  0.97050000  0.26370000  0.81120000  1.0 0.0909756704
N  N34  1  0.02950000  0.73630000  0.31120000  1.0 0.0909756704
N  N35  1  0.47050000  0.23630000  0.81120000  1.0 0.0909756704
N  N36  1  0.52950000  0.76370000  0.31120000  1.0 0.0909756704
N  N37  1  0.29470000  0.30990000  0.44810000  1.0 0.0909756704
N  N38  1  0.70530000  0.69010000  0.94810000  1.0 0.0909756704
N  N39  1  0.79470000  0.19010000  0.44810000  1.0 0.0909756704
N  N40  1  0.20530000  0.80990000  0.94810000  1.0 0.0909756704
N  N41  1  0.48470000  0.27820000  0.60810000  1.0 0.0909756704
N  N42  1  0.51530000  0.72180000  0.10810000  1.0 0.0909756704
N  N43  1  0.98470000  0.22180000  0.60810000  1.0 0.0909756704
N  N44  1  0.01530000  0.77820000  0.10810000  1.0 0.0909756704
Cl  Cl1  1  0.69150000  0.55473000  0.08202000  1.0 1.0283010565
Cl  Cl2  1  0.30850000  0.44527000  0.58202000  1.0 1.0283010565
Cl  Cl3  1  0.19150000  0.94527000  0.08202000  1.0 1.0283010565
Cl  Cl4  1  0.80850000  0.05473000  0.58202000  1.0 1.0283010565
Cl  Cl5  1  0.88080000  0.55704000  0.33143000  1.0 1.2027448776
Cl  Cl6  1  0.11920000  0.44296000  0.83143000  1.0 1.2027448776
Cl  Cl7  1  0.38080000  0.94296000  0.33143000  1.0 1.2027448776
Cl  Cl8  1  0.61920000  0.05704000  0.83143000  1.0 1.2027448776
Cl  Cl9  1  0.09448000  0.77500000  0.48317000  1.0 1.1669213735
Cl  Cl10  1  0.90552000  0.22500000  0.98317000  1.0 1.1669213735
Cl  Cl11  1  0.59448000  0.72500000  0.48317000  1.0 1.1669213735
Cl  Cl12  1  0.40552000  0.27500000  0.98317000  1.0 1.1669213735
Cl  Cl13  1  0.77948000  0.74232000  0.20308000  1.0 1.2484333478
Cl  Cl14  1  0.22052000  0.25768000  0.70308000  1.0 1.2484333478
Cl  Cl15  1  0.27948000  0.75768000  0.20308000  1.0 1.2484333478
Cl  Cl16  1  0.72052000  0.24232000  0.70308000  1.0 1.2484333478
Cl  Cl17  1  0.43748000  0.71251000  0.93705000  1.0 1.1623173319
Cl  Cl18  1  0.56252000  0.28749000  0.43705000  1.0 1.1623173319
Cl  Cl19  1  0.93748000  0.78749000  0.93705000  1.0 1.1623173319
Cl  Cl20  1  0.06252000  0.21251000  0.43705000  1.0 1.1623173319
Cl  Cl21  1  0.17888000  0.58234000  0.98662000  1.0 1.2027448776
Cl  Cl22  1  0.82112000  0.41766000  0.48662000  1.0 1.2027448776
Cl  Cl23  1  0.67888000  0.91766000  0.98662000  1.0 1.2027448776
Cl  Cl24  1  0.32112000  0.08234000  0.48662000  1.0 1.2027448776
Cl  Cl25  1  0.17070000  0.08092000  0.92484000  1.0 1.2027448776
Cl  Cl26  1  0.82930000  0.91908000  0.42484000  1.0 1.2027448776
Cl  Cl27  1  0.67070000  0.41908000  0.92484000  1.0 1.2027448776
Cl  Cl28  1  0.32930000  0.58092000  0.42484000  1.0 1.2027448776
O  O1  1  0.14070000  0.21230000  0.23410000  1.0 -0.5507511832
O  O2  1  0.85930000  0.78770000  0.73410000  1.0 -0.5507511832
O  O3  1  0.64070000  0.28770000  0.23410000  1.0 -0.5507511832
O  O4  1  0.35930000  0.71230000  0.73410000  1.0 -0.5507511832
O  O5  1  0.26540000  0.22610000  0.27261000  1.0 -0.5507511832
O  O6  1  0.73460000  0.77390000  0.77261000  1.0 -0.5507511832
O  O7  1  0.76540000  0.27390000  0.27261000  1.0 -0.5507511832
O  O8  1  0.23460000  0.72610000  0.77261000  1.0 -0.5507511832
O  O9  1  0.05930000  0.83230000  0.69062000  1.0 -0.508945886
O  O10  1  0.94070000  0.16770000  0.19062000  1.0 -0.508945886
O  O11  1  0.55930000  0.66770000  0.69062000  1.0 -0.508945886
O  O12  1  0.44070000  0.33230000  0.19062000  1.0 -0.508945886
O  O13  1  0.97100000  0.77540000  0.64630000  1.0 -0.5212669012
O  O14  1  0.02900000  0.22460000  0.14630000  1.0 -0.5212669012
O  O15  1  0.47100000  0.72460000  0.64630000  1.0 -0.5212669012
O  O16  1  0.52900000  0.27540000  0.14630000  1.0 -0.5212669012
O  O17  1  0.21930000  0.22650000  0.13676000  1.0 -0.5655225851
O  O18  1  0.78070000  0.77350000  0.63676000  1.0 -0.5655225851
O  O19  1  0.71930000  0.27350000  0.13676000  1.0 -0.5655225851
O  O20  1  0.28070000  0.72650000  0.63676000  1.0 -0.5655225851
O  O21  1  0.33950000  0.20990000  0.17780000  1.0 -0.4996041643
O  O22  1  0.66050000  0.79010000  0.67780000  1.0 -0.4996041643
O  O23  1  0.83950000  0.29010000  0.17780000  1.0 -0.4996041643
O  O24  1  0.16050000  0.70990000  0.67780000  1.0 -0.4996041643
O  O25  1  0.54260000  0.78120000  0.76495000  1.0 -0.5507511832
O  O26  1  0.45740000  0.21880000  0.26495000  1.0 -0.5507511832
O  O27  1  0.04260000  0.71880000  0.76495000  1.0 -0.5507511832
O  O28  1  0.95740000  0.28120000  0.26495000  1.0 -0.5507511832
O  O29  1  0.45140000  0.83890000  0.72145000  1.0 -0.4996041643
O  O30  1  0.54860000  0.16110000  0.22145000  1.0 -0.4996041643
O  O31  1  0.95140000  0.66110000  0.72145000  1.0 -0.4996041643
O  O32  1  0.04860000  0.33890000  0.22145000  1.0 -0.4996041643
O  O33  1  0.18440000  0.43990000  0.10388000  1.0 -0.5212669012
O  O34  1  0.81560000  0.56010000  0.60388000  1.0 -0.5212669012
O  O35  1  0.68440000  0.06010000  0.10388000  1.0 -0.5212669012
O  O36  1  0.31560000  0.93990000  0.60388000  1.0 -0.5212669012
O  O37  1  0.12150000  0.35230000  0.12956000  1.0 -0.5212669012
O  O38  1  0.87850000  0.64770000  0.62956000  1.0 -0.5212669012
O  O39  1  0.62150000  0.14770000  0.12956000  1.0 -0.5212669012
O  O40  1  0.37850000  0.85230000  0.62956000  1.0 -0.5212669012
O  O41  1  0.85320000  0.42670000  0.70940000  1.0 -0.534367267
O  O42  1  0.14680000  0.57330000  0.20940000  1.0 -0.534367267
O  O43  1  0.35320000  0.07330000  0.70940000  1.0 -0.534367267
O  O44  1  0.64680000  0.92670000  0.20940000  1.0 -0.534367267
O  O45  1  0.77960000  0.44440000  0.77540000  1.0 -0.5507511832
O  O46  1  0.22040000  0.55560000  0.27540000  1.0 -0.5507511832
O  O47  1  0.27960000  0.05560000  0.77540000  1.0 -0.5507511832
O  O48  1  0.72040000  0.94440000  0.27540000  1.0 -0.5507511832
O  O49  1  0.36930000  0.34440000  0.28562000  1.0 -0.4996041643
O  O50  1  0.63070000  0.65560000  0.78562000  1.0 -0.4996041643
O  O51  1  0.86930000  0.15560000  0.28562000  1.0 -0.4996041643
O  O52  1  0.13070000  0.84440000  0.78562000  1.0 -0.4996041643
O  O53  1  0.31290000  0.43560000  0.30780000  1.0 -0.5381704457
O  O54  1  0.68710000  0.56440000  0.80780000  1.0 -0.5381704457
O  O55  1  0.81290000  0.06440000  0.30780000  1.0 -0.5381704457
O  O56  1  0.18710000  0.93560000  0.80780000  1.0 -0.5381704457
O  O57  1  0.71060000  0.44190000  0.63509000  1.0 -0.5507511832
O  O58  1  0.28940000  0.55810000  0.13509000  1.0 -0.5507511832
O  O59  1  0.21060000  0.05810000  0.63509000  1.0 -0.5507511832
O  O60  1  0.78940000  0.94190000  0.13509000  1.0 -0.5507511832
O  O61  1  0.63700000  0.43450000  0.70140000  1.0 -0.5381704457
O  O62  1  0.36300000  0.56550000  0.20140000  1.0 -0.5381704457
O  O63  1  0.13700000  0.06550000  0.70140000  1.0 -0.5381704457
O  O64  1  0.86300000  0.93450000  0.20140000  1.0 -0.5381704457
O  O65  1  0.05030000  0.46120000  0.17900000  1.0 -0.1389674542
O  O66  1  0.94970000  0.53880000  0.67900000  1.0 -0.1301761415
O  O67  1  0.55030000  0.03880000  0.17900000  1.0 -0.1389674542
O  O68  1  0.44970000  0.96120000  0.67900000  1.0 -0.1301761415
O  O69  1  0.09230000  0.56430000  0.10960000  1.0 -0.2495091483
O  O70  1  0.90770000  0.43570000  0.60960000  1.0 -0.2495091483
O  O71  1  0.59230000  0.93570000  0.10960000  1.0 -0.2495091483
O  O72  1  0.40770000  0.06430000  0.60960000  1.0 -0.2495091483
O  O73  1  0.45240000  0.45230000  0.23080000  1.0 -0.1204673929
O  O74  1  0.54760000  0.54770000  0.73080000  1.0 -0.1204673929
O  O75  1  0.95240000  0.04770000  0.23080000  1.0 -0.1149808355
O  O76  1  0.04760000  0.95230000  0.73080000  1.0 -0.1204673929
O  O77  1  0.41640000  0.55510000  0.30160000  1.0 -0.3301414028
O  O78  1  0.58360000  0.44490000  0.80160000  1.0 -0.3301414028
O  O79  1  0.91640000  0.94490000  0.30160000  1.0 -0.3301414028
O  O80  1  0.08360000  0.05510000  0.80160000  1.0 -0.3301414028
O  O81  1  0.76280000  0.59550000  0.07120000  1.0 -0.3916299418
O  O82  1  0.73770000  0.50380000  0.09600000  1.0 -0.4105280973
O  O83  1  0.63900000  0.57580000  0.10630000  1.0 -0.2828980871
O  O84  1  0.67530000  0.55410000  0.04190000  1.0 -0.2721758969
O  O85  1  0.23720000  0.40450000  0.57120000  1.0 -0.3916299418
O  O86  1  0.26230000  0.49620000  0.59600000  1.0 -0.4105280973
O  O87  1  0.36100000  0.42420000  0.60630000  1.0 -0.2828980871
O  O88  1  0.32470000  0.44590000  0.54190000  1.0 -0.2721758969
O  O89  1  0.26280000  0.90450000  0.07120000  1.0 -0.3916299418
O  O90  1  0.23770000  0.99620000  0.09600000  1.0 -0.4105280973
O  O91  1  0.13900000  0.92420000  0.10630000  1.0 -0.2828980871
O  O92  1  0.17530000  0.94590000  0.04190000  1.0 -0.2721758969
O  O93  1  0.73720000  0.09550000  0.57120000  1.0 -0.3916299418
O  O94  1  0.76230000  0.00380000  0.59600000  1.0 -0.4105280973
O  O95  1  0.86100000  0.07580000  0.60630000  1.0 -0.2828980871
O  O96  1  0.82470000  0.05410000  0.54190000  1.0 -0.2721758969
O  O97  1  0.94780000  0.58940000  0.33170000  1.0 -0.3644221164
O  O98  1  0.83310000  0.56900000  0.28810000  1.0 -0.4389753938
O  O99  1  0.89940000  0.49450000  0.32840000  1.0 -0.4389753938
O  O100  1  0.81520000  0.56900000  0.36290000  1.0 -0.4781781348
O  O101  1  0.05220000  0.41060000  0.83170000  1.0 -0.3655182458
O  O102  1  0.16690000  0.43100000  0.78810000  1.0 -0.4389753938
O  O103  1  0.10060000  0.50550000  0.82840000  1.0 -0.4389753938
O  O104  1  0.18480000  0.43100000  0.86290000  1.0 -0.4781781348
O  O105  1  0.44780000  0.91060000  0.33170000  1.0 -0.3655182458
O  O106  1  0.33310000  0.93100000  0.28810000  1.0 -0.4389753938
O  O107  1  0.39940000  0.00550000  0.32840000  1.0 -0.4389753938
O  O108  1  0.31520000  0.93100000  0.36290000  1.0 -0.4781781348
O  O109  1  0.55220000  0.08940000  0.83170000  1.0 -0.3655182458
O  O110  1  0.66690000  0.06900000  0.78810000  1.0 -0.4389753938
O  O111  1  0.60060000  0.99450000  0.82840000  1.0 -0.4389753938
O  O112  1  0.68480000  0.06900000  0.86290000  1.0 -0.4781781348
O  O113  1  0.08700000  0.71810000  0.48380000  1.0 -0.3301414028
O  O114  1  0.15340000  0.79640000  0.51530000  1.0 -0.4291532151
O  O115  1  0.01820000  0.81380000  0.48960000  1.0 -0.4612880585
O  O116  1  0.11030000  0.79240000  0.43890000  1.0 -0.4105280973
O  O117  1  0.91300000  0.28190000  0.98380000  1.0 -0.3301414028
O  O118  1  0.84660000  0.20360000  0.01530000  1.0 -0.4291532151
O  O119  1  0.98180000  0.18620000  0.98960000  1.0 -0.4612880585
O  O120  1  0.88970000  0.20760000  0.93890000  1.0 -0.4105280973
O  O121  1  0.58700000  0.78190000  0.48380000  1.0 -0.3301414028
O  O122  1  0.65340000  0.70360000  0.51530000  1.0 -0.4291532151
O  O123  1  0.51820000  0.68620000  0.48960000  1.0 -0.4612880585
O  O124  1  0.61030000  0.70760000  0.43890000  1.0 -0.4105280973
O  O125  1  0.41300000  0.21810000  0.98380000  1.0 -0.3301414028
O  O126  1  0.34660000  0.29640000  0.01530000  1.0 -0.4291532151
O  O127  1  0.48180000  0.31380000  0.98960000  1.0 -0.4612880585
O  O128  1  0.38970000  0.29240000  0.93890000  1.0 -0.4105280973
O  O129  1  0.71940000  0.69430000  0.21140000  1.0 -0.4688151479
O  O130  1  0.85700000  0.71810000  0.18290000  1.0 -0.4781781348
O  O131  1  0.73970000  0.78070000  0.17200000  1.0 -0.4389753938
O  O132  1  0.80390000  0.77580000  0.24160000  1.0 -0.4612880585
O  O133  1  0.28060000  0.30570000  0.71140000  1.0 -0.4688151479
O  O134  1  0.14300000  0.28190000  0.68290000  1.0 -0.4781781348
O  O135  1  0.26030000  0.21930000  0.67200000  1.0 -0.4389753938
O  O136  1  0.19610000  0.22420000  0.74160000  1.0 -0.4612880585
O  O137  1  0.21940000  0.80570000  0.21140000  1.0 -0.4688151479
O  O138  1  0.35700000  0.78190000  0.18290000  1.0 -0.4781781348
O  O139  1  0.23970000  0.71930000  0.17200000  1.0 -0.4389753938
O  O140  1  0.30390000  0.72420000  0.24160000  1.0 -0.4612880585
O  O141  1  0.78060000  0.19430000  0.71140000  1.0 -0.4688151479
O  O142  1  0.64300000  0.21810000  0.68290000  1.0 -0.4781781348
O  O143  1  0.76030000  0.28070000  0.67200000  1.0 -0.4389753938
O  O144  1  0.69610000  0.27580000  0.74160000  1.0 -0.4612880585
O  O145  1  0.45330000  0.67260000  0.97050000  1.0 -0.3792019747
O  O146  1  0.37110000  0.68970000  0.90820000  1.0 -0.4612880585
O  O147  1  0.51110000  0.72340000  0.91750000  1.0 -0.3478067703
O  O148  1  0.41500000  0.76450000  0.95940000  1.0 -0.3916299418
O  O149  1  0.54670000  0.32740000  0.47050000  1.0 -0.3792019747
O  O150  1  0.62890000  0.31030000  0.40820000  1.0 -0.4612880585
O  O151  1  0.48890000  0.27660000  0.41750000  1.0 -0.3478067703
O  O152  1  0.58500000  0.23550000  0.45940000  1.0 -0.3916299418
O  O153  1  0.95330000  0.82740000  0.97050000  1.0 -0.3792019747
O  O154  1  0.87110000  0.81030000  0.90820000  1.0 -0.4612880585
O  O155  1  0.01110000  0.77660000  0.91750000  1.0 -0.3478067703
O  O156  1  0.91500000  0.73550000  0.95940000  1.0 -0.3916299418
O  O157  1  0.04670000  0.17260000  0.47050000  1.0 -0.3792019747
O  O158  1  0.12890000  0.18970000  0.40820000  1.0 -0.4612880585
O  O159  1  0.98890000  0.22340000  0.41750000  1.0 -0.3478067703
O  O160  1  0.08500000  0.26450000  0.45940000  1.0 -0.3916299418
O  O161  1  0.24470000  0.59070000  0.01590000  1.0 -0.398974035
O  O162  1  0.10750000  0.56730000  0.01440000  1.0 -0.398974035
O  O163  1  0.20100000  0.52970000  0.96060000  1.0 -0.4688151479
O  O164  1  0.15890000  0.62860000  0.95490000  1.0 -0.4781781348
O  O165  1  0.75530000  0.40930000  0.51590000  1.0 -0.398974035
O  O166  1  0.89250000  0.43270000  0.51440000  1.0 -0.398974035
O  O167  1  0.79900000  0.47030000  0.46060000  1.0 -0.4688151479
O  O168  1  0.84110000  0.37140000  0.45490000  1.0 -0.4781781348
O  O169  1  0.74470000  0.90930000  0.01590000  1.0 -0.398974035
O  O170  1  0.60750000  0.93270000  0.01440000  1.0 -0.398974035
O  O171  1  0.70100000  0.97030000  0.96060000  1.0 -0.4688151479
O  O172  1  0.65890000  0.87140000  0.95490000  1.0 -0.4781781348
O  O173  1  0.25530000  0.09070000  0.51590000  1.0 -0.398974035
O  O174  1  0.39250000  0.06730000  0.51440000  1.0 -0.398974035
O  O175  1  0.29900000  0.02970000  0.46060000  1.0 -0.4688151479
O  O176  1  0.34110000  0.12860000  0.45490000  1.0 -0.4781781348
O  O177  1  0.24030000  0.09350000  0.89660000  1.0 -0.4389753938
O  O178  1  0.16220000  0.13190000  0.95380000  1.0 -0.4688151479
O  O179  1  0.09410000  0.07870000  0.89740000  1.0 -0.4195060618
O  O180  1  0.17840000  0.02920000  0.95340000  1.0 -0.4855862446
O  O181  1  0.75970000  0.90650000  0.39660000  1.0 -0.4389753938
O  O182  1  0.83780000  0.86810000  0.45380000  1.0 -0.4688151479
O  O183  1  0.90590000  0.92130000  0.39740000  1.0 -0.4195060618
O  O184  1  0.82160000  0.97080000  0.45340000  1.0 -0.4855862446
O  O185  1  0.74030000  0.40650000  0.89660000  1.0 -0.4389753938
O  O186  1  0.66220000  0.36810000  0.95380000  1.0 -0.4688151479
O  O187  1  0.59410000  0.42130000  0.89740000  1.0 -0.4195060618
O  O188  1  0.67840000  0.47080000  0.95340000  1.0 -0.4855862446
O  O189  1  0.25970000  0.59350000  0.39660000  1.0 -0.4389753938
O  O190  1  0.33780000  0.63190000  0.45380000  1.0 -0.4688151479
O  O191  1  0.40590000  0.57870000  0.39740000  1.0 -0.4195060618
O  O192  1  0.32160000  0.52920000  0.45340000  1.0 -0.4855862446
