# DDEC6 charges by PACMAN v1.1 (https://github.com/mtap-research/PACMAN-charge/)
data_VICZEQ_ASR_pacman
_symmetry_space_group_name_H-M   'P 1'
_cell_length_a   10.22650000
_cell_length_b   6.83090000
_cell_length_c   18.59800000
_cell_angle_alpha   90.00000000
_cell_angle_beta   104.44000000
_cell_angle_gamma   90.00000000
_symmetry_Int_Tables_number   1
_chemical_formula_structural   Co2H9C16(N2O3)2
_chemical_formula_sum   'Co4 H18 C32 N8 O12'
_cell_volume   1258.14341296
_cell_formula_units_Z   2
loop_
 _symmetry_equiv_pos_site_id
 _symmetry_equiv_pos_as_xyz
  1  'x, y, z'
loop_
 _atom_site_type_symbol
 _atom_site_label
 _atom_site_symmetry_multiplicity
 _atom_site_fract_x
 _atom_site_fract_y
 _atom_site_fract_z
 _atom_site_occupancy
 _atom_site_charge
Co  Co1  1  0.00000000  0.50000000  0.00000000  1.0 0.8385191994
Co  Co2  1  0.00000000  0.00000000  0.00000000  1.0 0.8385191994
Co  Co3  1  0.92210000  0.75000000  0.82821000  1.0 0.8992529648
Co  Co4  1  0.07790000  0.25000000  0.17179000  1.0 0.8992529648
H  H1  1  0.46820000  0.75000000  0.84710000  1.0 0.1306257285
H  H2  1  0.53180000  0.25000000  0.15290000  1.0 0.1306257285
H  H3  1  0.15380000  0.75000000  0.66700000  1.0 0.1191666411
H  H4  1  0.84620000  0.25000000  0.33300000  1.0 0.1191666411
H  H5  1  0.53230000  0.75000000  0.64350000  1.0 0.1483670907
H  H6  1  0.46770000  0.25000000  0.35650000  1.0 0.1483670907
H  H7  1  0.10420000  0.45920000  0.30840000  1.0 0.1306257285
H  H8  1  0.89580000  0.95920000  0.69160000  1.0 0.1306257285
H  H9  1  0.89580000  0.54080000  0.69160000  1.0 0.1306257285
H  H10  1  0.10420000  0.04080000  0.30840000  1.0 0.1306257285
H  H11  1  0.11440000  0.63480000  0.54720000  1.0 0.1140189158
H  H12  1  0.88560000  0.13480000  0.45280000  1.0 0.1140189158
H  H13  1  0.88560000  0.36520000  0.45280000  1.0 0.1140189158
H  H14  1  0.11440000  0.86520000  0.54720000  1.0 0.1140189158
H  H15  1  0.13420000  0.45700000  0.43610000  1.0 0.1191666411
H  H16  1  0.86580000  0.95700000  0.56390000  1.0 0.1191666411
H  H17  1  0.86580000  0.54300000  0.56390000  1.0 0.1191666411
H  H18  1  0.13420000  0.04300000  0.43610000  1.0 0.1191666411
C  C1  1  0.08340000  0.75000000  0.21285000  1.0 0.2934749858
C  C2  1  0.91660000  0.25000000  0.78715000  1.0 0.2934749858
C  C3  1  0.52230000  0.75000000  0.74995000  1.0 0.0110600573
C  C4  1  0.47770000  0.25000000  0.25005000  1.0 0.0110600573
C  C5  1  0.67130000  0.75000000  0.78223000  1.0 0.5408708291
C  C6  1  0.32870000  0.25000000  0.21777000  1.0 0.5408708291
C  C7  1  0.19840000  0.75000000  0.81308000  1.0 0.5586405235
C  C8  1  0.80160000  0.25000000  0.18692000  1.0 0.5586405235
C  C9  1  0.10450000  0.75000000  0.29534000  1.0 0.0568318876
C  C10  1  0.89550000  0.25000000  0.70466000  1.0 0.0568318876
C  C11  1  0.29620000  0.75000000  0.76447000  1.0 0.0110600573
C  C12  1  0.70380000  0.25000000  0.23553000  1.0 0.0110600573
C  C13  1  0.33520000  0.75000000  0.64244000  1.0 0.2455052273
C  C14  1  0.66480000  0.25000000  0.35756000  1.0 0.2455052273
C  C15  1  0.43480000  0.75000000  0.79576000  1.0 -0.1111420555
C  C16  1  0.56520000  0.25000000  0.20424000  1.0 -0.1111420555
C  C17  1  0.24640000  0.75000000  0.68783000  1.0 -0.2391197744
C  C18  1  0.75360000  0.25000000  0.31217000  1.0 -0.2391197744
C  C19  1  0.47270000  0.75000000  0.67395000  1.0 -0.1977454437
C  C20  1  0.52730000  0.25000000  0.32605000  1.0 -0.1977454437
C  C21  1  0.13900000  0.75000000  0.44922000  1.0 0.0847769367
C  C22  1  0.86100000  0.25000000  0.55078000  1.0 0.0847769367
C  C23  1  0.11140000  0.57720000  0.33398000  1.0 -0.0813894434
C  C24  1  0.88860000  0.07720000  0.66602000  1.0 -0.0813894434
C  C25  1  0.88860000  0.42280000  0.66602000  1.0 -0.0813894434
C  C26  1  0.11140000  0.92280000  0.33398000  1.0 -0.0813894434
C  C27  1  0.15640000  0.75000000  0.53230000  1.0 -0.0854282988
C  C28  1  0.84360000  0.25000000  0.46770000  1.0 -0.0854282988
C  C29  1  0.12910000  0.57540000  0.41080000  1.0 -0.1608758309
C  C30  1  0.87090000  0.07540000  0.58920000  1.0 -0.1608758309
C  C31  1  0.87090000  0.42460000  0.58920000  1.0 -0.1608758309
C  C32  1  0.12910000  0.92460000  0.41080000  1.0 -0.1608758309
N  N1  1  0.04430000  0.65520000  0.10147000  1.0 0.0005504029
N  N2  1  0.95570000  0.15520000  0.89853000  1.0 0.0005504029
N  N3  1  0.95570000  0.34480000  0.89853000  1.0 -0.0001962267
N  N4  1  0.04430000  0.84480000  0.10147000  1.0 0.0005504029
N  N5  1  0.06987000  0.58730000  0.17099000  1.0 -0.2391197744
N  N6  1  0.93013000  0.08730000  0.82901000  1.0 -0.2391197744
N  N7  1  0.93013000  0.41270000  0.82901000  1.0 -0.2391197744
N  N8  1  0.06987000  0.91270000  0.17099000  1.0 -0.2391197744
O  O1  1  0.01381000  0.75000000  0.93923000  1.0 -0.9048749669
O  O2  1  0.98619000  0.25000000  0.06077000  1.0 -0.9048749669
O  O3  1  0.07654000  0.75000000  0.78128000  1.0 -0.5421787662
O  O4  1  0.92346000  0.25000000  0.21872000  1.0 -0.5421787662
O  O5  1  0.71920000  0.75000000  0.85101000  1.0 -0.4911924763
O  O6  1  0.28080000  0.25000000  0.14899000  1.0 -0.4911924763
O  O7  1  0.74880000  0.75000000  0.73984000  1.0 -0.5421787662
O  O8  1  0.25120000  0.25000000  0.26016000  1.0 -0.5421787662
O  O9  1  0.29570000  0.75000000  0.56603000  1.0 -0.1608758309
O  O10  1  0.70430000  0.25000000  0.43397000  1.0 -0.1608758309
O  O11  1  0.24210000  0.75000000  0.88115000  1.0 -0.4289957149
O  O12  1  0.75790000  0.25000000  0.11885000  1.0 -0.4289957149
