# DDEC6 charges by PACMAN v1.1 (https://github.com/mtap-research/PACMAN-charge/)
data_VIDPIJ_ASR_pacman
_symmetry_space_group_name_H-M   'P 1'
_cell_length_a   20.01900000
_cell_length_b   20.01900000
_cell_length_c   18.86100000
_cell_angle_alpha   90.00000000
_cell_angle_beta   90.00000000
_cell_angle_gamma   90.00000000
_symmetry_Int_Tables_number   1
_chemical_formula_structural   Mn11H2C24(N6O5)5
_chemical_formula_sum   'Mn44 H8 C96 N120 O100'
_cell_volume   7558.74116882
_cell_formula_units_Z   4
loop_
 _symmetry_equiv_pos_site_id
 _symmetry_equiv_pos_as_xyz
  1  'x, y, z'
loop_
 _atom_site_type_symbol
 _atom_site_label
 _atom_site_symmetry_multiplicity
 _atom_site_fract_x
 _atom_site_fract_y
 _atom_site_fract_z
 _atom_site_occupancy
 _atom_site_charge
Mn  Mn1  1  0.21956000  0.78987000  0.65197000  1.0 0.9824125892
Mn  Mn2  1  0.78044000  0.21013000  0.65197000  1.0 0.9824125892
Mn  Mn3  1  0.21013000  0.21956000  0.34803000  1.0 0.9824125892
Mn  Mn4  1  0.78987000  0.78044000  0.34803000  1.0 0.9824125892
Mn  Mn5  1  0.28044000  0.28987000  0.15197000  1.0 0.9824125892
Mn  Mn6  1  0.71956000  0.71013000  0.15197000  1.0 0.9824125892
Mn  Mn7  1  0.28987000  0.71956000  0.84803000  1.0 0.9824125892
Mn  Mn8  1  0.71013000  0.28044000  0.84803000  1.0 0.9824125892
Mn  Mn9  1  0.29018000  0.79018000  0.25000000  1.0 0.9063262618
Mn  Mn10  1  0.70982000  0.20982000  0.25000000  1.0 0.9063262618
Mn  Mn11  1  0.20982000  0.29018000  0.75000000  1.0 0.9063262618
Mn  Mn12  1  0.79018000  0.70982000  0.75000000  1.0 0.9063262618
Mn  Mn13  1  0.21578000  0.83531000  0.44591000  1.0 0.8670385531
Mn  Mn14  1  0.78422000  0.16469000  0.44591000  1.0 0.8670385531
Mn  Mn15  1  0.16469000  0.21578000  0.55409000  1.0 0.8670385531
Mn  Mn16  1  0.83531000  0.78422000  0.55409000  1.0 0.8670385531
Mn  Mn17  1  0.28422000  0.33531000  0.94591000  1.0 0.8670385531
Mn  Mn18  1  0.71578000  0.66469000  0.94591000  1.0 0.8670385531
Mn  Mn19  1  0.33531000  0.71578000  0.05409000  1.0 0.8670385531
Mn  Mn20  1  0.66469000  0.28422000  0.05409000  1.0 0.8670385531
Mn  Mn21  1  0.20402000  0.05178000  0.44707000  1.0 0.7920576609
Mn  Mn22  1  0.79598000  0.94822000  0.44707000  1.0 0.7920576609
Mn  Mn23  1  0.94822000  0.20402000  0.55293000  1.0 0.7920576609
Mn  Mn24  1  0.05178000  0.79598000  0.55293000  1.0 0.7920576609
Mn  Mn25  1  0.29598000  0.55178000  0.94707000  1.0 0.7920576609
Mn  Mn26  1  0.70402000  0.44822000  0.94707000  1.0 0.7920576609
Mn  Mn27  1  0.55178000  0.70402000  0.05293000  1.0 0.7920576609
Mn  Mn28  1  0.44822000  0.29598000  0.05293000  1.0 0.7920576609
Mn  Mn29  1  0.20631000  0.07860000  0.77516000  1.0 0.9824125892
Mn  Mn30  1  0.79369000  0.92140000  0.77516000  1.0 0.9824125892
Mn  Mn31  1  0.92140000  0.20631000  0.22484000  1.0 0.9824125892
Mn  Mn32  1  0.07860000  0.79369000  0.22484000  1.0 0.9824125892
Mn  Mn33  1  0.29369000  0.57860000  0.27516000  1.0 0.9824125892
Mn  Mn34  1  0.70631000  0.42140000  0.27516000  1.0 0.9824125892
Mn  Mn35  1  0.57860000  0.70631000  0.72484000  1.0 0.9824125892
Mn  Mn36  1  0.42140000  0.29369000  0.72484000  1.0 0.9824125892
Mn  Mn37  1  0.26829000  0.07194000  0.12050000  1.0 0.9508675165
Mn  Mn38  1  0.73171000  0.92806000  0.12050000  1.0 0.9508675165
Mn  Mn39  1  0.92806000  0.26829000  0.87950000  1.0 0.9508675165
Mn  Mn40  1  0.07194000  0.73171000  0.87950000  1.0 0.9508675165
Mn  Mn41  1  0.23171000  0.57194000  0.62050000  1.0 0.9508675165
Mn  Mn42  1  0.76829000  0.42806000  0.62050000  1.0 0.9508675165
Mn  Mn43  1  0.57194000  0.76829000  0.37950000  1.0 0.9508675165
Mn  Mn44  1  0.42806000  0.23171000  0.37950000  1.0 0.9508675165
H  H1  1  0.18440000  0.72040000  0.75410000  1.0 0.3226265362
H  H2  1  0.81560000  0.27960000  0.75410000  1.0 0.3226265362
H  H3  1  0.27960000  0.18440000  0.24590000  1.0 0.3226265362
H  H4  1  0.72040000  0.81560000  0.24590000  1.0 0.3226265362
H  H5  1  0.31560000  0.22040000  0.25410000  1.0 0.3226265362
H  H6  1  0.68440000  0.77960000  0.25410000  1.0 0.3226265362
H  H7  1  0.22040000  0.68440000  0.74590000  1.0 0.3226265362
H  H8  1  0.77960000  0.31560000  0.74590000  1.0 0.3226265362
C  C1  1  0.18000000  0.07180000  0.60760000  1.0 0.5810518949
C  C2  1  0.82000000  0.92820000  0.60760000  1.0 0.5810518949
C  C3  1  0.92820000  0.18000000  0.39240000  1.0 0.5810518949
C  C4  1  0.07180000  0.82000000  0.39240000  1.0 0.5810518949
C  C5  1  0.32000000  0.57180000  0.10760000  1.0 0.5810518949
C  C6  1  0.68000000  0.42820000  0.10760000  1.0 0.5810518949
C  C7  1  0.57180000  0.68000000  0.89240000  1.0 0.5810518949
C  C8  1  0.42820000  0.32000000  0.89240000  1.0 0.5810518949
C  C9  1  0.24190000  0.07250000  0.28860000  1.0 0.5885364762
C  C10  1  0.75810000  0.92750000  0.28860000  1.0 0.5885364762
C  C11  1  0.92750000  0.24190000  0.71140000  1.0 0.5885364762
C  C12  1  0.07250000  0.75810000  0.71140000  1.0 0.5885364762
C  C13  1  0.25810000  0.57250000  0.78860000  1.0 0.5885364762
C  C14  1  0.74190000  0.42750000  0.78860000  1.0 0.5885364762
C  C15  1  0.57250000  0.74190000  0.21140000  1.0 0.5885364762
C  C16  1  0.42750000  0.25810000  0.21140000  1.0 0.5885364762
C  C17  1  0.20120000  0.94420000  0.64280000  1.0 -0.0020867397
C  C18  1  0.79880000  0.05580000  0.64280000  1.0 -0.0020867397
C  C19  1  0.05580000  0.20120000  0.35720000  1.0 -0.0020867397
C  C20  1  0.94420000  0.79880000  0.35720000  1.0 -0.0020867397
C  C21  1  0.29880000  0.44420000  0.14280000  1.0 -0.0020867397
C  C22  1  0.70120000  0.55580000  0.14280000  1.0 -0.0020867397
C  C23  1  0.44420000  0.70120000  0.85720000  1.0 -0.0020867397
C  C24  1  0.55580000  0.29880000  0.85720000  1.0 -0.0020867397
C  C25  1  0.22610000  0.70030000  0.53970000  1.0 0.5810518949
C  C26  1  0.77390000  0.29970000  0.53970000  1.0 0.5810518949
C  C27  1  0.29970000  0.22610000  0.46030000  1.0 0.5810518949
C  C28  1  0.70030000  0.77390000  0.46030000  1.0 0.5810518949
C  C29  1  0.27390000  0.20030000  0.03970000  1.0 0.5810518949
C  C30  1  0.72610000  0.79970000  0.03970000  1.0 0.5810518949
C  C31  1  0.20030000  0.72610000  0.96030000  1.0 0.5810518949
C  C32  1  0.79970000  0.27390000  0.96030000  1.0 0.5810518949
C  C33  1  0.24450000  0.99960000  0.29880000  1.0 -0.0260991703
C  C34  1  0.75550000  0.00040000  0.29880000  1.0 -0.0260991703
C  C35  1  0.00040000  0.24450000  0.70120000  1.0 -0.0260991703
C  C36  1  0.99960000  0.75550000  0.70120000  1.0 -0.0260991703
C  C37  1  0.25550000  0.49960000  0.79880000  1.0 -0.0260991703
C  C38  1  0.74450000  0.50040000  0.79880000  1.0 -0.0260991703
C  C39  1  0.49960000  0.74450000  0.20120000  1.0 -0.0260991703
C  C40  1  0.50040000  0.25550000  0.20120000  1.0 -0.0260991703
C  C41  1  0.26040000  0.94350000  0.25650000  1.0 0.0327817718
C  C42  1  0.73960000  0.05650000  0.25650000  1.0 0.0327817718
C  C43  1  0.05650000  0.26040000  0.74350000  1.0 0.0327817718
C  C44  1  0.94350000  0.73960000  0.74350000  1.0 0.0327817718
C  C45  1  0.23960000  0.44350000  0.75650000  1.0 0.0327817718
C  C46  1  0.76040000  0.55650000  0.75650000  1.0 0.0327817718
C  C47  1  0.44350000  0.76040000  0.24350000  1.0 0.0327817718
C  C48  1  0.55650000  0.23960000  0.24350000  1.0 0.0327817718
C  C49  1  0.25310000  0.70390000  0.35620000  1.0 0.5885364762
C  C50  1  0.74690000  0.29610000  0.35620000  1.0 0.5885364762
C  C51  1  0.29610000  0.25310000  0.64380000  1.0 0.5885364762
C  C52  1  0.70390000  0.74690000  0.64380000  1.0 0.5885364762
C  C53  1  0.24690000  0.20390000  0.85620000  1.0 0.5885364762
C  C54  1  0.75310000  0.79610000  0.85620000  1.0 0.5885364762
C  C55  1  0.20390000  0.75310000  0.14380000  1.0 0.5885364762
C  C56  1  0.79610000  0.24690000  0.14380000  1.0 0.5885364762
C  C57  1  0.20320000  0.92960000  0.72200000  1.0 0.6186067439
C  C58  1  0.79680000  0.07040000  0.72200000  1.0 0.6186067439
C  C59  1  0.07040000  0.20320000  0.27800000  1.0 0.6186067439
C  C60  1  0.92960000  0.79680000  0.27800000  1.0 0.6186067439
C  C61  1  0.29680000  0.42960000  0.22200000  1.0 0.6186067439
C  C62  1  0.70320000  0.57040000  0.22200000  1.0 0.6186067439
C  C63  1  0.42960000  0.70320000  0.77800000  1.0 0.6186067439
C  C64  1  0.57040000  0.29680000  0.77800000  1.0 0.6186067439
C  C65  1  0.23550000  0.65030000  0.48290000  1.0 -0.015174943
C  C66  1  0.76450000  0.34970000  0.48290000  1.0 -0.015174943
C  C67  1  0.34970000  0.23550000  0.51710000  1.0 -0.015174943
C  C68  1  0.65030000  0.76450000  0.51710000  1.0 -0.015174943
C  C69  1  0.26450000  0.15030000  0.98290000  1.0 -0.014368936
C  C70  1  0.73550000  0.84970000  0.98290000  1.0 -0.014368936
C  C71  1  0.15030000  0.73550000  0.01710000  1.0 -0.015174943
C  C72  1  0.84970000  0.26450000  0.01710000  1.0 -0.015174943
C  C73  1  0.19340000  0.99810000  0.59920000  1.0 0.0139034691
C  C74  1  0.80660000  0.00190000  0.59920000  1.0 0.0139034691
C  C75  1  0.00190000  0.19340000  0.40080000  1.0 0.0139034691
C  C76  1  0.99810000  0.80660000  0.40080000  1.0 0.0139034691
C  C77  1  0.30660000  0.49810000  0.09920000  1.0 0.0139034691
C  C78  1  0.69340000  0.50190000  0.09920000  1.0 0.0139034691
C  C79  1  0.49810000  0.69340000  0.90080000  1.0 0.0139034691
C  C80  1  0.50190000  0.30660000  0.90080000  1.0 0.0139034691
C  C81  1  0.24840000  0.65030000  0.41230000  1.0 0.002965464
C  C82  1  0.75160000  0.34970000  0.41230000  1.0 0.002965464
C  C83  1  0.34970000  0.24840000  0.58770000  1.0 0.002965464
C  C84  1  0.65030000  0.75160000  0.58770000  1.0 0.002965464
C  C85  1  0.25160000  0.15030000  0.91230000  1.0 0.002965464
C  C86  1  0.74840000  0.84970000  0.91230000  1.0 0.002965464
C  C87  1  0.15030000  0.74840000  0.08770000  1.0 0.002965464
C  C88  1  0.84970000  0.25160000  0.08770000  1.0 0.002965464
C  C89  1  0.28750000  0.93110000  0.18240000  1.0 0.6015873826
C  C90  1  0.71250000  0.06890000  0.18240000  1.0 0.6015873826
C  C91  1  0.06890000  0.28750000  0.81760000  1.0 0.6015873826
C  C92  1  0.93110000  0.71250000  0.81760000  1.0 0.6015873826
C  C93  1  0.21250000  0.43110000  0.68240000  1.0 0.6015873826
C  C94  1  0.78750000  0.56890000  0.68240000  1.0 0.6015873826
C  C95  1  0.43110000  0.78750000  0.31760000  1.0 0.6015873826
C  C96  1  0.56890000  0.21250000  0.31760000  1.0 0.6015873826
N  N1  1  0.23880000  0.58560000  0.50510000  1.0 -0.2316825065
N  N2  1  0.76120000  0.41440000  0.50510000  1.0 -0.2316825065
N  N3  1  0.41440000  0.23880000  0.49490000  1.0 -0.236333719
N  N4  1  0.58560000  0.76120000  0.49490000  1.0 -0.236333719
N  N5  1  0.26120000  0.08560000  0.00510000  1.0 -0.236333719
N  N6  1  0.73880000  0.91440000  0.00510000  1.0 -0.236333719
N  N7  1  0.08560000  0.73880000  0.99490000  1.0 -0.2316825065
N  N8  1  0.91440000  0.26120000  0.99490000  1.0 -0.2316825065
N  N9  1  0.24980000  0.54770000  0.44730000  1.0 0.0777067121
N  N10  1  0.75020000  0.45230000  0.44730000  1.0 0.0777067121
N  N11  1  0.45230000  0.24980000  0.55270000  1.0 0.1033829167
N  N12  1  0.54770000  0.75020000  0.55270000  1.0 0.1073525227
N  N13  1  0.25020000  0.04770000  0.94730000  1.0 0.1033829167
N  N14  1  0.74980000  0.95230000  0.94730000  1.0 0.1073525227
N  N15  1  0.04770000  0.74980000  0.05270000  1.0 0.0723933256
N  N16  1  0.95230000  0.25020000  0.05270000  1.0 0.0777067121
N  N17  1  0.25780000  0.58620000  0.39140000  1.0 -0.2316825065
N  N18  1  0.74220000  0.41380000  0.39140000  1.0 -0.2316825065
N  N19  1  0.41380000  0.25780000  0.60860000  1.0 -0.2316825065
N  N20  1  0.58620000  0.74220000  0.60860000  1.0 -0.2316825065
N  N21  1  0.24220000  0.08620000  0.89140000  1.0 -0.2316825065
N  N22  1  0.75780000  0.91380000  0.89140000  1.0 -0.2316825065
N  N23  1  0.08620000  0.75780000  0.10860000  1.0 -0.2316825065
N  N24  1  0.91380000  0.24220000  0.10860000  1.0 -0.2316825065
N  N25  1  0.25400000  0.88950000  0.29660000  1.0 -0.1722097104
N  N26  1  0.74600000  0.11050000  0.29660000  1.0 -0.1722097104
N  N27  1  0.11050000  0.25400000  0.70340000  1.0 -0.1722097104
N  N28  1  0.88950000  0.74600000  0.70340000  1.0 -0.1722097104
N  N29  1  0.24600000  0.38950000  0.79660000  1.0 -0.1722097104
N  N30  1  0.75400000  0.61050000  0.79660000  1.0 -0.1722097104
N  N31  1  0.38950000  0.75400000  0.20340000  1.0 -0.1722097104
N  N32  1  0.61050000  0.24600000  0.20340000  1.0 -0.1722097104
N  N33  1  0.23200000  0.90880000  0.36050000  1.0 -0.0416258695
N  N34  1  0.76800000  0.09120000  0.36050000  1.0 -0.0416258695
N  N35  1  0.09120000  0.23200000  0.63950000  1.0 -0.0416258695
N  N36  1  0.90880000  0.76800000  0.63950000  1.0 -0.0416258695
N  N37  1  0.26800000  0.40880000  0.86050000  1.0 -0.0416258695
N  N38  1  0.73200000  0.59120000  0.86050000  1.0 -0.0416258695
N  N39  1  0.40880000  0.73200000  0.13950000  1.0 -0.0416258695
N  N40  1  0.59120000  0.26800000  0.13950000  1.0 -0.0416258695
N  N41  1  0.22620000  0.97470000  0.36290000  1.0 -0.1722097104
N  N42  1  0.77380000  0.02530000  0.36290000  1.0 -0.1722097104
N  N43  1  0.02530000  0.22620000  0.63710000  1.0 -0.1722097104
N  N44  1  0.97470000  0.77380000  0.63710000  1.0 -0.1722097104
N  N45  1  0.27380000  0.47470000  0.86290000  1.0 -0.1722097104
N  N46  1  0.72620000  0.52530000  0.86290000  1.0 -0.1722097104
N  N47  1  0.47470000  0.72620000  0.13710000  1.0 -0.1722097104
N  N48  1  0.52530000  0.27380000  0.13710000  1.0 -0.1722097104
N  N49  1  0.21070000  0.88890000  0.60030000  1.0 -0.1992156436
N  N50  1  0.78930000  0.11110000  0.60030000  1.0 -0.1992156436
N  N51  1  0.11110000  0.21070000  0.39970000  1.0 -0.1992156436
N  N52  1  0.88890000  0.78930000  0.39970000  1.0 -0.1992156436
N  N53  1  0.28930000  0.38890000  0.10030000  1.0 -0.1992156436
N  N54  1  0.71070000  0.61110000  0.10030000  1.0 -0.1992156436
N  N55  1  0.38890000  0.71070000  0.89970000  1.0 -0.1992156436
N  N56  1  0.61110000  0.28930000  0.89970000  1.0 -0.1992156436
N  N57  1  0.20620000  0.90950000  0.53440000  1.0 -0.0260991703
N  N58  1  0.79380000  0.09050000  0.53440000  1.0 -0.0260991703
N  N59  1  0.09050000  0.20620000  0.46560000  1.0 -0.0260991703
N  N60  1  0.90950000  0.79380000  0.46560000  1.0 -0.0260991703
N  N61  1  0.29380000  0.40950000  0.03440000  1.0 -0.0260991703
N  N62  1  0.70620000  0.59050000  0.03440000  1.0 -0.0260991703
N  N63  1  0.40950000  0.70620000  0.96560000  1.0 -0.0260991703
N  N64  1  0.59050000  0.29380000  0.96560000  1.0 -0.0260991703
N  N65  1  0.19540000  0.97560000  0.53160000  1.0 -0.1876272359
N  N66  1  0.80460000  0.02440000  0.53160000  1.0 -0.1876272359
N  N67  1  0.02440000  0.19540000  0.46840000  1.0 -0.1876272359
N  N68  1  0.97560000  0.80460000  0.46840000  1.0 -0.1876272359
N  N69  1  0.30460000  0.47560000  0.03160000  1.0 -0.1876272359
N  N70  1  0.69540000  0.52440000  0.03160000  1.0 -0.1876272359
N  N71  1  0.47560000  0.69540000  0.96840000  1.0 -0.1876272359
N  N72  1  0.52440000  0.30460000  0.96840000  1.0 -0.1876272359
N  N73  1  0.30920000  0.06940000  0.46990000  1.0 -0.3695913725
N  N74  1  0.69080000  0.93060000  0.46990000  1.0 -0.3695913725
N  N75  1  0.93060000  0.30920000  0.53010000  1.0 -0.3612373842
N  N76  1  0.06940000  0.69080000  0.53010000  1.0 -0.3612373842
N  N77  1  0.19080000  0.56940000  0.96990000  1.0 -0.3612373842
N  N78  1  0.80920000  0.43060000  0.96990000  1.0 -0.3612373842
N  N79  1  0.56940000  0.80920000  0.03010000  1.0 -0.3612373842
N  N80  1  0.43060000  0.19080000  0.03010000  1.0 -0.3612373842
N  N81  1  0.32990000  0.06240000  0.52820000  1.0 0.4367904081
N  N82  1  0.67010000  0.93760000  0.52820000  1.0 0.4367904081
N  N83  1  0.93760000  0.32990000  0.47180000  1.0 0.4367904081
N  N84  1  0.06240000  0.67010000  0.47180000  1.0 0.4367904081
N  N85  1  0.17010000  0.56240000  0.02820000  1.0 0.4367904081
N  N86  1  0.82990000  0.43760000  0.02820000  1.0 0.4367904081
N  N87  1  0.56240000  0.82990000  0.97180000  1.0 0.4367904081
N  N88  1  0.43760000  0.17010000  0.97180000  1.0 0.4367904081
N  N89  1  0.35420000  0.05660000  0.59560000  1.0 -0.4592009111
N  N90  1  0.64580000  0.94340000  0.59560000  1.0 -0.4592009111
N  N91  1  0.94340000  0.35420000  0.40440000  1.0 -0.4592009111
N  N92  1  0.05660000  0.64580000  0.40440000  1.0 -0.4592009111
N  N93  1  0.14580000  0.55660000  0.09560000  1.0 -0.4396219366
N  N94  1  0.85420000  0.44340000  0.09560000  1.0 -0.4396219366
N  N95  1  0.55660000  0.85420000  0.90440000  1.0 -0.4592009111
N  N96  1  0.44340000  0.14580000  0.90440000  1.0 -0.4592009111
N  N97  1  0.10170000  0.05240000  0.41610000  1.0 -0.5206909376
N  N98  1  0.89830000  0.94760000  0.41610000  1.0 -0.5206909376
N  N99  1  0.94760000  0.10170000  0.58390000  1.0 -0.5206909376
N  N100  1  0.05240000  0.89830000  0.58390000  1.0 -0.5206909376
N  N101  1  0.39830000  0.55240000  0.91610000  1.0 -0.5206909376
N  N102  1  0.60170000  0.44760000  0.91610000  1.0 -0.5206909376
N  N103  1  0.55240000  0.60170000  0.08390000  1.0 -0.5206909376
N  N104  1  0.44760000  0.39830000  0.08390000  1.0 -0.5206909376
N  N105  1  0.08610000  0.03060000  0.34730000  1.0 0.3472233044
N  N106  1  0.91390000  0.96940000  0.34730000  1.0 0.3472233044
N  N107  1  0.96940000  0.08610000  0.65270000  1.0 0.3472233044
N  N108  1  0.03060000  0.91390000  0.65270000  1.0 0.3472233044
N  N109  1  0.41390000  0.53060000  0.84730000  1.0 0.3472233044
N  N110  1  0.58610000  0.46940000  0.84730000  1.0 0.3472233044
N  N111  1  0.53060000  0.58610000  0.15270000  1.0 0.3435820765
N  N112  1  0.46940000  0.41390000  0.15270000  1.0 0.3435820765
N  N113  1  0.06820000  0.03020000  0.27130000  1.0 -0.4396219366
N  N114  1  0.93180000  0.96980000  0.27130000  1.0 -0.4396219366
N  N115  1  0.96980000  0.06820000  0.72870000  1.0 -0.4396219366
N  N116  1  0.03020000  0.93180000  0.72870000  1.0 -0.4396219366
N  N117  1  0.43180000  0.53020000  0.77130000  1.0 -0.4396219366
N  N118  1  0.56820000  0.46980000  0.77130000  1.0 -0.4396219366
N  N119  1  0.53020000  0.56820000  0.22870000  1.0 -0.4396219366
N  N120  1  0.46980000  0.43180000  0.22870000  1.0 -0.4396219366
O  O1  1  0.23640000  0.76130000  0.36810000  1.0 -0.500699515
O  O2  1  0.76360000  0.23870000  0.36810000  1.0 -0.500699515
O  O3  1  0.23870000  0.23640000  0.63190000  1.0 -0.500699515
O  O4  1  0.76130000  0.76360000  0.63190000  1.0 -0.500699515
O  O5  1  0.26360000  0.26130000  0.86810000  1.0 -0.500699515
O  O6  1  0.73640000  0.73870000  0.86810000  1.0 -0.500699515
O  O7  1  0.26130000  0.73640000  0.13190000  1.0 -0.500699515
O  O8  1  0.73870000  0.26360000  0.13190000  1.0 -0.500699515
O  O9  1  0.27660000  0.68620000  0.29620000  1.0 -0.5505374581
O  O10  1  0.72340000  0.31380000  0.29620000  1.0 -0.5505374581
O  O11  1  0.31380000  0.27660000  0.70380000  1.0 -0.5505374581
O  O12  1  0.68620000  0.72340000  0.70380000  1.0 -0.5505374581
O  O13  1  0.22340000  0.18620000  0.79620000  1.0 -0.5505374581
O  O14  1  0.77660000  0.81380000  0.79620000  1.0 -0.5505374581
O  O15  1  0.18620000  0.77660000  0.20380000  1.0 -0.5505374581
O  O16  1  0.81380000  0.22340000  0.20380000  1.0 -0.5505374581
O  O17  1  0.21560000  0.76100000  0.52950000  1.0 -0.5565509124
O  O18  1  0.78440000  0.23900000  0.52950000  1.0 -0.5565509124
O  O19  1  0.23900000  0.21560000  0.47050000  1.0 -0.5565509124
O  O20  1  0.76100000  0.78440000  0.47050000  1.0 -0.5565509124
O  O21  1  0.28440000  0.26100000  0.02950000  1.0 -0.5565509124
O  O22  1  0.71560000  0.73900000  0.02950000  1.0 -0.5565509124
O  O23  1  0.26100000  0.71560000  0.97050000  1.0 -0.5565509124
O  O24  1  0.73900000  0.28440000  0.97050000  1.0 -0.5565509124
O  O25  1  0.22810000  0.67860000  0.60390000  1.0 -0.5443002307
O  O26  1  0.77190000  0.32140000  0.60390000  1.0 -0.5443002307
O  O27  1  0.32140000  0.22810000  0.39610000  1.0 -0.5443002307
O  O28  1  0.67860000  0.77190000  0.39610000  1.0 -0.5443002307
O  O29  1  0.27190000  0.17860000  0.10390000  1.0 -0.5443002307
O  O30  1  0.72810000  0.82140000  0.10390000  1.0 -0.5443002307
O  O31  1  0.17860000  0.72810000  0.89610000  1.0 -0.5443002307
O  O32  1  0.82140000  0.27190000  0.89610000  1.0 -0.5443002307
O  O33  1  0.30630000  0.87350000  0.17100000  1.0 -0.5206909376
O  O34  1  0.69370000  0.12650000  0.17100000  1.0 -0.5206909376
O  O35  1  0.12650000  0.30630000  0.82900000  1.0 -0.5206909376
O  O36  1  0.87350000  0.69370000  0.82900000  1.0 -0.5206909376
O  O37  1  0.19370000  0.37350000  0.67100000  1.0 -0.5206909376
O  O38  1  0.80630000  0.62650000  0.67100000  1.0 -0.5206909376
O  O39  1  0.37350000  0.80630000  0.32900000  1.0 -0.5206909376
O  O40  1  0.62650000  0.19370000  0.32900000  1.0 -0.5206909376
O  O41  1  0.22630000  0.72630000  0.75000000  1.0 -0.6368910991
O  O42  1  0.77370000  0.27370000  0.75000000  1.0 -0.6368910991
O  O43  1  0.27370000  0.22630000  0.25000000  1.0 -0.6368910991
O  O44  1  0.72630000  0.77370000  0.25000000  1.0 -0.6368910991
O  O45  1  0.28550000  0.97600000  0.13710000  1.0 -0.5565509124
O  O46  1  0.71450000  0.02400000  0.13710000  1.0 -0.5565509124
O  O47  1  0.02400000  0.28550000  0.86290000  1.0 -0.5565509124
O  O48  1  0.97600000  0.71450000  0.86290000  1.0 -0.5565509124
O  O49  1  0.21450000  0.47600000  0.63710000  1.0 -0.5565509124
O  O50  1  0.78550000  0.52400000  0.63710000  1.0 -0.5565509124
O  O51  1  0.47600000  0.78550000  0.36290000  1.0 -0.5565509124
O  O52  1  0.52400000  0.21450000  0.36290000  1.0 -0.5565509124
O  O53  1  0.22580000  0.10780000  0.34340000  1.0 -0.5565509124
O  O54  1  0.77420000  0.89220000  0.34340000  1.0 -0.5565509124
O  O55  1  0.89220000  0.22580000  0.65660000  1.0 -0.5565509124
O  O56  1  0.10780000  0.77420000  0.65660000  1.0 -0.5565509124
O  O57  1  0.27420000  0.60780000  0.84340000  1.0 -0.5565509124
O  O58  1  0.72580000  0.39220000  0.84340000  1.0 -0.5565509124
O  O59  1  0.60780000  0.72580000  0.15660000  1.0 -0.5565509124
O  O60  1  0.39220000  0.27420000  0.15660000  1.0 -0.5565509124
O  O61  1  0.25670000  0.09740000  0.23010000  1.0 -0.5206909376
O  O62  1  0.74330000  0.90260000  0.23010000  1.0 -0.5206909376
O  O63  1  0.90260000  0.25670000  0.76990000  1.0 -0.5206909376
O  O64  1  0.09740000  0.74330000  0.76990000  1.0 -0.5206909376
O  O65  1  0.24330000  0.59740000  0.73010000  1.0 -0.5206909376
O  O66  1  0.75670000  0.40260000  0.73010000  1.0 -0.5206909376
O  O67  1  0.59740000  0.75670000  0.26990000  1.0 -0.5206909376
O  O68  1  0.40260000  0.24330000  0.26990000  1.0 -0.5206909376
O  O69  1  0.17390000  0.09600000  0.66770000  1.0 -0.5206909376
O  O70  1  0.82610000  0.90400000  0.66770000  1.0 -0.5206909376
O  O71  1  0.90400000  0.17390000  0.33230000  1.0 -0.5206909376
O  O72  1  0.09600000  0.82610000  0.33230000  1.0 -0.5206909376
O  O73  1  0.32610000  0.59600000  0.16770000  1.0 -0.5206909376
O  O74  1  0.67390000  0.40400000  0.16770000  1.0 -0.5206909376
O  O75  1  0.59600000  0.67390000  0.83230000  1.0 -0.5206909376
O  O76  1  0.40400000  0.32610000  0.83230000  1.0 -0.5206909376
O  O77  1  0.17670000  0.10520000  0.55140000  1.0 -0.5323900603
O  O78  1  0.82330000  0.89480000  0.55140000  1.0 -0.5323900603
O  O79  1  0.89480000  0.17670000  0.44860000  1.0 -0.5323900603
O  O80  1  0.10520000  0.82330000  0.44860000  1.0 -0.5323900603
O  O81  1  0.32330000  0.60520000  0.05140000  1.0 -0.5323900603
O  O82  1  0.67670000  0.39480000  0.05140000  1.0 -0.5323900603
O  O83  1  0.60520000  0.67670000  0.94860000  1.0 -0.5323900603
O  O84  1  0.39480000  0.32330000  0.94860000  1.0 -0.5323900603
O  O85  1  0.19900000  0.97470000  0.76600000  1.0 -0.5206909376
O  O86  1  0.80100000  0.02530000  0.76600000  1.0 -0.5206909376
O  O87  1  0.02530000  0.19900000  0.23400000  1.0 -0.5206909376
O  O88  1  0.97470000  0.80100000  0.23400000  1.0 -0.5206909376
O  O89  1  0.30100000  0.47470000  0.26600000  1.0 -0.5145613574
O  O90  1  0.69900000  0.52530000  0.26600000  1.0 -0.5145613574
O  O91  1  0.47470000  0.69900000  0.73400000  1.0 -0.5206909376
O  O92  1  0.52530000  0.30100000  0.73400000  1.0 -0.5206909376
O  O93  1  0.21120000  0.86730000  0.73730000  1.0 -0.5505374581
O  O94  1  0.78880000  0.13270000  0.73730000  1.0 -0.5505374581
O  O95  1  0.13270000  0.21120000  0.26270000  1.0 -0.5505374581
O  O96  1  0.86730000  0.78880000  0.26270000  1.0 -0.5505374581
O  O97  1  0.28880000  0.36730000  0.23730000  1.0 -0.5505374581
O  O98  1  0.71120000  0.63270000  0.23730000  1.0 -0.5505374581
O  O99  1  0.36730000  0.71120000  0.76270000  1.0 -0.5505374581
O  O100  1  0.63270000  0.28880000  0.76270000  1.0 -0.5505374581
