# DDEC6 charges by PACMAN v1.1 (https://github.com/mtap-research/PACMAN-charge/)
data_VIGDIY_FSR_pacman
_symmetry_space_group_name_H-M   'P 1'
_cell_length_a   18.97800000
_cell_length_b   18.97800000
_cell_length_c   22.91600000
_cell_angle_alpha   90.00000000
_cell_angle_beta   90.00000000
_cell_angle_gamma   120.00000000
_symmetry_Int_Tables_number   1
_chemical_formula_structural   Mn11H72C56(N4O27)2
_chemical_formula_sum   'Mn33 H216 C168 N24 O162'
_cell_volume   7147.76605797
_cell_formula_units_Z   3
loop_
 _symmetry_equiv_pos_site_id
 _symmetry_equiv_pos_as_xyz
  1  'x, y, z'
loop_
 _atom_site_type_symbol
 _atom_site_label
 _atom_site_symmetry_multiplicity
 _atom_site_fract_x
 _atom_site_fract_y
 _atom_site_fract_z
 _atom_site_occupancy
 _atom_site_charge
Mn  Mn1  1  0.56360000  0.00000000  0.16667000  1.0 0.9674935878
Mn  Mn2  1  0.00000000  0.56360000  0.83333000  1.0 0.9674935878
Mn  Mn3  1  0.43640000  0.43640000  0.50000000  1.0 0.9674935878
Mn  Mn4  1  0.61450000  0.01850000  0.00581000  1.0 0.8670239787
Mn  Mn5  1  0.98150000  0.59600000  0.67248000  1.0 0.8670239787
Mn  Mn6  1  0.40400000  0.38550000  0.33914000  1.0 0.8670239787
Mn  Mn7  1  0.01850000  0.61450000  0.99419000  1.0 0.8670239787
Mn  Mn8  1  0.59600000  0.98150000  0.32752000  1.0 0.8670239787
Mn  Mn9  1  0.38550000  0.40400000  0.66086000  1.0 0.8670239787
Mn  Mn10  1  0.53490000  0.15670000  0.98029000  1.0 0.8804319144
Mn  Mn11  1  0.84330000  0.37820000  0.64696000  1.0 0.8804319144
Mn  Mn12  1  0.62180000  0.46510000  0.31362000  1.0 0.8804319144
Mn  Mn13  1  0.15670000  0.53490000  0.01971000  1.0 0.8804319144
Mn  Mn14  1  0.37820000  0.84330000  0.35304000  1.0 0.8804319144
Mn  Mn15  1  0.46510000  0.62180000  0.68638000  1.0 0.8804319144
Mn  Mn16  1  0.58000000  0.28020000  0.22164000  1.0 1.1129488171
Mn  Mn17  1  0.71980000  0.29980000  0.88831000  1.0 1.1129488171
Mn  Mn18  1  0.70020000  0.42000000  0.55497000  1.0 1.1154732645
Mn  Mn19  1  0.28020000  0.58000000  0.77836000  1.0 1.1129488171
Mn  Mn20  1  0.29980000  0.71980000  0.11169000  1.0 1.1129488171
Mn  Mn21  1  0.42000000  0.70020000  0.44503000  1.0 1.1129488171
Mn  Mn22  1  0.24940000  0.86840000  0.84020000  1.0 0.6230674327
Mn  Mn23  1  0.13160000  0.38100000  0.50687000  1.0 0.6230674327
Mn  Mn24  1  0.61900000  0.75060000  0.17353000  1.0 0.6230674327
Mn  Mn25  1  0.86840000  0.24940000  0.15980000  1.0 0.6230674327
Mn  Mn26  1  0.38100000  0.13160000  0.49313000  1.0 0.6230674327
Mn  Mn27  1  0.75060000  0.61900000  0.82647000  1.0 0.6230674327
Mn  Mn28  1  0.60350000  0.68400000  0.13330000  1.0 0.4779129168
Mn  Mn29  1  0.31600000  0.91950000  0.79997000  1.0 0.4779129168
Mn  Mn30  1  0.08050000  0.39650000  0.46663000  1.0 0.4779129168
Mn  Mn31  1  0.68400000  0.60350000  0.86670000  1.0 0.4779129168
Mn  Mn32  1  0.91950000  0.31600000  0.20003000  1.0 0.4779129168
Mn  Mn33  1  0.39650000  0.08050000  0.53337000  1.0 0.4779129168
H  H1  1  0.61100000  0.87100000  0.92700000  1.0 0.0992048309
H  H2  1  0.12900000  0.74000000  0.59367000  1.0 0.0992048309
H  H3  1  0.26000000  0.38900000  0.26033000  1.0 0.0992048309
H  H4  1  0.87100000  0.61100000  0.07300000  1.0 0.0992048309
H  H5  1  0.74000000  0.12900000  0.40633000  1.0 0.0992048309
H  H6  1  0.38900000  0.26000000  0.73967000  1.0 0.0992048309
H  H7  1  0.69900000  0.05600000  0.86400000  1.0 0.130321488
H  H8  1  0.94400000  0.64300000  0.53067000  1.0 0.130321488
H  H9  1  0.35700000  0.30100000  0.19733000  1.0 0.130321488
H  H10  1  0.05600000  0.69900000  0.13600000  1.0 0.130321488
H  H11  1  0.64300000  0.94400000  0.46933000  1.0 0.130321488
H  H12  1  0.30100000  0.35700000  0.80267000  1.0 0.130321488
H  H13  1  0.61400000  0.02600000  0.83400000  1.0 0.1400657787
H  H14  1  0.97400000  0.58800000  0.50067000  1.0 0.1400657787
H  H15  1  0.41200000  0.38600000  0.16733000  1.0 0.1400657787
H  H16  1  0.02600000  0.61400000  0.16600000  1.0 0.1400657787
H  H17  1  0.58800000  0.97400000  0.49933000  1.0 0.1400657787
H  H18  1  0.38600000  0.41200000  0.83267000  1.0 0.1400657787
H  H19  1  0.50000000  0.96000000  0.88800000  1.0 0.1400657787
H  H20  1  0.04000000  0.54000000  0.55467000  1.0 0.1400657787
H  H21  1  0.46000000  0.50000000  0.22133000  1.0 0.1400657787
H  H22  1  0.96000000  0.50000000  0.11200000  1.0 0.1400657787
H  H23  1  0.54000000  0.04000000  0.44533000  1.0 0.1400657787
H  H24  1  0.50000000  0.46000000  0.77867000  1.0 0.1400657787
H  H25  1  0.51100000  0.88600000  0.86900000  1.0 0.130321488
H  H26  1  0.11400000  0.62500000  0.53567000  1.0 0.130321488
H  H27  1  0.37500000  0.48900000  0.20233000  1.0 0.130321488
H  H28  1  0.88600000  0.51100000  0.13100000  1.0 0.130321488
H  H29  1  0.62500000  0.11400000  0.46433000  1.0 0.130321488
H  H30  1  0.48900000  0.37500000  0.79767000  1.0 0.130321488
H  H31  1  0.41600000  0.19200000  0.07700000  1.0 0.0992048309
H  H32  1  0.80800000  0.22400000  0.74367000  1.0 0.0992048309
H  H33  1  0.77600000  0.58400000  0.41033000  1.0 0.0992048309
H  H34  1  0.19200000  0.41600000  0.92300000  1.0 0.0992048309
H  H35  1  0.22400000  0.80800000  0.25633000  1.0 0.0992048309
H  H36  1  0.58400000  0.77600000  0.58967000  1.0 0.0992048309
H  H37  1  0.59100000  0.34900000  0.03100000  1.0 0.1481771174
H  H38  1  0.65100000  0.24200000  0.69767000  1.0 0.1481771174
H  H39  1  0.75800000  0.40900000  0.36433000  1.0 0.1481771174
H  H40  1  0.34900000  0.59100000  0.96900000  1.0 0.1481771174
H  H41  1  0.24200000  0.65100000  0.30233000  1.0 0.1481771174
H  H42  1  0.40900000  0.75800000  0.63567000  1.0 0.1481771174
H  H43  1  0.52200000  0.32000000  0.08000000  1.0 0.130321488
H  H44  1  0.68000000  0.20200000  0.74667000  1.0 0.130321488
H  H45  1  0.79800000  0.47800000  0.41333000  1.0 0.130321488
H  H46  1  0.32000000  0.52200000  0.92000000  1.0 0.130321488
H  H47  1  0.20200000  0.68000000  0.25333000  1.0 0.130321488
H  H48  1  0.47800000  0.79800000  0.58667000  1.0 0.130321488
H  H49  1  0.44800000  0.24900000  0.93200000  1.0 0.130321488
H  H50  1  0.75100000  0.19900000  0.59867000  1.0 0.130321488
H  H51  1  0.80100000  0.55200000  0.26533000  1.0 0.130321488
H  H52  1  0.24900000  0.44800000  0.06800000  1.0 0.130321488
H  H53  1  0.19900000  0.75100000  0.40133000  1.0 0.130321488
H  H54  1  0.55200000  0.80100000  0.73467000  1.0 0.130321488
H  H55  1  0.48800000  0.33400000  0.96600000  1.0 0.1228244143
H  H56  1  0.66600000  0.15400000  0.63267000  1.0 0.1228244143
H  H57  1  0.84600000  0.51200000  0.29933000  1.0 0.1228244143
H  H58  1  0.33400000  0.48800000  0.03400000  1.0 0.1228244143
H  H59  1  0.15400000  0.66600000  0.36733000  1.0 0.1228244143
H  H60  1  0.51200000  0.84600000  0.70067000  1.0 0.1228244143
H  H61  1  0.64800000  0.86900000  0.02100000  1.0 0.1400657787
H  H62  1  0.13100000  0.77900000  0.68767000  1.0 0.1400657787
H  H63  1  0.22100000  0.35200000  0.35433000  1.0 0.1400657787
H  H64  1  0.86900000  0.64800000  0.97900000  1.0 0.1400657787
H  H65  1  0.77900000  0.13100000  0.31233000  1.0 0.1400657787
H  H66  1  0.35200000  0.22100000  0.64567000  1.0 0.1400657787
H  H67  1  0.73300000  0.91000000  0.05300000  1.0 0.1400657787
H  H68  1  0.09000000  0.82300000  0.71967000  1.0 0.1400657787
H  H69  1  0.17700000  0.26700000  0.38633000  1.0 0.1400657787
H  H70  1  0.91000000  0.73300000  0.94700000  1.0 0.1400657787
H  H71  1  0.82300000  0.09000000  0.28033000  1.0 0.1400657787
H  H72  1  0.26700000  0.17700000  0.61367000  1.0 0.1400657787
H  H73  1  0.76000000  0.01500000  0.92100000  1.0 0.0876501287
H  H74  1  0.98500000  0.74500000  0.58767000  1.0 0.0876501287
H  H75  1  0.25500000  0.24000000  0.25433000  1.0 0.0876501287
H  H76  1  0.01500000  0.76000000  0.07900000  1.0 0.0876501287
H  H77  1  0.74500000  0.98500000  0.41233000  1.0 0.0876501287
H  H78  1  0.24000000  0.25500000  0.74567000  1.0 0.0876501287
H  H79  1  0.34600000  0.97900000  0.06400000  1.0 0.1400657787
H  H80  1  0.02100000  0.36700000  0.73067000  1.0 0.1400657787
H  H81  1  0.63300000  0.65400000  0.39733000  1.0 0.1400657787
H  H82  1  0.97900000  0.34600000  0.93600000  1.0 0.1400657787
H  H83  1  0.36700000  0.02100000  0.26933000  1.0 0.1400657787
H  H84  1  0.65400000  0.63300000  0.60267000  1.0 0.1400657787
H  H85  1  0.40100000  0.06600000  0.09400000  1.0 0.1400657787
H  H86  1  0.93400000  0.33500000  0.76067000  1.0 0.1400657787
H  H87  1  0.66500000  0.59900000  0.42733000  1.0 0.1400657787
H  H88  1  0.06600000  0.40100000  0.90600000  1.0 0.1400657787
H  H89  1  0.33500000  0.93400000  0.23933000  1.0 0.1400657787
H  H90  1  0.59900000  0.66500000  0.57267000  1.0 0.1400657787
H  H91  1  0.68600000  0.94800000  0.82200000  1.0 0.1094585887
H  H92  1  0.05200000  0.73800000  0.48867000  1.0 0.1094585887
H  H93  1  0.26200000  0.31400000  0.15533000  1.0 0.1094585887
H  H94  1  0.94800000  0.68600000  0.17800000  1.0 0.1094585887
H  H95  1  0.73800000  0.05200000  0.51133000  1.0 0.1094585887
H  H96  1  0.31400000  0.26200000  0.84467000  1.0 0.1094585887
H  H97  1  0.60300000  0.86600000  0.82800000  1.0 0.1228244143
H  H98  1  0.13400000  0.73700000  0.49467000  1.0 0.1228244143
H  H99  1  0.26300000  0.39700000  0.16133000  1.0 0.1228244143
H  H100  1  0.86600000  0.60300000  0.17200000  1.0 0.1228244143
H  H101  1  0.73700000  0.13400000  0.50533000  1.0 0.1228244143
H  H102  1  0.39700000  0.26300000  0.83867000  1.0 0.1228244143
H  H103  1  0.34600000  0.12700000  0.96800000  1.0 0.0992048309
H  H104  1  0.87300000  0.21900000  0.63467000  1.0 0.0992048309
H  H105  1  0.78100000  0.65400000  0.30133000  1.0 0.0992048309
H  H106  1  0.12700000  0.34600000  0.03200000  1.0 0.0992048309
H  H107  1  0.21900000  0.87300000  0.36533000  1.0 0.0992048309
H  H108  1  0.65400000  0.78100000  0.69867000  1.0 0.0992048309
H  H109  1  0.27800000  0.06300000  0.07400000  1.0 0.1094585887
H  H110  1  0.93700000  0.21500000  0.74067000  1.0 0.1094585887
H  H111  1  0.78500000  0.72200000  0.40733000  1.0 0.1094585887
H  H112  1  0.06300000  0.27800000  0.92600000  1.0 0.1094585887
H  H113  1  0.21500000  0.93700000  0.25933000  1.0 0.1094585887
H  H114  1  0.72200000  0.78500000  0.59267000  1.0 0.1094585887
H  H115  1  0.24100000  0.02700000  0.01200000  1.0 0.130321488
H  H116  1  0.97300000  0.21400000  0.67867000  1.0 0.130321488
H  H117  1  0.78600000  0.75900000  0.34533000  1.0 0.130321488
H  H118  1  0.02700000  0.24100000  0.98800000  1.0 0.130321488
H  H119  1  0.21400000  0.97300000  0.32133000  1.0 0.130321488
H  H120  1  0.75900000  0.78600000  0.65467000  1.0 0.130321488
H  H121  1  0.29000000  0.19300000  0.10800000  1.0 0.1094585887
H  H122  1  0.80700000  0.09700000  0.77467000  1.0 0.1094585887
H  H123  1  0.90300000  0.71000000  0.44133000  1.0 0.1094585887
H  H124  1  0.19300000  0.29000000  0.89200000  1.0 0.1094585887
H  H125  1  0.09700000  0.80700000  0.22533000  1.0 0.1094585887
H  H126  1  0.71000000  0.90300000  0.55867000  1.0 0.1094585887
H  H127  1  0.25700000  0.23900000  0.06600000  1.0 0.0992048309
H  H128  1  0.76100000  0.01800000  0.73267000  1.0 0.0992048309
H  H129  1  0.98200000  0.74300000  0.39933000  1.0 0.0992048309
H  H130  1  0.23900000  0.25700000  0.93400000  1.0 0.0992048309
H  H131  1  0.01800000  0.76100000  0.26733000  1.0 0.0992048309
H  H132  1  0.74300000  0.98200000  0.60067000  1.0 0.0992048309
H  H133  1  0.37600000  0.96500000  0.96900000  1.0 0.1566744139
H  H134  1  0.03500000  0.41100000  0.63567000  1.0 0.1566744139
H  H135  1  0.58900000  0.62400000  0.30233000  1.0 0.1566744139
H  H136  1  0.96500000  0.37600000  0.03100000  1.0 0.1566744139
H  H137  1  0.41100000  0.03500000  0.36433000  1.0 0.1566744139
H  H138  1  0.62400000  0.58900000  0.69767000  1.0 0.1566744139
H  H139  1  0.30600000  0.98600000  0.95700000  1.0 0.1481771174
H  H140  1  0.01400000  0.32000000  0.62367000  1.0 0.1481771174
H  H141  1  0.68000000  0.69400000  0.29033000  1.0 0.1481771174
H  H142  1  0.98600000  0.30600000  0.04300000  1.0 0.1481771174
H  H143  1  0.32000000  0.01400000  0.37633000  1.0 0.1481771174
H  H144  1  0.69400000  0.68000000  0.70967000  1.0 0.1481771174
H  H145  1  0.21700000  0.13100000  0.99600000  1.0 0.1094585887
H  H146  1  0.86900000  0.08600000  0.66267000  1.0 0.1094585887
H  H147  1  0.91400000  0.78300000  0.32933000  1.0 0.1094585887
H  H148  1  0.13100000  0.21700000  0.00400000  1.0 0.1094585887
H  H149  1  0.08600000  0.86900000  0.33733000  1.0 0.1094585887
H  H150  1  0.78300000  0.91400000  0.67067000  1.0 0.1094585887
H  H151  1  0.17800000  0.09000000  0.05700000  1.0 0.1094585887
H  H152  1  0.91000000  0.08800000  0.72367000  1.0 0.1094585887
H  H153  1  0.91200000  0.82200000  0.39033000  1.0 0.1094585887
H  H154  1  0.09000000  0.17800000  0.94300000  1.0 0.1094585887
H  H155  1  0.08800000  0.91000000  0.27633000  1.0 0.1094585887
H  H156  1  0.82200000  0.91200000  0.60967000  1.0 0.1094585887
H  H157  1  0.35300000  0.25800000  0.99800000  1.0 0.1094585887
H  H158  1  0.74200000  0.09500000  0.66467000  1.0 0.1094585887
H  H159  1  0.90500000  0.64700000  0.33133000  1.0 0.1094585887
H  H160  1  0.25800000  0.35300000  0.00200000  1.0 0.1094585887
H  H161  1  0.09500000  0.74200000  0.33533000  1.0 0.1094585887
H  H162  1  0.64700000  0.90500000  0.66867000  1.0 0.1094585887
H  H163  1  0.39500000  0.29800000  0.05900000  1.0 0.1228244143
H  H164  1  0.70200000  0.09700000  0.72567000  1.0 0.1228244143
H  H165  1  0.90300000  0.60500000  0.39233000  1.0 0.1228244143
H  H166  1  0.29800000  0.39500000  0.94100000  1.0 0.1228244143
H  H167  1  0.09700000  0.70200000  0.27433000  1.0 0.1228244143
H  H168  1  0.60500000  0.90300000  0.60767000  1.0 0.1228244143
H  H169  1  0.80500000  0.03400000  0.06300000  1.0 0.1400657787
H  H170  1  0.96600000  0.77100000  0.72967000  1.0 0.1400657787
H  H171  1  0.22900000  0.19500000  0.39633000  1.0 0.1400657787
H  H172  1  0.03400000  0.80500000  0.93700000  1.0 0.1400657787
H  H173  1  0.77100000  0.96600000  0.27033000  1.0 0.1400657787
H  H174  1  0.19500000  0.22900000  0.60367000  1.0 0.1400657787
H  H175  1  0.83400000  0.06500000  0.99900000  1.0 0.130321488
H  H176  1  0.93500000  0.76900000  0.66567000  1.0 0.130321488
H  H177  1  0.23100000  0.16600000  0.33233000  1.0 0.130321488
H  H178  1  0.06500000  0.83400000  0.00100000  1.0 0.130321488
H  H179  1  0.76900000  0.93500000  0.33433000  1.0 0.130321488
H  H180  1  0.16600000  0.23100000  0.66767000  1.0 0.130321488
H  H181  1  0.70900000  0.84100000  0.80300000  1.0 0.0992048309
H  H182  1  0.15900000  0.86800000  0.46967000  1.0 0.0992048309
H  H183  1  0.13200000  0.29100000  0.13633000  1.0 0.0992048309
H  H184  1  0.84100000  0.70900000  0.19700000  1.0 0.0992048309
H  H185  1  0.86800000  0.15900000  0.53033000  1.0 0.0992048309
H  H186  1  0.29100000  0.13200000  0.86367000  1.0 0.0992048309
H  H187  1  0.66900000  0.80000000  0.86300000  1.0 0.1228244143
H  H188  1  0.20000000  0.86900000  0.52967000  1.0 0.1228244143
H  H189  1  0.13100000  0.33100000  0.19633000  1.0 0.1228244143
H  H190  1  0.80000000  0.66900000  0.13700000  1.0 0.1228244143
H  H191  1  0.86900000  0.20000000  0.47033000  1.0 0.130321488
H  H192  1  0.33100000  0.13100000  0.80367000  1.0 0.1228244143
H  H193  1  0.82400000  0.94800000  0.95700000  1.0 0.1094585887
H  H194  1  0.05200000  0.87600000  0.62367000  1.0 0.1094585887
H  H195  1  0.12400000  0.17600000  0.29033000  1.0 0.1094585887
H  H196  1  0.94800000  0.82400000  0.04300000  1.0 0.1094585887
H  H197  1  0.87600000  0.05200000  0.37633000  1.0 0.1094585887
H  H198  1  0.17600000  0.12400000  0.70967000  1.0 0.1094585887
H  H199  1  0.74100000  0.86500000  0.95900000  1.0 0.1228244143
H  H200  1  0.13500000  0.87600000  0.62567000  1.0 0.1228244143
H  H201  1  0.12400000  0.25900000  0.29233000  1.0 0.1228244143
H  H202  1  0.86500000  0.74100000  0.04100000  1.0 0.1228244143
H  H203  1  0.87600000  0.13500000  0.37433000  1.0 0.1228244143
H  H204  1  0.25900000  0.12400000  0.70767000  1.0 0.1228244143
H  H205  1  0.81000000  0.87000000  0.87000000  1.0 0.130321488
H  H206  1  0.13000000  0.94000000  0.53667000  1.0 0.130321488
H  H207  1  0.06000000  0.19000000  0.20333000  1.0 0.130321488
H  H208  1  0.87000000  0.81000000  0.13000000  1.0 0.130321488
H  H209  1  0.94000000  0.13000000  0.46333000  1.0 0.130321488
H  H210  1  0.19000000  0.06000000  0.79667000  1.0 0.130321488
H  H211  1  0.81200000  0.95100000  0.85100000  1.0 0.0876501287
H  H212  1  0.04900000  0.86100000  0.51767000  1.0 0.0876501287
H  H213  1  0.13900000  0.18800000  0.18433000  1.0 0.0876501287
H  H214  1  0.95100000  0.81200000  0.14900000  1.0 0.0876501287
H  H215  1  0.86100000  0.04900000  0.48233000  1.0 0.0876501287
H  H216  1  0.18800000  0.13900000  0.81567000  1.0 0.0876501287
C  C1  1  0.64600000  0.92100000  0.90760000  1.0 0.0219061446
C  C2  1  0.07900000  0.72500000  0.57427000  1.0 0.0219061446
C  C3  1  0.27500000  0.35400000  0.24093000  1.0 0.0219061446
C  C4  1  0.92100000  0.64600000  0.09240000  1.0 0.0219061446
C  C5  1  0.72500000  0.07900000  0.42573000  1.0 0.0219061446
C  C6  1  0.35400000  0.27500000  0.75907000  1.0 0.0219061446
C  C7  1  0.46340000  0.01390000  0.06790000  1.0 0.5941368283
C  C8  1  0.98610000  0.44950000  0.73457000  1.0 0.5941368283
C  C9  1  0.55050000  0.53660000  0.40123000  1.0 0.5941368283
C  C10  1  0.01390000  0.46340000  0.93210000  1.0 0.5941368283
C  C11  1  0.44950000  0.98610000  0.26543000  1.0 0.5941368283
C  C12  1  0.53660000  0.55050000  0.59877000  1.0 0.5941368283
C  C13  1  0.64300000  0.04200000  0.87000000  1.0 -0.2889840676
C  C14  1  0.95800000  0.60100000  0.53667000  1.0 -0.2889840676
C  C15  1  0.39900000  0.35700000  0.20333000  1.0 -0.2889840676
C  C16  1  0.04200000  0.64300000  0.13000000  1.0 -0.2889840676
C  C17  1  0.60100000  0.95800000  0.46333000  1.0 -0.2889840676
C  C18  1  0.35700000  0.39900000  0.79667000  1.0 -0.2889840676
C  C19  1  0.64700000  0.92200000  0.09880000  1.0 0.4922365984
C  C20  1  0.07800000  0.72500000  0.76547000  1.0 0.4922365984
C  C21  1  0.27500000  0.35300000  0.43213000  1.0 0.4922365984
C  C22  1  0.92200000  0.64700000  0.90120000  1.0 0.4922365984
C  C23  1  0.72500000  0.07800000  0.23453000  1.0 0.4922365984
C  C24  1  0.35300000  0.27500000  0.56787000  1.0 0.4922365984
C  C25  1  0.52000000  0.92400000  0.89950000  1.0 -0.2642008473
C  C26  1  0.07600000  0.59600000  0.56617000  1.0 -0.2642008473
C  C27  1  0.40400000  0.48000000  0.23283000  1.0 -0.2642008473
C  C28  1  0.92400000  0.52000000  0.10050000  1.0 -0.2642008473
C  C29  1  0.59600000  0.07600000  0.43383000  1.0 -0.2642008473
C  C30  1  0.48000000  0.40400000  0.76717000  1.0 -0.2642008473
C  C31  1  0.59200000  0.26600000  0.08630000  1.0 0.6056315443
C  C32  1  0.73400000  0.32600000  0.75297000  1.0 0.6056315443
C  C33  1  0.67400000  0.40800000  0.41963000  1.0 0.6056315443
C  C34  1  0.26600000  0.59200000  0.91370000  1.0 0.6056315443
C  C35  1  0.32600000  0.73400000  0.24703000  1.0 0.6056315443
C  C36  1  0.40800000  0.67400000  0.58037000  1.0 0.6056315443
C  C37  1  0.40600000  0.20000000  0.03680000  1.0 0.0099416796
C  C38  1  0.80000000  0.20600000  0.70347000  1.0 0.0099416796
C  C39  1  0.79400000  0.59400000  0.37013000  1.0 0.0099416796
C  C40  1  0.20000000  0.40600000  0.96320000  1.0 0.0099416796
C  C41  1  0.20600000  0.80000000  0.29653000  1.0 0.0099416796
C  C42  1  0.59400000  0.79400000  0.62987000  1.0 0.0099416796
C  C43  1  0.55000000  0.30300000  0.05220000  1.0 -0.2889840676
C  C44  1  0.69700000  0.24700000  0.71887000  1.0 -0.2889840676
C  C45  1  0.75300000  0.45000000  0.38553000  1.0 -0.2889840676
C  C46  1  0.30300000  0.55000000  0.94780000  1.0 -0.2889840676
C  C47  1  0.24700000  0.69700000  0.28113000  1.0 -0.2889840676
C  C48  1  0.45000000  0.75300000  0.61447000  1.0 -0.2889840676
C  C49  1  0.47100000  0.87600000  0.95390000  1.0 0.5598546605
C  C50  1  0.12400000  0.59500000  0.62057000  1.0 0.5598546605
C  C51  1  0.40500000  0.52900000  0.28723000  1.0 0.5598546605
C  C52  1  0.87600000  0.47100000  0.04610000  1.0 0.5598546605
C  C53  1  0.59500000  0.12400000  0.37943000  1.0 0.5598546605
C  C54  1  0.52900000  0.40500000  0.71277000  1.0 0.5598546605
C  C55  1  0.49300000  0.28600000  0.95630000  1.0 -0.2825917727
C  C56  1  0.71400000  0.20700000  0.62297000  1.0 -0.2825917727
C  C57  1  0.79300000  0.50700000  0.28963000  1.0 -0.2825917727
C  C58  1  0.28600000  0.49300000  0.04370000  1.0 -0.2825917727
C  C59  1  0.20700000  0.71400000  0.37703000  1.0 -0.2825917727
C  C60  1  0.50700000  0.79300000  0.71037000  1.0 -0.2825917727
C  C61  1  0.68700000  0.91600000  0.04210000  1.0 -0.2642008473
C  C62  1  0.08400000  0.77100000  0.70877000  1.0 -0.2642008473
C  C63  1  0.22900000  0.31300000  0.37543000  1.0 -0.2642008473
C  C64  1  0.91600000  0.68700000  0.95790000  1.0 -0.2642008473
C  C65  1  0.77100000  0.08400000  0.29123000  1.0 -0.2642008473
C  C66  1  0.31300000  0.22900000  0.62457000  1.0 -0.2642008473
C  C67  1  0.72600000  0.96400000  0.94070000  1.0 0.0099416796
C  C68  1  0.03600000  0.76200000  0.60737000  1.0 0.0099416796
C  C69  1  0.23800000  0.27400000  0.27403000  1.0 0.0099416796
C  C70  1  0.96400000  0.72600000  0.05930000  1.0 0.0099416796
C  C71  1  0.76200000  0.03600000  0.39263000  1.0 0.0099416796
C  C72  1  0.27400000  0.23800000  0.72597000  1.0 0.0099416796
C  C73  1  0.39700000  0.03000000  0.06150000  1.0 -0.319985182
C  C74  1  0.97000000  0.36700000  0.72817000  1.0 -0.319985182
C  C75  1  0.63300000  0.60300000  0.39483000  1.0 -0.319985182
C  C76  1  0.03000000  0.39700000  0.93850000  1.0 -0.319985182
C  C77  1  0.36700000  0.97000000  0.27183000  1.0 -0.319985182
C  C78  1  0.60300000  0.63300000  0.60517000  1.0 -0.319985182
C  C79  1  0.78700000  0.13100000  0.04100000  1.0 0.5598546605
C  C80  1  0.86900000  0.65600000  0.70767000  1.0 0.5598546605
C  C81  1  0.34400000  0.21300000  0.37433000  1.0 0.5598546605
C  C82  1  0.13100000  0.78700000  0.95900000  1.0 0.5598546605
C  C83  1  0.65600000  0.86900000  0.29233000  1.0 0.5598546605
C  C84  1  0.21300000  0.34400000  0.62567000  1.0 0.5598546605
C  C85  1  0.65600000  0.89900000  0.84440000  1.0 -0.2390443443
C  C86  1  0.10100000  0.75700000  0.51107000  1.0 -0.2390443443
C  C87  1  0.24300000  0.34400000  0.17773000  1.0 -0.2390443443
C  C88  1  0.89900000  0.65600000  0.15560000  1.0 -0.2390443443
C  C89  1  0.75700000  0.10100000  0.48893000  1.0 -0.2390443443
C  C90  1  0.34400000  0.24300000  0.82227000  1.0 -0.2390443443
C  C91  1  0.40600000  0.04900000  0.89890000  1.0 0.5773555776
C  C92  1  0.95100000  0.35700000  0.56557000  1.0 0.5773555776
C  C93  1  0.64300000  0.59400000  0.23223000  1.0 0.5773555776
C  C94  1  0.04900000  0.40600000  0.10110000  1.0 0.5773555776
C  C95  1  0.35700000  0.95100000  0.43443000  1.0 0.5773555776
C  C96  1  0.59400000  0.64300000  0.76777000  1.0 0.5773555776
C  C97  1  0.57100000  0.31400000  0.92280000  1.0 0.5941368283
C  C98  1  0.68600000  0.25700000  0.58947000  1.0 0.5941368283
C  C99  1  0.74300000  0.42900000  0.25613000  1.0 0.5941368283
C  C100  1  0.31400000  0.57100000  0.07720000  1.0 0.5941368283
C  C101  1  0.25700000  0.68600000  0.41053000  1.0 0.5941368283
C  C102  1  0.42900000  0.74300000  0.74387000  1.0 0.5941368283
C  C103  1  0.35500000  0.11900000  0.00820000  1.0 0.0099416796
C  C104  1  0.88100000  0.23600000  0.67487000  1.0 0.0099416796
C  C105  1  0.76400000  0.64500000  0.34153000  1.0 0.0099416796
C  C106  1  0.11900000  0.35500000  0.99180000  1.0 0.0099416796
C  C107  1  0.23600000  0.88100000  0.32513000  1.0 0.0099416796
C  C108  1  0.64500000  0.76400000  0.65847000  1.0 0.0099416796
C  C109  1  0.64110000  0.11470000  0.89290000  1.0 0.6056315443
C  C110  1  0.88530000  0.52640000  0.55957000  1.0 0.6056315443
C  C111  1  0.47360000  0.35890000  0.22623000  1.0 0.6056315443
C  C112  1  0.11470000  0.64110000  0.10710000  1.0 0.6056315443
C  C113  1  0.52640000  0.88530000  0.44043000  1.0 0.6056315443
C  C114  1  0.35890000  0.47360000  0.77377000  1.0 0.6056315443
C  C115  1  0.27200000  0.07600000  0.03360000  1.0 -0.2328229854
C  C116  1  0.92400000  0.19600000  0.70027000  1.0 -0.2328229854
C  C117  1  0.80400000  0.72800000  0.36693000  1.0 -0.2328229854
C  C118  1  0.07600000  0.27200000  0.96640000  1.0 -0.2328229854
C  C119  1  0.19600000  0.92400000  0.29973000  1.0 -0.2328229854
C  C120  1  0.72800000  0.80400000  0.63307000  1.0 -0.2328229854
C  C121  1  0.28300000  0.20600000  0.06740000  1.0 -0.1632160778
C  C122  1  0.79400000  0.07700000  0.73407000  1.0 -0.1632160778
C  C123  1  0.92300000  0.71700000  0.40073000  1.0 -0.1632160778
C  C124  1  0.20600000  0.28300000  0.93260000  1.0 -0.1632160778
C  C125  1  0.07700000  0.79400000  0.26593000  1.0 -0.1632160778
C  C126  1  0.71700000  0.92300000  0.59927000  1.0 -0.1632160778
C  C127  1  0.36400000  0.00800000  0.95920000  1.0 -0.2720076203
C  C128  1  0.99200000  0.35600000  0.62587000  1.0 -0.2720076203
C  C129  1  0.64400000  0.63600000  0.29253000  1.0 -0.2720076203
C  C130  1  0.00800000  0.36400000  0.04080000  1.0 -0.2720076203
C  C131  1  0.35600000  0.99200000  0.37413000  1.0 -0.2720076203
C  C132  1  0.63600000  0.64400000  0.70747000  1.0 -0.2720076203
C  C133  1  0.22900000  0.12200000  0.03600000  1.0 -0.1531326035
C  C134  1  0.87800000  0.10700000  0.70267000  1.0 -0.1531326035
C  C135  1  0.89300000  0.77100000  0.36933000  1.0 -0.1531326035
C  C136  1  0.12200000  0.22900000  0.96400000  1.0 -0.1531326035
C  C137  1  0.10700000  0.87800000  0.29733000  1.0 -0.1531326035
C  C138  1  0.77100000  0.89300000  0.63067000  1.0 -0.1531326035
C  C139  1  0.36200000  0.24800000  0.03800000  1.0 -0.2390443443
C  C140  1  0.75200000  0.11400000  0.70467000  1.0 -0.2390443443
C  C141  1  0.88600000  0.63800000  0.37133000  1.0 -0.2390443443
C  C142  1  0.24800000  0.36200000  0.96200000  1.0 -0.2390443443
C  C143  1  0.11400000  0.75200000  0.29533000  1.0 -0.2390443443
C  C144  1  0.63800000  0.88600000  0.62867000  1.0 -0.2390443443
C  C145  1  0.79200000  0.05200000  0.02700000  1.0 -0.2499812106
C  C146  1  0.94800000  0.74000000  0.69367000  1.0 -0.2499812106
C  C147  1  0.26000000  0.20800000  0.36033000  1.0 -0.2499812106
C  C148  1  0.05200000  0.79200000  0.97300000  1.0 -0.2499812106
C  C149  1  0.74000000  0.94800000  0.30633000  1.0 -0.2499812106
C  C150  1  0.20800000  0.26000000  0.63967000  1.0 -0.2499812106
C  C151  1  0.70100000  0.85200000  0.84290000  1.0 -0.1375519593
C  C152  1  0.14800000  0.84900000  0.50957000  1.0 -0.1375519593
C  C153  1  0.15100000  0.29900000  0.17623000  1.0 -0.1375519593
C  C154  1  0.85200000  0.70100000  0.15710000  1.0 -0.1375519593
C  C155  1  0.84900000  0.14800000  0.49043000  1.0 -0.1375519593
C  C156  1  0.29900000  0.15100000  0.82377000  1.0 -0.1375519593
C  C157  1  0.77100000  0.91600000  0.93820000  1.0 -0.219030709
C  C158  1  0.08400000  0.85500000  0.60487000  1.0 -0.219030709
C  C159  1  0.14500000  0.22900000  0.27153000  1.0 -0.219030709
C  C160  1  0.91600000  0.77100000  0.06180000  1.0 -0.219030709
C  C161  1  0.85500000  0.08400000  0.39513000  1.0 -0.219030709
C  C162  1  0.22900000  0.14500000  0.72847000  1.0 -0.219030709
C  C163  1  0.78100000  0.90000000  0.87200000  1.0 -0.1375519593
C  C164  1  0.10000000  0.88100000  0.53867000  1.0 -0.1375519593
C  C165  1  0.11900000  0.21900000  0.20533000  1.0 -0.1375519593
C  C166  1  0.90000000  0.78100000  0.12800000  1.0 -0.1375519593
C  C167  1  0.88100000  0.10000000  0.46133000  1.0 -0.1375519593
C  C168  1  0.21900000  0.11900000  0.79467000  1.0 -0.1375519593
N  N1  1  0.60590000  0.97160000  0.91000000  1.0 -0.1113796191
N  N2  1  0.02840000  0.63430000  0.57667000  1.0 -0.1113796191
N  N3  1  0.36570000  0.39410000  0.24333000  1.0 -0.1113796191
N  N4  1  0.97160000  0.60590000  0.09000000  1.0 -0.1113796191
N  N5  1  0.63430000  0.02840000  0.42333000  1.0 -0.1113796191
N  N6  1  0.39410000  0.36570000  0.75667000  1.0 -0.1113796191
N  N7  1  0.71540000  0.98420000  0.00340000  1.0 -0.1113796191
N  N8  1  0.01580000  0.73120000  0.67007000  1.0 -0.1113796191
N  N9  1  0.26880000  0.28460000  0.33673000  1.0 -0.1113796191
N  N10  1  0.98420000  0.71540000  0.99660000  1.0 -0.1113796191
N  N11  1  0.73120000  0.01580000  0.32993000  1.0 -0.1113796191
N  N12  1  0.28460000  0.26880000  0.66327000  1.0 -0.1113796191
N  N13  1  0.39760000  0.07150000  0.00490000  1.0 -0.1113796191
N  N14  1  0.92850000  0.32610000  0.67157000  1.0 -0.1113796191
N  N15  1  0.67390000  0.60240000  0.33823000  1.0 -0.1113796191
N  N16  1  0.07150000  0.39760000  0.99510000  1.0 -0.1113796191
N  N17  1  0.32610000  0.92850000  0.32843000  1.0 -0.1113796191
N  N18  1  0.60240000  0.67390000  0.66177000  1.0 -0.1113796191
N  N19  1  0.49060000  0.24600000  0.00960000  1.0 -0.1113796191
N  N20  1  0.75400000  0.24460000  0.67627000  1.0 -0.1113796191
N  N21  1  0.75540000  0.50940000  0.34293000  1.0 -0.1113796191
N  N22  1  0.24600000  0.49060000  0.99040000  1.0 -0.1113796191
N  N23  1  0.24460000  0.75400000  0.32373000  1.0 -0.1113796191
N  N24  1  0.50940000  0.75540000  0.65707000  1.0 -0.1113796191
O  O1  1  0.94100000  0.44400000  0.22900000  1.0 -0.1737624416
O  O2  1  0.55600000  0.49700000  0.89567000  1.0 -0.1737624416
O  O3  1  0.50300000  0.05900000  0.56233000  1.0 -0.1737624416
O  O4  1  0.44400000  0.94100000  0.77100000  1.0 -0.1776026546
O  O5  1  0.49700000  0.55600000  0.10433000  1.0 -0.1776026546
O  O6  1  0.05900000  0.50300000  0.43767000  1.0 -0.1776026546
O  O7  1  0.47610000  0.16330000  0.18590000  1.0 -0.3532854924
O  O8  1  0.83670000  0.31280000  0.85257000  1.0 -0.3532854924
O  O9  1  0.68720000  0.52390000  0.51923000  1.0 -0.3532854924
O  O10  1  0.16330000  0.47610000  0.81410000  1.0 -0.3532854924
O  O11  1  0.31280000  0.83670000  0.14743000  1.0 -0.3532854924
O  O12  1  0.52390000  0.68720000  0.48077000  1.0 -0.3532854924
O  O13  1  0.52210000  0.24300000  0.30790000  1.0 -0.0915391877
O  O14  1  0.75700000  0.27910000  0.97457000  1.0 -0.0820632264
O  O15  1  0.72090000  0.47790000  0.64123000  1.0 -0.0915391877
O  O16  1  0.24300000  0.52210000  0.69210000  1.0 -0.0915391877
O  O17  1  0.27910000  0.75700000  0.02543000  1.0 -0.0915391877
O  O18  1  0.47790000  0.72090000  0.35877000  1.0 -0.0820632264
O  O19  1  0.64420000  0.21400000  0.24340000  1.0 -0.0018010004
O  O20  1  0.78600000  0.43020000  0.91007000  1.0 -0.0018010004
O  O21  1  0.56980000  0.35580000  0.57673000  1.0 0.0012482464
O  O22  1  0.21400000  0.64420000  0.75660000  1.0 -0.0115973189
O  O23  1  0.43020000  0.78600000  0.08993000  1.0 -0.0018010004
O  O24  1  0.35580000  0.56980000  0.42327000  1.0 -0.0115973189
O  O25  1  0.63480000  0.12880000  0.13990000  1.0 0.0293060631
O  O26  1  0.87120000  0.50600000  0.80657000  1.0 0.0355229803
O  O27  1  0.49400000  0.36520000  0.47323000  1.0 0.0293060631
O  O28  1  0.12880000  0.63480000  0.86010000  1.0 0.0219061446
O  O29  1  0.50600000  0.87120000  0.19343000  1.0 0.0293060631
O  O30  1  0.36520000  0.49400000  0.52677000  1.0 0.0219061446
O  O31  1  0.30200000  0.80300000  0.85550000  1.0 -0.2068879395
O  O32  1  0.19700000  0.49900000  0.52217000  1.0 -0.2068879395
O  O33  1  0.50100000  0.69800000  0.18883000  1.0 -0.2068879395
O  O34  1  0.80300000  0.30200000  0.14450000  1.0 -0.2068879395
O  O35  1  0.49900000  0.19700000  0.47783000  1.0 -0.2068879395
O  O36  1  0.69800000  0.50100000  0.81117000  1.0 -0.2019091903
O  O37  1  0.19700000  0.92400000  0.81500000  1.0 -0.602677828
O  O38  1  0.07600000  0.27300000  0.48167000  1.0 -0.602677828
O  O39  1  0.72700000  0.80300000  0.14833000  1.0 -0.602677828
O  O40  1  0.92400000  0.19700000  0.18500000  1.0 -0.602677828
O  O41  1  0.27300000  0.07600000  0.51833000  1.0 -0.6051397382
O  O42  1  0.80300000  0.72700000  0.85167000  1.0 -0.6051397382
O  O43  1  0.28900000  0.90800000  0.74800000  1.0 0.0099416796
O  O44  1  0.09200000  0.38100000  0.41467000  1.0 0.0099416796
O  O45  1  0.61900000  0.71100000  0.08133000  1.0 0.0099416796
O  O46  1  0.90800000  0.28900000  0.25200000  1.0 0.0099416796
O  O47  1  0.38100000  0.09200000  0.58533000  1.0 0.0099416796
O  O48  1  0.71100000  0.61900000  0.91867000  1.0 0.0099416796
O  O49  1  0.62110000  0.97160000  0.09640000  1.0 -0.5110277344
O  O50  1  0.02840000  0.64950000  0.76307000  1.0 -0.5110277344
O  O51  1  0.35050000  0.37890000  0.42973000  1.0 -0.5110277344
O  O52  1  0.97160000  0.62110000  0.90360000  1.0 -0.5110277344
O  O53  1  0.64950000  0.02840000  0.23693000  1.0 -0.5110277344
O  O54  1  0.37890000  0.35050000  0.57027000  1.0 -0.5110277344
O  O55  1  0.61080000  0.11050000  0.94250000  1.0 -0.5110277344
O  O56  1  0.88950000  0.50030000  0.60917000  1.0 -0.5110277344
O  O57  1  0.49970000  0.38920000  0.27583000  1.0 -0.5110277344
O  O58  1  0.11050000  0.61080000  0.05750000  1.0 -0.5110277344
O  O59  1  0.50030000  0.88950000  0.39083000  1.0 -0.5110277344
O  O60  1  0.38920000  0.49970000  0.72417000  1.0 -0.5110277344
O  O61  1  0.52020000  0.04500000  0.03240000  1.0 -0.518841193
O  O62  1  0.95500000  0.47520000  0.69907000  1.0 -0.518841193
O  O63  1  0.52480000  0.47980000  0.36573000  1.0 -0.518841193
O  O64  1  0.04500000  0.52020000  0.96760000  1.0 -0.518841193
O  O65  1  0.47520000  0.95500000  0.30093000  1.0 -0.518841193
O  O66  1  0.47980000  0.52480000  0.63427000  1.0 -0.518841193
O  O67  1  0.62660000  0.29970000  0.13340000  1.0 -0.5265999694
O  O68  1  0.70030000  0.32690000  0.80007000  1.0 -0.5265999694
O  O69  1  0.67310000  0.37340000  0.46673000  1.0 -0.5265999694
O  O70  1  0.29970000  0.62660000  0.86660000  1.0 -0.5265999694
O  O71  1  0.32690000  0.70030000  0.19993000  1.0 -0.5265999694
O  O72  1  0.37340000  0.67310000  0.53327000  1.0 -0.5265999694
O  O73  1  0.60570000  0.27200000  0.92880000  1.0 -0.5767242669
O  O74  1  0.72800000  0.33370000  0.59547000  1.0 -0.5767242669
O  O75  1  0.66630000  0.39430000  0.26213000  1.0 -0.5767242669
O  O76  1  0.27200000  0.60570000  0.07120000  1.0 -0.5767242669
O  O77  1  0.33370000  0.72800000  0.40453000  1.0 -0.5767242669
O  O78  1  0.39430000  0.66630000  0.73787000  1.0 -0.5767242669
O  O79  1  0.72490000  0.13000000  0.02860000  1.0 -0.4220191076
O  O80  1  0.87000000  0.59490000  0.69527000  1.0 -0.4220191076
O  O81  1  0.40510000  0.27510000  0.36193000  1.0 -0.4220191076
O  O82  1  0.13000000  0.72490000  0.97140000  1.0 -0.4220191076
O  O83  1  0.59490000  0.87000000  0.30473000  1.0 -0.4220191076
O  O84  1  0.27510000  0.40510000  0.63807000  1.0 -0.4220191076
O  O85  1  0.46060000  0.97040000  0.10960000  1.0 -0.4909830252
O  O86  1  0.02960000  0.49020000  0.77627000  1.0 -0.4909830252
O  O87  1  0.50980000  0.53940000  0.44293000  1.0 -0.4909830252
O  O88  1  0.97040000  0.46060000  0.89040000  1.0 -0.4909830252
O  O89  1  0.49020000  0.02960000  0.22373000  1.0 -0.4909830252
O  O90  1  0.53940000  0.50980000  0.55707000  1.0 -0.4909830252
O  O91  1  0.46470000  0.11290000  0.89830000  1.0 -0.4220191076
O  O92  1  0.88710000  0.35180000  0.56497000  1.0 -0.4220191076
O  O93  1  0.64820000  0.53530000  0.23163000  1.0 -0.42756415
O  O94  1  0.11290000  0.46470000  0.10170000  1.0 -0.42756415
O  O95  1  0.35180000  0.88710000  0.43503000  1.0 -0.42756415
O  O96  1  0.53530000  0.64820000  0.76837000  1.0 -0.42756415
O  O97  1  0.50770000  0.89010000  0.00010000  1.0 -0.4810527324
O  O98  1  0.10990000  0.61760000  0.66677000  1.0 -0.4810527324
O  O99  1  0.38240000  0.49230000  0.33343000  1.0 -0.4810527324
O  O100  1  0.89010000  0.50770000  0.99990000  1.0 -0.4810527324
O  O101  1  0.61760000  0.10990000  0.33323000  1.0 -0.4810527324
O  O102  1  0.49230000  0.38240000  0.66657000  1.0 -0.4810527324
O  O103  1  0.66790000  0.17500000  0.86100000  1.0 -0.5391651252
O  O104  1  0.82500000  0.49290000  0.52767000  1.0 -0.5391651252
O  O105  1  0.50710000  0.33210000  0.19433000  1.0 -0.5391651252
O  O106  1  0.17500000  0.66790000  0.13900000  1.0 -0.5391651252
O  O107  1  0.49290000  0.82500000  0.47233000  1.0 -0.5391651252
O  O108  1  0.33210000  0.50710000  0.80567000  1.0 -0.5391651252
O  O109  1  0.59550000  0.37420000  0.89060000  1.0 -0.42756415
O  O110  1  0.62580000  0.22130000  0.55727000  1.0 -0.42756415
O  O111  1  0.77870000  0.40450000  0.22393000  1.0 -0.42756415
O  O112  1  0.37420000  0.59550000  0.10940000  1.0 -0.42756415
O  O113  1  0.22130000  0.62580000  0.44273000  1.0 -0.42756415
O  O114  1  0.40450000  0.77870000  0.77607000  1.0 -0.42756415
O  O115  1  0.39800000  0.82330000  0.94540000  1.0 -0.3672135631
O  O116  1  0.17670000  0.57470000  0.61207000  1.0 -0.3672135631
O  O117  1  0.42530000  0.60200000  0.27873000  1.0 -0.3672135631
O  O118  1  0.82330000  0.39800000  0.05460000  1.0 -0.3672135631
O  O119  1  0.57470000  0.17670000  0.38793000  1.0 -0.3672135631
O  O120  1  0.60200000  0.42530000  0.72127000  1.0 -0.3672135631
O  O121  1  0.59380000  0.20730000  0.06370000  1.0 -0.4594425591
O  O122  1  0.79270000  0.38650000  0.73037000  1.0 -0.4594425591
O  O123  1  0.61350000  0.40620000  0.39703000  1.0 -0.4594425591
O  O124  1  0.20730000  0.59380000  0.93630000  1.0 -0.4545138537
O  O125  1  0.38650000  0.79270000  0.26963000  1.0 -0.4594425591
O  O126  1  0.40620000  0.61350000  0.60297000  1.0 -0.4594425591
O  O127  1  0.36700000  0.99800000  0.85760000  1.0 -0.4594425591
O  O128  1  0.00200000  0.36900000  0.52427000  1.0 -0.4594425591
O  O129  1  0.63100000  0.63300000  0.19093000  1.0 -0.4594425591
O  O130  1  0.99800000  0.36700000  0.14240000  1.0 -0.4594425591
O  O131  1  0.36900000  0.00200000  0.47573000  1.0 -0.4594425591
O  O132  1  0.63300000  0.63100000  0.80907000  1.0 -0.4594425591
O  O133  1  0.84900000  0.18300000  0.06500000  1.0 -0.5013440111
O  O134  1  0.81700000  0.66600000  0.73167000  1.0 -0.5013440111
O  O135  1  0.33400000  0.15100000  0.39833000  1.0 -0.5013440111
O  O136  1  0.18300000  0.84900000  0.93500000  1.0 -0.5013440111
O  O137  1  0.66600000  0.81700000  0.26833000  1.0 -0.5013440111
O  O138  1  0.15100000  0.33400000  0.60167000  1.0 -0.5013440111
O  O139  1  0.62200000  0.85900000  0.13800000  1.0 -0.0693840567
O  O140  1  0.14100000  0.76300000  0.80467000  1.0 -0.0693840567
O  O141  1  0.23700000  0.37800000  0.47133000  1.0 -0.0693840567
O  O142  1  0.85900000  0.62200000  0.86200000  1.0 -0.0693840567
O  O143  1  0.76300000  0.14100000  0.19533000  1.0 -0.0693840567
O  O144  1  0.37800000  0.23700000  0.52867000  1.0 -0.0693840567
O  O145  1  0.55600000  0.74100000  0.07200000  1.0 -0.2889840676
O  O146  1  0.25900000  0.81500000  0.73867000  1.0 -0.2889840676
O  O147  1  0.18500000  0.44400000  0.40533000  1.0 -0.2889840676
O  O148  1  0.74100000  0.55600000  0.92800000  1.0 -0.2889840676
O  O149  1  0.81500000  0.25900000  0.26133000  1.0 -0.2889840676
O  O150  1  0.44400000  0.18500000  0.59467000  1.0 -0.2889840676
O  O151  1  0.68300000  0.68400000  0.04600000  1.0 -0.2889840676
O  O152  1  0.31600000  0.99900000  0.71267000  1.0 -0.2825917727
O  O153  1  0.00100000  0.31700000  0.37933000  1.0 -0.2825917727
O  O154  1  0.68400000  0.68300000  0.95400000  1.0 -0.2889840676
O  O155  1  0.99900000  0.31600000  0.28733000  1.0 -0.2889840676
O  O156  1  0.31700000  0.00100000  0.62067000  1.0 -0.2825917727
O  O157  1  0.24300000  0.32400000  0.47800000  1.0 -0.0317742883
O  O158  1  0.67600000  0.91900000  0.14467000  1.0 -0.0317742883
O  O159  1  0.08100000  0.75700000  0.81133000  1.0 -0.0317742883
O  O160  1  0.32400000  0.24300000  0.52200000  1.0 -0.0317742883
O  O161  1  0.91900000  0.67600000  0.85533000  1.0 -0.0317742883
O  O162  1  0.75700000  0.08100000  0.18867000  1.0 -0.0317742883
