# DDEC6 charges by PACMAN v1.1 (https://github.com/mtap-research/PACMAN-charge/)
data_VIJLAF_ASR_pacman
_symmetry_space_group_name_H-M   'P 1'
_cell_length_a   12.44600000
_cell_length_b   12.44600000
_cell_length_c   12.76600000
_cell_angle_alpha   90.00000000
_cell_angle_beta   90.00000000
_cell_angle_gamma   90.00000000
_symmetry_Int_Tables_number   1
_chemical_formula_structural   Ti2H12C20S4O13
_chemical_formula_sum   'Ti4 H24 C40 S8 O26'
_cell_volume   1977.49062566
_cell_formula_units_Z   2
loop_
 _symmetry_equiv_pos_site_id
 _symmetry_equiv_pos_as_xyz
  1  'x, y, z'
loop_
 _atom_site_type_symbol
 _atom_site_label
 _atom_site_symmetry_multiplicity
 _atom_site_fract_x
 _atom_site_fract_y
 _atom_site_fract_z
 _atom_site_occupancy
 _atom_site_charge
Ti  Ti1  1  0.00000000  0.50000000  0.22626000  1.0 2.1165238699
Ti  Ti2  1  0.50000000  0.00000000  0.77374000  1.0 2.1165238699
Ti  Ti3  1  0.00000000  0.50000000  0.52570000  1.0 1.2700345597
Ti  Ti4  1  0.50000000  0.00000000  0.47430000  1.0 1.2777122339
H  H1  1  0.65697000  0.35166000  0.23531000  1.0 0.129562915
H  H2  1  0.34303000  0.64834000  0.23531000  1.0 0.129562915
H  H3  1  0.14834000  0.15697000  0.23531000  1.0 0.129562915
H  H4  1  0.85166000  0.84303000  0.23531000  1.0 0.129562915
H  H5  1  0.84303000  0.14834000  0.76469000  1.0 0.129562915
H  H6  1  0.15697000  0.85166000  0.76469000  1.0 0.129562915
H  H7  1  0.35166000  0.34303000  0.76469000  1.0 0.129562915
H  H8  1  0.64834000  0.65697000  0.76469000  1.0 0.129562915
H  H9  1  0.94464000  0.18990000  0.06169000  1.0 0.1161371699
H  H10  1  0.05536000  0.81010000  0.06169000  1.0 0.1161371699
H  H11  1  0.31010000  0.44464000  0.06169000  1.0 0.1161371699
H  H12  1  0.68990000  0.55536000  0.06169000  1.0 0.1161371699
H  H13  1  0.55536000  0.31010000  0.93831000  1.0 0.1161371699
H  H14  1  0.44464000  0.68990000  0.93831000  1.0 0.1161371699
H  H15  1  0.18990000  0.05536000  0.93831000  1.0 0.1161371699
H  H16  1  0.81010000  0.94464000  0.93831000  1.0 0.1161371699
H  H17  1  0.97947000  0.13271000  0.89226000  1.0 0.1161371699
H  H18  1  0.02053000  0.86729000  0.89226000  1.0 0.1161371699
H  H19  1  0.36729000  0.47947000  0.89226000  1.0 0.1161371699
H  H20  1  0.63271000  0.52053000  0.89226000  1.0 0.1161371699
H  H21  1  0.52053000  0.36729000  0.10774000  1.0 0.1161371699
H  H22  1  0.47947000  0.63271000  0.10774000  1.0 0.1161371699
H  H23  1  0.13271000  0.02053000  0.10774000  1.0 0.1161371699
H  H24  1  0.86729000  0.97947000  0.10774000  1.0 0.1161371699
C  C1  1  0.76820000  0.28220000  0.14210000  1.0 -0.1173549363
C  C2  1  0.23180000  0.71780000  0.14210000  1.0 -0.1173549363
C  C3  1  0.21780000  0.26820000  0.14210000  1.0 -0.1173549363
C  C4  1  0.78220000  0.73180000  0.14210000  1.0 -0.1173549363
C  C5  1  0.73180000  0.21780000  0.85790000  1.0 -0.1173549363
C  C6  1  0.26820000  0.78220000  0.85790000  1.0 -0.1173549363
C  C7  1  0.28220000  0.23180000  0.85790000  1.0 -0.1173549363
C  C8  1  0.71780000  0.76820000  0.85790000  1.0 -0.1173549363
C  C9  1  0.79140000  0.24420000  0.03780000  1.0 0.0652497417
C  C10  1  0.20860000  0.75580000  0.03780000  1.0 0.0652497417
C  C11  1  0.25580000  0.29140000  0.03780000  1.0 0.0652497417
C  C12  1  0.74420000  0.70860000  0.03780000  1.0 0.0652497417
C  C13  1  0.70860000  0.25580000  0.96220000  1.0 0.0652497417
C  C14  1  0.29140000  0.74420000  0.96220000  1.0 0.0652497417
C  C15  1  0.24420000  0.20860000  0.96220000  1.0 0.0652497417
C  C16  1  0.75580000  0.79140000  0.96220000  1.0 0.0652497417
C  C17  1  0.67000000  0.32700000  0.16600000  1.0 -0.0802570865
C  C18  1  0.33000000  0.67300000  0.16600000  1.0 -0.0802570865
C  C19  1  0.17300000  0.17000000  0.16600000  1.0 -0.0802570865
C  C20  1  0.82700000  0.83000000  0.16600000  1.0 -0.0802570865
C  C21  1  0.83000000  0.17300000  0.83400000  1.0 -0.0802570865
C  C22  1  0.17000000  0.82700000  0.83400000  1.0 -0.0802570865
C  C23  1  0.32700000  0.33000000  0.83400000  1.0 -0.0802570865
C  C24  1  0.67300000  0.67000000  0.83400000  1.0 -0.0802570865
C  C25  1  0.89060000  0.19750000  0.00970000  1.0 -0.1272056916
C  C26  1  0.10940000  0.80250000  0.00970000  1.0 -0.1272056916
C  C27  1  0.30250000  0.39060000  0.00970000  1.0 -0.1272056916
C  C28  1  0.69750000  0.60940000  0.00970000  1.0 -0.1272056916
C  C29  1  0.60940000  0.30250000  0.99030000  1.0 -0.1272056916
C  C30  1  0.39060000  0.69750000  0.99030000  1.0 -0.1272056916
C  C31  1  0.19750000  0.10940000  0.99030000  1.0 -0.1272056916
C  C32  1  0.80250000  0.89060000  0.99030000  1.0 -0.1272056916
C  C33  1  0.91170000  0.16280000  0.90980000  1.0 -0.0802570865
C  C34  1  0.08830000  0.83720000  0.90980000  1.0 -0.0802570865
C  C35  1  0.33720000  0.41170000  0.90980000  1.0 -0.0802570865
C  C36  1  0.66280000  0.58830000  0.90980000  1.0 -0.0802570865
C  C37  1  0.58830000  0.33720000  0.09020000  1.0 -0.0802570865
C  C38  1  0.41170000  0.66280000  0.09020000  1.0 -0.0802570865
C  C39  1  0.16280000  0.08830000  0.09020000  1.0 -0.0802570865
C  C40  1  0.83720000  0.91170000  0.09020000  1.0 -0.0802570865
S  S1  1  0.86641000  0.27477000  0.24181000  1.0 1.2050494036
S  S2  1  0.13359000  0.72523000  0.24181000  1.0 1.2050494036
S  S3  1  0.22523000  0.36641000  0.24181000  1.0 1.2050494036
S  S4  1  0.77477000  0.63359000  0.24181000  1.0 1.2050494036
S  S5  1  0.63359000  0.22523000  0.75819000  1.0 1.2050494036
S  S6  1  0.36641000  0.77477000  0.75819000  1.0 1.2050494036
S  S7  1  0.27477000  0.13359000  0.75819000  1.0 1.2050494036
S  S8  1  0.72523000  0.86641000  0.75819000  1.0 1.2050494036
O  O1  1  0.95380000  0.34550000  0.20380000  1.0 -0.7221529999
O  O2  1  0.04620000  0.65450000  0.20380000  1.0 -0.7221529999
O  O3  1  0.15450000  0.45380000  0.20380000  1.0 -0.7221529999
O  O4  1  0.84550000  0.54620000  0.20380000  1.0 -0.7221529999
O  O5  1  0.54620000  0.15450000  0.79620000  1.0 -0.7221529999
O  O6  1  0.45380000  0.84550000  0.79620000  1.0 -0.7221529999
O  O7  1  0.34550000  0.04620000  0.79620000  1.0 -0.7221529999
O  O8  1  0.65450000  0.95380000  0.79620000  1.0 -0.7221529999
O  O9  1  0.00000000  0.50000000  0.35530000  1.0 -1.0448431888
O  O10  1  0.50000000  0.00000000  0.64470000  1.0 -1.0448431888
O  O11  1  0.81530000  0.31710000  0.33530000  1.0 -0.5463028917
O  O12  1  0.18470000  0.68290000  0.33530000  1.0 -0.5463028917
O  O13  1  0.18290000  0.31530000  0.33530000  1.0 -0.5463028917
O  O14  1  0.81710000  0.68470000  0.33530000  1.0 -0.5463028917
O  O15  1  0.68470000  0.18290000  0.66470000  1.0 -0.5463028917
O  O16  1  0.31530000  0.81710000  0.66470000  1.0 -0.5463028917
O  O17  1  0.31710000  0.18470000  0.66470000  1.0 -0.5463028917
O  O18  1  0.68290000  0.81530000  0.66470000  1.0 -0.5463028917
O  O19  1  0.90350000  0.16680000  0.24890000  1.0 -0.544994227
O  O20  1  0.09650000  0.83320000  0.24890000  1.0 -0.544994227
O  O21  1  0.33320000  0.40350000  0.24890000  1.0 -0.544994227
O  O22  1  0.66680000  0.59650000  0.24890000  1.0 -0.544994227
O  O23  1  0.59650000  0.33320000  0.75110000  1.0 -0.544994227
O  O24  1  0.40350000  0.66680000  0.75110000  1.0 -0.544994227
O  O25  1  0.16680000  0.09650000  0.75110000  1.0 -0.544994227
O  O26  1  0.83320000  0.90350000  0.75110000  1.0 -0.544994227
