# DDEC6 charges by PACMAN v1.1 (https://github.com/mtap-research/PACMAN-charge/)
data_VINHEH_ASR_pacman
_symmetry_space_group_name_H-M   'P 1'
_cell_length_a   21.12900000
_cell_length_b   21.12900000
_cell_length_c   20.38260000
_cell_angle_alpha   64.74380000
_cell_angle_beta   115.25600000
_cell_angle_gamma   140.89400000
_symmetry_Int_Tables_number   1
_chemical_formula_structural   Mn5Cr6Fe2H74C84(NO4)20
_chemical_formula_sum   'Mn5 Cr6 Fe2 H74 C84 N20 O80'
_cell_volume   5117.54421318
_cell_formula_units_Z   1
loop_
 _symmetry_equiv_pos_site_id
 _symmetry_equiv_pos_as_xyz
  1  'x, y, z'
loop_
 _atom_site_type_symbol
 _atom_site_label
 _atom_site_symmetry_multiplicity
 _atom_site_fract_x
 _atom_site_fract_y
 _atom_site_fract_z
 _atom_site_occupancy
 _atom_site_charge
Mn  Mn1  1  0.62434000  0.02788000  0.67819000  1.0 0.9981680984
Mn  Mn2  1  0.02788000  0.62434000  0.32181000  1.0 0.9981680984
Mn  Mn3  1  0.12481000  0.80635000  0.85004000  1.0 0.967851984
Mn  Mn4  1  0.80635000  0.12481000  0.14996000  1.0 0.967851984
Mn  Mn5  1  0.27792000  0.27792000  0.00000000  1.0 1.03299998
Cr  Cr1  1  0.69314000  0.33494000  0.45491000  1.0 1.2940527077
Cr  Cr2  1  0.33494000  0.69314000  0.54509000  1.0 1.2940527077
Cr  Cr3  1  0.51215000  0.99165000  0.90242000  1.0 1.3288543696
Cr  Cr4  1  0.99165000  0.51215000  0.09758000  1.0 1.3288543696
Cr  Cr5  1  0.08216000  0.05394000  0.78991000  1.0 1.2473994369
Cr  Cr6  1  0.05394000  0.08216000  0.21009000  1.0 1.2473994369
Fe  Fe1  1  0.59622000  0.39134000  0.73670000  1.0 0.4244664932
Fe  Fe2  1  0.39134000  0.59622000  0.26330000  1.0 0.4244664932
H  H1  1  0.70330000  0.43750000  0.97840000  1.0 0.1195518825
H  H2  1  0.43750000  0.70330000  0.02160000  1.0 0.1195518825
H  H3  1  0.77860000  0.48360000  0.92990000  1.0 0.127027199
H  H4  1  0.48360000  0.77860000  0.07010000  1.0 0.127027199
H  H5  1  0.60260000  0.44800000  0.86840000  1.0 0.1091601494
H  H6  1  0.44800000  0.60260000  0.13160000  1.0 0.1091601494
H  H7  1  0.71800000  0.55900000  0.87470000  1.0 0.1195518825
H  H8  1  0.55900000  0.71800000  0.12530000  1.0 0.1195518825
H  H9  1  0.79450000  0.64170000  0.79060000  1.0 0.1435157781
H  H10  1  0.64170000  0.79450000  0.20940000  1.0 0.1435157781
H  H11  1  0.90470000  0.74710000  0.67170000  1.0 0.1725538621
H  H12  1  0.74710000  0.90470000  0.32830000  1.0 0.1725538621
H  H13  1  0.68990000  0.48090000  0.57750000  1.0 0.1435157781
H  H14  1  0.48090000  0.68990000  0.42250000  1.0 0.1435157781
H  H15  1  0.54250000  0.25190000  0.97510000  1.0 0.087830391
H  H16  1  0.25190000  0.54250000  0.02490000  1.0 0.087830391
H  H17  1  0.54810000  0.33450000  0.91270000  1.0 0.1019324904
H  H18  1  0.33450000  0.54810000  0.08730000  1.0 0.1019324904
H  H19  1  0.39230000  0.13970000  0.86690000  1.0 0.1019324904
H  H20  1  0.13970000  0.39230000  0.13310000  1.0 0.1019324904
H  H21  1  0.33990000  0.20890000  0.79230000  1.0 0.127027199
H  H22  1  0.20890000  0.33990000  0.20770000  1.0 0.127027199
H  H23  1  0.28970000  0.32150000  0.67350000  1.0 0.1577854752
H  H24  1  0.32150000  0.28970000  0.32650000  1.0 0.1577854752
H  H25  1  0.54830000  0.52330000  0.59250000  1.0 0.1019324904
H  H26  1  0.52330000  0.54830000  0.40750000  1.0 0.1019324904
H  H27  1  0.75180000  0.35320000  0.96160000  1.0 0.127027199
H  H28  1  0.35320000  0.75180000  0.03840000  1.0 0.127027199
H  H29  1  0.65040000  0.25200000  0.92720000  1.0 0.1195518825
H  H30  1  0.25200000  0.65040000  0.07280000  1.0 0.1195518825
H  H31  1  0.79510000  0.44670000  0.85180000  1.0 0.1195518825
H  H32  1  0.44670000  0.79510000  0.14820000  1.0 0.1195518825
H  H33  1  0.76950000  0.35030000  0.86010000  1.0 0.127027199
H  H34  1  0.35030000  0.76950000  0.13990000  1.0 0.127027199
H  H35  1  0.66530000  0.25830000  0.77160000  1.0 0.1435157781
H  H36  1  0.25830000  0.66530000  0.22840000  1.0 0.1435157781
H  H37  1  0.52200000  0.15860000  0.63960000  1.0 0.1577854752
H  H38  1  0.15860000  0.52200000  0.36040000  1.0 0.1577854752
H  H39  1  0.42780000  0.28500000  0.57880000  1.0 0.127027199
H  H40  1  0.28500000  0.42780000  0.42120000  1.0 0.127027199
H  H41  1  0.82700000  0.66360000  0.55120000  1.0 0.3166048403
H  H42  1  0.66360000  0.82700000  0.44880000  1.0 0.3166048403
H  H43  1  0.40330000  0.47770000  0.57960000  1.0 0.2901149268
H  H44  1  0.47770000  0.40330000  0.42040000  1.0 0.2901149268
H  H45  1  0.40150000  0.15670000  0.55860000  1.0 0.3020229812
H  H46  1  0.15670000  0.40150000  0.44140000  1.0 0.3020229812
H  H47  1  0.88650000  0.10630000  0.74420000  1.0 0.1019324904
H  H48  1  0.10630000  0.88650000  0.25580000  1.0 0.1019324904
H  H49  1  0.81120000  0.06860000  0.66790000  1.0 0.1019324904
H  H50  1  0.06860000  0.81120000  0.33210000  1.0 0.1019324904
H  H51  1  0.87200000  0.17480000  0.68310000  1.0 0.1019324904
H  H52  1  0.17480000  0.87200000  0.31690000  1.0 0.1019324904
H  H53  1  0.97380000  0.65160000  0.68380000  1.0 0.087830391
H  H54  1  0.65160000  0.97380000  0.31620000  1.0 0.087830391
H  H55  1  0.05750000  0.66370000  0.74990000  1.0 0.127027199
H  H56  1  0.66370000  0.05750000  0.25010000  1.0 0.127027199
H  H57  1  0.95070000  0.60010000  0.76630000  1.0 0.1091601494
H  H58  1  0.60010000  0.95070000  0.23370000  1.0 0.1091601494
H  H59  1  0.39930000  0.55890000  0.90590000  1.0 0.1091601494
H  H60  1  0.55890000  0.39930000  0.09410000  1.0 0.1091601494
H  H61  1  0.32610000  0.48490000  0.96580000  1.0 0.1091601494
H  H62  1  0.48490000  0.32610000  0.03420000  1.0 0.1091601494
H  H63  1  0.43660000  0.53040000  0.98860000  1.0 0.1019324904
H  H64  1  0.53040000  0.43660000  0.01140000  1.0 0.1019324904
H  H65  1  0.51160000  0.23540000  0.95970000  1.0 0.087830391
H  H66  1  0.23540000  0.51160000  0.04030000  1.0 0.087830391
H  H67  1  0.52080000  0.18700000  0.92820000  1.0 0.1195518825
H  H68  1  0.18700000  0.52080000  0.07180000  1.0 0.1195518825
H  H69  1  0.42240000  0.14480000  0.87880000  1.0 0.087830391
H  H70  1  0.14480000  0.42240000  0.12120000  1.0 0.087830391
H  H71  1  0.42680000  0.21340000  0.89880000  1.0 0.1195518825
H  H72  1  0.21340000  0.42680000  0.10120000  1.0 0.1195518825
H  H73  1  0.48550000  0.17390000  0.85070000  1.0 0.1091601494
H  H74  1  0.17390000  0.48550000  0.14930000  1.0 0.1091601494
C  C1  1  0.70740000  0.44120000  0.93010000  1.0 -0.170193286
C  C2  1  0.44120000  0.70740000  0.06990000  1.0 -0.170193286
C  C3  1  0.67340000  0.48960000  0.86730000  1.0 -0.1449213152
C  C4  1  0.48960000  0.67340000  0.13270000  1.0 -0.1449213152
C  C5  1  0.75350000  0.58690000  0.76630000  1.0 0.016474331
C  C6  1  0.58690000  0.75350000  0.23370000  1.0 0.016474331
C  C7  1  0.76770000  0.59870000  0.69930000  1.0 0.1195518825
C  C8  1  0.59870000  0.76770000  0.30070000  1.0 0.1195518825
C  C9  1  0.84400000  0.68000000  0.66150000  1.0 -0.1144255859
C  C10  1  0.68000000  0.84400000  0.33850000  1.0 -0.1144255859
C  C11  1  0.72250000  0.52890000  0.60550000  1.0 0.1577854752
C  C12  1  0.52890000  0.72250000  0.39450000  1.0 0.1577854752
C  C13  1  0.55480000  0.28920000  0.92430000  1.0 -0.0712477223
C  C14  1  0.28920000  0.55480000  0.07570000  1.0 -0.0712477223
C  C15  1  0.39910000  0.26250000  0.77000000  1.0 -0.1457874601
C  C16  1  0.26250000  0.39910000  0.23000000  1.0 -0.1449213152
C  C17  1  0.41280000  0.33420000  0.70710000  1.0 0.1019324904
C  C18  1  0.33420000  0.41280000  0.29290000  1.0 0.1019324904
C  C19  1  0.35310000  0.35630000  0.66666667  1.0 -0.0283722741
C  C20  1  0.35630000  0.35310000  0.33340000  1.0 -0.0283722741
C  C21  1  0.49790000  0.46910000  0.62320000  1.0 0.154079246
C  C22  1  0.46910000  0.49790000  0.37680000  1.0 0.154079246
C  C23  1  0.69580000  0.32600000  0.91890000  1.0 -0.158782461
C  C24  1  0.32600000  0.69580000  0.08110000  1.0 -0.158782461
C  C25  1  0.73910000  0.37190000  0.85420000  1.0 -0.1144255859
C  C26  1  0.37190000  0.73910000  0.14580000  1.0 -0.1144255859
C  C27  1  0.63790000  0.28410000  0.75230000  1.0 0.0094584359
C  C28  1  0.28410000  0.63790000  0.24770000  1.0 0.0094584359
C  C29  1  0.56210000  0.25390000  0.68900000  1.0 0.087830391
C  C30  1  0.25390000  0.56210000  0.31100000  1.0 0.087830391
C  C31  1  0.51160000  0.19480000  0.64000000  1.0 -0.0283722741
C  C32  1  0.19480000  0.51160000  0.36000000  1.0 -0.0283722741
C  C33  1  0.45880000  0.26300000  0.60770000  1.0 0.127027199
C  C34  1  0.26300000  0.45880000  0.39230000  1.0 0.127027199
C  C35  1  0.46470000  0.21530000  0.88000000  1.0 -0.0791147488
C  C36  1  0.21530000  0.46470000  0.12000000  1.0 -0.0791147488
C  C37  1  0.59160000  0.36200000  0.46110000  1.0 0.4479865904
C  C38  1  0.36200000  0.59160000  0.53890000  1.0 0.4479865904
C  C39  1  0.55820000  0.35160000  0.38160000  1.0 0.4419578786
C  C40  1  0.35160000  0.55820000  0.61840000  1.0 0.4419578786
C  C41  1  0.71250000  0.22230000  0.57330000  1.0 0.4786618426
C  C42  1  0.22230000  0.71250000  0.42670000  1.0 0.4786618426
C  C43  1  0.60500000  0.14520000  0.53580000  1.0 0.4682430054
C  C44  1  0.14520000  0.60500000  0.46420000  1.0 0.4682430054
C  C45  1  0.56280000  0.04660000  0.77090000  1.0 0.4786618426
C  C46  1  0.04660000  0.56280000  0.22910000  1.0 0.4786618426
C  C47  1  0.57990000  0.98070000  0.82510000  1.0 0.4995987441
C  C48  1  0.98070000  0.57990000  0.17490000  1.0 0.4995987441
C  C49  1  0.34800000  0.95280000  0.88190000  1.0 0.4419578786
C  C50  1  0.95280000  0.34800000  0.11810000  1.0 0.4419578786
C  C51  1  0.30510000  0.85590000  0.87070000  1.0 0.4682430054
C  C52  1  0.85590000  0.30510000  0.12930000  1.0 0.4682430054
C  C53  1  0.11500000  0.95740000  0.77560000  1.0 0.4786618426
C  C54  1  0.95740000  0.11500000  0.22440000  1.0 0.4786618426
C  C55  1  0.07750000  0.90790000  0.85470000  1.0 0.4786618426
C  C56  1  0.90790000  0.07750000  0.14530000  1.0 0.4786618426
C  C57  1  0.22830000  0.18590000  0.89020000  1.0 0.4633146997
C  C58  1  0.18590000  0.22830000  0.10980000  1.0 0.4633146997
C  C59  1  0.12740000  0.14580000  0.88720000  1.0 0.4786618426
C  C60  1  0.14580000  0.12740000  0.11280000  1.0 0.490463155
C  C61  1  0.43140000  0.83220000  0.62650000  1.0 0.5232651706
C  C62  1  0.83220000  0.43140000  0.37350000  1.0 0.52615838
C  C63  1  0.51580000  0.87120000  0.59720000  1.0 0.490463155
C  C64  1  0.87120000  0.51580000  0.40280000  1.0 0.490463155
C  C65  1  0.00670000  0.61310000  0.95690000  1.0 0.4682430054
C  C66  1  0.61310000  0.00670000  0.04310000  1.0 0.4682430054
C  C67  1  0.11320000  0.69100000  0.00150000  1.0 0.4682430054
C  C68  1  0.69100000  0.11320000  0.99850000  1.0 0.4682430054
C  C69  1  0.92200000  0.99480000  0.68040000  1.0 0.4682430054
C  C70  1  0.99480000  0.92200000  0.31960000  1.0 0.4682430054
C  C71  1  0.00480000  0.11180000  0.65900000  1.0 0.2563687141
C  C72  1  0.11180000  0.00480000  0.34100000  1.0 0.2563687141
C  C73  1  0.83770000  0.10490000  0.70560000  1.0 -0.1781376836
C  C74  1  0.10490000  0.83770000  0.29440000  1.0 -0.1781376836
C  C75  1  0.00360000  0.65920000  0.73570000  1.0 -0.191488934
C  C76  1  0.65920000  0.00360000  0.26430000  1.0 -0.191488934
C  C77  1  0.37780000  0.50500000  0.94910000  1.0 -0.2132708405
C  C78  1  0.50500000  0.37780000  0.05090000  1.0 -0.2132708405
C  C79  1  0.52520000  0.24080000  0.91580000  1.0 -0.0791147488
C  C80  1  0.24080000  0.52520000  0.08420000  1.0 -0.0791147488
C  C81  1  0.01910000  0.10510000  0.65100000  1.0 0.2728050823
C  C82  1  0.10510000  0.01910000  0.34900000  1.0 0.2728050823
C  C83  1  0.46250000  0.19750000  0.85660000  1.0 -0.0791147488
C  C84  1  0.19750000  0.46250000  0.14340000  1.0 -0.0791147488
N  N1  1  0.64080000  0.33980000  0.91810000  1.0 -0.0283722741
N  N2  1  0.33980000  0.64080000  0.08190000  1.0 -0.0283722741
N  N3  1  0.68000000  0.49500000  0.79060000  1.0 -0.131398951
N  N4  1  0.49500000  0.68000000  0.20940000  1.0 -0.131398951
N  N5  1  0.80120000  0.62900000  0.59200000  1.0 -0.170193286
N  N6  1  0.62900000  0.80120000  0.40800000  1.0 -0.170193286
N  N7  1  0.69840000  0.50960000  0.66880000  1.0 -0.2697381054
N  N8  1  0.50960000  0.69840000  0.33120000  1.0 -0.2697381054
N  N9  1  0.47910000  0.28010000  0.79330000  1.0 -0.131398951
N  N10  1  0.28010000  0.47910000  0.20670000  1.0 -0.131398951
N  N11  1  0.41740000  0.44520000  0.61340000  1.0 -0.2049364274
N  N12  1  0.44520000  0.41740000  0.38660000  1.0 -0.2049364274
N  N13  1  0.50500000  0.41100000  0.68090000  1.0 -0.2792700653
N  N14  1  0.41100000  0.50500000  0.31910000  1.0 -0.2792700653
N  N15  1  0.66850000  0.34850000  0.78310000  1.0 -0.1781376836
N  N16  1  0.34850000  0.66850000  0.21690000  1.0 -0.1781376836
N  N17  1  0.44650000  0.19410000  0.59360000  1.0 -0.158782461
N  N18  1  0.19410000  0.44650000  0.40640000  1.0 -0.158782461
N  N19  1  0.52320000  0.29020000  0.67000000  1.0 -0.2380467181
N  N20  1  0.29020000  0.52320000  0.33000000  1.0 -0.2380467181
O  O1  1  0.49910000  0.35050000  0.33650000  1.0 -0.389790453
O  O2  1  0.35050000  0.49910000  0.66350000  1.0 -0.389790453
O  O3  1  0.56300000  0.38840000  0.47790000  1.0 -0.5390793209
O  O4  1  0.38840000  0.56300000  0.52210000  1.0 -0.5390793209
O  O5  1  0.60810000  0.33990000  0.36890000  1.0 -0.5867972498
O  O6  1  0.33990000  0.60810000  0.63110000  1.0 -0.5867972498
O  O7  1  0.64460000  0.34940000  0.50530000  1.0 -0.5199129184
O  O8  1  0.34940000  0.64460000  0.49470000  1.0 -0.5199129184
O  O9  1  0.58090000  0.18270000  0.47520000  1.0 -0.5303467115
O  O10  1  0.18270000  0.58090000  0.52480000  1.0 -0.5303467115
O  O11  1  0.76800000  0.31480000  0.54700000  1.0 -0.5008658146
O  O12  1  0.31480000  0.76800000  0.45300000  1.0 -0.5008658146
O  O13  1  0.54660000  0.05360000  0.56310000  1.0 -0.4088439246
O  O14  1  0.05360000  0.54660000  0.43690000  1.0 -0.4088439246
O  O15  1  0.74200000  0.18820000  0.63020000  1.0 -0.4297949535
O  O16  1  0.18820000  0.74200000  0.36980000  1.0 -0.4297949535
O  O17  1  0.58410000  0.08170000  0.70940000  1.0 -0.4601895933
O  O18  1  0.08170000  0.58410000  0.29060000  1.0 -0.4601895933
O  O19  1  0.61180000  0.96360000  0.80130000  1.0 -0.4415995453
O  O20  1  0.96360000  0.61180000  0.19870000  1.0 -0.4415995453
O  O21  1  0.52430000  0.05370000  0.79550000  1.0 -0.5104791448
O  O22  1  0.05370000  0.52430000  0.20450000  1.0 -0.5104791448
O  O23  1  0.56920000  0.95560000  0.89050000  1.0 -0.5008658146
O  O24  1  0.95560000  0.56920000  0.10950000  1.0 -0.5008658146
O  O25  1  0.44400000  0.02180000  0.90190000  1.0 -0.5303467115
O  O26  1  0.02180000  0.44400000  0.09810000  1.0 -0.5303467115
O  O27  1  0.37080000  0.86000000  0.87930000  1.0 -0.5199129184
O  O28  1  0.86000000  0.37080000  0.12070000  1.0 -0.5199129184
O  O29  1  0.29050000  0.95590000  0.87140000  1.0 -0.4206185167
O  O30  1  0.95590000  0.29050000  0.12860000  1.0 -0.4206185167
O  O31  1  0.21500000  0.78480000  0.85200000  1.0 -0.403608111
O  O32  1  0.78480000  0.21500000  0.14800000  1.0 -0.403608111
O  O33  1  0.13060000  0.92260000  0.76210000  1.0 -0.3795651917
O  O34  1  0.92260000  0.13060000  0.23790000  1.0 -0.3795651917
O  O35  1  0.06890000  0.83530000  0.89310000  1.0 -0.4779682283
O  O36  1  0.83530000  0.06890000  0.10690000  1.0 -0.4779682283
O  O37  1  0.12530000  0.02830000  0.74380000  1.0 -0.4940851157
O  O38  1  0.02830000  0.12530000  0.25620000  1.0 -0.4940851157
O  O39  1  0.05770000  0.94130000  0.86860000  1.0 -0.4514931564
O  O40  1  0.94130000  0.05770000  0.13140000  1.0 -0.4514931564
O  O41  1  0.22240000  0.15340000  0.84510000  1.0 -0.5303467115
O  O42  1  0.15340000  0.22240000  0.15490000  1.0 -0.5303467115
O  O43  1  0.05140000  0.08260000  0.84480000  1.0 -0.5199129184
O  O44  1  0.08260000  0.05140000  0.15520000  1.0 -0.5199129184
O  O45  1  0.30363000  0.24137000  0.93440000  1.0 -0.4297949535
O  O46  1  0.24137000  0.30363000  0.06560000  1.0 -0.4297949535
O  O47  1  0.13190000  0.18430000  0.92220000  1.0 -0.4297949535
O  O48  1  0.18430000  0.13190000  0.07780000  1.0 -0.4297949535
O  O49  1  0.60380000  0.95080000  0.61090000  1.0 -0.389790453
O  O50  1  0.95080000  0.60380000  0.38910000  1.0 -0.389790453
O  O51  1  0.46250000  0.88030000  0.67020000  1.0 -0.4088439246
O  O52  1  0.88030000  0.46250000  0.32980000  1.0 -0.4088439246
O  O53  1  0.48440000  0.81600000  0.55800000  1.0 -0.5104791448
O  O54  1  0.81600000  0.48440000  0.44200000  1.0 -0.5104791448
O  O55  1  0.34140000  0.75020000  0.60740000  1.0 -0.5104791448
O  O56  1  0.75020000  0.34140000  0.39260000  1.0 -0.5104791448
O  O57  1  0.17760000  0.77660000  0.97440000  1.0 -0.389790453
O  O58  1  0.77660000  0.17760000  0.02560000  1.0 -0.389790453
O  O59  1  0.99660000  0.64520000  0.89020000  1.0 -0.4514931564
O  O60  1  0.64520000  0.99660000  0.10980000  1.0 -0.4514931564
O  O61  1  0.12380000  0.65240000  0.07000000  1.0 -0.5573250179
O  O62  1  0.65240000  0.12380000  0.93000000  1.0 -0.5573250179
O  O63  1  0.94450000  0.52430000  0.99230000  1.0 -0.5303467115
O  O64  1  0.52430000  0.94450000  0.00770000  1.0 -0.5303467115
O  O65  1  0.08930000  0.15030000  0.70250000  1.0 -0.3332276766
O  O66  1  0.15030000  0.08930000  0.29750000  1.0 -0.3332276766
O  O67  1  0.94110000  0.95650000  0.73770000  1.0 -0.5199129184
O  O68  1  0.95650000  0.94110000  0.26230000  1.0 -0.5199129184
O  O69  1  0.83640000  0.95160000  0.63860000  1.0 -0.4297949535
O  O70  1  0.95160000  0.83640000  0.36140000  1.0 -0.4297949535
O  O71  1  0.97670000  0.14590000  0.60370000  1.0 -0.0101788103
O  O72  1  0.14590000  0.97670000  0.39630000  1.0 -0.0101788103
O  O73  1  0.75770000  0.05530000  0.73610000  1.0 -0.2896883761
O  O74  1  0.05530000  0.75770000  0.26390000  1.0 -0.2896883761
O  O75  1  0.04530000  0.74870000  0.74610000  1.0 -0.3740680938
O  O76  1  0.74870000  0.04530000  0.25390000  1.0 -0.3740680938
O  O77  1  0.33470000  0.41670000  0.92960000  1.0 -0.2792700653
O  O78  1  0.41670000  0.33470000  0.07040000  1.0 -0.2792700653
O  O79  1  0.01620000  0.14820000  0.58880000  1.0 -0.0712477223
O  O80  1  0.14820000  0.01620000  0.41120000  1.0 -0.0712477223
