# DDEC6 charges by PACMAN v1.1 (https://github.com/mtap-research/PACMAN-charge/)
data_VINVUN_FSR_pacman
_symmetry_space_group_name_H-M   'P 1'
_cell_length_a   24.52850000
_cell_length_b   24.52850000
_cell_length_c   24.52850000
_cell_angle_alpha   108.97000000
_cell_angle_beta   108.97000000
_cell_angle_gamma   110.47800000
_symmetry_Int_Tables_number   1
_chemical_formula_structural   La3H36C74N24O29
_chemical_formula_sum   'La12 H144 C296 N96 O116'
_cell_volume   11357.74984578
_cell_formula_units_Z   4
loop_
 _symmetry_equiv_pos_site_id
 _symmetry_equiv_pos_as_xyz
  1  'x, y, z'
loop_
 _atom_site_type_symbol
 _atom_site_label
 _atom_site_symmetry_multiplicity
 _atom_site_fract_x
 _atom_site_fract_y
 _atom_site_fract_z
 _atom_site_occupancy
 _atom_site_charge
La  La1  1  0.09966000  0.30125000  0.27959000  1.0 1.7615412074
La  La2  1  0.02166000  0.82007000  0.72041000  1.0 1.7615412074
La  La3  1  0.82007000  0.09966000  0.79841000  1.0 1.7615412074
La  La4  1  0.30125000  0.02166000  0.20159000  1.0 1.7615412074
La  La5  1  0.90034000  0.17993000  0.20159000  1.0 1.7615412074
La  La6  1  0.97834000  0.69875000  0.79841000  1.0 1.7615412074
La  La7  1  0.17993000  0.97834000  0.27959000  1.0 1.7615412074
La  La8  1  0.69875000  0.90034000  0.72041000  1.0 1.7615412074
La  La9  1  0.19051000  0.69051000  0.38102000  1.0 1.3329213756
La  La10  1  0.30949000  0.80949000  0.61898000  1.0 1.3386242288
La  La11  1  0.80949000  0.19051000  0.50000000  1.0 1.3386242288
La  La12  1  0.69051000  0.30949000  0.50000000  1.0 1.3329213756
H  H1  1  0.39471000  0.54804000  0.38615000  1.0 0.1306078477
H  H2  1  0.16189000  0.00856000  0.61385000  1.0 0.1306078477
H  H3  1  0.00856000  0.39471000  0.84667000  1.0 0.1306078477
H  H4  1  0.54804000  0.16189000  0.15333000  1.0 0.1306078477
H  H5  1  0.60529000  0.99144000  0.15333000  1.0 0.1306078477
H  H6  1  0.83811000  0.45196000  0.84667000  1.0 0.1306078477
H  H7  1  0.99144000  0.83811000  0.38615000  1.0 0.1306078477
H  H8  1  0.45196000  0.60529000  0.61385000  1.0 0.1306078477
H  H9  1  0.49634000  0.38713000  0.36483000  1.0 0.1913753255
H  H10  1  0.02230000  0.13151000  0.63517000  1.0 0.1913753255
H  H11  1  0.13151000  0.49634000  0.10921000  1.0 0.1913753255
H  H12  1  0.38713000  0.02230000  0.89079000  1.0 0.1913753255
H  H13  1  0.50366000  0.86849000  0.89079000  1.0 0.1913753255
H  H14  1  0.97770000  0.61287000  0.10921000  1.0 0.1913753255
H  H15  1  0.86849000  0.97770000  0.36483000  1.0 0.1913753255
H  H16  1  0.61287000  0.50366000  0.63517000  1.0 0.1913753255
H  H17  1  0.66069000  0.64495000  0.51182000  1.0 0.1796449339
H  H18  1  0.13313000  0.14887000  0.48818000  1.0 0.1796449339
H  H19  1  0.14887000  0.66069000  0.01574000  1.0 0.1796449339
H  H20  1  0.64495000  0.13313000  0.98426000  1.0 0.1796449339
H  H21  1  0.33931000  0.85113000  0.98426000  1.0 0.1796449339
H  H22  1  0.86687000  0.35505000  0.01574000  1.0 0.1796449339
H  H23  1  0.85113000  0.86687000  0.51182000  1.0 0.1796449339
H  H24  1  0.35505000  0.33931000  0.48818000  1.0 0.1796449339
H  H25  1  0.34812000  0.60835000  0.38387000  1.0 0.0887107217
H  H26  1  0.22448000  0.96425000  0.61613000  1.0 0.0887107217
H  H27  1  0.96425000  0.34812000  0.73977000  1.0 0.0887107217
H  H28  1  0.60835000  0.22448000  0.26023000  1.0 0.0887107217
H  H29  1  0.65188000  0.03575000  0.26023000  1.0 0.0887107217
H  H30  1  0.77552000  0.39165000  0.73977000  1.0 0.0887107217
H  H31  1  0.03575000  0.77552000  0.38387000  1.0 0.0887107217
H  H32  1  0.39165000  0.65188000  0.61613000  1.0 0.0887107217
H  H33  1  0.54189000  0.69671000  0.52150000  1.0 0.1394732282
H  H34  1  0.17521000  0.02039000  0.47850000  1.0 0.1394732282
H  H35  1  0.02039000  0.54189000  0.84518000  1.0 0.1394732282
H  H36  1  0.69671000  0.17521000  0.15482000  1.0 0.1394732282
H  H37  1  0.45811000  0.97961000  0.15482000  1.0 0.1394732282
H  H38  1  0.82479000  0.30329000  0.84518000  1.0 0.1394732282
H  H39  1  0.97961000  0.82479000  0.52150000  1.0 0.1394732282
H  H40  1  0.30329000  0.45811000  0.47850000  1.0 0.1394732282
H  H41  1  0.44916000  0.80400000  0.52174000  1.0 0.1306078477
H  H42  1  0.28226000  0.92742000  0.47826000  1.0 0.1306078477
H  H43  1  0.92742000  0.44916000  0.64516000  1.0 0.1306078477
H  H44  1  0.80400000  0.28226000  0.35484000  1.0 0.1306078477
H  H45  1  0.55084000  0.07258000  0.35484000  1.0 0.1306078477
H  H46  1  0.71774000  0.19600000  0.64516000  1.0 0.1306078477
H  H47  1  0.07258000  0.71774000  0.52174000  1.0 0.1306078477
H  H48  1  0.19600000  0.55084000  0.47826000  1.0 0.1306078477
H  H49  1  0.34399000  0.38681000  0.35196000  1.0 0.1138772036
H  H50  1  0.03485000  0.99203000  0.64804000  1.0 0.1138772036
H  H51  1  0.99203000  0.34399000  0.95718000  1.0 0.1138772036
H  H52  1  0.38681000  0.03485000  0.04282000  1.0 0.1138772036
H  H53  1  0.65601000  0.00797000  0.04282000  1.0 0.1138772036
H  H54  1  0.96515000  0.61319000  0.95718000  1.0 0.1138772036
H  H55  1  0.00797000  0.96515000  0.35196000  1.0 0.1138772036
H  H56  1  0.61319000  0.65601000  0.64804000  1.0 0.1138772036
H  H57  1  0.42987000  0.27844000  0.30601000  1.0 0.1306078477
H  H58  1  0.97243000  0.12386000  0.69399000  1.0 0.1306078477
H  H59  1  0.12386000  0.42987000  0.15143000  1.0 0.1306078477
H  H60  1  0.27844000  0.97243000  0.84857000  1.0 0.1306078477
H  H61  1  0.57013000  0.87614000  0.84857000  1.0 0.1306078477
H  H62  1  0.02757000  0.72156000  0.15143000  1.0 0.1306078477
H  H63  1  0.87614000  0.02757000  0.30601000  1.0 0.1306078477
H  H64  1  0.72156000  0.57013000  0.69399000  1.0 0.1306078477
H  H65  1  0.22974000  0.18623000  0.23243000  1.0 0.1485974389
H  H66  1  0.95380000  0.99731000  0.76757000  1.0 0.1485974389
H  H67  1  0.99731000  0.22974000  0.04351000  1.0 0.1485974389
H  H68  1  0.18623000  0.95380000  0.95649000  1.0 0.1485974389
H  H69  1  0.77026000  0.00269000  0.95649000  1.0 0.1485974389
H  H70  1  0.04620000  0.81377000  0.04351000  1.0 0.1485974389
H  H71  1  0.00269000  0.04620000  0.23243000  1.0 0.1485974389
H  H72  1  0.81377000  0.77026000  0.76757000  1.0 0.1485974389
H  H73  1  0.76693000  0.69178000  0.59149000  1.0 0.1306078477
H  H74  1  0.10029000  0.17544000  0.40851000  1.0 0.1306078477
H  H75  1  0.17544000  0.76693000  0.07515000  1.0 0.1306078477
H  H76  1  0.69178000  0.10029000  0.92485000  1.0 0.1306078477
H  H77  1  0.23307000  0.82456000  0.92485000  1.0 0.1306078477
H  H78  1  0.89971000  0.30822000  0.07515000  1.0 0.1306078477
H  H79  1  0.82456000  0.89971000  0.59149000  1.0 0.1306078477
H  H80  1  0.30822000  0.23307000  0.40851000  1.0 0.1306078477
H  H81  1  0.83983000  0.57165000  0.61394000  1.0 0.1485974389
H  H82  1  0.95771000  0.22589000  0.38606000  1.0 0.1485974389
H  H83  1  0.22589000  0.83983000  0.26818000  1.0 0.1485974389
H  H84  1  0.57165000  0.95771000  0.73182000  1.0 0.1485974389
H  H85  1  0.16017000  0.77411000  0.73182000  1.0 0.1485974389
H  H86  1  0.04229000  0.42835000  0.26818000  1.0 0.1485974389
H  H87  1  0.77411000  0.04229000  0.61394000  1.0 0.1485974389
H  H88  1  0.42835000  0.16017000  0.38606000  1.0 0.1485974389
H  H89  1  0.64213000  0.49171000  0.49548000  1.0 0.115058032
H  H90  1  0.99623000  0.14665000  0.50452000  1.0 0.115058032
H  H91  1  0.14665000  0.64213000  0.15042000  1.0 0.1138772036
H  H92  1  0.49171000  0.99623000  0.84958000  1.0 0.115058032
H  H93  1  0.35787000  0.85335000  0.84958000  1.0 0.115058032
H  H94  1  0.00377000  0.50829000  0.15042000  1.0 0.1138772036
H  H95  1  0.85335000  0.00377000  0.49548000  1.0 0.1138772036
H  H96  1  0.50829000  0.35787000  0.50452000  1.0 0.115058032
H  H97  1  0.39018000  0.53971000  0.43173000  1.0 0.1138772036
H  H98  1  0.10798000  0.95845000  0.56827000  1.0 0.1138772036
H  H99  1  0.95845000  0.39018000  0.85047000  1.0 0.1138772036
H  H100  1  0.53971000  0.10798000  0.14953000  1.0 0.1138772036
H  H101  1  0.60982000  0.04155000  0.14953000  1.0 0.1138772036
H  H102  1  0.89202000  0.46029000  0.85047000  1.0 0.1138772036
H  H103  1  0.04155000  0.89202000  0.43173000  1.0 0.1138772036
H  H104  1  0.46029000  0.60982000  0.56827000  1.0 0.1138772036
H  H105  1  0.49124000  0.38658000  0.39920000  1.0 0.2113741724
H  H106  1  0.98738000  0.09204000  0.60080000  1.0 0.2113741724
H  H107  1  0.09204000  0.49124000  0.10466000  1.0 0.2113741724
H  H108  1  0.38658000  0.98738000  0.89534000  1.0 0.2113741724
H  H109  1  0.50876000  0.90796000  0.89534000  1.0 0.2113741724
H  H110  1  0.01262000  0.61342000  0.10466000  1.0 0.2113741724
H  H111  1  0.90796000  0.01262000  0.39920000  1.0 0.2113741724
H  H112  1  0.61342000  0.50876000  0.60080000  1.0 0.2113741724
H  H113  1  0.65475000  0.64820000  0.54951000  1.0 0.1980436852
H  H114  1  0.09868000  0.10523000  0.45049000  1.0 0.1980436852
H  H115  1  0.10523000  0.65475000  0.00655000  1.0 0.1980436852
H  H116  1  0.64819000  0.09869000  0.99345000  1.0 0.1980436852
H  H117  1  0.34526000  0.89477000  0.99345000  1.0 0.1980436852
H  H118  1  0.90131000  0.35180000  0.00655000  1.0 0.1980436852
H  H119  1  0.89476000  0.90131000  0.54951000  1.0 0.1980436852
H  H120  1  0.35180000  0.34525000  0.45049000  1.0 0.1980436852
H  H121  1  0.45362000  0.80162000  0.56056000  1.0 0.1394732282
H  H122  1  0.24106000  0.89306000  0.43944000  1.0 0.1394732282
H  H123  1  0.89306000  0.45362000  0.65200000  1.0 0.1394732282
H  H124  1  0.80162000  0.24106000  0.34800000  1.0 0.1394732282
H  H125  1  0.54638000  0.10694000  0.34800000  1.0 0.1394732282
H  H126  1  0.75894000  0.19838000  0.65200000  1.0 0.1394732282
H  H127  1  0.10694000  0.75894000  0.56056000  1.0 0.1394732282
H  H128  1  0.19838000  0.54638000  0.43944000  1.0 0.1394732282
H  H129  1  0.33751000  0.60320000  0.43019000  1.0 0.0806788137
H  H130  1  0.17301000  0.90732000  0.56981000  1.0 0.0806788137
H  H131  1  0.90732000  0.33751000  0.73431000  1.0 0.0806788137
H  H132  1  0.60320000  0.17301000  0.26569000  1.0 0.0806788137
H  H133  1  0.66249000  0.09268000  0.26569000  1.0 0.0806788137
H  H134  1  0.82699000  0.39680000  0.73431000  1.0 0.0806788137
H  H135  1  0.09268000  0.82699000  0.43019000  1.0 0.0806788137
H  H136  1  0.39680000  0.66249000  0.56981000  1.0 0.0806788137
H  H137  1  0.53874000  0.68936000  0.52694000  1.0 0.1394732282
H  H138  1  0.16242000  0.01180000  0.47306000  1.0 0.1394732282
H  H139  1  0.01180000  0.53874000  0.84938000  1.0 0.1394732282
H  H140  1  0.68936000  0.16242000  0.15062000  1.0 0.1394732282
H  H141  1  0.46126000  0.98820000  0.15062000  1.0 0.1394732282
H  H142  1  0.83758000  0.31064000  0.84938000  1.0 0.1394732282
H  H143  1  0.98820000  0.83758000  0.52694000  1.0 0.1394732282
H  H144  1  0.31064000  0.46126000  0.47306000  1.0 0.1394732282
C  C1  1  0.47990000  0.55600000  0.43290000  1.0 0.2113741724
C  C2  1  0.12310000  0.04700000  0.56710000  1.0 0.2113741724
C  C3  1  0.04700000  0.47990000  0.92390000  1.0 0.2113741724
C  C4  1  0.55600000  0.12310000  0.07610000  1.0 0.2113741724
C  C5  1  0.52010000  0.95300000  0.07610000  1.0 0.2113741724
C  C6  1  0.87690000  0.44400000  0.92390000  1.0 0.2113741724
C  C7  1  0.95300000  0.87690000  0.43290000  1.0 0.2113741724
C  C8  1  0.44400000  0.52010000  0.56710000  1.0 0.2113741724
C  C9  1  0.48550000  0.46310000  0.40300000  1.0 0.2383932854
C  C10  1  0.06010000  0.08250000  0.59700000  1.0 0.2383932854
C  C11  1  0.08250000  0.48550000  0.02240000  1.0 0.2383932854
C  C12  1  0.46310000  0.06010000  0.97760000  1.0 0.2383932854
C  C13  1  0.51450000  0.91750000  0.97760000  1.0 0.2383932854
C  C14  1  0.93990000  0.53690000  0.02240000  1.0 0.2383932854
C  C15  1  0.91750000  0.93990000  0.40300000  1.0 0.2383932854
C  C16  1  0.53690000  0.51450000  0.59700000  1.0 0.2383932854
C  C17  1  0.57760000  0.56760000  0.47320000  1.0 0.2113741724
C  C18  1  0.09440000  0.10440000  0.52680000  1.0 0.2113741724
C  C19  1  0.10440000  0.57760000  0.01000000  1.0 0.2113741724
C  C20  1  0.56760000  0.09440000  0.99000000  1.0 0.2113741724
C  C21  1  0.42240000  0.89560000  0.99000000  1.0 0.2113741724
C  C22  1  0.90560000  0.43240000  0.01000000  1.0 0.2151579458
C  C23  1  0.89560000  0.90560000  0.47320000  1.0 0.2151579458
C  C24  1  0.43240000  0.42240000  0.52680000  1.0 0.2113741724
C  C25  1  0.38780000  0.64650000  0.42090000  1.0 -0.0788581113
C  C26  1  0.22560000  0.96690000  0.57910000  1.0 -0.0788581113
C  C27  1  0.96690000  0.38780000  0.74130000  1.0 -0.0695085161
C  C28  1  0.64650000  0.22560000  0.25870000  1.0 -0.0695085161
C  C29  1  0.61220000  0.03310000  0.25870000  1.0 -0.0788581113
C  C30  1  0.77440000  0.35350000  0.74130000  1.0 -0.0695085161
C  C31  1  0.03310000  0.77440000  0.42090000  1.0 -0.0788581113
C  C32  1  0.35350000  0.61220000  0.57910000  1.0 -0.0788581113
C  C33  1  0.44470000  0.64270000  0.44820000  1.0 0.0887107217
C  C34  1  0.19450000  0.99650000  0.55180000  1.0 0.0887107217
C  C35  1  0.99650000  0.44470000  0.80200000  1.0 0.0887107217
C  C36  1  0.64270000  0.19450000  0.19800000  1.0 0.0887107217
C  C37  1  0.55530000  0.00350000  0.19800000  1.0 0.0887107217
C  C38  1  0.80550000  0.35730000  0.80200000  1.0 0.0887107217
C  C39  1  0.00350000  0.80550000  0.44820000  1.0 0.0887107217
C  C40  1  0.35730000  0.55530000  0.55180000  1.0 0.0887107217
C  C41  1  0.50340000  0.69930000  0.50310000  1.0 -0.0908538825
C  C42  1  0.19620000  0.00030000  0.49690000  1.0 -0.0908538825
C  C43  1  0.00030000  0.50340000  0.80410000  1.0 -0.0908538825
C  C44  1  0.69930000  0.19620000  0.19590000  1.0 -0.0908538825
C  C45  1  0.49660000  0.99970000  0.19590000  1.0 -0.0908538825
C  C46  1  0.80380000  0.30070000  0.80410000  1.0 -0.0908538825
C  C47  1  0.99970000  0.80380000  0.50310000  1.0 -0.0908538825
C  C48  1  0.30070000  0.49660000  0.49690000  1.0 -0.0908538825
C  C49  1  0.50500000  0.75950000  0.53050000  1.0 0.0697748857
C  C50  1  0.22900000  0.97450000  0.46950000  1.0 0.0697748857
C  C51  1  0.97450000  0.50500000  0.74550000  1.0 0.0697748857
C  C52  1  0.75950000  0.22900000  0.25450000  1.0 0.0697748857
C  C53  1  0.49500000  0.02550000  0.25450000  1.0 0.0697748857
C  C54  1  0.77100000  0.24050000  0.74550000  1.0 0.0697748857
C  C55  1  0.02550000  0.77100000  0.53050000  1.0 0.0697748857
C  C56  1  0.24050000  0.49500000  0.46950000  1.0 0.0697748857
C  C57  1  0.44810000  0.76330000  0.50320000  1.0 -0.0354988308
C  C58  1  0.26010000  0.94490000  0.49680000  1.0 -0.0354988308
C  C59  1  0.94490000  0.44810000  0.68480000  1.0 -0.0354988308
C  C60  1  0.76330000  0.26010000  0.31520000  1.0 -0.0354988308
C  C61  1  0.55190000  0.05510000  0.31520000  1.0 -0.0354988308
C  C62  1  0.73990000  0.23670000  0.68480000  1.0 -0.0354988308
C  C63  1  0.05510000  0.73990000  0.50320000  1.0 -0.0354988308
C  C64  1  0.23670000  0.55190000  0.49680000  1.0 -0.0354988308
C  C65  1  0.38940000  0.70680000  0.44840000  1.0 -0.0004857065
C  C66  1  0.25840000  0.94100000  0.55160000  1.0 -0.0004857065
C  C67  1  0.94100000  0.38940000  0.68260000  1.0 -0.0004857065
C  C68  1  0.70680000  0.25840000  0.31740000  1.0 -0.0004857065
C  C69  1  0.61060000  0.05900000  0.31740000  1.0 -0.0004857065
C  C70  1  0.74160000  0.29320000  0.68260000  1.0 -0.0004857065
C  C71  1  0.05900000  0.74160000  0.44840000  1.0 -0.0004857065
C  C72  1  0.29320000  0.61060000  0.55160000  1.0 -0.0004857065
C  C73  1  0.32580000  0.70810000  0.41930000  1.0 0.3137873012
C  C74  1  0.28880000  0.90650000  0.58070000  1.0 0.3137873012
C  C75  1  0.90650000  0.32580000  0.61770000  1.0 0.3137873012
C  C76  1  0.70810000  0.28880000  0.38230000  1.0 0.3137873012
C  C77  1  0.67420000  0.09350000  0.38230000  1.0 0.3137873012
C  C78  1  0.71120000  0.29190000  0.61770000  1.0 0.3137873012
C  C79  1  0.09350000  0.71120000  0.41930000  1.0 0.3137873012
C  C80  1  0.29190000  0.67420000  0.58070000  1.0 0.3137873012
C  C81  1  0.57310000  0.81770000  0.59580000  1.0 0.4206107605
C  C82  1  0.22190000  0.97730000  0.40420000  1.0 0.4206107605
C  C83  1  0.97730000  0.57310000  0.75540000  1.0 0.4206107605
C  C84  1  0.81770000  0.22190000  0.24460000  1.0 0.4206107605
C  C85  1  0.42690000  0.02270000  0.24460000  1.0 0.4206107605
C  C86  1  0.77810000  0.18230000  0.75540000  1.0 0.4206107605
C  C87  1  0.02270000  0.77810000  0.59580000  1.0 0.4206107605
C  C88  1  0.18230000  0.42690000  0.40420000  1.0 0.4206107605
C  C89  1  0.34020000  0.34530000  0.32970000  1.0 -0.3921186429
C  C90  1  0.01560000  0.01050000  0.67030000  1.0 -0.3921186429
C  C91  1  0.01050000  0.34020000  0.99490000  1.0 -0.3921186429
C  C92  1  0.34530000  0.01560000  0.00510000  1.0 -0.3921186429
C  C93  1  0.65980000  0.98950000  0.00510000  1.0 -0.3921186429
C  C94  1  0.98440000  0.65470000  0.99490000  1.0 -0.3921186429
C  C95  1  0.98950000  0.98440000  0.32970000  1.0 -0.3921186429
C  C96  1  0.65470000  0.65980000  0.67030000  1.0 -0.3921186429
C  C97  1  0.39700000  0.34200000  0.33520000  1.0 0.1796449339
C  C98  1  0.00680000  0.06180000  0.66480000  1.0 0.1796449339
C  C99  1  0.06180000  0.39700000  0.05500000  1.0 0.1796449339
C  C100  1  0.34200000  0.00680000  0.94500000  1.0 0.1796449339
C  C101  1  0.60300000  0.93820000  0.94500000  1.0 0.1796449339
C  C102  1  0.99320000  0.65800000  0.05500000  1.0 0.1796449339
C  C103  1  0.93820000  0.99320000  0.33520000  1.0 0.1796449339
C  C104  1  0.65800000  0.60300000  0.66480000  1.0 0.1796449339
C  C105  1  0.39140000  0.28070000  0.30230000  1.0 -0.2693267715
C  C106  1  0.97840000  0.08910000  0.69770000  1.0 -0.2693267715
C  C107  1  0.08910000  0.39140000  0.11070000  1.0 -0.2693267715
C  C108  1  0.28070000  0.97840000  0.88930000  1.0 -0.2693267715
C  C109  1  0.60860000  0.91090000  0.88930000  1.0 -0.2693267715
C  C110  1  0.02160000  0.71930000  0.11070000  1.0 -0.2693267715
C  C111  1  0.91090000  0.02160000  0.30230000  1.0 -0.2693267715
C  C112  1  0.71930000  0.60860000  0.69770000  1.0 -0.2693267715
C  C113  1  0.32890000  0.22240000  0.26390000  1.0 -0.008546052
C  C114  1  0.95850000  0.06500000  0.73610000  1.0 -0.008546052
C  C115  1  0.06500000  0.32890000  0.10650000  1.0 -0.008546052
C  C116  1  0.22240000  0.95850000  0.89350000  1.0 -0.008546052
C  C117  1  0.67110000  0.93500000  0.89350000  1.0 -0.008546052
C  C118  1  0.04150000  0.77760000  0.10650000  1.0 -0.008546052
C  C119  1  0.93500000  0.04150000  0.26390000  1.0 -0.008546052
C  C120  1  0.77760000  0.67110000  0.73610000  1.0 -0.008546052
C  C121  1  0.27200000  0.22560000  0.25840000  1.0 -0.0908538825
C  C122  1  0.96720000  0.01360000  0.74160000  1.0 -0.0908538825
C  C123  1  0.01360000  0.27200000  0.04640000  1.0 -0.0908538825
C  C124  1  0.22560000  0.96720000  0.95360000  1.0 -0.0908538825
C  C125  1  0.72800000  0.98640000  0.95360000  1.0 -0.0908538825
C  C126  1  0.03280000  0.77440000  0.04640000  1.0 -0.0908538825
C  C127  1  0.98640000  0.03280000  0.25840000  1.0 -0.0908538825
C  C128  1  0.77440000  0.72800000  0.74160000  1.0 -0.0908538825
C  C129  1  0.27770000  0.28700000  0.29130000  1.0 -0.0288641451
C  C130  1  0.99570000  0.98640000  0.70870000  1.0 -0.0288641451
C  C131  1  0.98640000  0.27770000  0.99070000  1.0 -0.0288641451
C  C132  1  0.28700000  0.99570000  0.00930000  1.0 -0.0288641451
C  C133  1  0.72230000  0.01360000  0.00930000  1.0 -0.0288641451
C  C134  1  0.00430000  0.71300000  0.99070000  1.0 -0.0288641451
C  C135  1  0.01360000  0.00430000  0.29130000  1.0 -0.0288641451
C  C136  1  0.71300000  0.72230000  0.70870000  1.0 -0.0288641451
C  C137  1  0.21810000  0.29040000  0.28330000  1.0 0.5618442792
C  C138  1  0.00710000  0.93480000  0.71670000  1.0 0.5618442792
C  C139  1  0.93480000  0.21810000  0.92770000  1.0 0.5618442792
C  C140  1  0.29040000  0.00710000  0.07230000  1.0 0.5618442792
C  C141  1  0.78190000  0.06520000  0.07230000  1.0 0.5618442792
C  C142  1  0.99290000  0.70960000  0.92770000  1.0 0.5618442792
C  C143  1  0.06520000  0.99290000  0.28330000  1.0 0.5618442792
C  C144  1  0.70960000  0.78190000  0.71670000  1.0 0.5618442792
C  C145  1  0.32470000  0.15830000  0.23180000  1.0 0.5458135056
C  C146  1  0.92650000  0.09290000  0.76820000  1.0 0.5458135056
C  C147  1  0.09290000  0.32470000  0.16640000  1.0 0.5458135056
C  C148  1  0.15830000  0.92650000  0.83360000  1.0 0.5458135056
C  C149  1  0.67530000  0.90710000  0.83360000  1.0 0.5458135056
C  C150  1  0.07350000  0.84170000  0.16640000  1.0 0.5458135056
C  C151  1  0.90710000  0.07350000  0.23180000  1.0 0.5458135056
C  C152  1  0.84170000  0.67530000  0.76820000  1.0 0.5458135056
C  C153  1  0.75990000  0.64870000  0.58160000  1.0 -0.2646285918
C  C154  1  0.06710000  0.17830000  0.41840000  1.0 -0.2693267715
C  C155  1  0.17830000  0.75990000  0.11120000  1.0 -0.2693267715
C  C156  1  0.64870000  0.06710000  0.88880000  1.0 -0.2693267715
C  C157  1  0.24010000  0.82170000  0.88880000  1.0 -0.2646285918
C  C158  1  0.93290000  0.35130000  0.11120000  1.0 -0.2646285918
C  C159  1  0.82170000  0.93290000  0.58160000  1.0 -0.2646285918
C  C160  1  0.35130000  0.24010000  0.41840000  1.0 -0.2693267715
C  C161  1  0.81370000  0.64070000  0.60960000  1.0 0.0062600505
C  C162  1  0.03110000  0.20410000  0.39040000  1.0 0.0062600505
C  C163  1  0.20410000  0.81370000  0.17300000  1.0 0.0062600505
C  C164  1  0.64070000  0.03110000  0.82700000  1.0 0.0062600505
C  C165  1  0.18630000  0.79590000  0.82700000  1.0 0.0062600505
C  C166  1  0.96890000  0.35930000  0.17300000  1.0 0.0062600505
C  C167  1  0.79590000  0.96890000  0.60960000  1.0 0.0062600505
C  C168  1  0.35930000  0.18630000  0.39040000  1.0 0.0062600505
C  C169  1  0.80350000  0.57710000  0.59500000  1.0 -0.0908538825
C  C170  1  0.98210000  0.20850000  0.40500000  1.0 -0.0908538825
C  C171  1  0.20850000  0.80350000  0.22640000  1.0 -0.0908538825
C  C172  1  0.57710000  0.98210000  0.77360000  1.0 -0.0908538825
C  C173  1  0.19650000  0.79150000  0.77360000  1.0 -0.0908538825
C  C174  1  0.01790000  0.42290000  0.22640000  1.0 -0.0908538825
C  C175  1  0.79150000  0.01790000  0.59500000  1.0 -0.0908538825
C  C176  1  0.42290000  0.19650000  0.40500000  1.0 -0.0908538825
C  C177  1  0.73930000  0.52140000  0.55230000  1.0 0.0217973879
C  C178  1  0.96910000  0.18700000  0.44770000  1.0 0.0217973879
C  C179  1  0.18700000  0.73930000  0.21790000  1.0 0.0217973879
C  C180  1  0.52140000  0.96910000  0.78210000  1.0 0.0217973879
C  C181  1  0.26070000  0.81300000  0.78210000  1.0 0.0217973879
C  C182  1  0.03090000  0.47860000  0.21790000  1.0 0.0217973879
C  C183  1  0.81300000  0.03090000  0.55230000  1.0 0.0217973879
C  C184  1  0.47860000  0.26070000  0.44770000  1.0 0.0217973879
C  C185  1  0.68550000  0.52940000  0.52430000  1.0 -0.3175145283
C  C186  1  0.00510000  0.16120000  0.47570000  1.0 -0.3175145283
C  C187  1  0.16120000  0.68550000  0.15610000  1.0 -0.3136295877
C  C188  1  0.52940000  0.00510000  0.84390000  1.0 -0.3136295877
C  C189  1  0.31450000  0.83880000  0.84390000  1.0 -0.3175145283
C  C190  1  0.99490000  0.47060000  0.15610000  1.0 -0.3136295877
C  C191  1  0.83880000  0.99490000  0.52430000  1.0 -0.3175145283
C  C192  1  0.47060000  0.31450000  0.47570000  1.0 -0.3175145283
C  C193  1  0.69590000  0.59310000  0.53900000  1.0 0.1980436852
C  C194  1  0.05410000  0.15690000  0.46100000  1.0 0.1980436852
C  C195  1  0.15690000  0.69590000  0.10280000  1.0 0.1980436852
C  C196  1  0.59310000  0.05410000  0.89720000  1.0 0.1980436852
C  C197  1  0.30410000  0.84310000  0.89720000  1.0 0.1980436852
C  C198  1  0.94590000  0.40690000  0.10280000  1.0 0.1980436852
C  C199  1  0.84310000  0.94590000  0.53900000  1.0 0.1980436852
C  C200  1  0.40690000  0.30410000  0.46100000  1.0 0.1980436852
C  C201  1  0.72370000  0.45070000  0.53100000  1.0 0.5148111033
C  C202  1  0.91970000  0.19270000  0.46900000  1.0 0.5148111033
C  C203  1  0.19270000  0.72370000  0.27300000  1.0 0.5148111033
C  C204  1  0.45070000  0.91970000  0.72700000  1.0 0.5148111033
C  C205  1  0.27630000  0.80730000  0.72700000  1.0 0.5148111033
C  C206  1  0.08030000  0.54930000  0.27300000  1.0 0.5148111033
C  C207  1  0.80730000  0.08030000  0.53100000  1.0 0.5148111033
C  C208  1  0.54930000  0.27630000  0.46900000  1.0 0.5148111033
C  C209  1  0.88150000  0.70110000  0.65560000  1.0 0.5726228925
C  C210  1  0.04550000  0.22590000  0.34440000  1.0 0.5726228925
C  C211  1  0.22590000  0.88150000  0.18040000  1.0 0.5726228925
C  C212  1  0.70110000  0.04550000  0.81960000  1.0 0.5726228925
C  C213  1  0.11850000  0.77410000  0.81960000  1.0 0.5726228925
C  C214  1  0.95450000  0.29890000  0.18040000  1.0 0.5726228925
C  C215  1  0.77410000  0.95450000  0.65560000  1.0 0.5726228925
C  C216  1  0.29890000  0.11850000  0.34440000  1.0 0.5726228925
C  C217  1  0.47890000  0.55440000  0.45490000  1.0 0.1913753255
C  C218  1  0.09950000  0.02400000  0.54510000  1.0 0.1913753255
C  C219  1  0.02400000  0.47890000  0.92450000  1.0 0.1913753255
C  C220  1  0.55440000  0.09950000  0.07550000  1.0 0.1913753255
C  C221  1  0.52110000  0.97600000  0.07550000  1.0 0.1913753255
C  C222  1  0.90050000  0.44560000  0.92450000  1.0 0.1913753255
C  C223  1  0.97600000  0.90050000  0.45490000  1.0 0.1913753255
C  C224  1  0.44560000  0.52110000  0.54510000  1.0 0.1913753255
C  C225  1  0.49150000  0.46750000  0.42660000  1.0 0.2113741724
C  C226  1  0.04090000  0.06490000  0.57340000  1.0 0.2113741724
C  C227  1  0.06490000  0.49150000  0.02400000  1.0 0.2113741724
C  C228  1  0.46750000  0.04090000  0.97600000  1.0 0.2113741724
C  C229  1  0.50850000  0.93510000  0.97600000  1.0 0.2113741724
C  C230  1  0.95910000  0.53250000  0.02400000  1.0 0.2113741724
C  C231  1  0.93510000  0.95910000  0.42660000  1.0 0.2113741724
C  C232  1  0.53250000  0.50850000  0.57340000  1.0 0.2113741724
C  C233  1  0.57520000  0.56550000  0.48750000  1.0 0.1728686376
C  C234  1  0.07800000  0.08770000  0.51250000  1.0 0.1728686376
C  C235  1  0.08770000  0.57520000  0.00970000  1.0 0.1728686376
C  C236  1  0.56550000  0.07800000  0.99030000  1.0 0.1728686376
C  C237  1  0.42480000  0.91230000  0.99030000  1.0 0.1728686376
C  C238  1  0.92200000  0.43450000  0.00970000  1.0 0.1728686376
C  C239  1  0.91230000  0.92200000  0.48750000  1.0 0.1796449339
C  C240  1  0.43450000  0.42480000  0.51250000  1.0 0.1728686376
C  C241  1  0.44950000  0.75990000  0.53860000  1.0 -0.0695085161
C  C242  1  0.22130000  0.91090000  0.46140000  1.0 -0.0695085161
C  C243  1  0.91090000  0.44950000  0.68960000  1.0 -0.0695085161
C  C244  1  0.75990000  0.22130000  0.31040000  1.0 -0.0695085161
C  C245  1  0.55050000  0.08910000  0.31040000  1.0 -0.0695085161
C  C246  1  0.77870000  0.24010000  0.68960000  1.0 -0.0695085161
C  C247  1  0.08910000  0.77870000  0.53860000  1.0 -0.0695085161
C  C248  1  0.24010000  0.55050000  0.46140000  1.0 -0.0695085161
C  C249  1  0.38630000  0.70320000  0.49330000  1.0 -0.008546052
C  C250  1  0.20990000  0.89300000  0.50670000  1.0 -0.008546052
C  C251  1  0.89300000  0.38630000  0.68310000  1.0 -0.008546052
C  C252  1  0.70320000  0.20990000  0.31690000  1.0 -0.008546052
C  C253  1  0.61370000  0.10700000  0.31690000  1.0 -0.008546052
C  C254  1  0.79010000  0.29680000  0.68310000  1.0 -0.008546052
C  C255  1  0.10700000  0.79010000  0.49330000  1.0 -0.008546052
C  C256  1  0.29680000  0.61370000  0.50670000  1.0 -0.008546052
C  C257  1  0.38020000  0.64150000  0.46070000  1.0 -0.0908538825
C  C258  1  0.18080000  0.91950000  0.53930000  1.0 -0.0788581113
C  C259  1  0.91950000  0.38020000  0.73870000  1.0 -0.0788581113
C  C260  1  0.64150000  0.18080000  0.26130000  1.0 -0.0908538825
C  C261  1  0.61980000  0.08050000  0.26130000  1.0 -0.0788581113
C  C262  1  0.81920000  0.35850000  0.73870000  1.0 -0.0788581113
C  C263  1  0.08050000  0.81920000  0.46070000  1.0 -0.0788581113
C  C264  1  0.35850000  0.61980000  0.53930000  1.0 -0.0908538825
C  C265  1  0.43720000  0.63630000  0.47330000  1.0 0.0806788137
C  C266  1  0.16300000  0.96390000  0.52670000  1.0 0.0806788137
C  C267  1  0.96390000  0.43720000  0.80090000  1.0 0.0806788137
C  C268  1  0.63630000  0.16300000  0.19910000  1.0 0.0806788137
C  C269  1  0.56280000  0.03610000  0.19910000  1.0 0.0806788137
C  C270  1  0.83700000  0.36370000  0.80090000  1.0 0.0806788137
C  C271  1  0.03610000  0.83700000  0.47330000  1.0 0.0806788137
C  C272  1  0.36370000  0.56280000  0.52670000  1.0 0.0806788137
C  C273  1  0.50020000  0.69280000  0.51840000  1.0 -0.1066982848
C  C274  1  0.17440000  0.98180000  0.48160000  1.0 -0.1066982848
C  C275  1  0.98180000  0.50020000  0.80740000  1.0 -0.1066982848
C  C276  1  0.69280000  0.17440000  0.19260000  1.0 -0.1066982848
C  C277  1  0.49980000  0.01820000  0.19260000  1.0 -0.1066982848
C  C278  1  0.82560000  0.30720000  0.80740000  1.0 -0.1066982848
C  C279  1  0.01820000  0.82560000  0.51840000  1.0 -0.1066982848
C  C280  1  0.30720000  0.49980000  0.48160000  1.0 -0.1066982848
C  C281  1  0.50640000  0.75470000  0.55110000  1.0 0.0581551056
C  C282  1  0.20360000  0.95530000  0.44890000  1.0 0.0581551056
C  C283  1  0.95530000  0.50640000  0.75170000  1.0 0.0581551056
C  C284  1  0.75470000  0.20360000  0.24830000  1.0 0.0581551056
C  C285  1  0.49360000  0.04470000  0.24830000  1.0 0.0581551056
C  C286  1  0.79640000  0.24530000  0.75170000  1.0 0.0581551056
C  C287  1  0.04470000  0.79640000  0.55110000  1.0 0.0581551056
C  C288  1  0.24530000  0.49360000  0.44890000  1.0 0.0581551056
C  C289  1  0.32570000  0.70930000  0.47700000  1.0 0.1980436852
C  C290  1  0.23230000  0.84870000  0.52300000  1.0 0.1980436852
C  C291  1  0.84870000  0.32570000  0.61640000  1.0 0.1980436852
C  C292  1  0.70930000  0.23230000  0.38360000  1.0 0.1980436852
C  C293  1  0.67430000  0.15130000  0.38360000  1.0 0.1980436852
C  C294  1  0.76770000  0.29070000  0.61640000  1.0 0.1980436852
C  C295  1  0.15130000  0.76770000  0.47700000  1.0 0.1980436852
C  C296  1  0.29070000  0.67430000  0.52300000  1.0 0.1980436852
N  N1  1  0.44110000  0.48290000  0.39100000  1.0 -0.1321566862
N  N2  1  0.09190000  0.05010000  0.60900000  1.0 -0.1321566862
N  N3  1  0.05010000  0.44110000  0.95820000  1.0 -0.1321566862
N  N4  1  0.48290000  0.09190000  0.04180000  1.0 -0.1321566862
N  N5  1  0.55890000  0.94990000  0.04180000  1.0 -0.1321566862
N  N6  1  0.90810000  0.51710000  0.95820000  1.0 -0.1321566862
N  N7  1  0.94990000  0.90810000  0.39100000  1.0 -0.1321566862
N  N8  1  0.51710000  0.55890000  0.60900000  1.0 -0.1321566862
N  N9  1  0.55350000  0.49780000  0.43590000  1.0 -0.236979897
N  N10  1  0.06190000  0.11760000  0.56410000  1.0 -0.236979897
N  N11  1  0.11760000  0.55350000  0.05570000  1.0 -0.236979897
N  N12  1  0.49780000  0.06190000  0.94430000  1.0 -0.236979897
N  N13  1  0.44650000  0.88240000  0.94430000  1.0 -0.236979897
N  N14  1  0.93810000  0.50220000  0.05570000  1.0 -0.236979897
N  N15  1  0.88240000  0.93810000  0.43590000  1.0 -0.236979897
N  N16  1  0.50220000  0.44650000  0.56410000  1.0 -0.236979897
N  N17  1  0.54270000  0.59660000  0.46570000  1.0 -0.1397451689
N  N18  1  0.13090000  0.07700000  0.53430000  1.0 -0.1397451689
N  N19  1  0.07700000  0.54270000  0.94610000  1.0 -0.1397451689
N  N20  1  0.59660000  0.13090000  0.05390000  1.0 -0.1397451689
N  N21  1  0.45730000  0.92300000  0.05390000  1.0 -0.1397451689
N  N22  1  0.86910000  0.40340000  0.94610000  1.0 -0.1397451689
N  N23  1  0.92300000  0.86910000  0.46570000  1.0 -0.1397451689
N  N24  1  0.40340000  0.45730000  0.53430000  1.0 -0.1397451689
N  N25  1  0.43510000  0.57880000  0.41870000  1.0 -0.1194834387
N  N26  1  0.16010000  0.01640000  0.58130000  1.0 -0.1194834387
N  N27  1  0.01640000  0.43510000  0.85630000  1.0 -0.1194834387
N  N28  1  0.57880000  0.16010000  0.14370000  1.0 -0.1194834387
N  N29  1  0.56490000  0.98360000  0.14370000  1.0 -0.1194834387
N  N30  1  0.83990000  0.42120000  0.85630000  1.0 -0.1194834387
N  N31  1  0.98360000  0.83990000  0.41870000  1.0 -0.1194834387
N  N32  1  0.42120000  0.56490000  0.58130000  1.0 -0.1194834387
N  N33  1  0.46620000  0.39690000  0.36790000  1.0 -0.0695085161
N  N34  1  0.02900000  0.09830000  0.63210000  1.0 -0.0695085161
N  N35  1  0.09830000  0.46620000  0.06930000  1.0 -0.0695085161
N  N36  1  0.39690000  0.02900000  0.93070000  1.0 -0.0695085161
N  N37  1  0.53380000  0.90170000  0.93070000  1.0 -0.0695085161
N  N38  1  0.97100000  0.60310000  0.06930000  1.0 -0.0695085161
N  N39  1  0.90170000  0.97100000  0.36790000  1.0 -0.0695085161
N  N40  1  0.60310000  0.53380000  0.63210000  1.0 -0.0695085161
N  N41  1  0.64520000  0.60520000  0.50780000  1.0 -0.0788581113
N  N42  1  0.09740000  0.13740000  0.49220000  1.0 -0.0788581113
N  N43  1  0.13740000  0.64520000  0.04000000  1.0 -0.0788581113
N  N44  1  0.60520000  0.09740000  0.96000000  1.0 -0.0788581113
N  N45  1  0.35480000  0.86260000  0.96000000  1.0 -0.0788581113
N  N46  1  0.90260000  0.39480000  0.04000000  1.0 -0.0695085161
N  N47  1  0.86260000  0.90260000  0.50780000  1.0 -0.0788581113
N  N48  1  0.39480000  0.35480000  0.49220000  1.0 -0.0788581113
N  N49  1  0.44920000  0.48880000  0.41740000  1.0 -0.1614816787
N  N50  1  0.07140000  0.03180000  0.58260000  1.0 -0.1614816787
N  N51  1  0.03180000  0.44920000  0.96040000  1.0 -0.1614816787
N  N52  1  0.48880000  0.07140000  0.03960000  1.0 -0.1614816787
N  N53  1  0.55080000  0.96820000  0.03960000  1.0 -0.1614816787
N  N54  1  0.92860000  0.51120000  0.96040000  1.0 -0.1614816787
N  N55  1  0.96820000  0.92860000  0.41740000  1.0 -0.1614816787
N  N56  1  0.51120000  0.55080000  0.58260000  1.0 -0.1614816787
N  N57  1  0.55550000  0.50470000  0.45520000  1.0 -0.2283739865
N  N58  1  0.04950000  0.10030000  0.54480000  1.0 -0.2283739865
N  N59  1  0.10030000  0.55550000  0.05080000  1.0 -0.2283739865
N  N60  1  0.50470000  0.04950000  0.94920000  1.0 -0.2283739865
N  N61  1  0.44450000  0.89970000  0.94920000  1.0 -0.2283739865
N  N62  1  0.95050000  0.49530000  0.05080000  1.0 -0.2283739865
N  N63  1  0.89970000  0.95050000  0.45520000  1.0 -0.2283739865
N  N64  1  0.49530000  0.44450000  0.54480000  1.0 -0.2283739865
N  N65  1  0.53870000  0.59750000  0.48740000  1.0 -0.1668310416
N  N66  1  0.11010000  0.05130000  0.51260000  1.0 -0.1668310416
N  N67  1  0.05130000  0.53870000  0.94120000  1.0 -0.1668310416
N  N68  1  0.59750000  0.11010000  0.05880000  1.0 -0.1614816787
N  N69  1  0.46130000  0.94870000  0.05880000  1.0 -0.1668310416
N  N70  1  0.88990000  0.40250000  0.94120000  1.0 -0.1668310416
N  N71  1  0.94870000  0.88990000  0.48740000  1.0 -0.1668310416
N  N72  1  0.40250000  0.46130000  0.51260000  1.0 -0.1668310416
N  N73  1  0.43090000  0.57300000  0.45110000  1.0 -0.2002398512
N  N74  1  0.12190000  0.97980000  0.54890000  1.0 -0.2002398512
N  N75  1  0.97980000  0.43090000  0.85790000  1.0 -0.2002398512
N  N76  1  0.57300000  0.12190000  0.14210000  1.0 -0.2002398512
N  N77  1  0.56910000  0.02020000  0.14210000  1.0 -0.2002398512
N  N78  1  0.87810000  0.42700000  0.85790000  1.0 -0.2002398512
N  N79  1  0.02020000  0.87810000  0.45110000  1.0 -0.2002398512
N  N80  1  0.42700000  0.56910000  0.54890000  1.0 -0.2002398512
N  N81  1  0.46220000  0.39910000  0.38830000  1.0 -0.1397451689
N  N82  1  0.01080000  0.07390000  0.61170000  1.0 -0.1397451689
N  N83  1  0.07390000  0.46220000  0.06310000  1.0 -0.1321566862
N  N84  1  0.39910000  0.01080000  0.93690000  1.0 -0.1397451689
N  N85  1  0.53780000  0.92610000  0.93690000  1.0 -0.1397451689
N  N86  1  0.98920000  0.60090000  0.06310000  1.0 -0.1397451689
N  N87  1  0.92610000  0.98920000  0.38830000  1.0 -0.1397451689
N  N88  1  0.60090000  0.53780000  0.61170000  1.0 -0.1321566862
N  N89  1  0.64210000  0.60620000  0.52710000  1.0 -0.1194834387
N  N90  1  0.07910000  0.11500000  0.47290000  1.0 -0.1194834387
N  N91  1  0.11500000  0.64210000  0.03590000  1.0 -0.1194834387
N  N92  1  0.60620000  0.07910000  0.96410000  1.0 -0.1194834387
N  N93  1  0.35790000  0.88500000  0.96410000  1.0 -0.1194834387
N  N94  1  0.92090000  0.39380000  0.03590000  1.0 -0.1194834387
N  N95  1  0.88500000  0.92090000  0.52710000  1.0 -0.1194834387
N  N96  1  0.39380000  0.35790000  0.47290000  1.0 -0.1194834387
O  O1  1  0.27330000  0.65110000  0.37660000  1.0 -0.2002398512
O  O2  1  0.27450000  0.89670000  0.62340000  1.0 -0.2002398512
O  O3  1  0.89670000  0.27330000  0.62220000  1.0 -0.2002398512
O  O4  1  0.65110000  0.27450000  0.37780000  1.0 -0.2002398512
O  O5  1  0.72670000  0.10330000  0.37780000  1.0 -0.1936448765
O  O6  1  0.72550000  0.34890000  0.62220000  1.0 -0.2002398512
O  O7  1  0.10330000  0.72550000  0.37660000  1.0 -0.2002398512
O  O8  1  0.34890000  0.72670000  0.62340000  1.0 -0.2002398512
O  O9  1  0.32430000  0.76230000  0.44240000  1.0 -0.3175145283
O  O10  1  0.31990000  0.88190000  0.55760000  1.0 -0.3175145283
O  O11  1  0.88190000  0.32430000  0.56200000  1.0 -0.3175145283
O  O12  1  0.76230000  0.31990000  0.43800000  1.0 -0.3175145283
O  O13  1  0.67570000  0.11810000  0.43800000  1.0 -0.3175145283
O  O14  1  0.68010000  0.23770000  0.56200000  1.0 -0.3175145283
O  O15  1  0.11810000  0.68010000  0.44240000  1.0 -0.3175145283
O  O16  1  0.23770000  0.67570000  0.55760000  1.0 -0.3175145283
O  O17  1  0.57210000  0.85690000  0.64280000  1.0 -0.4559699909
O  O18  1  0.21410000  0.92930000  0.35720000  1.0 -0.4559699909
O  O19  1  0.92930000  0.57210000  0.71520000  1.0 -0.4559699909
O  O20  1  0.85690000  0.21410000  0.28480000  1.0 -0.4559699909
O  O21  1  0.42790000  0.07070000  0.28480000  1.0 -0.4497768351
O  O22  1  0.78590000  0.14310000  0.71520000  1.0 -0.4559699909
O  O23  1  0.07070000  0.78590000  0.64280000  1.0 -0.4559699909
O  O24  1  0.14310000  0.42790000  0.35720000  1.0 -0.4559699909
O  O25  1  0.62510000  0.82530000  0.59400000  1.0 -0.490734388
O  O26  1  0.23130000  0.03110000  0.40600000  1.0 -0.490734388
O  O27  1  0.03110000  0.62510000  0.79980000  1.0 -0.490734388
O  O28  1  0.82530000  0.23130000  0.20020000  1.0 -0.490734388
O  O29  1  0.37490000  0.96890000  0.20020000  1.0 -0.490734388
O  O30  1  0.76870000  0.17470000  0.79980000  1.0 -0.490734388
O  O31  1  0.96890000  0.76870000  0.59400000  1.0 -0.490734388
O  O32  1  0.17470000  0.37490000  0.40600000  1.0 -0.490734388
O  O33  1  0.22320000  0.34950000  0.31010000  1.0 -0.6602041003
O  O34  1  0.03940000  0.91310000  0.68990000  1.0 -0.6602041003
O  O35  1  0.91310000  0.22320000  0.87370000  1.0 -0.6602041003
O  O36  1  0.34950000  0.03940000  0.12630000  1.0 -0.6602041003
O  O37  1  0.77680000  0.08690000  0.12630000  1.0 -0.6602041003
O  O38  1  0.96060000  0.65050000  0.87370000  1.0 -0.6602041003
O  O39  1  0.08690000  0.96060000  0.31010000  1.0 -0.6602041003
O  O40  1  0.65050000  0.77680000  0.68990000  1.0 -0.6602041003
O  O41  1  0.16280000  0.23970000  0.25750000  1.0 -0.5007256296
O  O42  1  0.98220000  0.90530000  0.74250000  1.0 -0.5007256296
O  O43  1  0.90530000  0.16280000  0.92310000  1.0 -0.5007256296
O  O44  1  0.23970000  0.98220000  0.07690000  1.0 -0.5007256296
O  O45  1  0.83720000  0.09470000  0.07690000  1.0 -0.5007256296
O  O46  1  0.01780000  0.76030000  0.92310000  1.0 -0.5007256296
O  O47  1  0.09470000  0.01780000  0.25750000  1.0 -0.5007256296
O  O48  1  0.76030000  0.83720000  0.74250000  1.0 -0.5007256296
O  O49  1  0.26830000  0.10770000  0.18840000  1.0 -0.490734388
O  O50  1  0.91930000  0.07990000  0.81160000  1.0 -0.490734388
O  O51  1  0.07990000  0.26830000  0.16060000  1.0 -0.490734388
O  O52  1  0.10770000  0.91930000  0.83940000  1.0 -0.490734388
O  O53  1  0.73170000  0.92010000  0.83940000  1.0 -0.490734388
O  O54  1  0.08070000  0.89230000  0.16060000  1.0 -0.490734388
O  O55  1  0.92010000  0.08070000  0.18840000  1.0 -0.490734388
O  O56  1  0.89230000  0.73170000  0.81160000  1.0 -0.490734388
O  O57  1  0.37480000  0.15070000  0.25130000  1.0 -0.5694596198
O  O58  1  0.89940000  0.12350000  0.74870000  1.0 -0.5694596198
O  O59  1  0.12350000  0.37480000  0.22410000  1.0 -0.5694596198
O  O60  1  0.15070000  0.89940000  0.77590000  1.0 -0.5694596198
O  O61  1  0.62520000  0.87650000  0.77590000  1.0 -0.5694596198
O  O62  1  0.10060000  0.84930000  0.22410000  1.0 -0.5694596198
O  O63  1  0.87650000  0.10060000  0.25130000  1.0 -0.5694596198
O  O64  1  0.84930000  0.62520000  0.74870000  1.0 -0.5694596198
O  O65  1  0.68070000  0.40450000  0.48200000  1.0 -0.4497768351
O  O66  1  0.92250000  0.19870000  0.51800000  1.0 -0.4497768351
O  O67  1  0.19870000  0.68070000  0.27620000  1.0 -0.4497768351
O  O68  1  0.40450000  0.92250000  0.72380000  1.0 -0.4497768351
O  O69  1  0.31930000  0.80130000  0.72380000  1.0 -0.4497768351
O  O70  1  0.07750000  0.59550000  0.27620000  1.0 -0.4497768351
O  O71  1  0.80130000  0.07750000  0.48200000  1.0 -0.4497768351
O  O72  1  0.59550000  0.31930000  0.51800000  1.0 -0.4497768351
O  O73  1  0.76190000  0.44300000  0.57470000  1.0 -0.5281327393
O  O74  1  0.86830000  0.18720000  0.42530000  1.0 -0.5281327393
O  O75  1  0.18720000  0.76190000  0.31890000  1.0 -0.5281327393
O  O76  1  0.44300000  0.86830000  0.68110000  1.0 -0.5281327393
O  O77  1  0.23810000  0.81280000  0.68110000  1.0 -0.5281327393
O  O78  1  0.13170000  0.55700000  0.31890000  1.0 -0.5281327393
O  O79  1  0.81280000  0.13170000  0.57470000  1.0 -0.5281327393
O  O80  1  0.55700000  0.23810000  0.42530000  1.0 -0.5281327393
O  O81  1  0.93190000  0.69470000  0.68760000  1.0 -0.6399980885
O  O82  1  0.00710000  0.24430000  0.31240000  1.0 -0.6399980885
O  O83  1  0.24430000  0.93190000  0.23720000  1.0 -0.6399980885
O  O84  1  0.69470000  0.00710000  0.76280000  1.0 -0.6399980885
O  O85  1  0.06810000  0.75570000  0.76280000  1.0 -0.6399980885
O  O86  1  0.99290000  0.30530000  0.23720000  1.0 -0.6399980885
O  O87  1  0.75570000  0.99290000  0.68760000  1.0 -0.6399980885
O  O88  1  0.30530000  0.06810000  0.31240000  1.0 -0.6399980885
O  O89  1  0.89130000  0.75640000  0.66330000  1.0 -0.5213204128
O  O90  1  0.09310000  0.22800000  0.33670000  1.0 -0.5213204128
O  O91  1  0.22800000  0.89130000  0.13490000  1.0 -0.5213204128
O  O92  1  0.75640000  0.09310000  0.86510000  1.0 -0.5213204128
O  O93  1  0.10870000  0.77200000  0.86510000  1.0 -0.5213204128
O  O94  1  0.90690000  0.24360000  0.13490000  1.0 -0.5213204128
O  O95  1  0.77200000  0.90690000  0.66330000  1.0 -0.5213204128
O  O96  1  0.24360000  0.10870000  0.33670000  1.0 -0.5213204128
O  O97  1  0.00000000  0.18130000  0.18130000  1.0 -0.2693267715
O  O98  1  0.00000000  0.81870000  0.81870000  1.0 -0.2693267715
O  O99  1  0.81870000  0.00000000  0.81870000  1.0 -0.2693267715
O  O100  1  0.18130000  0.00000000  0.18130000  1.0 -0.2693267715
O  O101  1  0.27900000  0.66190000  0.41830000  1.0 -0.0695085161
O  O102  1  0.24360000  0.86070000  0.58170000  1.0 -0.0695085161
O  O103  1  0.86070000  0.27900000  0.61710000  1.0 -0.0695085161
O  O104  1  0.66190000  0.24360000  0.38290000  1.0 -0.0695085161
O  O105  1  0.72100000  0.13930000  0.38290000  1.0 -0.0695085161
O  O106  1  0.75640000  0.33810000  0.61710000  1.0 -0.0695085161
O  O107  1  0.13930000  0.75640000  0.41830000  1.0 -0.0695085161
O  O108  1  0.33810000  0.72100000  0.58170000  1.0 -0.0695085161
O  O109  1  0.32350000  0.75540000  0.51430000  1.0 -0.2783877057
O  O110  1  0.24110000  0.80920000  0.48570000  1.0 -0.2783877057
O  O111  1  0.80920000  0.32350000  0.56810000  1.0 -0.2783877057
O  O112  1  0.75540000  0.24110000  0.43190000  1.0 -0.2783877057
O  O113  1  0.67650000  0.19080000  0.43190000  1.0 -0.2783877057
O  O114  1  0.75890000  0.24460000  0.56810000  1.0 -0.2783877057
O  O115  1  0.19080000  0.75890000  0.51430000  1.0 -0.2783877057
O  O116  1  0.24460000  0.67650000  0.48570000  1.0 -0.2783877057
