# DDEC6 charges by PACMAN v1.1 (https://github.com/mtap-research/PACMAN-charge/)
data_VIQGIO_ASR_pacman
_symmetry_space_group_name_H-M   'P 1'
_cell_length_a   17.06710000
_cell_length_b   17.06710000
_cell_length_c   28.56000000
_cell_angle_alpha   90.00000000
_cell_angle_beta   90.00000000
_cell_angle_gamma   127.16000000
_symmetry_Int_Tables_number   1
_chemical_formula_structural   CoH24C32(N2O)8
_chemical_formula_sum   'Co4 H96 C128 N64 O32'
_cell_volume   6629.94205418
_cell_formula_units_Z   4
loop_
 _symmetry_equiv_pos_site_id
 _symmetry_equiv_pos_as_xyz
  1  'x, y, z'
loop_
 _atom_site_type_symbol
 _atom_site_label
 _atom_site_symmetry_multiplicity
 _atom_site_fract_x
 _atom_site_fract_y
 _atom_site_fract_z
 _atom_site_occupancy
 _atom_site_charge
Co  Co1  1  0.50000000  0.00000000  0.50000000  1.0 0.2524220704
Co  Co2  1  0.50000000  0.00000000  0.00000000  1.0 0.2524220704
Co  Co3  1  0.00000000  0.50000000  0.00000000  1.0 0.261884874
Co  Co4  1  0.00000000  0.50000000  0.50000000  1.0 0.261884874
H  H1  1  0.34379000  0.26537000  0.32205000  1.0 0.1221986793
H  H2  1  0.57604000  0.98068000  0.39615000  1.0 0.1332230527
H  H3  1  0.40583000  0.04035000  0.33996000  1.0 0.1332230527
H  H4  1  0.38002000  0.08868000  0.47225000  1.0 0.1332230527
H  H5  1  0.92197000  0.17803000  0.29170000  1.0 0.1139520688
H  H6  1  0.19904000  0.12156000  0.32001000  1.0 0.1139520688
H  H7  1  0.84472000  0.15398000  0.44643000  1.0 0.1332230527
H  H8  1  0.85666000  0.02118000  0.29284000  1.0 0.1221986793
H  H9  1  0.65621000  0.73463000  0.82205000  1.0 0.1221986793
H  H10  1  0.42396000  0.01932000  0.89615000  1.0 0.1332230527
H  H11  1  0.59417000  0.95965000  0.83996000  1.0 0.1332230527
H  H12  1  0.61998000  0.91132000  0.97225000  1.0 0.1332230527
H  H13  1  0.07803000  0.82197000  0.79170000  1.0 0.1139520688
H  H14  1  0.80096000  0.87844000  0.82001000  1.0 0.1139520688
H  H15  1  0.15528000  0.84602000  0.94643000  1.0 0.1332230527
H  H16  1  0.14334000  0.97882000  0.79284000  1.0 0.1221986793
H  H17  1  0.26537000  0.34379000  0.17795000  1.0 0.1221986793
H  H18  1  0.98068000  0.57604000  0.10385000  1.0 0.1332230527
H  H19  1  0.04035000  0.40583000  0.16004000  1.0 0.1332230527
H  H20  1  0.08868000  0.38002000  0.02775000  1.0 0.1332230527
H  H21  1  0.17803000  0.92197000  0.20830000  1.0 0.1139520688
H  H22  1  0.12156000  0.19904000  0.17999000  1.0 0.1139520688
H  H23  1  0.15398000  0.84472000  0.05357000  1.0 0.1332230527
H  H24  1  0.02118000  0.85666000  0.20716000  1.0 0.1221986793
H  H25  1  0.73463000  0.65621000  0.67795000  1.0 0.1221986793
H  H26  1  0.01932000  0.42396000  0.60385000  1.0 0.1332230527
H  H27  1  0.95965000  0.59417000  0.66004000  1.0 0.1332230527
H  H28  1  0.91132000  0.61998000  0.52775000  1.0 0.1332230527
H  H29  1  0.82197000  0.07803000  0.70830000  1.0 0.1139520688
H  H30  1  0.87844000  0.80096000  0.67999000  1.0 0.1139520688
H  H31  1  0.84602000  0.15528000  0.55357000  1.0 0.1332230527
H  H32  1  0.97882000  0.14334000  0.70716000  1.0 0.1221986793
H  H33  1  0.65621000  0.73463000  0.67795000  1.0 0.1221986793
H  H34  1  0.42396000  0.01932000  0.60385000  1.0 0.1332230527
H  H35  1  0.59417000  0.95965000  0.66004000  1.0 0.1332230527
H  H36  1  0.61998000  0.91132000  0.52775000  1.0 0.1332230527
H  H37  1  0.07803000  0.82197000  0.70830000  1.0 0.1139520688
H  H38  1  0.80096000  0.87844000  0.67999000  1.0 0.1139520688
H  H39  1  0.15528000  0.84602000  0.55357000  1.0 0.1332230527
H  H40  1  0.14334000  0.97882000  0.70716000  1.0 0.1221986793
H  H41  1  0.34379000  0.26537000  0.17795000  1.0 0.1221986793
H  H42  1  0.57604000  0.98068000  0.10385000  1.0 0.1332230527
H  H43  1  0.40583000  0.04035000  0.16004000  1.0 0.1332230527
H  H44  1  0.38002000  0.08868000  0.02775000  1.0 0.1332230527
H  H45  1  0.92197000  0.17803000  0.20830000  1.0 0.1139520688
H  H46  1  0.19904000  0.12156000  0.17999000  1.0 0.1139520688
H  H47  1  0.84472000  0.15398000  0.05357000  1.0 0.1332230527
H  H48  1  0.85666000  0.02118000  0.20716000  1.0 0.1221986793
H  H49  1  0.73463000  0.65621000  0.82205000  1.0 0.1221986793
H  H50  1  0.01932000  0.42396000  0.89615000  1.0 0.1332230527
H  H51  1  0.95965000  0.59417000  0.83996000  1.0 0.1332230527
H  H52  1  0.91132000  0.61998000  0.97225000  1.0 0.1332230527
H  H53  1  0.82197000  0.07803000  0.79170000  1.0 0.1139520688
H  H54  1  0.87844000  0.80096000  0.82001000  1.0 0.1139520688
H  H55  1  0.84602000  0.15528000  0.94643000  1.0 0.1332230527
H  H56  1  0.97882000  0.14334000  0.79284000  1.0 0.1221986793
H  H57  1  0.26537000  0.34379000  0.32205000  1.0 0.1221986793
H  H58  1  0.98068000  0.57604000  0.39615000  1.0 0.1332230527
H  H59  1  0.04035000  0.40583000  0.33996000  1.0 0.1332230527
H  H60  1  0.08868000  0.38002000  0.47225000  1.0 0.1332230527
H  H61  1  0.17803000  0.92197000  0.29170000  1.0 0.1139520688
H  H62  1  0.12156000  0.19904000  0.32001000  1.0 0.1139520688
H  H63  1  0.15398000  0.84472000  0.44643000  1.0 0.1332230527
H  H64  1  0.02118000  0.85666000  0.29284000  1.0 0.1221986793
H  H65  1  0.37973000  0.37973000  0.38448000  1.0 0.098787836
H  H66  1  0.07964000  0.07964000  0.38073000  1.0 0.098787836
H  H67  1  0.14963000  0.14963000  0.45483000  1.0 0.1221986793
H  H68  1  0.30226000  0.30226000  0.45667000  1.0 0.1332230527
H  H69  1  0.62027000  0.62027000  0.88448000  1.0 0.098787836
H  H70  1  0.92036000  0.92036000  0.88073000  1.0 0.098787836
H  H71  1  0.85037000  0.85037000  0.95483000  1.0 0.1221986793
H  H72  1  0.69774000  0.69774000  0.95667000  1.0 0.1332230527
H  H73  1  0.37973000  0.37973000  0.11552000  1.0 0.098787836
H  H74  1  0.07964000  0.07964000  0.11927000  1.0 0.098787836
H  H75  1  0.14963000  0.14963000  0.04517000  1.0 0.1221986793
H  H76  1  0.30226000  0.30226000  0.04333000  1.0 0.1332230527
H  H77  1  0.62027000  0.62027000  0.61552000  1.0 0.098787836
H  H78  1  0.92036000  0.92036000  0.61927000  1.0 0.098787836
H  H79  1  0.85037000  0.85037000  0.54517000  1.0 0.1221986793
H  H80  1  0.69774000  0.69774000  0.54333000  1.0 0.1332230527
H  H81  1  0.83627000  0.23115000  0.25000000  1.0 0.098787836
H  H82  1  0.66377000  0.11429000  0.25000000  1.0 0.1221986793
H  H83  1  0.59833000  0.94953000  0.25000000  1.0 0.1221986793
H  H84  1  0.70442000  0.90742000  0.25000000  1.0 0.098787836
H  H85  1  0.16373000  0.76885000  0.75000000  1.0 0.098787836
H  H86  1  0.33623000  0.88571000  0.75000000  1.0 0.1221986793
H  H87  1  0.40167000  0.05047000  0.75000000  1.0 0.1221986793
H  H88  1  0.29558000  0.09258000  0.75000000  1.0 0.098787836
H  H89  1  0.23115000  0.83627000  0.25000000  1.0 0.098787836
H  H90  1  0.11429000  0.66377000  0.25000000  1.0 0.1221986793
H  H91  1  0.94953000  0.59833000  0.25000000  1.0 0.1221986793
H  H92  1  0.90742000  0.70442000  0.25000000  1.0 0.098787836
H  H93  1  0.76885000  0.16373000  0.75000000  1.0 0.098787836
H  H94  1  0.88571000  0.33623000  0.75000000  1.0 0.1221986793
H  H95  1  0.05047000  0.40167000  0.75000000  1.0 0.1221986793
H  H96  1  0.09258000  0.29558000  0.75000000  1.0 0.098787836
C  C1  1  0.32161000  0.24139000  0.35407000  1.0 -0.1720325889
C  C2  1  0.62934000  0.02026000  0.41609000  1.0 0.0815416278
C  C3  1  0.40936000  0.04204000  0.37248000  1.0 0.0504270633
C  C4  1  0.39466000  0.06914000  0.44534000  1.0 0.0429357646
C  C5  1  0.38962000  0.22338000  0.37675000  1.0 0.4092780678
C  C6  1  0.85018000  0.13862000  0.29286000  1.0 -0.1720325889
C  C7  1  0.81871000  0.15909000  0.33758000  1.0 0.4184851172
C  C8  1  0.22010000  0.13970000  0.35266000  1.0 -0.1720325889
C  C9  1  0.23434000  0.06886000  0.37334000  1.0 0.3679672016
C  C10  1  0.77657000  0.11523000  0.44410000  1.0 0.0504270633
C  C11  1  0.80460000  0.02940000  0.29341000  1.0 -0.159893102
C  C12  1  0.74765000  0.98915000  0.33905000  1.0 0.4184851172
C  C13  1  0.67839000  0.75861000  0.85407000  1.0 -0.1720325889
C  C14  1  0.37066000  0.97974000  0.91609000  1.0 0.0815416278
C  C15  1  0.59064000  0.95796000  0.87248000  1.0 0.0504270633
C  C16  1  0.60534000  0.93086000  0.94534000  1.0 0.0429357646
C  C17  1  0.61038000  0.77662000  0.87675000  1.0 0.4092780678
C  C18  1  0.14982000  0.86138000  0.79286000  1.0 -0.1760866882
C  C19  1  0.18129000  0.84091000  0.83758000  1.0 0.4092780678
C  C20  1  0.77990000  0.86030000  0.85266000  1.0 -0.1720325889
C  C21  1  0.76566000  0.93114000  0.87334000  1.0 0.3679672016
C  C22  1  0.22343000  0.88477000  0.94410000  1.0 0.0557526603
C  C23  1  0.19540000  0.97060000  0.79341000  1.0 -0.159893102
C  C24  1  0.25235000  0.01085000  0.83905000  1.0 0.4184851172
C  C25  1  0.24139000  0.32161000  0.14593000  1.0 -0.159893102
C  C26  1  0.02026000  0.62934000  0.08391000  1.0 0.0815416278
C  C27  1  0.04204000  0.40936000  0.12752000  1.0 0.0504270633
C  C28  1  0.06914000  0.39466000  0.05466000  1.0 0.0429357646
C  C29  1  0.22338000  0.38962000  0.12325000  1.0 0.4092780678
C  C30  1  0.13862000  0.85018000  0.20714000  1.0 -0.1760866882
C  C31  1  0.15909000  0.81871000  0.16242000  1.0 0.4184851172
C  C32  1  0.13970000  0.22010000  0.14734000  1.0 -0.1720325889
C  C33  1  0.06886000  0.23434000  0.12666000  1.0 0.3679672016
C  C34  1  0.11523000  0.77657000  0.05590000  1.0 0.0504270633
C  C35  1  0.02940000  0.80460000  0.20659000  1.0 -0.159893102
C  C36  1  0.98915000  0.74765000  0.16095000  1.0 0.4184851172
C  C37  1  0.75861000  0.67839000  0.64593000  1.0 -0.159893102
C  C38  1  0.97974000  0.37066000  0.58391000  1.0 0.0815416278
C  C39  1  0.95796000  0.59064000  0.62752000  1.0 0.0504270633
C  C40  1  0.93086000  0.60534000  0.55466000  1.0 0.0429357646
C  C41  1  0.77662000  0.61038000  0.62325000  1.0 0.4092780678
C  C42  1  0.86138000  0.14982000  0.70714000  1.0 -0.1720325889
C  C43  1  0.84091000  0.18129000  0.66242000  1.0 0.4184851172
C  C44  1  0.86030000  0.77990000  0.64734000  1.0 -0.1760866882
C  C45  1  0.93114000  0.76566000  0.62666000  1.0 0.3679672016
C  C46  1  0.88477000  0.22343000  0.55590000  1.0 0.0557526603
C  C47  1  0.97060000  0.19540000  0.70659000  1.0 -0.159893102
C  C48  1  0.01085000  0.25235000  0.66095000  1.0 0.4184851172
C  C49  1  0.67839000  0.75861000  0.64593000  1.0 -0.1720325889
C  C50  1  0.37066000  0.97974000  0.58391000  1.0 0.0815416278
C  C51  1  0.59064000  0.95796000  0.62752000  1.0 0.0504270633
C  C52  1  0.60534000  0.93086000  0.55466000  1.0 0.0429357646
C  C53  1  0.61038000  0.77662000  0.62325000  1.0 0.4092780678
C  C54  1  0.14982000  0.86138000  0.70714000  1.0 -0.1760866882
C  C55  1  0.18129000  0.84091000  0.66242000  1.0 0.4092780678
C  C56  1  0.77990000  0.86030000  0.64734000  1.0 -0.1720325889
C  C57  1  0.76566000  0.93114000  0.62666000  1.0 0.3679672016
C  C58  1  0.22343000  0.88477000  0.55590000  1.0 0.0557526603
C  C59  1  0.19540000  0.97060000  0.70659000  1.0 -0.159893102
C  C60  1  0.25235000  0.01085000  0.66095000  1.0 0.4184851172
C  C61  1  0.32161000  0.24139000  0.14593000  1.0 -0.1720325889
C  C62  1  0.62934000  0.02026000  0.08391000  1.0 0.0815416278
C  C63  1  0.40936000  0.04204000  0.12752000  1.0 0.0504270633
C  C64  1  0.39466000  0.06914000  0.05466000  1.0 0.0429357646
C  C65  1  0.38962000  0.22338000  0.12325000  1.0 0.4092780678
C  C66  1  0.85018000  0.13862000  0.20714000  1.0 -0.1720325889
C  C67  1  0.81871000  0.15909000  0.16242000  1.0 0.4184851172
C  C68  1  0.22010000  0.13970000  0.14734000  1.0 -0.1720325889
C  C69  1  0.23434000  0.06886000  0.12666000  1.0 0.3679672016
C  C70  1  0.77657000  0.11523000  0.05590000  1.0 0.0504270633
C  C71  1  0.80460000  0.02940000  0.20659000  1.0 -0.159893102
C  C72  1  0.74765000  0.98915000  0.16095000  1.0 0.4184851172
C  C73  1  0.75861000  0.67839000  0.85407000  1.0 -0.159893102
C  C74  1  0.97974000  0.37066000  0.91609000  1.0 0.0815416278
C  C75  1  0.95796000  0.59064000  0.87248000  1.0 0.0504270633
C  C76  1  0.93086000  0.60534000  0.94534000  1.0 0.0429357646
C  C77  1  0.77662000  0.61038000  0.87675000  1.0 0.4092780678
C  C78  1  0.86138000  0.14982000  0.79286000  1.0 -0.1720325889
C  C79  1  0.84091000  0.18129000  0.83758000  1.0 0.4184851172
C  C80  1  0.86030000  0.77990000  0.85266000  1.0 -0.1760866882
C  C81  1  0.93114000  0.76566000  0.87334000  1.0 0.3679672016
C  C82  1  0.88477000  0.22343000  0.94410000  1.0 0.0557526603
C  C83  1  0.97060000  0.19540000  0.79341000  1.0 -0.159893102
C  C84  1  0.01085000  0.25235000  0.83905000  1.0 0.4184851172
C  C85  1  0.24139000  0.32161000  0.35407000  1.0 -0.159893102
C  C86  1  0.02026000  0.62934000  0.41609000  1.0 0.0815416278
C  C87  1  0.04204000  0.40936000  0.37248000  1.0 0.0504270633
C  C88  1  0.06914000  0.39466000  0.44534000  1.0 0.0429357646
C  C89  1  0.22338000  0.38962000  0.37675000  1.0 0.4092780678
C  C90  1  0.13862000  0.85018000  0.29286000  1.0 -0.1760866882
C  C91  1  0.15909000  0.81871000  0.33758000  1.0 0.4184851172
C  C92  1  0.13970000  0.22010000  0.35266000  1.0 -0.1720325889
C  C93  1  0.06886000  0.23434000  0.37334000  1.0 0.3679672016
C  C94  1  0.11523000  0.77657000  0.44410000  1.0 0.0504270633
C  C95  1  0.02940000  0.80460000  0.29341000  1.0 -0.159893102
C  C96  1  0.98915000  0.74765000  0.33905000  1.0 0.4184851172
C  C97  1  0.31540000  0.31540000  0.38164000  1.0 -0.0056031657
C  C98  1  0.14410000  0.14410000  0.37950000  1.0 0.0025947567
C  C99  1  0.18370000  0.18370000  0.42780000  1.0 -0.1502411217
C  C100  1  0.27070000  0.27070000  0.42880000  1.0 -0.1421245587
C  C101  1  0.68460000  0.68460000  0.88164000  1.0 -0.0056031657
C  C102  1  0.85590000  0.85590000  0.87950000  1.0 0.0025947567
C  C103  1  0.81630000  0.81630000  0.92780000  1.0 -0.1502411217
C  C104  1  0.72930000  0.72930000  0.92880000  1.0 -0.1421245587
C  C105  1  0.31540000  0.31540000  0.11836000  1.0 -0.0056031657
C  C106  1  0.14410000  0.14410000  0.12050000  1.0 0.0025947567
C  C107  1  0.18370000  0.18370000  0.07220000  1.0 -0.1502411217
C  C108  1  0.27070000  0.27070000  0.07120000  1.0 -0.1421245587
C  C109  1  0.68460000  0.68460000  0.61836000  1.0 -0.0056031657
C  C110  1  0.85590000  0.85590000  0.62050000  1.0 0.0025947567
C  C111  1  0.81630000  0.81630000  0.57220000  1.0 -0.1502411217
C  C112  1  0.72930000  0.72930000  0.57120000  1.0 -0.1421245587
C  C113  1  0.81198000  0.16242000  0.25000000  1.0 -0.0009869735
C  C114  1  0.70280000  0.09320000  0.25000000  1.0 -0.159893102
C  C115  1  0.66570000  0.99930000  0.25000000  1.0 -0.1502411217
C  C116  1  0.73690000  0.97830000  0.25000000  1.0 -0.0009869735
C  C117  1  0.18802000  0.83758000  0.75000000  1.0 -0.0009869735
C  C118  1  0.29720000  0.90680000  0.75000000  1.0 -0.159893102
C  C119  1  0.33430000  0.00070000  0.75000000  1.0 -0.1502411217
C  C120  1  0.26310000  0.02170000  0.75000000  1.0 -0.0009869735
C  C121  1  0.16242000  0.81198000  0.25000000  1.0 -0.0009869735
C  C122  1  0.09320000  0.70280000  0.25000000  1.0 -0.159893102
C  C123  1  0.99930000  0.66570000  0.25000000  1.0 -0.1502411217
C  C124  1  0.97830000  0.73690000  0.25000000  1.0 -0.0009869735
C  C125  1  0.83758000  0.18802000  0.75000000  1.0 -0.0009869735
C  C126  1  0.90680000  0.29720000  0.75000000  1.0 -0.1502411217
C  C127  1  0.00070000  0.33430000  0.75000000  1.0 -0.1502411217
C  C128  1  0.02170000  0.26310000  0.75000000  1.0 -0.0009869735
N  N1  1  0.62425000  0.04195000  0.45883000  1.0 -0.1502411217
N  N2  1  0.43789000  0.02651000  0.44398000  1.0 -0.159893102
N  N3  1  0.72384000  0.06396000  0.40515000  1.0 0.0899457058
N  N4  1  0.44719000  0.00941000  0.39719000  1.0 -0.192614937
N  N5  1  0.76320000  0.06980000  0.36192000  1.0 -0.1421245587
N  N6  1  0.37504000  0.07956000  0.40120000  1.0 0.0741311538
N  N7  1  0.71834000  0.10226000  0.47730000  1.0 -0.1962508948
N  N8  1  0.33276000  0.12384000  0.38682000  1.0 -0.1421245587
N  N9  1  0.37575000  0.95805000  0.95883000  1.0 -0.1502411217
N  N10  1  0.56211000  0.97349000  0.94398000  1.0 -0.159893102
N  N11  1  0.27616000  0.93604000  0.90515000  1.0 0.0899457058
N  N12  1  0.55281000  0.99059000  0.89719000  1.0 -0.192614937
N  N13  1  0.23680000  0.93020000  0.86192000  1.0 -0.1502411217
N  N14  1  0.62496000  0.92044000  0.90120000  1.0 0.0815416278
N  N15  1  0.28166000  0.89774000  0.97730000  1.0 -0.1962508948
N  N16  1  0.66724000  0.87616000  0.88682000  1.0 -0.1421245587
N  N17  1  0.04195000  0.62425000  0.04117000  1.0 -0.1502411217
N  N18  1  0.02651000  0.43789000  0.05602000  1.0 -0.159893102
N  N19  1  0.06396000  0.72384000  0.09485000  1.0 0.0899457058
N  N20  1  0.00941000  0.44719000  0.10281000  1.0 -0.192614937
N  N21  1  0.06980000  0.76320000  0.13808000  1.0 -0.1502411217
N  N22  1  0.07956000  0.37504000  0.09880000  1.0 0.0815416278
N  N23  1  0.10226000  0.71834000  0.02270000  1.0 -0.1962508948
N  N24  1  0.12384000  0.33276000  0.11318000  1.0 -0.1421245587
N  N25  1  0.95805000  0.37575000  0.54117000  1.0 -0.1502411217
N  N26  1  0.97349000  0.56211000  0.55602000  1.0 -0.159893102
N  N27  1  0.93604000  0.27616000  0.59485000  1.0 0.0899457058
N  N28  1  0.99059000  0.55281000  0.60281000  1.0 -0.192614937
N  N29  1  0.93020000  0.23680000  0.63808000  1.0 -0.1502411217
N  N30  1  0.92044000  0.62496000  0.59880000  1.0 0.0741311538
N  N31  1  0.89774000  0.28166000  0.52270000  1.0 -0.1962508948
N  N32  1  0.87616000  0.66724000  0.61318000  1.0 -0.1421245587
N  N33  1  0.37575000  0.95805000  0.54117000  1.0 -0.1502411217
N  N34  1  0.56211000  0.97349000  0.55602000  1.0 -0.159893102
N  N35  1  0.27616000  0.93604000  0.59485000  1.0 0.0899457058
N  N36  1  0.55281000  0.99059000  0.60281000  1.0 -0.192614937
N  N37  1  0.23680000  0.93020000  0.63808000  1.0 -0.1502411217
N  N38  1  0.62496000  0.92044000  0.59880000  1.0 0.0815416278
N  N39  1  0.28166000  0.89774000  0.52270000  1.0 -0.1962508948
N  N40  1  0.66724000  0.87616000  0.61318000  1.0 -0.1421245587
N  N41  1  0.62425000  0.04195000  0.04117000  1.0 -0.1502411217
N  N42  1  0.43789000  0.02651000  0.05602000  1.0 -0.159893102
N  N43  1  0.72384000  0.06396000  0.09485000  1.0 0.0899457058
N  N44  1  0.44719000  0.00941000  0.10281000  1.0 -0.192614937
N  N45  1  0.76320000  0.06980000  0.13808000  1.0 -0.1421245587
N  N46  1  0.37504000  0.07956000  0.09880000  1.0 0.0741311538
N  N47  1  0.71834000  0.10226000  0.02270000  1.0 -0.1962508948
N  N48  1  0.33276000  0.12384000  0.11318000  1.0 -0.1421245587
N  N49  1  0.95805000  0.37575000  0.95883000  1.0 -0.1502411217
N  N50  1  0.97349000  0.56211000  0.94398000  1.0 -0.159893102
N  N51  1  0.93604000  0.27616000  0.90515000  1.0 0.0899457058
N  N52  1  0.99059000  0.55281000  0.89719000  1.0 -0.192614937
N  N53  1  0.93020000  0.23680000  0.86192000  1.0 -0.1502411217
N  N54  1  0.92044000  0.62496000  0.90120000  1.0 0.0741311538
N  N55  1  0.89774000  0.28166000  0.97730000  1.0 -0.1962508948
N  N56  1  0.87616000  0.66724000  0.88682000  1.0 -0.1421245587
N  N57  1  0.04195000  0.62425000  0.45883000  1.0 -0.1502411217
N  N58  1  0.02651000  0.43789000  0.44398000  1.0 -0.159893102
N  N59  1  0.06396000  0.72384000  0.40515000  1.0 0.0899457058
N  N60  1  0.00941000  0.44719000  0.39719000  1.0 -0.192614937
N  N61  1  0.06980000  0.76320000  0.36192000  1.0 -0.1502411217
N  N62  1  0.07956000  0.37504000  0.40120000  1.0 0.0815416278
N  N63  1  0.10226000  0.71834000  0.47730000  1.0 -0.1962508948
N  N64  1  0.12384000  0.33276000  0.38682000  1.0 -0.1421245587
O  O1  1  0.83394000  0.23326000  0.35182000  1.0 -0.4262972491
O  O2  1  0.17695000  0.98165000  0.37775000  1.0 -0.4508151801
O  O3  1  0.47479000  0.28121000  0.38685000  1.0 -0.3677202554
O  O4  1  0.69641000  0.90779000  0.35326000  1.0 -0.3780768903
O  O5  1  0.16606000  0.76674000  0.85182000  1.0 -0.4262972491
O  O6  1  0.82305000  0.01835000  0.87775000  1.0 -0.4508151801
O  O7  1  0.52521000  0.71879000  0.88685000  1.0 -0.3780768903
O  O8  1  0.30359000  0.09221000  0.85326000  1.0 -0.3621768744
O  O9  1  0.23326000  0.83394000  0.14818000  1.0 -0.4262972491
O  O10  1  0.98165000  0.17695000  0.12225000  1.0 -0.4508151801
O  O11  1  0.28121000  0.47479000  0.11315000  1.0 -0.3780768903
O  O12  1  0.90779000  0.69641000  0.14674000  1.0 -0.3780768903
O  O13  1  0.76674000  0.16606000  0.64818000  1.0 -0.4262972491
O  O14  1  0.01835000  0.82305000  0.62225000  1.0 -0.4508151801
O  O15  1  0.71879000  0.52521000  0.61315000  1.0 -0.3677202554
O  O16  1  0.09221000  0.30359000  0.64674000  1.0 -0.3780768903
O  O17  1  0.16606000  0.76674000  0.64818000  1.0 -0.4262972491
O  O18  1  0.82305000  0.01835000  0.62225000  1.0 -0.4508151801
O  O19  1  0.52521000  0.71879000  0.61315000  1.0 -0.3780768903
O  O20  1  0.30359000  0.09221000  0.64674000  1.0 -0.3621768744
O  O21  1  0.83394000  0.23326000  0.14818000  1.0 -0.4262972491
O  O22  1  0.17695000  0.98165000  0.12225000  1.0 -0.4508151801
O  O23  1  0.47479000  0.28121000  0.11315000  1.0 -0.3677202554
O  O24  1  0.69641000  0.90779000  0.14674000  1.0 -0.3780768903
O  O25  1  0.76674000  0.16606000  0.85182000  1.0 -0.4262972491
O  O26  1  0.01835000  0.82305000  0.87775000  1.0 -0.4508151801
O  O27  1  0.71879000  0.52521000  0.88685000  1.0 -0.3677202554
O  O28  1  0.09221000  0.30359000  0.85326000  1.0 -0.3780768903
O  O29  1  0.23326000  0.83394000  0.35182000  1.0 -0.4262972491
O  O30  1  0.98165000  0.17695000  0.37775000  1.0 -0.4508151801
O  O31  1  0.28121000  0.47479000  0.38685000  1.0 -0.3780768903
O  O32  1  0.90779000  0.69641000  0.35326000  1.0 -0.3780768903
