# DDEC6 charges by PACMAN v1.1 (https://github.com/mtap-research/PACMAN-charge/)
data_VIRPOC_ASR_pacman
_symmetry_space_group_name_H-M   'P 1'
_cell_length_a   17.82630000
_cell_length_b   17.82630000
_cell_length_c   17.82630000
_cell_angle_alpha   60.00000000
_cell_angle_beta   60.00000000
_cell_angle_gamma   60.00000000
_symmetry_Int_Tables_number   1
_chemical_formula_structural   Ni3H6C6N9O
_chemical_formula_sum   'Ni24 H48 C48 N72 O8'
_cell_volume   4005.60974746
_cell_formula_units_Z   8
loop_
 _symmetry_equiv_pos_site_id
 _symmetry_equiv_pos_as_xyz
  1  'x, y, z'
loop_
 _atom_site_type_symbol
 _atom_site_label
 _atom_site_symmetry_multiplicity
 _atom_site_fract_x
 _atom_site_fract_y
 _atom_site_fract_z
 _atom_site_occupancy
 _atom_site_charge
Ni  Ni1  1  0.12500000  0.73950000  0.62500000  1.0 0.5378615361
Ni  Ni2  1  0.62500000  0.12500000  0.73950000  1.0 0.5378615361
Ni  Ni3  1  0.73950000  0.62500000  0.12500000  1.0 0.5378615361
Ni  Ni4  1  0.12500000  0.51050000  0.73950000  1.0 0.5378615361
Ni  Ni5  1  0.62500000  0.73950000  0.51050000  1.0 0.5378615361
Ni  Ni6  1  0.73950000  0.51050000  0.62500000  1.0 0.5378615361
Ni  Ni7  1  0.51050000  0.73950000  0.12500000  1.0 0.5378615361
Ni  Ni8  1  0.51050000  0.62500000  0.73950000  1.0 0.5378615361
Ni  Ni9  1  0.73950000  0.12500000  0.51050000  1.0 0.5378615361
Ni  Ni10  1  0.12500000  0.62500000  0.51050000  1.0 0.5378615361
Ni  Ni11  1  0.51050000  0.12500000  0.62500000  1.0 0.5378615361
Ni  Ni12  1  0.62500000  0.51050000  0.12500000  1.0 0.5378615361
Ni  Ni13  1  0.62500000  0.01050000  0.12500000  1.0 0.5378615361
Ni  Ni14  1  0.12500000  0.62500000  0.01050000  1.0 0.5378615361
Ni  Ni15  1  0.01050000  0.12500000  0.62500000  1.0 0.5378615361
Ni  Ni16  1  0.62500000  0.23950000  0.01050000  1.0 0.5378615361
Ni  Ni17  1  0.12500000  0.01050000  0.23950000  1.0 0.5378615361
Ni  Ni18  1  0.01050000  0.23950000  0.12500000  1.0 0.5378615361
Ni  Ni19  1  0.23950000  0.01050000  0.62500000  1.0 0.5378615361
Ni  Ni20  1  0.23950000  0.12500000  0.01050000  1.0 0.5378615361
Ni  Ni21  1  0.01050000  0.62500000  0.23950000  1.0 0.5378615361
Ni  Ni22  1  0.62500000  0.12500000  0.23950000  1.0 0.5378615361
Ni  Ni23  1  0.23950000  0.62500000  0.12500000  1.0 0.5378615361
Ni  Ni24  1  0.12500000  0.23950000  0.62500000  1.0 0.5378615361
H  H1  1  0.13400000  0.92540000  0.44380000  1.0 0.0909444694
H  H2  1  0.44380000  0.13400000  0.92540000  1.0 0.0909444694
H  H3  1  0.92540000  0.44380000  0.13400000  1.0 0.0909444694
H  H4  1  0.11600000  0.32460000  0.75320000  1.0 0.0909444694
H  H5  1  0.80620000  0.75320000  0.32460000  1.0 0.0909444694
H  H6  1  0.75320000  0.80620000  0.11600000  1.0 0.0909444694
H  H7  1  0.80620000  0.11600000  0.75320000  1.0 0.0909444694
H  H8  1  0.75320000  0.32460000  0.80620000  1.0 0.0909444694
H  H9  1  0.32460000  0.75320000  0.11600000  1.0 0.0909444694
H  H10  1  0.32460000  0.80620000  0.75320000  1.0 0.0909444694
H  H11  1  0.11600000  0.75320000  0.80620000  1.0 0.0909444694
H  H12  1  0.75320000  0.11600000  0.32460000  1.0 0.0909444694
H  H13  1  0.92540000  0.13400000  0.49680000  1.0 0.0909444694
H  H14  1  0.13400000  0.44380000  0.49680000  1.0 0.0909444694
H  H15  1  0.44380000  0.92540000  0.49680000  1.0 0.0909444694
H  H16  1  0.49680000  0.44380000  0.92540000  1.0 0.0909444694
H  H17  1  0.49680000  0.92540000  0.13400000  1.0 0.0909444694
H  H18  1  0.49680000  0.13400000  0.44380000  1.0 0.0909444694
H  H19  1  0.44380000  0.49680000  0.13400000  1.0 0.0909444694
H  H20  1  0.92540000  0.49680000  0.44380000  1.0 0.0909444694
H  H21  1  0.13400000  0.49680000  0.92540000  1.0 0.0909444694
H  H22  1  0.32460000  0.11600000  0.80620000  1.0 0.0909444694
H  H23  1  0.11600000  0.80620000  0.32460000  1.0 0.0909444694
H  H24  1  0.80620000  0.32460000  0.11600000  1.0 0.0909444694
H  H25  1  0.61600000  0.82460000  0.30620000  1.0 0.0909444694
H  H26  1  0.30620000  0.61600000  0.82460000  1.0 0.0909444694
H  H27  1  0.82460000  0.30620000  0.61600000  1.0 0.0909444694
H  H28  1  0.63400000  0.42540000  0.99680000  1.0 0.0909444694
H  H29  1  0.94380000  0.99680000  0.42540000  1.0 0.0909444694
H  H30  1  0.99680000  0.94380000  0.63400000  1.0 0.0909444694
H  H31  1  0.94380000  0.63400000  0.99680000  1.0 0.0909444694
H  H32  1  0.99680000  0.42540000  0.94380000  1.0 0.0909444694
H  H33  1  0.42540000  0.99680000  0.63400000  1.0 0.0909444694
H  H34  1  0.42540000  0.94380000  0.99680000  1.0 0.0909444694
H  H35  1  0.63400000  0.99680000  0.94380000  1.0 0.0909444694
H  H36  1  0.99680000  0.63400000  0.42540000  1.0 0.0909444694
H  H37  1  0.82460000  0.61600000  0.25320000  1.0 0.0909444694
H  H38  1  0.61600000  0.30620000  0.25320000  1.0 0.0909444694
H  H39  1  0.30620000  0.82460000  0.25320000  1.0 0.0909444694
H  H40  1  0.25320000  0.30620000  0.82460000  1.0 0.0909444694
H  H41  1  0.25320000  0.82460000  0.61600000  1.0 0.0909444694
H  H42  1  0.25320000  0.61600000  0.30620000  1.0 0.0909444694
H  H43  1  0.30620000  0.25320000  0.61600000  1.0 0.0909444694
H  H44  1  0.82460000  0.25320000  0.30620000  1.0 0.0909444694
H  H45  1  0.61600000  0.25320000  0.82460000  1.0 0.0909444694
H  H46  1  0.42540000  0.63400000  0.94380000  1.0 0.0909444694
H  H47  1  0.63400000  0.94380000  0.42540000  1.0 0.0909444694
H  H48  1  0.94380000  0.42540000  0.63400000  1.0 0.0909444694
C  C1  1  0.12962000  0.88230000  0.43250000  1.0 0.1125489654
C  C2  1  0.43250000  0.12962000  0.88230000  1.0 0.1125489654
C  C3  1  0.88230000  0.43250000  0.12962000  1.0 0.1125489654
C  C4  1  0.12038000  0.36770000  0.69442000  1.0 0.1125489654
C  C5  1  0.81750000  0.69442000  0.36770000  1.0 0.1125489654
C  C6  1  0.69442000  0.81750000  0.12038000  1.0 0.1125489654
C  C7  1  0.81750000  0.12038000  0.69442000  1.0 0.1125489654
C  C8  1  0.69442000  0.36770000  0.81750000  1.0 0.1125489654
C  C9  1  0.36770000  0.69442000  0.12038000  1.0 0.1125489654
C  C10  1  0.36770000  0.81750000  0.69442000  1.0 0.1125489654
C  C11  1  0.12038000  0.69442000  0.81750000  1.0 0.1125489654
C  C12  1  0.69442000  0.12038000  0.36770000  1.0 0.1125489654
C  C13  1  0.88230000  0.12962000  0.55558000  1.0 0.1125489654
C  C14  1  0.12962000  0.43250000  0.55558000  1.0 0.1125489654
C  C15  1  0.43250000  0.88230000  0.55558000  1.0 0.1125489654
C  C16  1  0.55558000  0.43250000  0.88230000  1.0 0.1125489654
C  C17  1  0.55558000  0.88230000  0.12962000  1.0 0.1125489654
C  C18  1  0.55558000  0.12962000  0.43250000  1.0 0.1125489654
C  C19  1  0.43250000  0.55558000  0.12962000  1.0 0.1125489654
C  C20  1  0.88230000  0.55558000  0.43250000  1.0 0.1125489654
C  C21  1  0.12962000  0.55558000  0.88230000  1.0 0.1125489654
C  C22  1  0.36770000  0.12038000  0.81750000  1.0 0.1125489654
C  C23  1  0.12038000  0.81750000  0.36770000  1.0 0.1125489654
C  C24  1  0.81750000  0.36770000  0.12038000  1.0 0.1125489654
C  C25  1  0.62038000  0.86770000  0.31750000  1.0 0.1125489654
C  C26  1  0.31750000  0.62038000  0.86770000  1.0 0.1125489654
C  C27  1  0.86770000  0.31750000  0.62038000  1.0 0.1125489654
C  C28  1  0.62962000  0.38230000  0.05558000  1.0 0.1125489654
C  C29  1  0.93250000  0.05558000  0.38230000  1.0 0.1125489654
C  C30  1  0.05558000  0.93250000  0.62962000  1.0 0.1125489654
C  C31  1  0.93250000  0.62962000  0.05558000  1.0 0.1125489654
C  C32  1  0.05558000  0.38230000  0.93250000  1.0 0.1125489654
C  C33  1  0.38230000  0.05558000  0.62962000  1.0 0.1125489654
C  C34  1  0.38230000  0.93250000  0.05558000  1.0 0.1125489654
C  C35  1  0.62962000  0.05558000  0.93250000  1.0 0.1125489654
C  C36  1  0.05558000  0.62962000  0.38230000  1.0 0.1125489654
C  C37  1  0.86770000  0.62038000  0.19442000  1.0 0.1125489654
C  C38  1  0.62038000  0.31750000  0.19442000  1.0 0.1125489654
C  C39  1  0.31750000  0.86770000  0.19442000  1.0 0.1125489654
C  C40  1  0.19442000  0.31750000  0.86770000  1.0 0.1125489654
C  C41  1  0.19442000  0.86770000  0.62038000  1.0 0.1125489654
C  C42  1  0.19442000  0.62038000  0.31750000  1.0 0.1125489654
C  C43  1  0.31750000  0.19442000  0.62038000  1.0 0.1125489654
C  C44  1  0.86770000  0.19442000  0.31750000  1.0 0.1125489654
C  C45  1  0.62038000  0.19442000  0.86770000  1.0 0.1125489654
C  C46  1  0.38230000  0.62962000  0.93250000  1.0 0.1125489654
C  C47  1  0.62962000  0.93250000  0.38230000  1.0 0.1125489654
C  C48  1  0.93250000  0.38230000  0.62962000  1.0 0.1125489654
N  N1  1  0.12723000  0.79979000  0.49259000  1.0 -0.1774308115
N  N2  1  0.49259000  0.12723000  0.79979000  1.0 -0.1774308115
N  N3  1  0.79979000  0.49259000  0.12723000  1.0 -0.1774308115
N  N4  1  0.12277000  0.45021000  0.66961000  1.0 -0.1774308115
N  N5  1  0.75741000  0.66961000  0.45021000  1.0 -0.1774308115
N  N6  1  0.66961000  0.75741000  0.12277000  1.0 -0.1774308115
N  N7  1  0.75741000  0.12277000  0.66961000  1.0 -0.1774308115
N  N8  1  0.66961000  0.45021000  0.75741000  1.0 -0.1774308115
N  N9  1  0.45021000  0.66961000  0.12277000  1.0 -0.1774308115
N  N10  1  0.45021000  0.75741000  0.66961000  1.0 -0.1774308115
N  N11  1  0.12277000  0.66961000  0.75741000  1.0 -0.1774308115
N  N12  1  0.66961000  0.12277000  0.45021000  1.0 -0.1774308115
N  N13  1  0.79979000  0.12723000  0.58039000  1.0 -0.1774308115
N  N14  1  0.12723000  0.49259000  0.58039000  1.0 -0.1774308115
N  N15  1  0.49259000  0.79979000  0.58039000  1.0 -0.1774308115
N  N16  1  0.58039000  0.49259000  0.79979000  1.0 -0.1774308115
N  N17  1  0.58039000  0.79979000  0.12723000  1.0 -0.1774308115
N  N18  1  0.58039000  0.12723000  0.49259000  1.0 -0.1774308115
N  N19  1  0.49259000  0.58039000  0.12723000  1.0 -0.1774308115
N  N20  1  0.79979000  0.58039000  0.49259000  1.0 -0.1774308115
N  N21  1  0.12723000  0.58039000  0.79979000  1.0 -0.1774308115
N  N22  1  0.45021000  0.12277000  0.75741000  1.0 -0.1774308115
N  N23  1  0.12277000  0.75741000  0.45021000  1.0 -0.1774308115
N  N24  1  0.75741000  0.45021000  0.12277000  1.0 -0.1774308115
N  N25  1  0.62277000  0.95021000  0.25741000  1.0 -0.1774308115
N  N26  1  0.25741000  0.62277000  0.95021000  1.0 -0.1774308115
N  N27  1  0.95021000  0.25741000  0.62277000  1.0 -0.1774308115
N  N28  1  0.62723000  0.29979000  0.08039000  1.0 -0.1774308115
N  N29  1  0.99259000  0.08039000  0.29979000  1.0 -0.1774308115
N  N30  1  0.08039000  0.99259000  0.62723000  1.0 -0.1774308115
N  N31  1  0.99259000  0.62723000  0.08039000  1.0 -0.1774308115
N  N32  1  0.08039000  0.29979000  0.99259000  1.0 -0.1774308115
N  N33  1  0.29979000  0.08039000  0.62723000  1.0 -0.1774308115
N  N34  1  0.29979000  0.99259000  0.08039000  1.0 -0.1774308115
N  N35  1  0.62723000  0.08039000  0.99259000  1.0 -0.1774308115
N  N36  1  0.08039000  0.62723000  0.29979000  1.0 -0.1774308115
N  N37  1  0.95021000  0.62277000  0.16961000  1.0 -0.1774308115
N  N38  1  0.62277000  0.25741000  0.16961000  1.0 -0.1774308115
N  N39  1  0.25741000  0.95021000  0.16961000  1.0 -0.1774308115
N  N40  1  0.16961000  0.25741000  0.95021000  1.0 -0.1774308115
N  N41  1  0.16961000  0.95021000  0.62277000  1.0 -0.1774308115
N  N42  1  0.16961000  0.62277000  0.25741000  1.0 -0.1774308115
N  N43  1  0.25741000  0.16961000  0.62277000  1.0 -0.1774308115
N  N44  1  0.95021000  0.16961000  0.25741000  1.0 -0.1774308115
N  N45  1  0.62277000  0.16961000  0.95021000  1.0 -0.1774308115
N  N46  1  0.29979000  0.62723000  0.99259000  1.0 -0.1774308115
N  N47  1  0.62723000  0.99259000  0.29979000  1.0 -0.1774308115
N  N48  1  0.99259000  0.29979000  0.62723000  1.0 -0.1774308115
N  N49  1  0.12500000  0.89642000  0.35358000  1.0 -0.3485119019
N  N50  1  0.35358000  0.12500000  0.89642000  1.0 -0.3485119019
N  N51  1  0.89642000  0.35358000  0.12500000  1.0 -0.3485119019
N  N52  1  0.12500000  0.35358000  0.62500000  1.0 -0.3485119019
N  N53  1  0.89642000  0.62500000  0.35358000  1.0 -0.3485119019
N  N54  1  0.62500000  0.89642000  0.12500000  1.0 -0.3485119019
N  N55  1  0.89642000  0.12500000  0.62500000  1.0 -0.3485119019
N  N56  1  0.62500000  0.35358000  0.89642000  1.0 -0.3485119019
N  N57  1  0.35358000  0.62500000  0.12500000  1.0 -0.3485119019
N  N58  1  0.35358000  0.89642000  0.62500000  1.0 -0.3485119019
N  N59  1  0.12500000  0.62500000  0.89642000  1.0 -0.3485119019
N  N60  1  0.62500000  0.12500000  0.35358000  1.0 -0.3485119019
N  N61  1  0.62500000  0.85358000  0.39642000  1.0 -0.3485119019
N  N62  1  0.39642000  0.62500000  0.85358000  1.0 -0.3485119019
N  N63  1  0.85358000  0.39642000  0.62500000  1.0 -0.3485119019
N  N64  1  0.62500000  0.39642000  0.12500000  1.0 -0.3485119019
N  N65  1  0.85358000  0.12500000  0.39642000  1.0 -0.3485119019
N  N66  1  0.12500000  0.85358000  0.62500000  1.0 -0.3485119019
N  N67  1  0.85358000  0.62500000  0.12500000  1.0 -0.3485119019
N  N68  1  0.12500000  0.39642000  0.85358000  1.0 -0.3485119019
N  N69  1  0.39642000  0.12500000  0.62500000  1.0 -0.3485119019
N  N70  1  0.39642000  0.85358000  0.12500000  1.0 -0.3485119019
N  N71  1  0.62500000  0.12500000  0.85358000  1.0 -0.3485119019
N  N72  1  0.12500000  0.62500000  0.39642000  1.0 -0.3485119019
O  O1  1  0.12500000  0.62500000  0.62500000  1.0 -0.7239385916
O  O2  1  0.62500000  0.12500000  0.62500000  1.0 -0.7258827958
O  O3  1  0.62500000  0.62500000  0.12500000  1.0 -0.7239385916
O  O4  1  0.62500000  0.62500000  0.62500000  1.0 -0.7258827958
O  O5  1  0.62500000  0.12500000  0.12500000  1.0 -0.7239385916
O  O6  1  0.12500000  0.62500000  0.12500000  1.0 -0.7239385916
O  O7  1  0.12500000  0.12500000  0.62500000  1.0 -0.7239385916
O  O8  1  0.12500000  0.12500000  0.12500000  1.0 -0.7239385916
