# DDEC6 charges by PACMAN v1.1 (https://github.com/mtap-research/PACMAN-charge/)
data_VITVAZ_ASR_pacman
_symmetry_space_group_name_H-M   'P 1'
_cell_length_a   19.55440000
_cell_length_b   19.55440000
_cell_length_c   21.69820000
_cell_angle_alpha   90.00000000
_cell_angle_beta   90.00000000
_cell_angle_gamma   90.00000000
_symmetry_Int_Tables_number   1
_chemical_formula_structural   ZnH13C17BrN6
_chemical_formula_sum   'Zn16 H208 C272 Br16 N96'
_cell_volume   8296.83966391
_cell_formula_units_Z   16
loop_
 _symmetry_equiv_pos_site_id
 _symmetry_equiv_pos_as_xyz
  1  'x, y, z'
loop_
 _atom_site_type_symbol
 _atom_site_label
 _atom_site_symmetry_multiplicity
 _atom_site_fract_x
 _atom_site_fract_y
 _atom_site_fract_z
 _atom_site_occupancy
 _atom_site_charge
Zn  Zn1  1  0.68046000  0.68046000  0.75000000  1.0 0.4202405726
Zn  Zn2  1  0.31954000  0.31954000  0.75000000  1.0 0.4202405726
Zn  Zn3  1  0.81954000  0.18046000  0.75000000  1.0 0.4202405726
Zn  Zn4  1  0.18046000  0.81954000  0.75000000  1.0 0.4202405726
Zn  Zn5  1  0.81954000  0.81954000  0.25000000  1.0 0.4202405726
Zn  Zn6  1  0.18046000  0.18046000  0.25000000  1.0 0.4202405726
Zn  Zn7  1  0.68046000  0.31954000  0.25000000  1.0 0.4202405726
Zn  Zn8  1  0.31954000  0.68046000  0.25000000  1.0 0.4202405726
Zn  Zn9  1  0.50000000  0.50000000  0.50000000  1.0 0.5795059976
Zn  Zn10  1  0.00000000  0.00000000  0.50000000  1.0 0.5795059976
Zn  Zn11  1  0.00000000  0.00000000  0.00000000  1.0 0.5795059976
Zn  Zn12  1  0.50000000  0.50000000  0.00000000  1.0 0.5795059976
Zn  Zn13  1  0.50000000  0.00000000  0.60259000  1.0 0.4522320954
Zn  Zn14  1  0.00000000  0.50000000  0.89741000  1.0 0.4522320954
Zn  Zn15  1  0.00000000  0.50000000  0.39741000  1.0 0.4522320954
Zn  Zn16  1  0.50000000  0.00000000  0.10259000  1.0 0.4522320954
H  H1  1  0.70189000  0.51820000  0.75864000  1.0 0.0597887774
H  H2  1  0.29811000  0.48180000  0.75864000  1.0 0.0597887774
H  H3  1  0.98180000  0.20189000  0.75864000  1.0 0.0597887774
H  H4  1  0.01820000  0.79811000  0.75864000  1.0 0.0597887774
H  H5  1  0.79811000  0.01820000  0.74136000  1.0 0.0597887774
H  H6  1  0.20189000  0.98180000  0.74136000  1.0 0.0597887774
H  H7  1  0.51820000  0.70189000  0.74136000  1.0 0.0597887774
H  H8  1  0.48180000  0.29811000  0.74136000  1.0 0.0597887774
H  H9  1  0.79811000  0.98180000  0.24136000  1.0 0.0597887774
H  H10  1  0.20189000  0.01820000  0.24136000  1.0 0.0597887774
H  H11  1  0.51820000  0.29811000  0.24136000  1.0 0.0597887774
H  H12  1  0.48180000  0.70189000  0.24136000  1.0 0.0597887774
H  H13  1  0.70189000  0.48180000  0.25864000  1.0 0.0597887774
H  H14  1  0.29811000  0.51820000  0.25864000  1.0 0.0597887774
H  H15  1  0.98180000  0.79811000  0.25864000  1.0 0.0597887774
H  H16  1  0.01820000  0.20189000  0.25864000  1.0 0.0597887774
H  H17  1  0.65036000  0.63931000  0.61434000  1.0 0.1309841178
H  H18  1  0.34964000  0.36069000  0.61434000  1.0 0.1309841178
H  H19  1  0.86069000  0.15036000  0.61434000  1.0 0.1309841178
H  H20  1  0.13931000  0.84964000  0.61434000  1.0 0.1309841178
H  H21  1  0.84964000  0.13931000  0.88566000  1.0 0.1309841178
H  H22  1  0.15036000  0.86069000  0.88566000  1.0 0.1309841178
H  H23  1  0.63931000  0.65036000  0.88566000  1.0 0.1309841178
H  H24  1  0.36069000  0.34964000  0.88566000  1.0 0.1309841178
H  H25  1  0.84964000  0.86069000  0.38566000  1.0 0.1309841178
H  H26  1  0.15036000  0.13931000  0.38566000  1.0 0.1309841178
H  H27  1  0.63931000  0.34964000  0.38566000  1.0 0.1309841178
H  H28  1  0.36069000  0.65036000  0.38566000  1.0 0.1309841178
H  H29  1  0.65036000  0.36069000  0.11434000  1.0 0.1309841178
H  H30  1  0.34964000  0.63931000  0.11434000  1.0 0.1309841178
H  H31  1  0.86069000  0.84964000  0.11434000  1.0 0.1309841178
H  H32  1  0.13931000  0.15036000  0.11434000  1.0 0.1309841178
H  H33  1  0.64766000  0.42545000  0.71115000  1.0 0.0905996524
H  H34  1  0.35234000  0.57455000  0.71115000  1.0 0.0905996524
H  H35  1  0.07455000  0.14766000  0.71115000  1.0 0.0905996524
H  H36  1  0.92545000  0.85234000  0.71115000  1.0 0.0905996524
H  H37  1  0.85234000  0.92545000  0.78885000  1.0 0.0905996524
H  H38  1  0.14766000  0.07455000  0.78885000  1.0 0.0905996524
H  H39  1  0.42545000  0.64766000  0.78885000  1.0 0.0905996524
H  H40  1  0.57455000  0.35234000  0.78885000  1.0 0.0905996524
H  H41  1  0.85234000  0.07455000  0.28885000  1.0 0.0905996524
H  H42  1  0.14766000  0.92545000  0.28885000  1.0 0.0905996524
H  H43  1  0.42545000  0.35234000  0.28885000  1.0 0.0905996524
H  H44  1  0.57455000  0.64766000  0.28885000  1.0 0.0905996524
H  H45  1  0.64766000  0.57455000  0.21115000  1.0 0.0905996524
H  H46  1  0.35234000  0.42545000  0.21115000  1.0 0.0905996524
H  H47  1  0.07455000  0.85234000  0.21115000  1.0 0.0905996524
H  H48  1  0.92545000  0.14766000  0.21115000  1.0 0.0905996524
H  H49  1  0.59613000  0.54656000  0.56685000  1.0 0.1309841178
H  H50  1  0.40387000  0.45344000  0.56685000  1.0 0.1309841178
H  H51  1  0.95344000  0.09613000  0.56685000  1.0 0.1309841178
H  H52  1  0.04656000  0.90387000  0.56685000  1.0 0.1309841178
H  H53  1  0.90387000  0.04656000  0.93315000  1.0 0.1309841178
H  H54  1  0.09613000  0.95344000  0.93315000  1.0 0.1309841178
H  H55  1  0.54656000  0.59613000  0.93315000  1.0 0.1309841178
H  H56  1  0.45344000  0.40387000  0.93315000  1.0 0.1309841178
H  H57  1  0.90387000  0.95344000  0.43315000  1.0 0.1309841178
H  H58  1  0.09613000  0.04656000  0.43315000  1.0 0.1309841178
H  H59  1  0.54656000  0.40387000  0.43315000  1.0 0.1309841178
H  H60  1  0.45344000  0.59613000  0.43315000  1.0 0.1309841178
H  H61  1  0.59613000  0.45344000  0.06685000  1.0 0.1309841178
H  H62  1  0.40387000  0.54656000  0.06685000  1.0 0.1309841178
H  H63  1  0.95344000  0.90387000  0.06685000  1.0 0.1309841178
H  H64  1  0.04656000  0.09613000  0.06685000  1.0 0.1309841178
H  H65  1  0.58741000  0.23284000  0.66715000  1.0 0.135650414
H  H66  1  0.41259000  0.76716000  0.66715000  1.0 0.135650414
H  H67  1  0.26716000  0.08741000  0.66715000  1.0 0.135650414
H  H68  1  0.73284000  0.91259000  0.66715000  1.0 0.135650414
H  H69  1  0.91259000  0.73284000  0.83285000  1.0 0.135650414
H  H70  1  0.08741000  0.26716000  0.83285000  1.0 0.135650414
H  H71  1  0.23284000  0.58741000  0.83285000  1.0 0.135650414
H  H72  1  0.76716000  0.41259000  0.83285000  1.0 0.135650414
H  H73  1  0.91259000  0.26716000  0.33285000  1.0 0.135650414
H  H74  1  0.08741000  0.73284000  0.33285000  1.0 0.135650414
H  H75  1  0.23284000  0.41259000  0.33285000  1.0 0.135650414
H  H76  1  0.76716000  0.58741000  0.33285000  1.0 0.135650414
H  H77  1  0.58741000  0.76716000  0.16715000  1.0 0.135650414
H  H78  1  0.41259000  0.23284000  0.16715000  1.0 0.135650414
H  H79  1  0.26716000  0.91259000  0.16715000  1.0 0.135650414
H  H80  1  0.73284000  0.08741000  0.16715000  1.0 0.135650414
H  H81  1  0.45398000  0.24467000  0.52667000  1.0 0.1245407341
H  H82  1  0.54602000  0.75533000  0.52667000  1.0 0.1245407341
H  H83  1  0.25533000  0.95398000  0.52667000  1.0 0.1245407341
H  H84  1  0.74467000  0.04602000  0.52667000  1.0 0.1245407341
H  H85  1  0.04602000  0.74467000  0.97333000  1.0 0.1309841178
H  H86  1  0.95398000  0.25533000  0.97333000  1.0 0.1245407341
H  H87  1  0.24467000  0.45398000  0.97333000  1.0 0.1245407341
H  H88  1  0.75533000  0.54602000  0.97333000  1.0 0.1245407341
H  H89  1  0.04602000  0.25533000  0.47333000  1.0 0.1245407341
H  H90  1  0.95398000  0.74467000  0.47333000  1.0 0.1245407341
H  H91  1  0.24467000  0.54602000  0.47333000  1.0 0.1245407341
H  H92  1  0.75533000  0.45398000  0.47333000  1.0 0.1245407341
H  H93  1  0.45398000  0.75533000  0.02667000  1.0 0.1245407341
H  H94  1  0.54602000  0.24467000  0.02667000  1.0 0.1245407341
H  H95  1  0.25533000  0.04602000  0.02667000  1.0 0.1245407341
H  H96  1  0.74467000  0.95398000  0.02667000  1.0 0.1245407341
H  H97  1  0.57221000  0.11672000  0.67050000  1.0 0.0997594101
H  H98  1  0.42779000  0.88328000  0.67050000  1.0 0.0997594101
H  H99  1  0.38328000  0.07221000  0.67050000  1.0 0.0997594101
H  H100  1  0.61672000  0.92779000  0.67050000  1.0 0.0997594101
H  H101  1  0.92779000  0.61672000  0.82950000  1.0 0.0997594101
H  H102  1  0.07221000  0.38328000  0.82950000  1.0 0.0997594101
H  H103  1  0.11672000  0.57221000  0.82950000  1.0 0.0997594101
H  H104  1  0.88328000  0.42779000  0.82950000  1.0 0.0997594101
H  H105  1  0.92779000  0.38328000  0.32950000  1.0 0.0997594101
H  H106  1  0.07221000  0.61672000  0.32950000  1.0 0.0997594101
H  H107  1  0.11672000  0.42779000  0.32950000  1.0 0.0997594101
H  H108  1  0.88328000  0.57221000  0.32950000  1.0 0.0997594101
H  H109  1  0.57221000  0.88328000  0.17050000  1.0 0.0997594101
H  H110  1  0.42779000  0.11672000  0.17050000  1.0 0.0997594101
H  H111  1  0.38328000  0.92779000  0.17050000  1.0 0.0997594101
H  H112  1  0.61672000  0.07221000  0.17050000  1.0 0.0997594101
H  H113  1  0.43666000  0.12711000  0.53738000  1.0 0.0997594101
H  H114  1  0.56334000  0.87289000  0.53738000  1.0 0.0997594101
H  H115  1  0.37289000  0.93666000  0.53738000  1.0 0.0997594101
H  H116  1  0.62711000  0.06334000  0.53738000  1.0 0.0997594101
H  H117  1  0.06334000  0.62711000  0.96262000  1.0 0.0997594101
H  H118  1  0.93666000  0.37289000  0.96262000  1.0 0.0997594101
H  H119  1  0.12711000  0.43666000  0.96262000  1.0 0.0997594101
H  H120  1  0.87289000  0.56334000  0.96262000  1.0 0.0997594101
H  H121  1  0.06334000  0.37289000  0.46262000  1.0 0.0997594101
H  H122  1  0.93666000  0.62711000  0.46262000  1.0 0.0997594101
H  H123  1  0.12711000  0.56334000  0.46262000  1.0 0.0997594101
H  H124  1  0.87289000  0.43666000  0.46262000  1.0 0.0997594101
H  H125  1  0.43666000  0.87289000  0.03738000  1.0 0.0997594101
H  H126  1  0.56334000  0.12711000  0.03738000  1.0 0.0997594101
H  H127  1  0.37289000  0.06334000  0.03738000  1.0 0.0997594101
H  H128  1  0.62711000  0.93666000  0.03738000  1.0 0.0997594101
H  H129  1  0.64046000  0.64983000  0.62042000  1.0 0.1105927406
H  H130  1  0.35954000  0.35017000  0.62042000  1.0 0.1105927406
H  H131  1  0.85017000  0.14046000  0.62042000  1.0 0.1105927406
H  H132  1  0.14983000  0.85954000  0.62042000  1.0 0.1105927406
H  H133  1  0.85954000  0.14983000  0.87958000  1.0 0.1105927406
H  H134  1  0.14046000  0.85017000  0.87958000  1.0 0.1105927406
H  H135  1  0.64983000  0.64046000  0.87958000  1.0 0.1105927406
H  H136  1  0.35017000  0.35954000  0.87958000  1.0 0.1105927406
H  H137  1  0.85954000  0.85017000  0.37958000  1.0 0.1105927406
H  H138  1  0.14046000  0.14983000  0.37958000  1.0 0.1105927406
H  H139  1  0.64983000  0.35954000  0.37958000  1.0 0.1105927406
H  H140  1  0.35017000  0.64046000  0.37958000  1.0 0.1105927406
H  H141  1  0.64046000  0.35017000  0.12042000  1.0 0.1105927406
H  H142  1  0.35954000  0.64983000  0.12042000  1.0 0.1105927406
H  H143  1  0.85017000  0.85954000  0.12042000  1.0 0.1105927406
H  H144  1  0.14983000  0.14046000  0.12042000  1.0 0.1105927406
H  H145  1  0.59498000  0.55614000  0.56731000  1.0 0.1309841178
H  H146  1  0.40502000  0.44386000  0.56731000  1.0 0.1309841178
H  H147  1  0.94386000  0.09498000  0.56731000  1.0 0.1309841178
H  H148  1  0.05614000  0.90502000  0.56731000  1.0 0.1309841178
H  H149  1  0.90502000  0.05614000  0.93269000  1.0 0.1309841178
H  H150  1  0.09498000  0.94386000  0.93269000  1.0 0.1309841178
H  H151  1  0.55614000  0.59498000  0.93269000  1.0 0.1309841178
H  H152  1  0.44386000  0.40502000  0.93269000  1.0 0.1309841178
H  H153  1  0.90502000  0.94386000  0.43269000  1.0 0.1309841178
H  H154  1  0.09498000  0.05614000  0.43269000  1.0 0.1309841178
H  H155  1  0.55614000  0.40502000  0.43269000  1.0 0.1309841178
H  H156  1  0.44386000  0.59498000  0.43269000  1.0 0.1309841178
H  H157  1  0.59498000  0.44386000  0.06731000  1.0 0.1309841178
H  H158  1  0.40502000  0.55614000  0.06731000  1.0 0.1309841178
H  H159  1  0.94386000  0.90502000  0.06731000  1.0 0.1309841178
H  H160  1  0.05614000  0.09498000  0.06731000  1.0 0.1309841178
H  H161  1  0.60685000  0.44187000  0.72278000  1.0 0.081853681
H  H162  1  0.39315000  0.55813000  0.72278000  1.0 0.081853681
H  H163  1  0.05813000  0.10685000  0.72278000  1.0 0.081853681
H  H164  1  0.94187000  0.89315000  0.72278000  1.0 0.081853681
H  H165  1  0.89315000  0.94187000  0.77722000  1.0 0.081853681
H  H166  1  0.10685000  0.05813000  0.77722000  1.0 0.081853681
H  H167  1  0.44187000  0.60685000  0.77722000  1.0 0.081853681
H  H168  1  0.55813000  0.39315000  0.77722000  1.0 0.081853681
H  H169  1  0.89315000  0.05813000  0.27722000  1.0 0.081853681
H  H170  1  0.10685000  0.94187000  0.27722000  1.0 0.081853681
H  H171  1  0.44187000  0.39315000  0.27722000  1.0 0.081853681
H  H172  1  0.55813000  0.60685000  0.27722000  1.0 0.081853681
H  H173  1  0.60685000  0.55813000  0.22278000  1.0 0.081853681
H  H174  1  0.39315000  0.44187000  0.22278000  1.0 0.081853681
H  H175  1  0.05813000  0.89315000  0.22278000  1.0 0.081853681
H  H176  1  0.94187000  0.10685000  0.22278000  1.0 0.081853681
H  H177  1  0.65232000  0.53556000  0.77589000  1.0 0.0485050259
H  H178  1  0.34768000  0.46444000  0.77589000  1.0 0.0485050259
H  H179  1  0.96444000  0.15232000  0.77589000  1.0 0.0485050259
H  H180  1  0.03556000  0.84768000  0.77589000  1.0 0.0485050259
H  H181  1  0.84768000  0.03556000  0.72411000  1.0 0.0485050259
H  H182  1  0.15232000  0.96444000  0.72411000  1.0 0.0485050259
H  H183  1  0.53556000  0.65232000  0.72411000  1.0 0.0485050259
H  H184  1  0.46444000  0.34768000  0.72411000  1.0 0.0485050259
H  H185  1  0.84768000  0.96444000  0.22411000  1.0 0.0485050259
H  H186  1  0.15232000  0.03556000  0.22411000  1.0 0.0485050259
H  H187  1  0.53556000  0.34768000  0.22411000  1.0 0.0485050259
H  H188  1  0.46444000  0.65232000  0.22411000  1.0 0.0485050259
H  H189  1  0.65232000  0.46444000  0.27589000  1.0 0.0485050259
H  H190  1  0.34768000  0.53556000  0.27589000  1.0 0.0485050259
H  H191  1  0.96444000  0.84768000  0.27589000  1.0 0.0485050259
H  H192  1  0.03556000  0.15232000  0.27589000  1.0 0.0485050259
H  H193  1  0.48653000  0.34888000  0.51440000  1.0 0.246064079
H  H194  1  0.51347000  0.65112000  0.51440000  1.0 0.246064079
H  H195  1  0.15112000  0.98653000  0.51440000  1.0 0.246064079
H  H196  1  0.84888000  0.01347000  0.51440000  1.0 0.246064079
H  H197  1  0.01347000  0.84888000  0.98560000  1.0 0.246064079
H  H198  1  0.98653000  0.15112000  0.98560000  1.0 0.246064079
H  H199  1  0.34888000  0.48653000  0.98560000  1.0 0.246064079
H  H200  1  0.65112000  0.51347000  0.98560000  1.0 0.246064079
H  H201  1  0.01347000  0.15112000  0.48560000  1.0 0.246064079
H  H202  1  0.98653000  0.84888000  0.48560000  1.0 0.246064079
H  H203  1  0.34888000  0.51347000  0.48560000  1.0 0.246064079
H  H204  1  0.65112000  0.48653000  0.48560000  1.0 0.246064079
H  H205  1  0.48653000  0.65112000  0.01440000  1.0 0.246064079
H  H206  1  0.51347000  0.34888000  0.01440000  1.0 0.246064079
H  H207  1  0.15112000  0.01347000  0.01440000  1.0 0.246064079
H  H208  1  0.84888000  0.98653000  0.01440000  1.0 0.246064079
C  C1  1  0.68040000  0.52400000  0.71970000  1.0 0.0295902884
C  C2  1  0.31960000  0.47600000  0.71970000  1.0 0.0295902884
C  C3  1  0.97600000  0.18040000  0.71970000  1.0 0.0295902884
C  C4  1  0.02400000  0.81960000  0.71970000  1.0 0.0295902884
C  C5  1  0.81960000  0.02400000  0.78030000  1.0 0.0295902884
C  C6  1  0.18040000  0.97600000  0.78030000  1.0 0.0295902884
C  C7  1  0.52400000  0.68040000  0.78030000  1.0 0.0295902884
C  C8  1  0.47600000  0.31960000  0.78030000  1.0 0.0295902884
C  C9  1  0.81960000  0.97600000  0.28030000  1.0 0.0295902884
C  C10  1  0.18040000  0.02400000  0.28030000  1.0 0.0295902884
C  C11  1  0.52400000  0.31960000  0.28030000  1.0 0.0295902884
C  C12  1  0.47600000  0.68040000  0.28030000  1.0 0.0295902884
C  C13  1  0.68040000  0.47600000  0.21970000  1.0 0.0295902884
C  C14  1  0.31960000  0.52400000  0.21970000  1.0 0.0295902884
C  C15  1  0.97600000  0.81960000  0.21970000  1.0 0.0295902884
C  C16  1  0.02400000  0.18040000  0.21970000  1.0 0.0295902884
C  C17  1  0.64980000  0.59590000  0.63400000  1.0 0.0088956143
C  C18  1  0.35020000  0.40410000  0.63400000  1.0 0.0088956143
C  C19  1  0.90410000  0.14980000  0.63400000  1.0 0.0088956143
C  C20  1  0.09590000  0.85020000  0.63400000  1.0 0.0088956143
C  C21  1  0.85020000  0.09590000  0.86600000  1.0 0.0088956143
C  C22  1  0.14980000  0.90410000  0.86600000  1.0 0.0088956143
C  C23  1  0.59590000  0.64980000  0.86600000  1.0 0.0088956143
C  C24  1  0.40410000  0.35020000  0.86600000  1.0 0.0088956143
C  C25  1  0.85020000  0.90410000  0.36600000  1.0 0.0088956143
C  C26  1  0.14980000  0.09590000  0.36600000  1.0 0.0088956143
C  C27  1  0.59590000  0.35020000  0.36600000  1.0 0.0088956143
C  C28  1  0.40410000  0.64980000  0.36600000  1.0 0.0088956143
C  C29  1  0.64980000  0.40410000  0.13400000  1.0 0.0088956143
C  C30  1  0.35020000  0.59590000  0.13400000  1.0 0.0088956143
C  C31  1  0.90410000  0.85020000  0.13400000  1.0 0.0088956143
C  C32  1  0.09590000  0.14980000  0.13400000  1.0 0.0088956143
C  C33  1  0.64820000  0.46890000  0.69150000  1.0 -0.040676616
C  C34  1  0.35180000  0.53110000  0.69150000  1.0 -0.040676616
C  C35  1  0.03110000  0.14820000  0.69150000  1.0 -0.040676616
C  C36  1  0.96890000  0.85180000  0.69150000  1.0 -0.040676616
C  C37  1  0.85180000  0.96890000  0.80850000  1.0 -0.040676616
C  C38  1  0.14820000  0.03110000  0.80850000  1.0 -0.040676616
C  C39  1  0.46890000  0.64820000  0.80850000  1.0 -0.040676616
C  C40  1  0.53110000  0.35180000  0.80850000  1.0 -0.040676616
C  C41  1  0.85180000  0.03110000  0.30850000  1.0 -0.040676616
C  C42  1  0.14820000  0.96890000  0.30850000  1.0 -0.040676616
C  C43  1  0.46890000  0.35180000  0.30850000  1.0 -0.040676616
C  C44  1  0.53110000  0.64820000  0.30850000  1.0 -0.040676616
C  C45  1  0.64820000  0.53110000  0.19150000  1.0 -0.040676616
C  C46  1  0.35180000  0.46890000  0.19150000  1.0 -0.040676616
C  C47  1  0.03110000  0.85180000  0.19150000  1.0 -0.040676616
C  C48  1  0.96890000  0.14820000  0.19150000  1.0 -0.040676616
C  C49  1  0.61760000  0.54080000  0.60580000  1.0 -0.2013964453
C  C50  1  0.38240000  0.45920000  0.60580000  1.0 -0.2013964453
C  C51  1  0.95920000  0.11760000  0.60580000  1.0 -0.2013964453
C  C52  1  0.04080000  0.88240000  0.60580000  1.0 -0.2013964453
C  C53  1  0.88240000  0.04080000  0.89420000  1.0 -0.2013964453
C  C54  1  0.11760000  0.95920000  0.89420000  1.0 -0.2013964453
C  C55  1  0.54080000  0.61760000  0.89420000  1.0 -0.2013964453
C  C56  1  0.45920000  0.38240000  0.89420000  1.0 -0.2013964453
C  C57  1  0.88240000  0.95920000  0.39420000  1.0 -0.2013964453
C  C58  1  0.11760000  0.04080000  0.39420000  1.0 -0.2013964453
C  C59  1  0.54080000  0.38240000  0.39420000  1.0 -0.2013964453
C  C60  1  0.45920000  0.61760000  0.39420000  1.0 -0.2013964453
C  C61  1  0.61760000  0.45920000  0.10580000  1.0 -0.2013964453
C  C62  1  0.38240000  0.54080000  0.10580000  1.0 -0.2013964453
C  C63  1  0.95920000  0.88240000  0.10580000  1.0 -0.2013964453
C  C64  1  0.04080000  0.11760000  0.10580000  1.0 -0.2013964453
C  C65  1  0.61680000  0.47730000  0.63450000  1.0 0.081853681
C  C66  1  0.38320000  0.52270000  0.63450000  1.0 0.081853681
C  C67  1  0.02270000  0.11680000  0.63450000  1.0 0.081853681
C  C68  1  0.97730000  0.88320000  0.63450000  1.0 0.081853681
C  C69  1  0.88320000  0.97730000  0.86550000  1.0 0.081853681
C  C70  1  0.11680000  0.02270000  0.86550000  1.0 0.081853681
C  C71  1  0.47730000  0.61680000  0.86550000  1.0 0.081853681
C  C72  1  0.52270000  0.38320000  0.86550000  1.0 0.081853681
C  C73  1  0.88320000  0.02270000  0.36550000  1.0 0.081853681
C  C74  1  0.11680000  0.97730000  0.36550000  1.0 0.081853681
C  C75  1  0.47730000  0.38320000  0.36550000  1.0 0.081853681
C  C76  1  0.52270000  0.61680000  0.36550000  1.0 0.081853681
C  C77  1  0.61680000  0.52270000  0.13450000  1.0 0.081853681
C  C78  1  0.38320000  0.47730000  0.13450000  1.0 0.081853681
C  C79  1  0.02270000  0.88320000  0.13450000  1.0 0.081853681
C  C80  1  0.97730000  0.11680000  0.13450000  1.0 0.081853681
C  C81  1  0.57160000  0.42400000  0.60730000  1.0 0.1700712983
C  C82  1  0.42840000  0.57600000  0.60730000  1.0 0.1700712983
C  C83  1  0.07600000  0.07160000  0.60730000  1.0 0.1700712983
C  C84  1  0.92400000  0.92840000  0.60730000  1.0 0.1700712983
C  C85  1  0.92840000  0.92400000  0.89270000  1.0 0.1700712983
C  C86  1  0.07160000  0.07600000  0.89270000  1.0 0.1700712983
C  C87  1  0.42400000  0.57160000  0.89270000  1.0 0.1700712983
C  C88  1  0.57600000  0.42840000  0.89270000  1.0 0.1700712983
C  C89  1  0.92840000  0.07600000  0.39270000  1.0 0.1700712983
C  C90  1  0.07160000  0.92400000  0.39270000  1.0 0.1700712983
C  C91  1  0.42400000  0.42840000  0.39270000  1.0 0.1700712983
C  C92  1  0.57600000  0.57160000  0.39270000  1.0 0.1700712983
C  C93  1  0.57160000  0.57600000  0.10730000  1.0 0.1700712983
C  C94  1  0.42840000  0.42400000  0.10730000  1.0 0.1700712983
C  C95  1  0.07600000  0.92840000  0.10730000  1.0 0.1700712983
C  C96  1  0.92400000  0.07160000  0.10730000  1.0 0.1700712983
C  C97  1  0.53700000  0.32530000  0.59110000  1.0 0.2236178526
C  C98  1  0.46300000  0.67470000  0.59110000  1.0 0.2236178526
C  C99  1  0.17470000  0.03700000  0.59110000  1.0 0.2236178526
C  C100  1  0.82530000  0.96300000  0.59110000  1.0 0.2236178526
C  C101  1  0.96300000  0.82530000  0.90890000  1.0 0.2236178526
C  C102  1  0.03700000  0.17470000  0.90890000  1.0 0.2236178526
C  C103  1  0.32530000  0.53700000  0.90890000  1.0 0.2236178526
C  C104  1  0.67470000  0.46300000  0.90890000  1.0 0.2236178526
C  C105  1  0.96300000  0.17470000  0.40890000  1.0 0.2236178526
C  C106  1  0.03700000  0.82530000  0.40890000  1.0 0.2236178526
C  C107  1  0.32530000  0.46300000  0.40890000  1.0 0.2236178526
C  C108  1  0.67470000  0.53700000  0.40890000  1.0 0.2236178526
C  C109  1  0.53700000  0.67470000  0.09110000  1.0 0.2236178526
C  C110  1  0.46300000  0.32530000  0.09110000  1.0 0.2236178526
C  C111  1  0.17470000  0.96300000  0.09110000  1.0 0.2236178526
C  C112  1  0.82530000  0.03700000  0.09110000  1.0 0.2236178526
C  C113  1  0.52500000  0.25100000  0.59580000  1.0 0.0905996524
C  C114  1  0.47500000  0.74900000  0.59580000  1.0 0.0905996524
C  C115  1  0.24900000  0.02500000  0.59580000  1.0 0.0905996524
C  C116  1  0.75100000  0.97500000  0.59580000  1.0 0.0905996524
C  C117  1  0.97500000  0.75100000  0.90420000  1.0 0.0905996524
C  C118  1  0.02500000  0.24900000  0.90420000  1.0 0.0905996524
C  C119  1  0.25100000  0.52500000  0.90420000  1.0 0.0905996524
C  C120  1  0.74900000  0.47500000  0.90420000  1.0 0.0905996524
C  C121  1  0.97500000  0.24900000  0.40420000  1.0 0.0905996524
C  C122  1  0.02500000  0.75100000  0.40420000  1.0 0.0905996524
C  C123  1  0.25100000  0.47500000  0.40420000  1.0 0.0905996524
C  C124  1  0.74900000  0.52500000  0.40420000  1.0 0.0905996524
C  C125  1  0.52500000  0.74900000  0.09580000  1.0 0.0905996524
C  C126  1  0.47500000  0.25100000  0.09580000  1.0 0.0905996524
C  C127  1  0.24900000  0.97500000  0.09580000  1.0 0.0905996524
C  C128  1  0.75100000  0.02500000  0.09580000  1.0 0.0905996524
C  C129  1  0.55740000  0.21180000  0.63840000  1.0 -0.1790448222
C  C130  1  0.44260000  0.78820000  0.63840000  1.0 -0.1790448222
C  C131  1  0.28820000  0.05740000  0.63840000  1.0 -0.1790448222
C  C132  1  0.71180000  0.94260000  0.63840000  1.0 -0.1790448222
C  C133  1  0.94260000  0.71180000  0.86160000  1.0 -0.1790448222
C  C134  1  0.05740000  0.28820000  0.86160000  1.0 -0.1790448222
C  C135  1  0.21180000  0.55740000  0.86160000  1.0 -0.1790448222
C  C136  1  0.78820000  0.44260000  0.86160000  1.0 -0.1790448222
C  C137  1  0.94260000  0.28820000  0.36160000  1.0 -0.1790448222
C  C138  1  0.05740000  0.71180000  0.36160000  1.0 -0.1790448222
C  C139  1  0.21180000  0.44260000  0.36160000  1.0 -0.1790448222
C  C140  1  0.78820000  0.55740000  0.36160000  1.0 -0.1790448222
C  C141  1  0.55740000  0.78820000  0.13840000  1.0 -0.1790448222
C  C142  1  0.44260000  0.21180000  0.13840000  1.0 -0.1790448222
C  C143  1  0.28820000  0.94260000  0.13840000  1.0 -0.1790448222
C  C144  1  0.71180000  0.05740000  0.13840000  1.0 -0.1790448222
C  C145  1  0.47860000  0.21920000  0.55660000  1.0 -0.192925618
C  C146  1  0.52140000  0.78080000  0.55660000  1.0 -0.192925618
C  C147  1  0.28080000  0.97860000  0.55660000  1.0 -0.192925618
C  C148  1  0.71920000  0.02140000  0.55660000  1.0 -0.192925618
C  C149  1  0.02140000  0.71920000  0.94340000  1.0 -0.192925618
C  C150  1  0.97860000  0.28080000  0.94340000  1.0 -0.192925618
C  C151  1  0.21920000  0.47860000  0.94340000  1.0 -0.192925618
C  C152  1  0.78080000  0.52140000  0.94340000  1.0 -0.192925618
C  C153  1  0.02140000  0.28080000  0.44340000  1.0 -0.192925618
C  C154  1  0.97860000  0.71920000  0.44340000  1.0 -0.192925618
C  C155  1  0.21920000  0.52140000  0.44340000  1.0 -0.192925618
C  C156  1  0.78080000  0.47860000  0.44340000  1.0 -0.192925618
C  C157  1  0.47860000  0.78080000  0.05660000  1.0 -0.192925618
C  C158  1  0.52140000  0.21920000  0.05660000  1.0 -0.192925618
C  C159  1  0.28080000  0.02140000  0.05660000  1.0 -0.192925618
C  C160  1  0.71920000  0.97860000  0.05660000  1.0 -0.192925618
C  C161  1  0.54770000  0.14260000  0.64080000  1.0 0.0905996524
C  C162  1  0.45230000  0.85740000  0.64080000  1.0 0.0905996524
C  C163  1  0.35740000  0.04770000  0.64080000  1.0 0.0905996524
C  C164  1  0.64260000  0.95230000  0.64080000  1.0 0.0905996524
C  C165  1  0.95230000  0.64260000  0.85920000  1.0 0.0905996524
C  C166  1  0.04770000  0.35740000  0.85920000  1.0 0.0905996524
C  C167  1  0.14260000  0.54770000  0.85920000  1.0 0.0905996524
C  C168  1  0.85740000  0.45230000  0.85920000  1.0 0.0905996524
C  C169  1  0.95230000  0.35740000  0.35920000  1.0 0.0905996524
C  C170  1  0.04770000  0.64260000  0.35920000  1.0 0.0905996524
C  C171  1  0.14260000  0.45230000  0.35920000  1.0 0.0905996524
C  C172  1  0.85740000  0.54770000  0.35920000  1.0 0.0905996524
C  C173  1  0.54770000  0.85740000  0.14080000  1.0 0.0905996524
C  C174  1  0.45230000  0.14260000  0.14080000  1.0 0.0905996524
C  C175  1  0.35740000  0.95230000  0.14080000  1.0 0.0905996524
C  C176  1  0.64260000  0.04770000  0.14080000  1.0 0.0905996524
C  C177  1  0.46950000  0.14920000  0.56270000  1.0 0.0597887774
C  C178  1  0.53050000  0.85080000  0.56270000  1.0 0.0597887774
C  C179  1  0.35080000  0.96950000  0.56270000  1.0 0.0597887774
C  C180  1  0.64920000  0.03050000  0.56270000  1.0 0.0597887774
C  C181  1  0.03050000  0.64920000  0.93730000  1.0 0.0597887774
C  C182  1  0.96950000  0.35080000  0.93730000  1.0 0.0597887774
C  C183  1  0.14920000  0.46950000  0.93730000  1.0 0.0597887774
C  C184  1  0.85080000  0.53050000  0.93730000  1.0 0.0597887774
C  C185  1  0.03050000  0.35080000  0.43730000  1.0 0.0597887774
C  C186  1  0.96950000  0.64920000  0.43730000  1.0 0.0597887774
C  C187  1  0.14920000  0.53050000  0.43730000  1.0 0.0597887774
C  C188  1  0.85080000  0.46950000  0.43730000  1.0 0.0597887774
C  C189  1  0.46950000  0.85080000  0.06270000  1.0 0.0597887774
C  C190  1  0.53050000  0.14920000  0.06270000  1.0 0.0597887774
C  C191  1  0.35080000  0.03050000  0.06270000  1.0 0.0597887774
C  C192  1  0.64920000  0.96950000  0.06270000  1.0 0.0597887774
C  C193  1  0.63360000  0.60760000  0.64120000  1.0 0.0088956143
C  C194  1  0.36640000  0.39240000  0.64120000  1.0 0.0088956143
C  C195  1  0.89240000  0.13360000  0.64120000  1.0 0.0088956143
C  C196  1  0.10760000  0.86640000  0.64120000  1.0 0.0043217802
C  C197  1  0.86640000  0.10760000  0.85880000  1.0 0.0088956143
C  C198  1  0.13360000  0.89240000  0.85880000  1.0 0.0043217802
C  C199  1  0.60760000  0.63360000  0.85880000  1.0 0.0088956143
C  C200  1  0.39240000  0.36640000  0.85880000  1.0 0.0088956143
C  C201  1  0.86640000  0.89240000  0.35880000  1.0 0.0088956143
C  C202  1  0.13360000  0.10760000  0.35880000  1.0 0.0043217802
C  C203  1  0.60760000  0.36640000  0.35880000  1.0 0.0088956143
C  C204  1  0.39240000  0.63360000  0.35880000  1.0 0.0088956143
C  C205  1  0.63360000  0.39240000  0.14120000  1.0 0.0088956143
C  C206  1  0.36640000  0.60760000  0.14120000  1.0 0.0043217802
C  C207  1  0.89240000  0.86640000  0.14120000  1.0 0.0088956143
C  C208  1  0.10760000  0.13360000  0.14120000  1.0 0.0043217802
C  C209  1  0.60660000  0.55200000  0.60960000  1.0 -0.2013964453
C  C210  1  0.39340000  0.44800000  0.60960000  1.0 -0.2013964453
C  C211  1  0.94800000  0.10660000  0.60960000  1.0 -0.2013964453
C  C212  1  0.05200000  0.89340000  0.60960000  1.0 -0.2013964453
C  C213  1  0.89340000  0.05200000  0.89040000  1.0 -0.2013964453
C  C214  1  0.10660000  0.94800000  0.89040000  1.0 -0.2013964453
C  C215  1  0.55200000  0.60660000  0.89040000  1.0 -0.2013964453
C  C216  1  0.44800000  0.39340000  0.89040000  1.0 -0.2013964453
C  C217  1  0.89340000  0.94800000  0.39040000  1.0 -0.2013964453
C  C218  1  0.10660000  0.05200000  0.39040000  1.0 -0.2013964453
C  C219  1  0.55200000  0.39340000  0.39040000  1.0 -0.2013964453
C  C220  1  0.44800000  0.60660000  0.39040000  1.0 -0.2013964453
C  C221  1  0.60660000  0.44800000  0.10960000  1.0 -0.2013964453
C  C222  1  0.39340000  0.55200000  0.10960000  1.0 -0.2013964453
C  C223  1  0.94800000  0.89340000  0.10960000  1.0 -0.2013964453
C  C224  1  0.05200000  0.10660000  0.10960000  1.0 -0.2013964453
C  C225  1  0.59660000  0.49020000  0.64000000  1.0 0.072601187
C  C226  1  0.40340000  0.50980000  0.64000000  1.0 0.072601187
C  C227  1  0.00980000  0.09660000  0.64000000  1.0 0.072601187
C  C228  1  0.99020000  0.90340000  0.64000000  1.0 0.072601187
C  C229  1  0.90340000  0.99020000  0.86000000  1.0 0.072601187
C  C230  1  0.09660000  0.00980000  0.86000000  1.0 0.072601187
C  C231  1  0.49020000  0.59660000  0.86000000  1.0 0.072601187
C  C232  1  0.50980000  0.40340000  0.86000000  1.0 0.072601187
C  C233  1  0.90340000  0.00980000  0.36000000  1.0 0.072601187
C  C234  1  0.09660000  0.99020000  0.36000000  1.0 0.072601187
C  C235  1  0.49020000  0.40340000  0.36000000  1.0 0.072601187
C  C236  1  0.50980000  0.59660000  0.36000000  1.0 0.072601187
C  C237  1  0.59660000  0.50980000  0.14000000  1.0 0.072601187
C  C238  1  0.40340000  0.49020000  0.14000000  1.0 0.072601187
C  C239  1  0.00980000  0.90340000  0.14000000  1.0 0.072601187
C  C240  1  0.99020000  0.09660000  0.14000000  1.0 0.072601187
C  C241  1  0.61370000  0.48410000  0.70200000  1.0 -0.0729921641
C  C242  1  0.38630000  0.51590000  0.70200000  1.0 -0.0753329219
C  C243  1  0.01590000  0.11370000  0.70200000  1.0 -0.0753329219
C  C244  1  0.98410000  0.88630000  0.70200000  1.0 -0.0729921641
C  C245  1  0.88630000  0.98410000  0.79800000  1.0 -0.0729921641
C  C246  1  0.11370000  0.01590000  0.79800000  1.0 -0.0753329219
C  C247  1  0.48410000  0.61370000  0.79800000  1.0 -0.0729921641
C  C248  1  0.51590000  0.38630000  0.79800000  1.0 -0.0753329219
C  C249  1  0.88630000  0.01590000  0.29800000  1.0 -0.0729921641
C  C250  1  0.11370000  0.98410000  0.29800000  1.0 -0.0753329219
C  C251  1  0.48410000  0.38630000  0.29800000  1.0 -0.0753329219
C  C252  1  0.51590000  0.61370000  0.29800000  1.0 -0.0729921641
C  C253  1  0.61370000  0.51590000  0.20200000  1.0 -0.0729921641
C  C254  1  0.38630000  0.48410000  0.20200000  1.0 -0.0753329219
C  C255  1  0.01590000  0.88630000  0.20200000  1.0 -0.0753329219
C  C256  1  0.98410000  0.11370000  0.20200000  1.0 -0.0729921641
C  C257  1  0.64070000  0.53970000  0.73350000  1.0 0.0088956143
C  C258  1  0.35930000  0.46030000  0.73350000  1.0 0.0088956143
C  C259  1  0.96030000  0.14070000  0.73350000  1.0 0.0088956143
C  C260  1  0.03970000  0.85930000  0.73350000  1.0 0.0088956143
C  C261  1  0.85930000  0.03970000  0.76650000  1.0 0.0088956143
C  C262  1  0.14070000  0.96030000  0.76650000  1.0 0.0088956143
C  C263  1  0.53970000  0.64070000  0.76650000  1.0 0.0088956143
C  C264  1  0.46030000  0.35930000  0.76650000  1.0 0.0088956143
C  C265  1  0.85930000  0.96030000  0.26650000  1.0 0.0088956143
C  C266  1  0.14070000  0.03970000  0.26650000  1.0 0.0088956143
C  C267  1  0.53970000  0.35930000  0.26650000  1.0 0.0088956143
C  C268  1  0.46030000  0.64070000  0.26650000  1.0 0.0088956143
C  C269  1  0.64070000  0.46030000  0.23350000  1.0 0.0088956143
C  C270  1  0.35930000  0.53970000  0.23350000  1.0 0.0088956143
C  C271  1  0.96030000  0.85930000  0.23350000  1.0 0.0088956143
C  C272  1  0.03970000  0.14070000  0.23350000  1.0 0.0088956143
Br  Br1  1  0.77443000  0.66277000  0.81352000  1.0 -0.4780560726
Br  Br2  1  0.22557000  0.33723000  0.81352000  1.0 -0.4780560726
Br  Br3  1  0.83723000  0.27443000  0.81352000  1.0 -0.4732681187
Br  Br4  1  0.16277000  0.72557000  0.81352000  1.0 -0.4780560726
Br  Br5  1  0.72557000  0.16277000  0.68648000  1.0 -0.4780560726
Br  Br6  1  0.27443000  0.83723000  0.68648000  1.0 -0.4732681187
Br  Br7  1  0.66277000  0.77443000  0.68648000  1.0 -0.4780560726
Br  Br8  1  0.33723000  0.22557000  0.68648000  1.0 -0.4780560726
Br  Br9  1  0.72557000  0.83723000  0.18648000  1.0 -0.4780560726
Br  Br10  1  0.27443000  0.16277000  0.18648000  1.0 -0.4780560726
Br  Br11  1  0.66277000  0.22557000  0.18648000  1.0 -0.4780560726
Br  Br12  1  0.33723000  0.77443000  0.18648000  1.0 -0.4780560726
Br  Br13  1  0.77443000  0.33723000  0.31352000  1.0 -0.4780560726
Br  Br14  1  0.22557000  0.66277000  0.31352000  1.0 -0.4780560726
Br  Br15  1  0.83723000  0.72557000  0.31352000  1.0 -0.4780560726
Br  Br16  1  0.16277000  0.27443000  0.31352000  1.0 -0.4780560726
N  N1  1  0.68120000  0.58750000  0.69100000  1.0 -0.040676616
N  N2  1  0.31880000  0.41250000  0.69100000  1.0 -0.0346770464
N  N3  1  0.91250000  0.18120000  0.69100000  1.0 -0.0346770464
N  N4  1  0.08750000  0.81880000  0.69100000  1.0 -0.040676616
N  N5  1  0.81880000  0.08750000  0.80900000  1.0 -0.040676616
N  N6  1  0.18120000  0.91250000  0.80900000  1.0 -0.040676616
N  N7  1  0.58750000  0.68120000  0.80900000  1.0 -0.040676616
N  N8  1  0.41250000  0.31880000  0.80900000  1.0 -0.0346770464
N  N9  1  0.81880000  0.91250000  0.30900000  1.0 -0.040676616
N  N10  1  0.18120000  0.08750000  0.30900000  1.0 -0.0346770464
N  N11  1  0.58750000  0.31880000  0.30900000  1.0 -0.0346770464
N  N12  1  0.41250000  0.68120000  0.30900000  1.0 -0.040676616
N  N13  1  0.68120000  0.41250000  0.19100000  1.0 -0.040676616
N  N14  1  0.31880000  0.58750000  0.19100000  1.0 -0.0346770464
N  N15  1  0.91250000  0.81880000  0.19100000  1.0 -0.040676616
N  N16  1  0.08750000  0.18120000  0.19100000  1.0 -0.0346770464
N  N17  1  0.53620000  0.42830000  0.55440000  1.0 -0.3485146491
N  N18  1  0.46380000  0.57170000  0.55440000  1.0 -0.3485146491
N  N19  1  0.07170000  0.03620000  0.55440000  1.0 -0.3485146491
N  N20  1  0.92830000  0.96380000  0.55440000  1.0 -0.3485146491
N  N21  1  0.96380000  0.92830000  0.94560000  1.0 -0.3485146491
N  N22  1  0.03620000  0.07170000  0.94560000  1.0 -0.3485146491
N  N23  1  0.42830000  0.53620000  0.94560000  1.0 -0.3485146491
N  N24  1  0.57170000  0.46380000  0.94560000  1.0 -0.3485146491
N  N25  1  0.96380000  0.07170000  0.44560000  1.0 -0.3485146491
N  N26  1  0.03620000  0.92830000  0.44560000  1.0 -0.3485146491
N  N27  1  0.42830000  0.46380000  0.44560000  1.0 -0.3485146491
N  N28  1  0.57170000  0.53620000  0.44560000  1.0 -0.3485146491
N  N29  1  0.53620000  0.57170000  0.05440000  1.0 -0.3485146491
N  N30  1  0.46380000  0.42830000  0.05440000  1.0 -0.3485146491
N  N31  1  0.07170000  0.96380000  0.05440000  1.0 -0.3485146491
N  N32  1  0.92830000  0.03620000  0.05440000  1.0 -0.3485146491
N  N33  1  0.57410000  0.36200000  0.63260000  1.0 -0.4537927164
N  N34  1  0.42590000  0.63800000  0.63260000  1.0 -0.4537927164
N  N35  1  0.13800000  0.07410000  0.63260000  1.0 -0.4537927164
N  N36  1  0.86200000  0.92590000  0.63260000  1.0 -0.4537927164
N  N37  1  0.92590000  0.86200000  0.86740000  1.0 -0.4537927164
N  N38  1  0.07410000  0.13800000  0.86740000  1.0 -0.4537927164
N  N39  1  0.36200000  0.57410000  0.86740000  1.0 -0.4537927164
N  N40  1  0.63800000  0.42590000  0.86740000  1.0 -0.4537927164
N  N41  1  0.92590000  0.13800000  0.36740000  1.0 -0.4537927164
N  N42  1  0.07410000  0.86200000  0.36740000  1.0 -0.4537927164
N  N43  1  0.36200000  0.42590000  0.36740000  1.0 -0.4537927164
N  N44  1  0.63800000  0.57410000  0.36740000  1.0 -0.4537927164
N  N45  1  0.57410000  0.63800000  0.13260000  1.0 -0.4537927164
N  N46  1  0.42590000  0.36200000  0.13260000  1.0 -0.4537927164
N  N47  1  0.13800000  0.92590000  0.13260000  1.0 -0.4537927164
N  N48  1  0.86200000  0.07410000  0.13260000  1.0 -0.4537927164
N  N49  1  0.51260000  0.36300000  0.54490000  1.0 -0.2974452833
N  N50  1  0.48740000  0.63700000  0.54490000  1.0 -0.2974452833
N  N51  1  0.13700000  0.01260000  0.54490000  1.0 -0.2974452833
N  N52  1  0.86300000  0.98740000  0.54490000  1.0 -0.2974452833
N  N53  1  0.98740000  0.86300000  0.95510000  1.0 -0.2974452833
N  N54  1  0.01260000  0.13700000  0.95510000  1.0 -0.2974452833
N  N55  1  0.36300000  0.51260000  0.95510000  1.0 -0.2974452833
N  N56  1  0.63700000  0.48740000  0.95510000  1.0 -0.2974452833
N  N57  1  0.98740000  0.13700000  0.45510000  1.0 -0.2974452833
N  N58  1  0.01260000  0.86300000  0.45510000  1.0 -0.2974452833
N  N59  1  0.36300000  0.48740000  0.45510000  1.0 -0.2974452833
N  N60  1  0.63700000  0.51260000  0.45510000  1.0 -0.2974452833
N  N61  1  0.51260000  0.63700000  0.04490000  1.0 -0.2974452833
N  N62  1  0.48740000  0.36300000  0.04490000  1.0 -0.2974452833
N  N63  1  0.13700000  0.98740000  0.04490000  1.0 -0.2974452833
N  N64  1  0.86300000  0.01260000  0.04490000  1.0 -0.2974452833
N  N65  1  0.50600000  0.11090000  0.60380000  1.0 -0.232218043
N  N66  1  0.49400000  0.88910000  0.60380000  1.0 -0.232218043
N  N67  1  0.38910000  0.00600000  0.60380000  1.0 -0.232218043
N  N68  1  0.61090000  0.99400000  0.60380000  1.0 -0.232218043
N  N69  1  0.99400000  0.61090000  0.89620000  1.0 -0.232218043
N  N70  1  0.00600000  0.38910000  0.89620000  1.0 -0.232218043
N  N71  1  0.11090000  0.50600000  0.89620000  1.0 -0.232218043
N  N72  1  0.88910000  0.49400000  0.89620000  1.0 -0.232218043
N  N73  1  0.99400000  0.38910000  0.39620000  1.0 -0.232218043
N  N74  1  0.00600000  0.61090000  0.39620000  1.0 -0.232218043
N  N75  1  0.11090000  0.49400000  0.39620000  1.0 -0.232218043
N  N76  1  0.88910000  0.50600000  0.39620000  1.0 -0.232218043
N  N77  1  0.50600000  0.88910000  0.10380000  1.0 -0.232218043
N  N78  1  0.49400000  0.11090000  0.10380000  1.0 -0.232218043
N  N79  1  0.38910000  0.99400000  0.10380000  1.0 -0.232218043
N  N80  1  0.61090000  0.00600000  0.10380000  1.0 -0.232218043
N  N81  1  0.65070000  0.60150000  0.70310000  1.0 -0.06433957
N  N82  1  0.34930000  0.39850000  0.70310000  1.0 -0.06433957
N  N83  1  0.89850000  0.15070000  0.70310000  1.0 -0.06433957
N  N84  1  0.10150000  0.84930000  0.70310000  1.0 -0.0729921641
N  N85  1  0.84930000  0.10150000  0.79690000  1.0 -0.06433957
N  N86  1  0.15070000  0.89850000  0.79690000  1.0 -0.0729921641
N  N87  1  0.60150000  0.65070000  0.79690000  1.0 -0.06433957
N  N88  1  0.39850000  0.34930000  0.79690000  1.0 -0.06433957
N  N89  1  0.84930000  0.89850000  0.29690000  1.0 -0.06433957
N  N90  1  0.15070000  0.10150000  0.29690000  1.0 -0.06433957
N  N91  1  0.60150000  0.34930000  0.29690000  1.0 -0.06433957
N  N92  1  0.39850000  0.65070000  0.29690000  1.0 -0.06433957
N  N93  1  0.65070000  0.39850000  0.20310000  1.0 -0.06433957
N  N94  1  0.34930000  0.60150000  0.20310000  1.0 -0.06433957
N  N95  1  0.89850000  0.84930000  0.20310000  1.0 -0.06433957
N  N96  1  0.10150000  0.15070000  0.20310000  1.0 -0.06433957
