# DDEC6 charges by PACMAN v1.1 (https://github.com/mtap-research/PACMAN-charge/)
data_VITYOO_ASR_pacman
_symmetry_space_group_name_H-M   'P 1'
_cell_length_a   13.84030000
_cell_length_b   13.84030000
_cell_length_c   19.66900000
_cell_angle_alpha   84.37970000
_cell_angle_beta   95.62030000
_cell_angle_gamma   52.03960000
_symmetry_Int_Tables_number   1
_chemical_formula_structural   NdH6(C2O)8
_chemical_formula_sum   'Nd4 H24 C64 O32'
_cell_volume   2895.59665012
_cell_formula_units_Z   4
loop_
 _symmetry_equiv_pos_site_id
 _symmetry_equiv_pos_as_xyz
  1  'x, y, z'
loop_
 _atom_site_type_symbol
 _atom_site_label
 _atom_site_symmetry_multiplicity
 _atom_site_fract_x
 _atom_site_fract_y
 _atom_site_fract_z
 _atom_site_occupancy
 _atom_site_charge
Nd  Nd1  1  0.62990000  0.47102000  0.94477000  1.0 2.0729574811
Nd  Nd2  1  0.47102000  0.62990000  0.55523000  1.0 2.0729574811
Nd  Nd3  1  0.37010000  0.52898000  0.05523000  1.0 2.0729574811
Nd  Nd4  1  0.52898000  0.37010000  0.44477000  1.0 2.0729574811
H  H1  1  0.58670000  0.80390000  0.02470000  1.0 0.1232500624
H  H2  1  0.80390000  0.58670000  0.47530000  1.0 0.1232500624
H  H3  1  0.41330000  0.19610000  0.97530000  1.0 0.1232500624
H  H4  1  0.19610000  0.41330000  0.52470000  1.0 0.1232500624
H  H5  1  0.23510000  0.91270000  0.00820000  1.0 0.1364429992
H  H6  1  0.91270000  0.23510000  0.49180000  1.0 0.1309589665
H  H7  1  0.76490000  0.08730000  0.99180000  1.0 0.1309589665
H  H8  1  0.08730000  0.76490000  0.50820000  1.0 0.1309589665
H  H9  1  0.94890000  0.10470000  0.83910000  1.0 0.1309589665
H  H10  1  0.10470000  0.94890000  0.66090000  1.0 0.1309589665
H  H11  1  0.05110000  0.89530000  0.16090000  1.0 0.1309589665
H  H12  1  0.89530000  0.05110000  0.33910000  1.0 0.1309589665
H  H13  1  0.63020000  0.38600000  0.70520000  1.0 0.1309589665
H  H14  1  0.38600000  0.63020000  0.79480000  1.0 0.1309589665
H  H15  1  0.36980000  0.61400000  0.29480000  1.0 0.1309589665
H  H16  1  0.61400000  0.36980000  0.20520000  1.0 0.1309589665
H  H17  1  0.27260000  0.17140000  0.95140000  1.0 0.1309589665
H  H18  1  0.17140000  0.27260000  0.54860000  1.0 0.1309589665
H  H19  1  0.72740000  0.82860000  0.04860000  1.0 0.1309589665
H  H20  1  0.82860000  0.72740000  0.45140000  1.0 0.1309589665
H  H21  1  0.89120000  0.07200000  0.64170000  1.0 0.1364429992
H  H22  1  0.07200000  0.89120000  0.85830000  1.0 0.1364429992
H  H23  1  0.10880000  0.92800000  0.35830000  1.0 0.1364429992
H  H24  1  0.92800000  0.10880000  0.14170000  1.0 0.1364429992
C  C1  1  0.47570000  0.70030000  0.03550000  1.0 0.6321564566
C  C2  1  0.70030000  0.47570000  0.46450000  1.0 0.6321564566
C  C3  1  0.52430000  0.29970000  0.96450000  1.0 0.6321564566
C  C4  1  0.29970000  0.52430000  0.53550000  1.0 0.6321564566
C  C5  1  0.73550000  0.32990000  0.83790000  1.0 0.5667906654
C  C6  1  0.32990000  0.73550000  0.66210000  1.0 0.5667906654
C  C7  1  0.26450000  0.67010000  0.16210000  1.0 0.5667906654
C  C8  1  0.67010000  0.26450000  0.33790000  1.0 0.5667906654
C  C9  1  0.42290000  0.83550000  0.02130000  1.0 0.0038709691
C  C10  1  0.83550000  0.42290000  0.47870000  1.0 0.0038709691
C  C11  1  0.57710000  0.16450000  0.97870000  1.0 0.0038709691
C  C12  1  0.16450000  0.57710000  0.52130000  1.0 0.0038709691
C  C13  1  0.78180000  0.25460000  0.78150000  1.0 0.0108713115
C  C14  1  0.25460000  0.78180000  0.71850000  1.0 0.0108713115
C  C15  1  0.21820000  0.74540000  0.21850000  1.0 0.0108713115
C  C16  1  0.74540000  0.21820000  0.28150000  1.0 0.0108713115
C  C17  1  0.50010000  0.86550000  0.01360000  1.0 -0.1682243395
C  C18  1  0.86550000  0.50010000  0.48640000  1.0 -0.1682243395
C  C19  1  0.49990000  0.13450000  0.98640000  1.0 -0.1682243395
C  C20  1  0.13450000  0.49990000  0.51360000  1.0 -0.1682243395
C  C21  1  0.28560000  0.93480000  0.00240000  1.0 -0.1105115453
C  C22  1  0.93480000  0.28560000  0.49760000  1.0 -0.1105115453
C  C23  1  0.71440000  0.06520000  0.99760000  1.0 -0.1105115453
C  C24  1  0.06520000  0.71440000  0.50240000  1.0 -0.1105115453
C  C25  1  0.89860000  0.13720000  0.79480000  1.0 -0.1220502045
C  C26  1  0.13720000  0.89860000  0.70520000  1.0 -0.1220502045
C  C27  1  0.10140000  0.86280000  0.20520000  1.0 -0.1220502045
C  C28  1  0.86280000  0.10140000  0.29480000  1.0 -0.1220502045
C  C29  1  0.70750000  0.30630000  0.71470000  1.0 -0.1105115453
C  C30  1  0.30630000  0.70750000  0.78530000  1.0 -0.1105115453
C  C31  1  0.29250000  0.69370000  0.28530000  1.0 -0.1105115453
C  C32  1  0.69370000  0.29250000  0.21470000  1.0 -0.1105115453
C  C33  1  0.44520000  0.99120000  0.98850000  1.0 0.0796055261
C  C34  1  0.99120000  0.44520000  0.51150000  1.0 0.0796055261
C  C35  1  0.55480000  0.00880000  0.01150000  1.0 0.0796055261
C  C36  1  0.00880000  0.55480000  0.48850000  1.0 0.0796055261
C  C37  1  0.22800000  0.05960000  0.97630000  1.0 0.0038709691
C  C38  1  0.05960000  0.22800000  0.52370000  1.0 0.0038709691
C  C39  1  0.77200000  0.94040000  0.02370000  1.0 0.0038709691
C  C40  1  0.94040000  0.77200000  0.47630000  1.0 0.0038709691
C  C41  1  0.94220000  0.06680000  0.74260000  1.0 0.06107154
C  C42  1  0.06680000  0.94220000  0.75740000  1.0 0.06107154
C  C43  1  0.05780000  0.93320000  0.25740000  1.0 0.06107154
C  C44  1  0.93320000  0.05780000  0.24260000  1.0 0.06107154
C  C45  1  0.75010000  0.23770000  0.66250000  1.0 -0.0077549316
C  C46  1  0.23770000  0.75010000  0.83750000  1.0 -0.0077549316
C  C47  1  0.24990000  0.76230000  0.33750000  1.0 -0.0077549316
C  C48  1  0.76230000  0.24990000  0.16250000  1.0 -0.0077549316
C  C49  1  0.30700000  0.08920000  0.96890000  1.0 -0.1588995542
C  C50  1  0.08920000  0.30700000  0.53110000  1.0 -0.1588995542
C  C51  1  0.69300000  0.91080000  0.03110000  1.0 -0.1588995542
C  C52  1  0.91080000  0.69300000  0.46890000  1.0 -0.1588995542
C  C53  1  0.08870000  0.16370000  0.96750000  1.0 0.5142730128
C  C54  1  0.16370000  0.08870000  0.53250000  1.0 0.5142730128
C  C55  1  0.91130000  0.83630000  0.03250000  1.0 0.5161777388
C  C56  1  0.83630000  0.91130000  0.46750000  1.0 0.5142730128
C  C57  1  0.86520000  0.11820000  0.67670000  1.0 -0.1289688844
C  C58  1  0.11820000  0.86520000  0.82330000  1.0 -0.1289688844
C  C59  1  0.13480000  0.88180000  0.32330000  1.0 -0.1289688844
C  C60  1  0.88180000  0.13480000  0.17670000  1.0 -0.1289688844
C  C61  1  0.67270000  0.29010000  0.58990000  1.0 0.6225886297
C  C62  1  0.29010000  0.67270000  0.91010000  1.0 0.6225886297
C  C63  1  0.32730000  0.70990000  0.41010000  1.0 0.6225886297
C  C64  1  0.70990000  0.32730000  0.08990000  1.0 0.6225886297
O  O1  1  0.57570000  0.62570000  0.01620000  1.0 -0.6522282708
O  O2  1  0.62570000  0.57570000  0.48380000  1.0 -0.6522282708
O  O3  1  0.42430000  0.37430000  0.98380000  1.0 -0.6522282708
O  O4  1  0.37430000  0.42430000  0.51620000  1.0 -0.6522282708
O  O5  1  0.80500000  0.28860000  0.89700000  1.0 -0.5627727706
O  O6  1  0.28860000  0.80500000  0.60300000  1.0 -0.5627727706
O  O7  1  0.19500000  0.71140000  0.10300000  1.0 -0.5627727706
O  O8  1  0.71140000  0.19500000  0.39700000  1.0 -0.5627727706
O  O9  1  0.62860000  0.43420000  0.82430000  1.0 -0.6142456878
O  O10  1  0.43420000  0.62860000  0.67570000  1.0 -0.6142456878
O  O11  1  0.37140000  0.56580000  0.17570000  1.0 -0.6142456878
O  O12  1  0.56580000  0.37140000  0.32430000  1.0 -0.6142456878
O  O13  1  0.78260000  0.30880000  0.05040000  1.0 -0.5627727706
O  O14  1  0.30880000  0.78260000  0.44960000  1.0 -0.5627727706
O  O15  1  0.21740000  0.69120000  0.94960000  1.0 -0.5627727706
O  O16  1  0.69120000  0.21740000  0.55040000  1.0 -0.5627727706
O  O17  1  0.40700000  0.59040000  0.92970000  1.0 -0.741596197
O  O18  1  0.59040000  0.40700000  0.57030000  1.0 -0.741596197
O  O19  1  0.59300000  0.40960000  0.07030000  1.0 -0.741596197
O  O20  1  0.40960000  0.59300000  0.42970000  1.0 -0.741596197
O  O21  1  0.59250000  0.32050000  0.94290000  1.0 -0.6189031947
O  O22  1  0.32050000  0.59250000  0.55710000  1.0 -0.6189031947
O  O23  1  0.40750000  0.67950000  0.05710000  1.0 -0.6189031947
O  O24  1  0.67950000  0.40750000  0.44290000  1.0 -0.6189031947
O  O25  1  0.04450000  0.11430000  0.96250000  1.0 -0.4236800421
O  O26  1  0.11430000  0.04450000  0.53750000  1.0 -0.4236800421
O  O27  1  0.95550000  0.88570000  0.03750000  1.0 -0.4236800421
O  O28  1  0.88570000  0.95550000  0.46250000  1.0 -0.4236800421
O  O29  1  0.04840000  0.26940000  0.95370000  1.0 -0.3703127402
O  O30  1  0.26940000  0.04840000  0.54630000  1.0 -0.3703127402
O  O31  1  0.95160000  0.73060000  0.04630000  1.0 -0.3703127402
O  O32  1  0.73060000  0.95160000  0.45370000  1.0 -0.3703127402
