# DDEC6 charges by PACMAN v1.1 (https://github.com/mtap-research/PACMAN-charge/)
data_VIWHUH_ASR_pacman
_symmetry_space_group_name_H-M   'P 1'
_cell_length_a   17.96710000
_cell_length_b   9.27290000
_cell_length_c   22.86400000
_cell_angle_alpha   90.00000000
_cell_angle_beta   110.47000000
_cell_angle_gamma   90.00000000
_symmetry_Int_Tables_number   1
_chemical_formula_structural   Cd3H40C76(N3O10)2
_chemical_formula_sum   'Cd6 H80 C152 N12 O40'
_cell_volume   3568.76828360
_cell_formula_units_Z   2
loop_
 _symmetry_equiv_pos_site_id
 _symmetry_equiv_pos_as_xyz
  1  'x, y, z'
loop_
 _atom_site_type_symbol
 _atom_site_label
 _atom_site_symmetry_multiplicity
 _atom_site_fract_x
 _atom_site_fract_y
 _atom_site_fract_z
 _atom_site_occupancy
 _atom_site_charge
Cd  Cd1  1  0.65601000  0.32112000  0.33613000  1.0 0.8674421313
Cd  Cd2  1  0.84399000  0.32112000  0.66387000  1.0 0.8674421313
Cd  Cd3  1  0.34399000  0.67888000  0.66387000  1.0 0.8674421313
Cd  Cd4  1  0.15601000  0.67888000  0.33613000  1.0 0.8674421313
Cd  Cd5  1  0.75000000  0.23332000  0.50000000  1.0 1.126343936
Cd  Cd6  1  0.25000000  0.76668000  0.50000000  1.0 1.126343936
H  H1  1  0.37250000  0.87794000  0.28494000  1.0 0.120860451
H  H2  1  0.48933000  0.98533000  0.29949000  1.0 0.111918419
H  H3  1  0.55666000  0.91387000  0.48089000  1.0 0.1294730206
H  H4  1  0.43735000  0.80570000  0.46749000  1.0 0.120860451
H  H5  1  0.86229000  0.52200000  0.46252000  1.0 0.1294730206
H  H6  1  0.06746000  0.40756000  0.59897000  1.0 0.120860451
H  H7  1  0.35198000  0.04552000  0.94096000  1.0 0.140879134
H  H8  1  0.42432000  0.83202000  0.96572000  1.0 0.120860451
H  H9  1  0.43568000  0.31471000  0.02164000  1.0 0.0812419842
H  H10  1  0.36528000  0.25440000  0.03845000  1.0 0.120860451
H  H11  1  0.53861000  0.43591000  0.09777000  1.0 0.1015134153
H  H12  1  0.13916000  0.31917000  0.95919000  1.0 0.1294730206
H  H13  1  0.07093000  0.25528000  0.97791000  1.0 0.0901597135
H  H14  1  0.14968000  0.52142000  0.04100000  1.0 0.1015134153
H  H15  1  0.07726000  0.73628000  0.02271000  1.0 0.0901597135
H  H16  1  0.10070000  0.18443000  0.84355000  1.0 0.140879134
H  H17  1  0.55871000  0.09551000  0.23614000  1.0 0.1294730206
H  H18  1  0.46719000  0.07293000  0.13568000  1.0 0.111918419
H  H19  1  0.56864000  0.52309000  0.21125000  1.0 0.1015134153
H  H20  1  0.47711000  0.50052000  0.11079000  1.0 0.1015134153
H  H21  1  0.12750000  0.87794000  0.71506000  1.0 0.120860451
H  H22  1  0.01067000  0.98533000  0.70051000  1.0 0.111918419
H  H23  1  0.94334000  0.91387000  0.51911000  1.0 0.1294730206
H  H24  1  0.06265000  0.80570000  0.53251000  1.0 0.120860451
H  H25  1  0.63771000  0.52200000  0.53748000  1.0 0.1294730206
H  H26  1  0.43254000  0.40756000  0.40103000  1.0 0.120860451
H  H27  1  0.14802000  0.04552000  0.05904000  1.0 0.140879134
H  H28  1  0.07568000  0.83202000  0.03428000  1.0 0.120860451
H  H29  1  0.06432000  0.31471000  0.97836000  1.0 0.0812419842
H  H30  1  0.13472000  0.25440000  0.96155000  1.0 0.120860451
H  H31  1  0.96139000  0.43591000  0.90223000  1.0 0.1015134153
H  H32  1  0.36084000  0.31917000  0.04081000  1.0 0.1294730206
H  H33  1  0.42907000  0.25528000  0.02209000  1.0 0.0901597135
H  H34  1  0.35032000  0.52142000  0.95900000  1.0 0.1015134153
H  H35  1  0.42274000  0.73628000  0.97729000  1.0 0.0901597135
H  H36  1  0.39930000  0.18443000  0.15645000  1.0 0.140879134
H  H37  1  0.94129000  0.09551000  0.76386000  1.0 0.1294730206
H  H38  1  0.03281000  0.07293000  0.86432000  1.0 0.111918419
H  H39  1  0.93136000  0.52309000  0.78875000  1.0 0.1015134153
H  H40  1  0.02289000  0.50052000  0.88921000  1.0 0.111918419
H  H41  1  0.62750000  0.12206000  0.71506000  1.0 0.120860451
H  H42  1  0.51067000  0.01467000  0.70051000  1.0 0.111918419
H  H43  1  0.44334000  0.08613000  0.51911000  1.0 0.1294730206
H  H44  1  0.56265000  0.19430000  0.53251000  1.0 0.120860451
H  H45  1  0.13771000  0.47800000  0.53748000  1.0 0.1294730206
H  H46  1  0.93254000  0.59244000  0.40103000  1.0 0.120860451
H  H47  1  0.64802000  0.95448000  0.05904000  1.0 0.140879134
H  H48  1  0.57568000  0.16798000  0.03428000  1.0 0.120860451
H  H49  1  0.56432000  0.68529000  0.97836000  1.0 0.0812419842
H  H50  1  0.63472000  0.74560000  0.96155000  1.0 0.120860451
H  H51  1  0.46139000  0.56409000  0.90223000  1.0 0.1015134153
H  H52  1  0.86084000  0.68083000  0.04081000  1.0 0.1294730206
H  H53  1  0.92907000  0.74472000  0.02209000  1.0 0.0901597135
H  H54  1  0.85032000  0.47858000  0.95900000  1.0 0.1015134153
H  H55  1  0.92274000  0.26372000  0.97729000  1.0 0.0901597135
H  H56  1  0.89930000  0.81557000  0.15645000  1.0 0.140879134
H  H57  1  0.44129000  0.90449000  0.76386000  1.0 0.1294730206
H  H58  1  0.53281000  0.92707000  0.86432000  1.0 0.111918419
H  H59  1  0.43136000  0.47691000  0.78875000  1.0 0.1015134153
H  H60  1  0.52289000  0.49948000  0.88921000  1.0 0.1015134153
H  H61  1  0.87250000  0.12206000  0.28494000  1.0 0.120860451
H  H62  1  0.98933000  0.01467000  0.29949000  1.0 0.111918419
H  H63  1  0.05666000  0.08613000  0.48089000  1.0 0.1294730206
H  H64  1  0.93735000  0.19430000  0.46749000  1.0 0.120860451
H  H65  1  0.36229000  0.47800000  0.46252000  1.0 0.1294730206
H  H66  1  0.56746000  0.59244000  0.59897000  1.0 0.120860451
H  H67  1  0.85198000  0.95448000  0.94096000  1.0 0.140879134
H  H68  1  0.92432000  0.16798000  0.96572000  1.0 0.120860451
H  H69  1  0.93568000  0.68529000  0.02164000  1.0 0.0812419842
H  H70  1  0.86528000  0.74560000  0.03845000  1.0 0.120860451
H  H71  1  0.03861000  0.56409000  0.09777000  1.0 0.1015134153
H  H72  1  0.63916000  0.68083000  0.95919000  1.0 0.1294730206
H  H73  1  0.57093000  0.74472000  0.97791000  1.0 0.0901597135
H  H74  1  0.64968000  0.47858000  0.04100000  1.0 0.1015134153
H  H75  1  0.57726000  0.26372000  0.02271000  1.0 0.0901597135
H  H76  1  0.60070000  0.81557000  0.84355000  1.0 0.140879134
H  H77  1  0.05871000  0.90449000  0.23614000  1.0 0.1294730206
H  H78  1  0.96719000  0.92707000  0.13568000  1.0 0.111918419
H  H79  1  0.06864000  0.47691000  0.21125000  1.0 0.1015134153
H  H80  1  0.97711000  0.49948000  0.11079000  1.0 0.1015134153
C  C1  1  0.30940000  0.77280000  0.36540000  1.0 0.575940341
C  C2  1  0.39030000  0.83220000  0.37600000  1.0 -0.0084901599
C  C3  1  0.40930000  0.88670000  0.32520000  1.0 -0.0979875268
C  C4  1  0.47880000  0.95020000  0.33390000  1.0 -0.1153733554
C  C5  1  0.53630000  0.96560000  0.39340000  1.0 -0.0084901599
C  C6  1  0.51880000  0.90880000  0.44090000  1.0 -0.0979875268
C  C7  1  0.44680000  0.84300000  0.43300000  1.0 -0.0915365049
C  C8  1  0.61180000  0.04990000  0.40310000  1.0 0.5912194255
C  C9  1  0.91230000  0.41660000  0.57840000  1.0 0.5590597692
C  C10  1  0.95680000  0.45990000  0.53850000  1.0 -0.0406884847
C  C11  1  0.91740000  0.51400000  0.47760000  1.0 -0.0979875268
C  C12  1  0.04060000  0.44530000  0.55950000  1.0 -0.0979875268
C  C13  1  0.39930000  0.59200000  0.00920000  1.0 0.1501918661
C  C14  1  0.28530000  0.46500000  0.03970000  1.0 0.1877666565
C  C15  1  0.54240000  0.17670000  0.21100000  1.0 -0.0317726999
C  C16  1  0.54830000  0.43290000  0.19610000  1.0 0.0095824433
C  C17  1  0.49350000  0.41900000  0.13590000  1.0 -0.060861476
C  C18  1  0.46310000  0.28400000  0.11330000  1.0 0.0394155479
C  C19  1  0.48750000  0.16300000  0.15080000  1.0 -0.060861476
C  C20  1  0.34840000  0.72400000  0.99680000  1.0 0.0095824433
C  C21  1  0.22740000  0.85380000  0.98600000  1.0 0.0095824433
C  C22  1  0.24390000  0.60700000  0.02330000  1.0 -0.0317726999
C  C23  1  0.27330000  0.72800000  0.00220000  1.0 0.0246744512
C  C24  1  0.26080000  0.97100000  0.96640000  1.0 -0.0317726999
C  C25  1  0.33333333  0.96700000  0.95690000  1.0 -0.1817212214
C  C26  1  0.37610000  0.84000000  0.97210000  1.0 -0.0170085027
C  C27  1  0.40640000  0.32800000  0.04970000  1.0 -0.1138900039
C  C28  1  0.15420000  0.85100000  0.99440000  1.0 0.0394155479
C  C29  1  0.16940000  0.60500000  0.02910000  1.0 -0.0915365049
C  C30  1  0.12560000  0.73100000  0.01650000  1.0 -0.0007232282
C  C31  1  0.21780000  0.11300000  0.95210000  1.0 0.1696064698
C  C32  1  0.09770000  0.24700000  0.94790000  1.0 -0.0915365049
C  C33  1  0.50360000  0.23800000  0.22300000  1.0 0.0270029689
C  C34  1  0.44720000  0.23200000  0.16310000  1.0 -0.0657967486
C  C35  1  0.39730000  0.98100000  0.01800000  1.0 0.2445182505
C  C36  1  0.52800000  0.38200000  0.12830000  1.0 -0.0657967486
C  C37  1  0.57850000  0.38700000  0.19010000  1.0 0.0464510981
C  C38  1  0.46160000  0.29500000  0.11340000  1.0 0.0464510981
C  C39  1  0.19060000  0.77280000  0.63460000  1.0 0.575940341
C  C40  1  0.10970000  0.83220000  0.62400000  1.0 -0.0084901599
C  C41  1  0.09070000  0.88670000  0.67480000  1.0 -0.0979875268
C  C42  1  0.02120000  0.95020000  0.66610000  1.0 -0.1153733554
C  C43  1  0.96370000  0.96560000  0.60660000  1.0 -0.0084901599
C  C44  1  0.98120000  0.90880000  0.55910000  1.0 -0.0979875268
C  C45  1  0.05320000  0.84300000  0.56700000  1.0 -0.0915365049
C  C46  1  0.88820000  0.04990000  0.59690000  1.0 0.5912194255
C  C47  1  0.58770000  0.41660000  0.42160000  1.0 0.5590597692
C  C48  1  0.54320000  0.45990000  0.46150000  1.0 -0.0406884847
C  C49  1  0.58260000  0.51400000  0.52240000  1.0 -0.0979875268
C  C50  1  0.45940000  0.44530000  0.44050000  1.0 -0.0979875268
C  C51  1  0.10070000  0.59200000  0.99080000  1.0 0.1501918661
C  C52  1  0.21470000  0.46500000  0.96030000  1.0 0.1811196161
C  C53  1  0.95760000  0.17670000  0.78900000  1.0 -0.0317726999
C  C54  1  0.95170000  0.43290000  0.80390000  1.0 0.0095824433
C  C55  1  0.00650000  0.41900000  0.86410000  1.0 -0.060861476
C  C56  1  0.03690000  0.28400000  0.88670000  1.0 0.0394155479
C  C57  1  0.01250000  0.16300000  0.84920000  1.0 -0.060861476
C  C58  1  0.15160000  0.72400000  0.00320000  1.0 0.0095824433
C  C59  1  0.27260000  0.85380000  0.01400000  1.0 0.0095824433
C  C60  1  0.25610000  0.60700000  0.97670000  1.0 -0.0317726999
C  C61  1  0.22670000  0.72800000  0.99780000  1.0 0.0246744512
C  C62  1  0.23920000  0.97100000  0.03360000  1.0 -0.0317726999
C  C63  1  0.16667000  0.96700000  0.04310000  1.0 -0.1817212214
C  C64  1  0.12390000  0.84000000  0.02790000  1.0 -0.0170085027
C  C65  1  0.09360000  0.32800000  0.95030000  1.0 -0.1138900039
C  C66  1  0.34580000  0.85100000  0.00560000  1.0 0.0394155479
C  C67  1  0.33060000  0.60500000  0.97090000  1.0 -0.0915365049
C  C68  1  0.37440000  0.73100000  0.98350000  1.0 -0.0007232282
C  C69  1  0.28220000  0.11300000  0.04790000  1.0 0.1696064698
C  C70  1  0.40230000  0.24700000  0.05210000  1.0 -0.0915365049
C  C71  1  0.99640000  0.23800000  0.77700000  1.0 0.0270029689
C  C72  1  0.05280000  0.23200000  0.83690000  1.0 -0.0657967486
C  C73  1  0.10270000  0.98100000  0.98200000  1.0 0.2445182505
C  C74  1  0.97200000  0.38200000  0.87170000  1.0 -0.060861476
C  C75  1  0.92150000  0.38700000  0.80990000  1.0 0.0464510981
C  C76  1  0.03840000  0.29500000  0.88660000  1.0 0.0464510981
C  C77  1  0.69060000  0.22720000  0.63460000  1.0 0.575940341
C  C78  1  0.60970000  0.16780000  0.62400000  1.0 -0.0084901599
C  C79  1  0.59070000  0.11330000  0.67480000  1.0 -0.0979875268
C  C80  1  0.52120000  0.04980000  0.66610000  1.0 -0.1153733554
C  C81  1  0.46370000  0.03440000  0.60660000  1.0 -0.0084901599
C  C82  1  0.48120000  0.09120000  0.55910000  1.0 -0.0979875268
C  C83  1  0.55320000  0.15700000  0.56700000  1.0 -0.0915365049
C  C84  1  0.38820000  0.95010000  0.59690000  1.0 0.5912194255
C  C85  1  0.08770000  0.58340000  0.42160000  1.0 0.5590597692
C  C86  1  0.04320000  0.54010000  0.46150000  1.0 -0.0406884847
C  C87  1  0.08260000  0.48600000  0.52240000  1.0 -0.0979875268
C  C88  1  0.95940000  0.55470000  0.44050000  1.0 -0.0979875268
C  C89  1  0.60070000  0.40800000  0.99080000  1.0 0.1501918661
C  C90  1  0.71470000  0.53500000  0.96030000  1.0 0.1811196161
C  C91  1  0.45760000  0.82330000  0.78900000  1.0 -0.0317726999
C  C92  1  0.45170000  0.56710000  0.80390000  1.0 0.0095824433
C  C93  1  0.50650000  0.58100000  0.86410000  1.0 -0.060861476
C  C94  1  0.53690000  0.71600000  0.88670000  1.0 0.0394155479
C  C95  1  0.51250000  0.83700000  0.84920000  1.0 -0.060861476
C  C96  1  0.65160000  0.27600000  0.00320000  1.0 0.0095824433
C  C97  1  0.77260000  0.14620000  0.01400000  1.0 0.0095824433
C  C98  1  0.75610000  0.39300000  0.97670000  1.0 -0.0317726999
C  C99  1  0.72670000  0.27200000  0.99780000  1.0 0.0246744512
C  C100  1  0.73920000  0.02900000  0.03360000  1.0 -0.0317726999
C  C101  1  0.66666667  0.03300000  0.04310000  1.0 -0.1817212214
C  C102  1  0.62390000  0.16000000  0.02790000  1.0 -0.0170085027
C  C103  1  0.59360000  0.67200000  0.95030000  1.0 -0.1138900039
C  C104  1  0.84580000  0.14900000  0.00560000  1.0 0.0394155479
C  C105  1  0.83060000  0.39500000  0.97090000  1.0 -0.0915365049
C  C106  1  0.87440000  0.26900000  0.98350000  1.0 0.0003713465
C  C107  1  0.78220000  0.88700000  0.04790000  1.0 0.1696064698
C  C108  1  0.90230000  0.75300000  0.05210000  1.0 -0.0915365049
C  C109  1  0.49640000  0.76200000  0.77700000  1.0 0.0270029689
C  C110  1  0.55280000  0.76800000  0.83690000  1.0 -0.0657967486
C  C111  1  0.60270000  0.01900000  0.98200000  1.0 0.2445182505
C  C112  1  0.47200000  0.61800000  0.87170000  1.0 -0.0657967486
C  C113  1  0.42150000  0.61300000  0.80990000  1.0 0.0464510981
C  C114  1  0.53840000  0.70500000  0.88660000  1.0 0.0464510981
C  C115  1  0.80940000  0.22720000  0.36540000  1.0 0.575940341
C  C116  1  0.89030000  0.16780000  0.37600000  1.0 -0.0084901599
C  C117  1  0.90930000  0.11330000  0.32520000  1.0 -0.0979875268
C  C118  1  0.97880000  0.04980000  0.33390000  1.0 -0.1138900039
C  C119  1  0.03630000  0.03440000  0.39340000  1.0 -0.0084901599
C  C120  1  0.01880000  0.09120000  0.44090000  1.0 -0.0979875268
C  C121  1  0.94680000  0.15700000  0.43300000  1.0 -0.0915365049
C  C122  1  0.11180000  0.95010000  0.40310000  1.0 0.5912194255
C  C123  1  0.41230000  0.58340000  0.57840000  1.0 0.5590597692
C  C124  1  0.45680000  0.54010000  0.53850000  1.0 -0.0406884847
C  C125  1  0.41740000  0.48600000  0.47760000  1.0 -0.0979875268
C  C126  1  0.54060000  0.55470000  0.55950000  1.0 -0.0979875268
C  C127  1  0.89930000  0.40800000  0.00920000  1.0 0.1501918661
C  C128  1  0.78530000  0.53500000  0.03970000  1.0 0.1811196161
C  C129  1  0.04240000  0.82330000  0.21100000  1.0 -0.0317726999
C  C130  1  0.04830000  0.56710000  0.19610000  1.0 0.0095824433
C  C131  1  0.99350000  0.58100000  0.13590000  1.0 -0.060861476
C  C132  1  0.96310000  0.71600000  0.11330000  1.0 0.0394155479
C  C133  1  0.98750000  0.83700000  0.15080000  1.0 -0.0503002291
C  C134  1  0.84840000  0.27600000  0.99680000  1.0 0.0095824433
C  C135  1  0.72740000  0.14620000  0.98600000  1.0 0.0095824433
C  C136  1  0.74390000  0.39300000  0.02330000  1.0 -0.0317726999
C  C137  1  0.77330000  0.27200000  0.00220000  1.0 0.0270029689
C  C138  1  0.76080000  0.02900000  0.96640000  1.0 -0.0317726999
C  C139  1  0.83333000  0.03300000  0.95690000  1.0 -0.1817212214
C  C140  1  0.87610000  0.16000000  0.97210000  1.0 -0.0170085027
C  C141  1  0.90640000  0.67200000  0.04970000  1.0 -0.1138900039
C  C142  1  0.65420000  0.14900000  0.99440000  1.0 0.0394155479
C  C143  1  0.66940000  0.39500000  0.02910000  1.0 -0.0915365049
C  C144  1  0.62560000  0.26900000  0.01650000  1.0 -0.0007232282
C  C145  1  0.71780000  0.88700000  0.95210000  1.0 0.1696064698
C  C146  1  0.59770000  0.75300000  0.94790000  1.0 -0.0915365049
C  C147  1  0.00360000  0.76200000  0.22300000  1.0 0.0270029689
C  C148  1  0.94720000  0.76800000  0.16310000  1.0 -0.0657967486
C  C149  1  0.89730000  0.01900000  0.01800000  1.0 0.2445182505
C  C150  1  0.02800000  0.61800000  0.12830000  1.0 -0.0657967486
C  C151  1  0.07850000  0.61300000  0.19010000  1.0 0.0464510981
C  C152  1  0.96160000  0.70500000  0.11340000  1.0 0.0464510981
N  N1  1  0.36350000  0.46810000  0.03120000  1.0 -0.2181121109
N  N2  1  0.57270000  0.31150000  0.23370000  1.0 -0.0503002291
N  N3  1  0.13970000  0.10500000  0.96120000  1.0 -0.3232931492
N  N4  1  0.13650000  0.46810000  0.96880000  1.0 -0.2181121109
N  N5  1  0.92730000  0.31150000  0.76630000  1.0 -0.0406884847
N  N6  1  0.36030000  0.10500000  0.03880000  1.0 -0.3232931492
N  N7  1  0.63650000  0.53190000  0.96880000  1.0 -0.2181121109
N  N8  1  0.42730000  0.68850000  0.76630000  1.0 -0.0406884847
N  N9  1  0.86030000  0.89500000  0.03880000  1.0 -0.3232931492
N  N10  1  0.86350000  0.53190000  0.03120000  1.0 -0.2181121109
N  N11  1  0.07270000  0.68850000  0.23370000  1.0 -0.0406884847
N  N12  1  0.63970000  0.89500000  0.96120000  1.0 -0.3232931492
O  O1  1  0.29150000  0.73990000  0.41230000  1.0 -0.5841177998
O  O2  1  0.26310000  0.75880000  0.31150000  1.0 -0.5209263859
O  O3  1  0.65330000  0.07420000  0.45840000  1.0 -0.5473339332
O  O4  1  0.62500000  0.09270000  0.35650000  1.0 -0.5473339332
O  O5  1  0.83750000  0.40720000  0.55610000  1.0 -0.5707764921
O  O6  1  0.94840000  0.39110000  0.63450000  1.0 -0.5280425248
O  O7  1  0.26920000  0.36500000  0.06280000  1.0 -0.2312261162
O  O8  1  0.45950000  0.57600000  0.00350000  1.0 -0.3473477435
O  O9  1  0.45640000  0.99100000  0.01020000  1.0 -0.2828969655
O  O10  1  0.26770000  0.21600000  0.06670000  1.0 -0.2131182847
O  O11  1  0.20850000  0.73990000  0.58770000  1.0 -0.5841177998
O  O12  1  0.23690000  0.75880000  0.68850000  1.0 -0.5209263859
O  O13  1  0.84670000  0.07420000  0.54160000  1.0 -0.5473339332
O  O14  1  0.87500000  0.09270000  0.64350000  1.0 -0.5473339332
O  O15  1  0.66250000  0.40720000  0.44390000  1.0 -0.5707764921
O  O16  1  0.55160000  0.39110000  0.36550000  1.0 -0.5280425248
O  O17  1  0.23080000  0.36500000  0.93720000  1.0 -0.2312261162
O  O18  1  0.04050000  0.57600000  0.99650000  1.0 -0.3473477435
O  O19  1  0.04360000  0.99100000  0.98980000  1.0 -0.2828969655
O  O20  1  0.23230000  0.21600000  0.93330000  1.0 -0.2131182847
O  O21  1  0.70850000  0.26010000  0.58770000  1.0 -0.5841177998
O  O22  1  0.73690000  0.24120000  0.68850000  1.0 -0.5209263859
O  O23  1  0.34670000  0.92580000  0.54160000  1.0 -0.5473339332
O  O24  1  0.37500000  0.90730000  0.64350000  1.0 -0.5473339332
O  O25  1  0.16250000  0.59280000  0.44390000  1.0 -0.5707764921
O  O26  1  0.05160000  0.60890000  0.36550000  1.0 -0.5280425248
O  O27  1  0.73080000  0.63500000  0.93720000  1.0 -0.2312261162
O  O28  1  0.54050000  0.42400000  0.99650000  1.0 -0.3473477435
O  O29  1  0.54360000  0.00900000  0.98980000  1.0 -0.2828969655
O  O30  1  0.73230000  0.78400000  0.93330000  1.0 -0.2131182847
O  O31  1  0.79150000  0.26010000  0.41230000  1.0 -0.5841177998
O  O32  1  0.76310000  0.24120000  0.31150000  1.0 -0.5209263859
O  O33  1  0.15330000  0.92580000  0.45840000  1.0 -0.5473339332
O  O34  1  0.12500000  0.90730000  0.35650000  1.0 -0.5473339332
O  O35  1  0.33750000  0.59280000  0.55610000  1.0 -0.5707764921
O  O36  1  0.44840000  0.60890000  0.63450000  1.0 -0.5280425248
O  O37  1  0.76920000  0.63500000  0.06280000  1.0 -0.2312261162
O  O38  1  0.95950000  0.42400000  0.00350000  1.0 -0.3473477435
O  O39  1  0.95640000  0.00900000  0.01020000  1.0 -0.2828969655
O  O40  1  0.76770000  0.78400000  0.06670000  1.0 -0.2131182847
