# DDEC6 charges by PACMAN v1.1 (https://github.com/mtap-research/PACMAN-charge/)
data_VIWJUJ_ASR_pacman
_symmetry_space_group_name_H-M   'P 1'
_cell_length_a   17.56070000
_cell_length_b   24.29060000
_cell_length_c   36.81510000
_cell_angle_alpha   90.00000000
_cell_angle_beta   90.00000000
_cell_angle_gamma   90.00000000
_symmetry_Int_Tables_number   1
_chemical_formula_structural   Zn3H44C75(N2O11)2
_chemical_formula_sum   'Zn24 H352 C600 N32 O176'
_cell_volume   15703.84682574
_cell_formula_units_Z   8
loop_
 _symmetry_equiv_pos_site_id
 _symmetry_equiv_pos_as_xyz
  1  'x, y, z'
loop_
 _atom_site_type_symbol
 _atom_site_label
 _atom_site_symmetry_multiplicity
 _atom_site_fract_x
 _atom_site_fract_y
 _atom_site_fract_z
 _atom_site_occupancy
 _atom_site_charge
Zn  Zn1  1  0.50297000  0.23069000  0.88363000  1.0 1.0600307325
Zn  Zn2  1  0.61738000  0.10624000  0.88087000  1.0 0.8449302653
Zn  Zn3  1  0.11468000  0.36257000  0.61278000  1.0 0.8161332348
Zn  Zn4  1  0.99703000  0.23069000  0.61637000  1.0 1.0600307325
Zn  Zn5  1  0.88262000  0.10624000  0.61913000  1.0 0.8449302653
Zn  Zn6  1  0.38532000  0.36257000  0.88722000  1.0 0.8161332348
Zn  Zn7  1  0.49703000  0.26931000  0.38363000  1.0 1.0600307325
Zn  Zn8  1  0.38262000  0.39376000  0.38087000  1.0 0.8449302653
Zn  Zn9  1  0.88532000  0.13743000  0.11278000  1.0 0.8161332348
Zn  Zn10  1  0.00297000  0.26931000  0.11637000  1.0 1.0600307325
Zn  Zn11  1  0.11738000  0.39376000  0.11913000  1.0 0.8449302653
Zn  Zn12  1  0.61468000  0.13743000  0.38722000  1.0 0.8161332348
Zn  Zn13  1  0.49703000  0.76931000  0.11637000  1.0 1.0600307325
Zn  Zn14  1  0.38262000  0.89376000  0.11913000  1.0 0.8449302653
Zn  Zn15  1  0.88532000  0.63743000  0.38722000  1.0 0.8161332348
Zn  Zn16  1  0.00297000  0.76931000  0.38363000  1.0 1.0600307325
Zn  Zn17  1  0.11738000  0.89376000  0.38087000  1.0 0.8449302653
Zn  Zn18  1  0.61468000  0.63743000  0.11278000  1.0 0.8161332348
Zn  Zn19  1  0.50297000  0.73069000  0.61637000  1.0 1.0600307325
Zn  Zn20  1  0.61738000  0.60624000  0.61913000  1.0 0.8449302653
Zn  Zn21  1  0.11468000  0.86257000  0.88722000  1.0 0.8161332348
Zn  Zn22  1  0.99703000  0.73069000  0.88363000  1.0 1.0600307325
Zn  Zn23  1  0.88262000  0.60624000  0.88087000  1.0 0.8449302653
Zn  Zn24  1  0.38532000  0.86257000  0.61278000  1.0 0.8161332348
H  H1  1  0.59345000  0.10071000  0.76032000  1.0 0.1287503565
H  H2  1  0.55504000  0.10943000  0.70256000  1.0 0.1476441051
H  H3  1  0.41590000  0.19002000  0.79260000  1.0 0.1287503565
H  H4  1  0.06204000  0.35593000  0.79197000  1.0 0.1476441051
H  H5  1  0.09384000  0.37088000  0.73266000  1.0 0.1203069752
H  H6  1  0.35477000  0.57263000  0.63639000  1.0 0.1203069752
H  H7  1  0.41301000  0.53564000  0.61528000  1.0 0.1287503565
H  H8  1  0.19529000  0.16326000  0.65822000  1.0 0.1287503565
H  H9  1  0.32435000  0.53801000  0.76804000  1.0 0.1417777779
H  H10  1  0.38315000  0.51265000  0.82099000  1.0 0.1287503565
H  H11  1  0.88013000  0.26818000  0.75942000  1.0 0.1417777779
H  H12  1  0.86318000  0.47854000  0.89139000  1.0 0.1287503565
H  H13  1  0.67303000  0.42474000  0.73466000  1.0 0.1417777779
H  H14  1  0.70029000  0.30335000  0.83528000  1.0 0.1287503565
H  H15  1  0.37434000  0.19906000  0.73444000  1.0 0.1417777779
H  H16  1  0.58549000  0.42612000  0.88762000  1.0 0.0989970879
H  H17  1  0.64475000  0.38969000  0.86618000  1.0 0.1113927375
H  H18  1  0.82260000  0.18720000  0.88158000  1.0 0.1113927375
H  H19  1  0.63914000  0.33799000  0.44112000  1.0 0.1287503565
H  H20  1  0.76768000  0.41902000  0.88831000  1.0 0.1417777779
H  H21  1  0.93536000  0.22070000  0.85432000  1.0 0.1287503565
H  H22  1  0.92199000  0.27416000  0.70308000  1.0 0.1287503565
H  H23  1  0.32102000  0.27961000  0.61283000  1.0 0.1113927375
H  H24  1  0.61951000  0.45420000  0.67982000  1.0 0.1203069752
H  H25  1  0.81004000  0.34536000  0.81451000  1.0 0.1417777779
H  H26  1  0.30568000  0.12095000  0.68021000  1.0 0.1417777779
H  H27  1  0.98444000  0.44160000  0.54040000  1.0 0.1113927375
H  H28  1  0.62243000  0.53457000  0.86703000  1.0 0.1417777779
H  H29  1  0.51585000  0.47283000  0.46668000  1.0 0.1203069752
H  H30  1  0.71396000  0.59623000  0.88431000  1.0 0.1113927375
H  H31  1  0.42838000  0.24186000  0.64220000  1.0 0.1476441051
H  H32  1  0.74428000  0.37874000  0.47101000  1.0 0.1287503565
H  H33  1  0.14102000  0.48688000  0.60277000  1.0 0.1203069752
H  H34  1  0.61978000  0.50838000  0.49537000  1.0 0.1417777779
H  H35  1  0.27513000  0.37000000  0.62087000  1.0 0.1113927375
H  H36  1  0.85586000  0.30723000  0.56094000  1.0 0.1417777779
H  H37  1  0.35939000  0.43320000  0.64918000  1.0 0.1287503565
H  H38  1  0.24163000  0.54427000  0.60042000  1.0 0.1476441051
H  H39  1  0.74521000  0.35111000  0.53839000  1.0 0.1287503565
H  H40  1  0.87455000  0.48680000  0.51738000  1.0 0.1113927375
H  H41  1  0.99593000  0.49302000  0.50157000  1.0 0.0989970879
H  H42  1  0.87583000  0.53451000  0.49127000  1.0 0.1681867337
H  H43  1  0.89025000  0.37070000  0.55065000  1.0 0.1113927375
H  H44  1  0.76751000  0.41004000  0.54299000  1.0 0.1113927375
H  H45  1  0.90655000  0.10071000  0.73968000  1.0 0.1287503565
H  H46  1  0.94496000  0.10943000  0.79744000  1.0 0.1476441051
H  H47  1  0.08410000  0.19002000  0.70740000  1.0 0.1287503565
H  H48  1  0.43796000  0.35593000  0.70803000  1.0 0.1476441051
H  H49  1  0.40616000  0.37088000  0.76734000  1.0 0.1203069752
H  H50  1  0.14523000  0.57263000  0.86361000  1.0 0.1203069752
H  H51  1  0.08699000  0.53564000  0.88472000  1.0 0.1287503565
H  H52  1  0.30471000  0.16326000  0.84178000  1.0 0.1287503565
H  H53  1  0.17565000  0.53801000  0.73196000  1.0 0.1417777779
H  H54  1  0.11685000  0.51265000  0.67901000  1.0 0.1287503565
H  H55  1  0.61987000  0.26818000  0.74058000  1.0 0.1417777779
H  H56  1  0.63682000  0.47854000  0.60861000  1.0 0.1287503565
H  H57  1  0.82697000  0.42474000  0.76534000  1.0 0.1417777779
H  H58  1  0.79971000  0.30335000  0.66472000  1.0 0.1287503565
H  H59  1  0.12566000  0.19906000  0.76556000  1.0 0.1417777779
H  H60  1  0.91451000  0.42612000  0.61238000  1.0 0.0989970879
H  H61  1  0.85525000  0.38969000  0.63382000  1.0 0.1113927375
H  H62  1  0.67740000  0.18720000  0.61842000  1.0 0.1113927375
H  H63  1  0.86086000  0.33799000  0.05888000  1.0 0.1287503565
H  H64  1  0.73232000  0.41902000  0.61169000  1.0 0.1417777779
H  H65  1  0.56464000  0.22070000  0.64568000  1.0 0.1287503565
H  H66  1  0.57801000  0.27416000  0.79692000  1.0 0.1287503565
H  H67  1  0.17898000  0.27961000  0.88717000  1.0 0.1113927375
H  H68  1  0.88049000  0.45420000  0.82018000  1.0 0.1203069752
H  H69  1  0.68996000  0.34536000  0.68549000  1.0 0.1476441051
H  H70  1  0.19432000  0.12095000  0.81979000  1.0 0.1417777779
H  H71  1  0.51556000  0.44160000  0.95960000  1.0 0.1113927375
H  H72  1  0.87757000  0.53457000  0.63297000  1.0 0.1417777779
H  H73  1  0.98415000  0.47283000  0.03332000  1.0 0.1203069752
H  H74  1  0.78604000  0.59623000  0.61569000  1.0 0.1113927375
H  H75  1  0.07162000  0.24186000  0.85780000  1.0 0.1476441051
H  H76  1  0.75572000  0.37874000  0.02899000  1.0 0.1287503565
H  H77  1  0.35898000  0.48688000  0.89723000  1.0 0.1203069752
H  H78  1  0.88022000  0.50838000  0.00463000  1.0 0.1417777779
H  H79  1  0.22487000  0.37000000  0.87913000  1.0 0.1113927375
H  H80  1  0.64414000  0.30723000  0.93906000  1.0 0.1417777779
H  H81  1  0.14061000  0.43320000  0.85082000  1.0 0.1287503565
H  H82  1  0.25837000  0.54427000  0.89958000  1.0 0.1476441051
H  H83  1  0.75479000  0.35111000  0.96161000  1.0 0.1287503565
H  H84  1  0.62545000  0.48680000  0.98262000  1.0 0.1113927375
H  H85  1  0.50407000  0.49302000  0.99843000  1.0 0.0989970879
H  H86  1  0.62417000  0.53451000  0.00873000  1.0 0.1681867337
H  H87  1  0.60975000  0.37070000  0.94935000  1.0 0.1113927375
H  H88  1  0.73249000  0.41004000  0.95701000  1.0 0.1113927375
H  H89  1  0.40655000  0.39929000  0.26032000  1.0 0.1287503565
H  H90  1  0.44496000  0.39057000  0.20256000  1.0 0.1476441051
H  H91  1  0.58410000  0.30998000  0.29260000  1.0 0.1287503565
H  H92  1  0.93796000  0.14407000  0.29197000  1.0 0.1476441051
H  H93  1  0.90616000  0.12912000  0.23266000  1.0 0.1203069752
H  H94  1  0.64523000  0.92737000  0.13639000  1.0 0.1203069752
H  H95  1  0.58699000  0.96436000  0.11528000  1.0 0.1287503565
H  H96  1  0.80471000  0.33674000  0.15822000  1.0 0.1287503565
H  H97  1  0.67565000  0.96199000  0.26804000  1.0 0.1417777779
H  H98  1  0.61685000  0.98735000  0.32099000  1.0 0.1287503565
H  H99  1  0.11987000  0.23182000  0.25942000  1.0 0.1417777779
H  H100  1  0.13682000  0.02146000  0.39139000  1.0 0.1287503565
H  H101  1  0.32697000  0.07526000  0.23466000  1.0 0.1417777779
H  H102  1  0.29971000  0.19665000  0.33528000  1.0 0.1287503565
H  H103  1  0.62566000  0.30094000  0.23444000  1.0 0.1417777779
H  H104  1  0.41451000  0.07388000  0.38762000  1.0 0.0989970879
H  H105  1  0.35525000  0.11031000  0.36618000  1.0 0.1113927375
H  H106  1  0.17740000  0.31280000  0.38158000  1.0 0.1113927375
H  H107  1  0.36086000  0.16201000  0.94112000  1.0 0.1287503565
H  H108  1  0.23232000  0.08098000  0.38831000  1.0 0.1417777779
H  H109  1  0.06464000  0.27930000  0.35432000  1.0 0.1287503565
H  H110  1  0.07801000  0.22584000  0.20308000  1.0 0.1287503565
H  H111  1  0.67898000  0.22039000  0.11283000  1.0 0.1113927375
H  H112  1  0.38049000  0.04580000  0.17982000  1.0 0.1203069752
H  H113  1  0.18996000  0.15464000  0.31451000  1.0 0.1417777779
H  H114  1  0.69432000  0.37905000  0.18021000  1.0 0.1417777779
H  H115  1  0.01556000  0.05840000  0.04040000  1.0 0.1113927375
H  H116  1  0.37757000  0.96543000  0.36703000  1.0 0.1417777779
H  H117  1  0.48415000  0.02717000  0.96668000  1.0 0.1203069752
H  H118  1  0.28604000  0.90377000  0.38431000  1.0 0.1113927375
H  H119  1  0.57162000  0.25814000  0.14220000  1.0 0.1417777779
H  H120  1  0.25572000  0.12126000  0.97101000  1.0 0.1287503565
H  H121  1  0.85898000  0.01312000  0.10277000  1.0 0.1203069752
H  H122  1  0.38022000  0.99162000  0.99537000  1.0 0.1417777779
H  H123  1  0.72487000  0.13000000  0.12087000  1.0 0.1113927375
H  H124  1  0.14414000  0.19277000  0.06094000  1.0 0.1417777779
H  H125  1  0.64061000  0.06680000  0.14918000  1.0 0.1287503565
H  H126  1  0.75837000  0.95573000  0.10042000  1.0 0.1476441051
H  H127  1  0.25479000  0.14889000  0.03839000  1.0 0.1287503565
H  H128  1  0.12545000  0.01320000  0.01738000  1.0 0.1113927375
H  H129  1  0.00407000  0.00698000  0.00157000  1.0 0.0989970879
H  H130  1  0.12417000  0.96549000  0.99127000  1.0 0.1681867337
H  H131  1  0.10975000  0.12930000  0.05065000  1.0 0.1113927375
H  H132  1  0.23249000  0.08996000  0.04299000  1.0 0.1113927375
H  H133  1  0.09345000  0.39929000  0.23968000  1.0 0.1287503565
H  H134  1  0.05504000  0.39057000  0.29744000  1.0 0.1476441051
H  H135  1  0.91590000  0.30998000  0.20740000  1.0 0.1287503565
H  H136  1  0.56204000  0.14407000  0.20803000  1.0 0.1476441051
H  H137  1  0.59384000  0.12912000  0.26734000  1.0 0.1203069752
H  H138  1  0.85477000  0.92737000  0.36361000  1.0 0.1203069752
H  H139  1  0.91301000  0.96436000  0.38472000  1.0 0.1287503565
H  H140  1  0.69529000  0.33674000  0.34178000  1.0 0.1287503565
H  H141  1  0.82435000  0.96199000  0.23196000  1.0 0.1417777779
H  H142  1  0.88315000  0.98735000  0.17901000  1.0 0.1287503565
H  H143  1  0.38013000  0.23182000  0.24058000  1.0 0.1417777779
H  H144  1  0.36318000  0.02146000  0.10861000  1.0 0.1287503565
H  H145  1  0.17303000  0.07526000  0.26534000  1.0 0.1417777779
H  H146  1  0.20029000  0.19665000  0.16472000  1.0 0.1287503565
H  H147  1  0.87434000  0.30094000  0.26556000  1.0 0.1417777779
H  H148  1  0.08549000  0.07388000  0.11238000  1.0 0.0989970879
H  H149  1  0.14475000  0.11031000  0.13382000  1.0 0.1113927375
H  H150  1  0.32260000  0.31280000  0.11842000  1.0 0.1113927375
H  H151  1  0.13914000  0.16201000  0.55888000  1.0 0.1287503565
H  H152  1  0.26768000  0.08098000  0.11169000  1.0 0.1417777779
H  H153  1  0.43536000  0.27930000  0.14568000  1.0 0.1287503565
H  H154  1  0.42199000  0.22584000  0.29692000  1.0 0.1287503565
H  H155  1  0.82102000  0.22039000  0.38717000  1.0 0.1113927375
H  H156  1  0.11951000  0.04580000  0.32018000  1.0 0.1203069752
H  H157  1  0.31004000  0.15464000  0.18549000  1.0 0.1417777779
H  H158  1  0.80568000  0.37905000  0.31979000  1.0 0.1417777779
H  H159  1  0.48444000  0.05840000  0.45960000  1.0 0.1113927375
H  H160  1  0.12243000  0.96543000  0.13297000  1.0 0.1417777779
H  H161  1  0.01585000  0.02717000  0.53332000  1.0 0.1203069752
H  H162  1  0.21396000  0.90377000  0.11569000  1.0 0.1113927375
H  H163  1  0.92838000  0.25814000  0.35780000  1.0 0.1417777779
H  H164  1  0.24428000  0.12126000  0.52899000  1.0 0.1287503565
H  H165  1  0.64102000  0.01312000  0.39723000  1.0 0.1203069752
H  H166  1  0.11978000  0.99162000  0.50463000  1.0 0.1417777779
H  H167  1  0.77513000  0.13000000  0.37913000  1.0 0.1113927375
H  H168  1  0.35586000  0.19277000  0.43906000  1.0 0.1417777779
H  H169  1  0.85939000  0.06680000  0.35082000  1.0 0.1287503565
H  H170  1  0.74163000  0.95573000  0.39958000  1.0 0.1476441051
H  H171  1  0.24521000  0.14889000  0.46161000  1.0 0.1287503565
H  H172  1  0.37455000  0.01320000  0.48262000  1.0 0.1113927375
H  H173  1  0.49593000  0.00698000  0.49843000  1.0 0.0989970879
H  H174  1  0.37583000  0.96549000  0.50873000  1.0 0.1681867337
H  H175  1  0.39025000  0.12930000  0.44935000  1.0 0.1113927375
H  H176  1  0.26751000  0.08996000  0.45701000  1.0 0.1113927375
H  H177  1  0.40655000  0.89929000  0.23968000  1.0 0.1287503565
H  H178  1  0.44496000  0.89057000  0.29744000  1.0 0.1476441051
H  H179  1  0.58410000  0.80998000  0.20740000  1.0 0.1287503565
H  H180  1  0.93796000  0.64407000  0.20803000  1.0 0.1476441051
H  H181  1  0.90616000  0.62912000  0.26734000  1.0 0.1203069752
H  H182  1  0.64523000  0.42737000  0.36361000  1.0 0.1203069752
H  H183  1  0.58699000  0.46436000  0.38472000  1.0 0.1287503565
H  H184  1  0.80471000  0.83674000  0.34178000  1.0 0.1287503565
H  H185  1  0.67565000  0.46199000  0.23196000  1.0 0.1417777779
H  H186  1  0.61685000  0.48735000  0.17901000  1.0 0.1287503565
H  H187  1  0.11987000  0.73182000  0.24058000  1.0 0.1417777779
H  H188  1  0.13682000  0.52146000  0.10861000  1.0 0.1287503565
H  H189  1  0.32697000  0.57526000  0.26534000  1.0 0.1417777779
H  H190  1  0.29971000  0.69665000  0.16472000  1.0 0.1287503565
H  H191  1  0.62566000  0.80094000  0.26556000  1.0 0.1417777779
H  H192  1  0.41451000  0.57388000  0.11238000  1.0 0.0989970879
H  H193  1  0.35525000  0.61031000  0.13382000  1.0 0.1113927375
H  H194  1  0.17740000  0.81280000  0.11842000  1.0 0.1113927375
H  H195  1  0.36086000  0.66201000  0.55888000  1.0 0.1287503565
H  H196  1  0.23232000  0.58098000  0.11169000  1.0 0.1417777779
H  H197  1  0.06464000  0.77930000  0.14568000  1.0 0.1287503565
H  H198  1  0.07801000  0.72584000  0.29692000  1.0 0.1287503565
H  H199  1  0.67898000  0.72039000  0.38717000  1.0 0.1113927375
H  H200  1  0.38049000  0.54580000  0.32018000  1.0 0.1203069752
H  H201  1  0.18996000  0.65464000  0.18549000  1.0 0.1417777779
H  H202  1  0.69432000  0.87905000  0.31979000  1.0 0.1417777779
H  H203  1  0.01556000  0.55840000  0.45960000  1.0 0.1113927375
H  H204  1  0.37757000  0.46543000  0.13297000  1.0 0.1417777779
H  H205  1  0.48415000  0.52717000  0.53332000  1.0 0.1203069752
H  H206  1  0.28604000  0.40377000  0.11569000  1.0 0.1113927375
H  H207  1  0.57162000  0.75814000  0.35780000  1.0 0.1417777779
H  H208  1  0.25572000  0.62126000  0.52899000  1.0 0.1287503565
H  H209  1  0.85898000  0.51312000  0.39723000  1.0 0.1203069752
H  H210  1  0.38022000  0.49162000  0.50463000  1.0 0.1417777779
H  H211  1  0.72487000  0.63000000  0.37913000  1.0 0.1113927375
H  H212  1  0.14414000  0.69277000  0.43906000  1.0 0.1417777779
H  H213  1  0.64061000  0.56680000  0.35082000  1.0 0.1287503565
H  H214  1  0.75837000  0.45573000  0.39958000  1.0 0.1476441051
H  H215  1  0.25479000  0.64889000  0.46161000  1.0 0.1287503565
H  H216  1  0.12545000  0.51320000  0.48262000  1.0 0.1113927375
H  H217  1  0.00407000  0.50698000  0.49843000  1.0 0.0989970879
H  H218  1  0.12417000  0.46549000  0.50873000  1.0 0.1681867337
H  H219  1  0.10975000  0.62930000  0.44935000  1.0 0.1113927375
H  H220  1  0.23249000  0.58996000  0.45701000  1.0 0.1113927375
H  H221  1  0.09345000  0.89929000  0.26032000  1.0 0.1287503565
H  H222  1  0.05504000  0.89057000  0.20256000  1.0 0.1476441051
H  H223  1  0.91590000  0.80998000  0.29260000  1.0 0.1287503565
H  H224  1  0.56204000  0.64407000  0.29197000  1.0 0.1476441051
H  H225  1  0.59384000  0.62912000  0.23266000  1.0 0.1203069752
H  H226  1  0.85477000  0.42737000  0.13639000  1.0 0.1203069752
H  H227  1  0.91301000  0.46436000  0.11528000  1.0 0.1287503565
H  H228  1  0.69529000  0.83674000  0.15822000  1.0 0.1287503565
H  H229  1  0.82435000  0.46199000  0.26804000  1.0 0.1417777779
H  H230  1  0.88315000  0.48735000  0.32099000  1.0 0.1287503565
H  H231  1  0.38013000  0.73182000  0.25942000  1.0 0.1417777779
H  H232  1  0.36318000  0.52146000  0.39139000  1.0 0.1287503565
H  H233  1  0.17303000  0.57526000  0.23466000  1.0 0.1417777779
H  H234  1  0.20029000  0.69665000  0.33528000  1.0 0.1287503565
H  H235  1  0.87434000  0.80094000  0.23444000  1.0 0.1417777779
H  H236  1  0.08549000  0.57388000  0.38762000  1.0 0.0989970879
H  H237  1  0.14475000  0.61031000  0.36618000  1.0 0.1113927375
H  H238  1  0.32260000  0.81280000  0.38158000  1.0 0.1113927375
H  H239  1  0.13914000  0.66201000  0.94112000  1.0 0.1287503565
H  H240  1  0.26768000  0.58098000  0.38831000  1.0 0.1417777779
H  H241  1  0.43536000  0.77930000  0.35432000  1.0 0.1287503565
H  H242  1  0.42199000  0.72584000  0.20308000  1.0 0.1287503565
H  H243  1  0.82102000  0.72039000  0.11283000  1.0 0.1113927375
H  H244  1  0.11951000  0.54580000  0.17982000  1.0 0.1203069752
H  H245  1  0.31004000  0.65464000  0.31451000  1.0 0.1417777779
H  H246  1  0.80568000  0.87905000  0.18021000  1.0 0.1417777779
H  H247  1  0.48444000  0.55840000  0.04040000  1.0 0.1113927375
H  H248  1  0.12243000  0.46543000  0.36703000  1.0 0.1417777779
H  H249  1  0.01585000  0.52717000  0.96668000  1.0 0.1203069752
H  H250  1  0.21396000  0.40377000  0.38431000  1.0 0.1113927375
H  H251  1  0.92838000  0.75814000  0.14220000  1.0 0.1417777779
H  H252  1  0.24428000  0.62126000  0.97101000  1.0 0.1287503565
H  H253  1  0.64102000  0.51312000  0.10277000  1.0 0.1203069752
H  H254  1  0.11978000  0.49162000  0.99537000  1.0 0.1417777779
H  H255  1  0.77513000  0.63000000  0.12087000  1.0 0.1113927375
H  H256  1  0.35586000  0.69277000  0.06094000  1.0 0.1417777779
H  H257  1  0.85939000  0.56680000  0.14918000  1.0 0.1287503565
H  H258  1  0.74163000  0.45573000  0.10042000  1.0 0.1476441051
H  H259  1  0.24521000  0.64889000  0.03839000  1.0 0.1287503565
H  H260  1  0.37455000  0.51320000  0.01738000  1.0 0.1113927375
H  H261  1  0.49593000  0.50698000  0.00157000  1.0 0.0989970879
H  H262  1  0.37583000  0.46549000  0.99127000  1.0 0.1681867337
H  H263  1  0.39025000  0.62930000  0.05065000  1.0 0.1113927375
H  H264  1  0.26751000  0.58996000  0.04299000  1.0 0.1113927375
H  H265  1  0.59345000  0.60071000  0.73968000  1.0 0.1287503565
H  H266  1  0.55504000  0.60943000  0.79744000  1.0 0.1476441051
H  H267  1  0.41590000  0.69002000  0.70740000  1.0 0.1287503565
H  H268  1  0.06204000  0.85593000  0.70803000  1.0 0.1476441051
H  H269  1  0.09384000  0.87088000  0.76734000  1.0 0.1203069752
H  H270  1  0.35477000  0.07263000  0.86361000  1.0 0.1203069752
H  H271  1  0.41301000  0.03564000  0.88472000  1.0 0.1287503565
H  H272  1  0.19529000  0.66326000  0.84178000  1.0 0.1287503565
H  H273  1  0.32435000  0.03801000  0.73196000  1.0 0.1417777779
H  H274  1  0.38315000  0.01265000  0.67901000  1.0 0.1287503565
H  H275  1  0.88013000  0.76818000  0.74058000  1.0 0.1417777779
H  H276  1  0.86318000  0.97854000  0.60861000  1.0 0.1287503565
H  H277  1  0.67303000  0.92474000  0.76534000  1.0 0.1417777779
H  H278  1  0.70029000  0.80335000  0.66472000  1.0 0.1287503565
H  H279  1  0.37434000  0.69906000  0.76556000  1.0 0.1417777779
H  H280  1  0.58549000  0.92612000  0.61238000  1.0 0.0989970879
H  H281  1  0.64475000  0.88969000  0.63382000  1.0 0.1113927375
H  H282  1  0.82260000  0.68720000  0.61842000  1.0 0.1113927375
H  H283  1  0.63914000  0.83799000  0.05888000  1.0 0.1287503565
H  H284  1  0.76768000  0.91902000  0.61169000  1.0 0.1417777779
H  H285  1  0.93536000  0.72070000  0.64568000  1.0 0.1287503565
H  H286  1  0.92199000  0.77416000  0.79692000  1.0 0.1287503565
H  H287  1  0.32102000  0.77961000  0.88717000  1.0 0.1113927375
H  H288  1  0.61951000  0.95420000  0.82018000  1.0 0.1203069752
H  H289  1  0.81004000  0.84536000  0.68549000  1.0 0.1417777779
H  H290  1  0.30568000  0.62095000  0.81979000  1.0 0.1417777779
H  H291  1  0.98444000  0.94160000  0.95960000  1.0 0.1113927375
H  H292  1  0.62243000  0.03457000  0.63297000  1.0 0.1417777779
H  H293  1  0.51585000  0.97283000  0.03332000  1.0 0.1203069752
H  H294  1  0.71396000  0.09623000  0.61569000  1.0 0.1113927375
H  H295  1  0.42838000  0.74186000  0.85780000  1.0 0.1476441051
H  H296  1  0.74428000  0.87874000  0.02899000  1.0 0.1287503565
H  H297  1  0.14102000  0.98688000  0.89723000  1.0 0.1203069752
H  H298  1  0.61978000  0.00838000  0.00463000  1.0 0.1417777779
H  H299  1  0.27513000  0.87000000  0.87913000  1.0 0.1113927375
H  H300  1  0.85586000  0.80723000  0.93906000  1.0 0.1417777779
H  H301  1  0.35939000  0.93320000  0.85082000  1.0 0.1287503565
H  H302  1  0.24163000  0.04427000  0.89958000  1.0 0.1476441051
H  H303  1  0.74521000  0.85111000  0.96161000  1.0 0.1287503565
H  H304  1  0.87455000  0.98680000  0.98262000  1.0 0.1113927375
H  H305  1  0.99593000  0.99302000  0.99843000  1.0 0.0989970879
H  H306  1  0.87583000  0.03451000  0.00873000  1.0 0.1681867337
H  H307  1  0.89025000  0.87070000  0.94935000  1.0 0.1113927375
H  H308  1  0.76751000  0.91004000  0.95701000  1.0 0.1113927375
H  H309  1  0.90655000  0.60071000  0.76032000  1.0 0.1287503565
H  H310  1  0.94496000  0.60943000  0.70256000  1.0 0.1476441051
H  H311  1  0.08410000  0.69002000  0.79260000  1.0 0.1287503565
H  H312  1  0.43796000  0.85593000  0.79197000  1.0 0.1476441051
H  H313  1  0.40616000  0.87088000  0.73266000  1.0 0.1203069752
H  H314  1  0.14523000  0.07263000  0.63639000  1.0 0.1203069752
H  H315  1  0.08699000  0.03564000  0.61528000  1.0 0.1287503565
H  H316  1  0.30471000  0.66326000  0.65822000  1.0 0.1287503565
H  H317  1  0.17565000  0.03801000  0.76804000  1.0 0.1417777779
H  H318  1  0.11685000  0.01265000  0.82099000  1.0 0.1287503565
H  H319  1  0.61987000  0.76818000  0.75942000  1.0 0.1417777779
H  H320  1  0.63682000  0.97854000  0.89139000  1.0 0.1287503565
H  H321  1  0.82697000  0.92474000  0.73466000  1.0 0.1417777779
H  H322  1  0.79971000  0.80335000  0.83528000  1.0 0.1287503565
H  H323  1  0.12566000  0.69906000  0.73444000  1.0 0.1417777779
H  H324  1  0.91451000  0.92612000  0.88762000  1.0 0.0989970879
H  H325  1  0.85525000  0.88969000  0.86618000  1.0 0.1113927375
H  H326  1  0.67740000  0.68720000  0.88158000  1.0 0.1113927375
H  H327  1  0.86086000  0.83799000  0.44112000  1.0 0.1287503565
H  H328  1  0.73232000  0.91902000  0.88831000  1.0 0.1417777779
H  H329  1  0.56464000  0.72070000  0.85432000  1.0 0.1287503565
H  H330  1  0.57801000  0.77416000  0.70308000  1.0 0.1287503565
H  H331  1  0.17898000  0.77961000  0.61283000  1.0 0.1113927375
H  H332  1  0.88049000  0.95420000  0.67982000  1.0 0.1203069752
H  H333  1  0.68996000  0.84536000  0.81451000  1.0 0.1476441051
H  H334  1  0.19432000  0.62095000  0.68021000  1.0 0.1417777779
H  H335  1  0.51556000  0.94160000  0.54040000  1.0 0.1113927375
H  H336  1  0.87757000  0.03457000  0.86703000  1.0 0.1417777779
H  H337  1  0.98415000  0.97283000  0.46668000  1.0 0.1203069752
H  H338  1  0.78604000  0.09623000  0.88431000  1.0 0.1113927375
H  H339  1  0.07162000  0.74186000  0.64220000  1.0 0.1476441051
H  H340  1  0.75572000  0.87874000  0.47101000  1.0 0.1287503565
H  H341  1  0.35898000  0.98688000  0.60277000  1.0 0.1203069752
H  H342  1  0.88022000  0.00838000  0.49537000  1.0 0.1417777779
H  H343  1  0.22487000  0.87000000  0.62087000  1.0 0.1113927375
H  H344  1  0.64414000  0.80723000  0.56094000  1.0 0.1417777779
H  H345  1  0.14061000  0.93320000  0.64918000  1.0 0.1287503565
H  H346  1  0.25837000  0.04427000  0.60042000  1.0 0.1476441051
H  H347  1  0.75479000  0.85111000  0.53839000  1.0 0.1287503565
H  H348  1  0.62545000  0.98680000  0.51738000  1.0 0.1113927375
H  H349  1  0.50407000  0.99302000  0.50157000  1.0 0.0989970879
H  H350  1  0.62417000  0.03451000  0.49127000  1.0 0.1681867337
H  H351  1  0.60975000  0.87070000  0.55065000  1.0 0.1113927375
H  H352  1  0.73249000  0.91004000  0.54299000  1.0 0.1113927375
C  C1  1  0.53210000  0.14050000  0.82250000  1.0 0.5656710008
C  C2  1  0.67930000  0.21690000  0.87350000  1.0 0.5872986654
C  C3  1  0.54920000  0.12010000  0.75490000  1.0 -0.082120271
C  C4  1  0.50590000  0.14430000  0.78290000  1.0 -0.0335452443
C  C5  1  0.51520000  0.46840000  0.83430000  1.0 0.422264809
C  C6  1  0.31390000  0.49650000  0.62590000  1.0 0.1476441051
C  C7  1  0.51670000  0.47590000  0.76730000  1.0 0.0222014813
C  C8  1  0.52610000  0.12520000  0.72100000  1.0 -0.1910688787
C  C9  1  0.50220000  0.38200000  0.42820000  1.0 0.5656710008
C  C10  1  0.01160000  0.32280000  0.71120000  1.0 -0.0373664412
C  C11  1  0.59020000  0.44990000  0.76680000  1.0 -0.0720760543
C  C12  1  0.44320000  0.17320000  0.77400000  1.0 -0.0879080529
C  C13  1  0.46120000  0.15270000  0.71210000  1.0 0.2511705199
C  C14  1  0.03130000  0.34220000  0.77350000  1.0 -0.1910688787
C  C15  1  0.62490000  0.43320000  0.80160000  1.0 0.422264809
C  C16  1  0.17410000  0.25000000  0.61850000  1.0 0.5799621532
C  C17  1  0.74920000  0.24210000  0.86010000  1.0 -0.0720760543
C  C18  1  0.48270000  0.49160000  0.73370000  1.0 0.0386869362
C  C19  1  0.51790000  0.48190000  0.70220000  1.0 -0.0720760543
C  C20  1  0.05230000  0.34890000  0.73840000  1.0 -0.0879080529
C  C21  1  0.56460000  0.40220000  0.44920000  1.0 -0.0879080529
C  C22  1  0.24570000  0.22460000  0.63430000  1.0 -0.0373664412
C  C23  1  0.96630000  0.31570000  0.78190000  1.0 0.2348493377
C  C24  1  0.37590000  0.53580000  0.63480000  1.0 -0.1275013683
C  C25  1  0.37430000  0.53400000  0.70180000  1.0 0.4097438792
C  C26  1  0.47890000  0.48450000  0.80030000  1.0 -0.0560556692
C  C27  1  0.41070000  0.51540000  0.73530000  1.0 -0.082120271
C  C28  1  0.24250000  0.17930000  0.65380000  1.0 -0.082120271
C  C29  1  0.68550000  0.47070000  0.87470000  1.0 0.1287503565
C  C30  1  0.48420000  0.49560000  0.66830000  1.0 0.3903856913
C  C31  1  0.37290000  0.52280000  0.76760000  1.0 -0.0879080529
C  C32  1  0.40870000  0.50720000  0.79920000  1.0 -0.082120271
C  C33  1  0.92380000  0.28830000  0.75400000  1.0 -0.1717946056
C  C34  1  0.81400000  0.49140000  0.88740000  1.0 0.0480775477
C  C35  1  0.62560000  0.44180000  0.73480000  1.0 -0.082120271
C  C36  1  0.74720000  0.28720000  0.84030000  1.0 -0.0720760543
C  C37  1  0.41800000  0.17890000  0.73980000  1.0 -0.1991158539
C  C38  1  0.62240000  0.42610000  0.86800000  1.0 -0.1717946056
C  C39  1  0.03550000  0.32850000  0.67230000  1.0 0.5799621532
C  C40  1  0.82020000  0.21790000  0.86650000  1.0 -0.0879080529
C  C41  1  0.63470000  0.37270000  0.45160000  1.0 -0.0560556692
C  C42  1  0.75760000  0.45600000  0.88410000  1.0 -0.1910688787
C  C43  1  0.88870000  0.23810000  0.85100000  1.0 -0.209468103
C  C44  1  0.80780000  0.41900000  0.52350000  1.0 -0.0720760543
C  C45  1  0.88060000  0.28800000  0.82980000  1.0 0.2511705199
C  C46  1  0.37540000  0.18160000  0.66350000  1.0 0.2098368744
C  C47  1  0.94850000  0.29260000  0.72120000  1.0 -0.082120271
C  C48  1  0.31640000  0.24890000  0.62780000  1.0 -0.0985506738
C  C49  1  0.59310000  0.45830000  0.70150000  1.0 -0.082120271
C  C50  1  0.81350000  0.31170000  0.82640000  1.0 -0.1991158539
C  C51  1  0.30800000  0.15450000  0.66810000  1.0 -0.1991158539
C  C52  1  0.93690000  0.42470000  0.54020000  1.0 0.0024439669
C  C53  1  0.67080000  0.52230000  0.87330000  1.0 -0.1717946056
C  C54  1  0.56110000  0.45300000  0.46690000  1.0 -0.0560556692
C  C55  1  0.72790000  0.55960000  0.88130000  1.0 0.0833614359
C  C56  1  0.38100000  0.22520000  0.64480000  1.0 -0.1910688787
C  C57  1  0.69750000  0.39660000  0.47000000  1.0 -0.260999847
C  C58  1  0.18950000  0.47330000  0.60760000  1.0 0.0885534838
C  C59  1  0.68710000  0.44560000  0.48590000  1.0 0.2360240708
C  C60  1  0.62280000  0.47400000  0.48440000  1.0 -0.2427059708
C  C61  1  0.26250000  0.40720000  0.62170000  1.0 0.1113927375
C  C62  1  0.85790000  0.34330000  0.55250000  1.0 -0.1172307346
C  C63  1  0.31940000  0.44540000  0.63470000  1.0 -0.1991158539
C  C64  1  0.24770000  0.50920000  0.61010000  1.0 -0.2195882267
C  C65  1  0.79310000  0.36750000  0.53820000  1.0 -0.144527029
C  C66  1  0.99430000  0.34260000  0.57200000  1.0 0.5217203388
C  C67  1  0.92610000  0.37240000  0.55450000  1.0 -0.0720760543
C  C68  1  0.87320000  0.45050000  0.52540000  1.0 -0.0373664412
C  C69  1  0.03160000  0.41640000  0.54920000  1.0 0.2564527332
C  C70  1  0.82160000  0.46330000  0.50650000  1.0 0.0222014813
C  C71  1  0.95140000  0.47620000  0.50950000  1.0 -0.1275013683
C  C72  1  0.88170000  0.49910000  0.50040000  1.0 -0.209468103
C  C73  1  0.88660000  0.40440000  0.53880000  1.0 0.025441613
C  C74  1  0.95580000  0.42870000  0.53020000  1.0 0.010632851
C  C75  1  0.81240000  0.42250000  0.53240000  1.0 -0.0985506738
C  C76  1  0.96790000  0.14050000  0.67750000  1.0 0.5656710008
C  C77  1  0.82070000  0.21690000  0.62650000  1.0 0.5872986654
C  C78  1  0.95080000  0.12010000  0.74510000  1.0 -0.082120271
C  C79  1  0.99410000  0.14430000  0.71710000  1.0 -0.0335452443
C  C80  1  0.98480000  0.46840000  0.66570000  1.0 0.422264809
C  C81  1  0.18610000  0.49650000  0.87410000  1.0 0.1417777779
C  C82  1  0.98330000  0.47590000  0.73270000  1.0 0.0222014813
C  C83  1  0.97390000  0.12520000  0.77900000  1.0 -0.1910688787
C  C84  1  0.99780000  0.38200000  0.07180000  1.0 0.5656710008
C  C85  1  0.48840000  0.32280000  0.78880000  1.0 -0.0373664412
C  C86  1  0.90980000  0.44990000  0.73320000  1.0 -0.0720760543
C  C87  1  0.05680000  0.17320000  0.72600000  1.0 -0.082120271
C  C88  1  0.03880000  0.15270000  0.78790000  1.0 0.2511705199
C  C89  1  0.46870000  0.34220000  0.72650000  1.0 -0.1910688787
C  C90  1  0.87510000  0.43320000  0.69840000  1.0 0.422264809
C  C91  1  0.32590000  0.25000000  0.88150000  1.0 0.5799621532
C  C92  1  0.75080000  0.24210000  0.63990000  1.0 -0.0720760543
C  C93  1  0.01730000  0.49160000  0.76630000  1.0 0.0386869362
C  C94  1  0.98210000  0.48190000  0.79780000  1.0 -0.0720760543
C  C95  1  0.44770000  0.34890000  0.76160000  1.0 -0.0879080529
C  C96  1  0.93540000  0.40220000  0.05080000  1.0 -0.0879080529
C  C97  1  0.25430000  0.22460000  0.86570000  1.0 -0.0373664412
C  C98  1  0.53370000  0.31570000  0.71810000  1.0 0.2360240708
C  C99  1  0.12410000  0.53580000  0.86520000  1.0 -0.1275013683
C  C100  1  0.12570000  0.53400000  0.79820000  1.0 0.4097438792
C  C101  1  0.02110000  0.48450000  0.69970000  1.0 -0.0560556692
C  C102  1  0.08930000  0.51540000  0.76470000  1.0 -0.082120271
C  C103  1  0.25750000  0.17930000  0.84620000  1.0 -0.082120271
C  C104  1  0.81450000  0.47070000  0.62530000  1.0 0.1287503565
C  C105  1  0.01580000  0.49560000  0.83170000  1.0 0.3903856913
C  C106  1  0.12710000  0.52280000  0.73240000  1.0 -0.0879080529
C  C107  1  0.09130000  0.50720000  0.70080000  1.0 -0.0879080529
C  C108  1  0.57620000  0.28830000  0.74600000  1.0 -0.1717946056
C  C109  1  0.68600000  0.49140000  0.61260000  1.0 0.0480775477
C  C110  1  0.87440000  0.44180000  0.76520000  1.0 -0.082120271
C  C111  1  0.75280000  0.28720000  0.65970000  1.0 -0.0720760543
C  C112  1  0.08200000  0.17890000  0.76020000  1.0 -0.1991158539
C  C113  1  0.87760000  0.42610000  0.63200000  1.0 -0.1717946056
C  C114  1  0.46450000  0.32850000  0.82770000  1.0 0.5799621532
C  C115  1  0.67980000  0.21790000  0.63350000  1.0 -0.0879080529
C  C116  1  0.86530000  0.37270000  0.04840000  1.0 -0.0560556692
C  C117  1  0.74240000  0.45600000  0.61590000  1.0 -0.1910688787
C  C118  1  0.61130000  0.23810000  0.64900000  1.0 -0.209468103
C  C119  1  0.69220000  0.41900000  0.97650000  1.0 -0.0720760543
C  C120  1  0.61940000  0.28800000  0.67020000  1.0 0.2511705199
C  C121  1  0.12460000  0.18160000  0.83650000  1.0 0.2098368744
C  C122  1  0.55150000  0.29260000  0.77880000  1.0 -0.082120271
C  C123  1  0.18360000  0.24890000  0.87220000  1.0 -0.0985506738
C  C124  1  0.90690000  0.45830000  0.79850000  1.0 -0.082120271
C  C125  1  0.68650000  0.31170000  0.67360000  1.0 -0.1991158539
C  C126  1  0.19200000  0.15450000  0.83190000  1.0 -0.1991158539
C  C127  1  0.56310000  0.42470000  0.95980000  1.0 0.0024439669
C  C128  1  0.82920000  0.52230000  0.62670000  1.0 -0.1717946056
C  C129  1  0.93890000  0.45300000  0.03310000  1.0 -0.0560556692
C  C130  1  0.77210000  0.55960000  0.61870000  1.0 0.0833614359
C  C131  1  0.11900000  0.22520000  0.85520000  1.0 -0.1910688787
C  C132  1  0.80250000  0.39660000  0.03000000  1.0 -0.260999847
C  C133  1  0.31050000  0.47330000  0.89240000  1.0 0.0885534838
C  C134  1  0.81290000  0.44560000  0.01410000  1.0 0.2360240708
C  C135  1  0.87720000  0.47400000  0.01560000  1.0 -0.2427059708
C  C136  1  0.23750000  0.40720000  0.87830000  1.0 0.1113927375
C  C137  1  0.64210000  0.34330000  0.94750000  1.0 -0.1172307346
C  C138  1  0.18060000  0.44540000  0.86530000  1.0 -0.1991158539
C  C139  1  0.25230000  0.50920000  0.88990000  1.0 -0.2195882267
C  C140  1  0.70690000  0.36750000  0.96180000  1.0 -0.1450292578
C  C141  1  0.50570000  0.34260000  0.92800000  1.0 0.5217203388
C  C142  1  0.57390000  0.37240000  0.94550000  1.0 -0.0720760543
C  C143  1  0.62680000  0.45050000  0.97460000  1.0 -0.0373664412
C  C144  1  0.46840000  0.41640000  0.95080000  1.0 0.2564527332
C  C145  1  0.67840000  0.46330000  0.99350000  1.0 0.0222014813
C  C146  1  0.54860000  0.47620000  0.99050000  1.0 -0.1275013683
C  C147  1  0.61830000  0.49910000  0.99960000  1.0 -0.209468103
C  C148  1  0.61340000  0.40440000  0.96120000  1.0 0.025441613
C  C149  1  0.54420000  0.42870000  0.96980000  1.0 0.010632851
C  C150  1  0.68760000  0.42250000  0.96760000  1.0 -0.0985506738
C  C151  1  0.46790000  0.35950000  0.32250000  1.0 0.5656710008
C  C152  1  0.32070000  0.28310000  0.37350000  1.0 0.5872986654
C  C153  1  0.45080000  0.37990000  0.25490000  1.0 -0.082120271
C  C154  1  0.49410000  0.35570000  0.28290000  1.0 -0.0335452443
C  C155  1  0.48480000  0.03160000  0.33430000  1.0 0.422264809
C  C156  1  0.68610000  0.00350000  0.12590000  1.0 0.1476441051
C  C157  1  0.48330000  0.02410000  0.26730000  1.0 0.0222014813
C  C158  1  0.47390000  0.37480000  0.22100000  1.0 -0.1910688787
C  C159  1  0.49780000  0.11800000  0.92820000  1.0 0.5656710008
C  C160  1  0.98840000  0.17720000  0.21120000  1.0 -0.0373664412
C  C161  1  0.40980000  0.05010000  0.26680000  1.0 -0.0720760543
C  C162  1  0.55680000  0.32680000  0.27400000  1.0 -0.0879080529
C  C163  1  0.53880000  0.34730000  0.21210000  1.0 0.2511705199
C  C164  1  0.96870000  0.15780000  0.27350000  1.0 -0.1910688787
C  C165  1  0.37510000  0.06680000  0.30160000  1.0 0.422264809
C  C166  1  0.82590000  0.25000000  0.11850000  1.0 0.5799621532
C  C167  1  0.25080000  0.25790000  0.36010000  1.0 -0.0720760543
C  C168  1  0.51730000  0.00840000  0.23370000  1.0 0.0386869362
C  C169  1  0.48210000  0.01810000  0.20220000  1.0 -0.0720760543
C  C170  1  0.94770000  0.15110000  0.23840000  1.0 -0.0879080529
C  C171  1  0.43540000  0.09780000  0.94920000  1.0 -0.0879080529
C  C172  1  0.75430000  0.27540000  0.13430000  1.0 -0.0373664412
C  C173  1  0.03370000  0.18430000  0.28190000  1.0 0.2360240708
C  C174  1  0.62410000  0.96420000  0.13480000  1.0 -0.1275013683
C  C175  1  0.62570000  0.96600000  0.20180000  1.0 0.4097438792
C  C176  1  0.52110000  0.01550000  0.30030000  1.0 -0.0560556692
C  C177  1  0.58930000  0.98460000  0.23530000  1.0 -0.082120271
C  C178  1  0.75750000  0.32070000  0.15380000  1.0 -0.082120271
C  C179  1  0.31450000  0.02930000  0.37470000  1.0 0.1287503565
C  C180  1  0.51580000  0.00440000  0.16830000  1.0 0.3903856913
C  C181  1  0.62710000  0.97720000  0.26760000  1.0 -0.0879080529
C  C182  1  0.59130000  0.99280000  0.29920000  1.0 -0.082120271
C  C183  1  0.07620000  0.21170000  0.25400000  1.0 -0.1717946056
C  C184  1  0.18600000  0.00860000  0.38740000  1.0 0.0480775477
C  C185  1  0.37440000  0.05820000  0.23480000  1.0 -0.082120271
C  C186  1  0.25280000  0.21280000  0.34030000  1.0 -0.0720760543
C  C187  1  0.58200000  0.32110000  0.23980000  1.0 -0.1991158539
C  C188  1  0.37760000  0.07390000  0.36800000  1.0 -0.1717946056
C  C189  1  0.96450000  0.17150000  0.17230000  1.0 0.5799621532
C  C190  1  0.17980000  0.28210000  0.36650000  1.0 -0.0879080529
C  C191  1  0.36530000  0.12730000  0.95160000  1.0 -0.0560556692
C  C192  1  0.24240000  0.04400000  0.38410000  1.0 -0.1910688787
C  C193  1  0.11130000  0.26190000  0.35100000  1.0 -0.209468103
C  C194  1  0.19220000  0.08100000  0.02350000  1.0 -0.082120271
C  C195  1  0.11940000  0.21200000  0.32980000  1.0 0.2511705199
C  C196  1  0.62460000  0.31840000  0.16350000  1.0 0.2098368744
C  C197  1  0.05150000  0.20740000  0.22120000  1.0 -0.082120271
C  C198  1  0.68360000  0.25110000  0.12780000  1.0 -0.0985506738
C  C199  1  0.40690000  0.04170000  0.20150000  1.0 -0.082120271
C  C200  1  0.18650000  0.18830000  0.32640000  1.0 -0.1991158539
C  C201  1  0.69200000  0.34550000  0.16810000  1.0 -0.1991158539
C  C202  1  0.06310000  0.07530000  0.04020000  1.0 0.0024439669
C  C203  1  0.32920000  0.97770000  0.37330000  1.0 -0.1717946056
C  C204  1  0.43890000  0.04700000  0.96690000  1.0 -0.0560556692
C  C205  1  0.27210000  0.94040000  0.38130000  1.0 0.0833614359
C  C206  1  0.61900000  0.27480000  0.14480000  1.0 -0.1910688787
C  C207  1  0.30250000  0.10340000  0.97000000  1.0 -0.260999847
C  C208  1  0.81050000  0.02670000  0.10760000  1.0 0.0885534838
C  C209  1  0.31290000  0.05440000  0.98590000  1.0 0.2360240708
C  C210  1  0.37720000  0.02600000  0.98440000  1.0 -0.2427059708
C  C211  1  0.73750000  0.09280000  0.12170000  1.0 0.1113927375
C  C212  1  0.14210000  0.15670000  0.05250000  1.0 -0.1172307346
C  C213  1  0.68060000  0.05460000  0.13470000  1.0 -0.1991158539
C  C214  1  0.75230000  0.99080000  0.11010000  1.0 -0.2195882267
C  C215  1  0.20690000  0.13250000  0.03820000  1.0 -0.1450292578
C  C216  1  0.00570000  0.15740000  0.07200000  1.0 0.5217203388
C  C217  1  0.07390000  0.12760000  0.05450000  1.0 -0.0720760543
C  C218  1  0.12680000  0.04950000  0.02540000  1.0 -0.0373664412
C  C219  1  0.96840000  0.08360000  0.04920000  1.0 0.2564527332
C  C220  1  0.17840000  0.03670000  0.00650000  1.0 0.0222014813
C  C221  1  0.04860000  0.02380000  0.00950000  1.0 -0.1275013683
C  C222  1  0.11830000  0.00090000  0.00040000  1.0 -0.209468103
C  C223  1  0.11340000  0.09560000  0.03880000  1.0 0.0222014813
C  C224  1  0.04420000  0.07130000  0.03020000  1.0 0.010632851
C  C225  1  0.18760000  0.07750000  0.03240000  1.0 -0.0985506738
C  C226  1  0.03210000  0.35950000  0.17750000  1.0 0.5656710008
C  C227  1  0.17930000  0.28310000  0.12650000  1.0 0.5872986654
C  C228  1  0.04920000  0.37990000  0.24510000  1.0 -0.082120271
C  C229  1  0.00590000  0.35570000  0.21710000  1.0 -0.0335452443
C  C230  1  0.01520000  0.03160000  0.16570000  1.0 0.422264809
C  C231  1  0.81390000  0.00350000  0.37410000  1.0 0.1417777779
C  C232  1  0.01670000  0.02410000  0.23270000  1.0 0.0222014813
C  C233  1  0.02610000  0.37480000  0.27900000  1.0 -0.1910688787
C  C234  1  0.00220000  0.11800000  0.57180000  1.0 0.5656710008
C  C235  1  0.51160000  0.17720000  0.28880000  1.0 -0.0373664412
C  C236  1  0.09020000  0.05010000  0.23320000  1.0 -0.0720760543
C  C237  1  0.94320000  0.32680000  0.22600000  1.0 -0.082120271
C  C238  1  0.96120000  0.34730000  0.28790000  1.0 0.2511705199
C  C239  1  0.53130000  0.15780000  0.22650000  1.0 -0.1910688787
C  C240  1  0.12490000  0.06680000  0.19840000  1.0 0.422264809
C  C241  1  0.67410000  0.25000000  0.38150000  1.0 0.5799621532
C  C242  1  0.24920000  0.25790000  0.13990000  1.0 -0.0720760543
C  C243  1  0.98270000  0.00840000  0.26630000  1.0 0.0386869362
C  C244  1  0.01790000  0.01810000  0.29780000  1.0 -0.0720760543
C  C245  1  0.55230000  0.15110000  0.26160000  1.0 -0.0879080529
C  C246  1  0.06460000  0.09780000  0.55080000  1.0 -0.0879080529
C  C247  1  0.74570000  0.27540000  0.36570000  1.0 -0.0373664412
C  C248  1  0.46630000  0.18430000  0.21810000  1.0 0.2348493377
C  C249  1  0.87590000  0.96420000  0.36520000  1.0 -0.1275013683
C  C250  1  0.87430000  0.96600000  0.29820000  1.0 0.4097438792
C  C251  1  0.97890000  0.01550000  0.19970000  1.0 -0.0560556692
C  C252  1  0.91070000  0.98460000  0.26470000  1.0 -0.082120271
C  C253  1  0.74250000  0.32070000  0.34620000  1.0 -0.082120271
C  C254  1  0.18550000  0.02930000  0.12530000  1.0 0.1287503565
C  C255  1  0.98420000  0.00440000  0.33170000  1.0 0.3903856913
C  C256  1  0.87290000  0.97720000  0.23240000  1.0 -0.0879080529
C  C257  1  0.90870000  0.99280000  0.20080000  1.0 -0.082120271
C  C258  1  0.42380000  0.21170000  0.24600000  1.0 -0.1717946056
C  C259  1  0.31400000  0.00860000  0.11260000  1.0 0.0480775477
C  C260  1  0.12560000  0.05820000  0.26520000  1.0 -0.082120271
C  C261  1  0.24720000  0.21280000  0.15970000  1.0 -0.0720760543
C  C262  1  0.91800000  0.32110000  0.26020000  1.0 -0.1991158539
C  C263  1  0.12240000  0.07390000  0.13200000  1.0 -0.1717946056
C  C264  1  0.53550000  0.17150000  0.32770000  1.0 0.5799621532
C  C265  1  0.32020000  0.28210000  0.13350000  1.0 -0.0879080529
C  C266  1  0.13470000  0.12730000  0.54840000  1.0 -0.0560556692
C  C267  1  0.25760000  0.04400000  0.11590000  1.0 -0.1910688787
C  C268  1  0.38870000  0.26190000  0.14900000  1.0 -0.209468103
C  C269  1  0.30780000  0.08100000  0.47650000  1.0 -0.0720760543
C  C270  1  0.38060000  0.21200000  0.17020000  1.0 0.2511705199
C  C271  1  0.87540000  0.31840000  0.33650000  1.0 0.2098368744
C  C272  1  0.44850000  0.20740000  0.27880000  1.0 -0.082120271
C  C273  1  0.81640000  0.25110000  0.37220000  1.0 -0.0985506738
C  C274  1  0.09310000  0.04170000  0.29850000  1.0 -0.082120271
C  C275  1  0.31350000  0.18830000  0.17360000  1.0 -0.209468103
C  C276  1  0.80800000  0.34550000  0.33190000  1.0 -0.1991158539
C  C277  1  0.43690000  0.07530000  0.45980000  1.0 0.0024439669
C  C278  1  0.17080000  0.97770000  0.12670000  1.0 -0.1717946056
C  C279  1  0.06110000  0.04700000  0.53310000  1.0 -0.0560556692
C  C280  1  0.22790000  0.94040000  0.11870000  1.0 0.0833614359
C  C281  1  0.88100000  0.27480000  0.35520000  1.0 -0.1910688787
C  C282  1  0.19750000  0.10340000  0.53000000  1.0 -0.260999847
C  C283  1  0.68950000  0.02670000  0.39240000  1.0 0.0885534838
C  C284  1  0.18710000  0.05440000  0.51410000  1.0 0.2360240708
C  C285  1  0.12280000  0.02600000  0.51560000  1.0 -0.2427059708
C  C286  1  0.76250000  0.09280000  0.37830000  1.0 0.1113927375
C  C287  1  0.35790000  0.15670000  0.44750000  1.0 -0.1172307346
C  C288  1  0.81940000  0.05460000  0.36530000  1.0 -0.1991158539
C  C289  1  0.74770000  0.99080000  0.38990000  1.0 -0.2195882267
C  C290  1  0.29310000  0.13250000  0.46180000  1.0 -0.1450292578
C  C291  1  0.49430000  0.15740000  0.42800000  1.0 0.5217203388
C  C292  1  0.42610000  0.12760000  0.44550000  1.0 -0.0720760543
C  C293  1  0.37320000  0.04950000  0.47460000  1.0 -0.0373664412
C  C294  1  0.53160000  0.08360000  0.45080000  1.0 0.2564527332
C  C295  1  0.32160000  0.03670000  0.49350000  1.0 0.0222014813
C  C296  1  0.45140000  0.02380000  0.49050000  1.0 -0.1275013683
C  C297  1  0.38170000  0.00090000  0.49960000  1.0 -0.209468103
C  C298  1  0.38660000  0.09560000  0.46120000  1.0 0.025441613
C  C299  1  0.45580000  0.07130000  0.46980000  1.0 0.010632851
C  C300  1  0.31240000  0.07750000  0.46760000  1.0 -0.0985506738
C  C301  1  0.46790000  0.85950000  0.17750000  1.0 0.5656710008
C  C302  1  0.32070000  0.78310000  0.12650000  1.0 0.5872986654
C  C303  1  0.45080000  0.87990000  0.24510000  1.0 -0.082120271
C  C304  1  0.49410000  0.85570000  0.21710000  1.0 -0.0335452443
C  C305  1  0.48480000  0.53160000  0.16570000  1.0 0.422264809
C  C306  1  0.68610000  0.50350000  0.37410000  1.0 0.1417777779
C  C307  1  0.48330000  0.52410000  0.23270000  1.0 0.0222014813
C  C308  1  0.47390000  0.87480000  0.27900000  1.0 -0.1910688787
C  C309  1  0.49780000  0.61800000  0.57180000  1.0 0.5656710008
C  C310  1  0.98840000  0.67720000  0.28880000  1.0 -0.0373664412
C  C311  1  0.40980000  0.55010000  0.23320000  1.0 -0.0720760543
C  C312  1  0.55680000  0.82680000  0.22600000  1.0 -0.0879080529
C  C313  1  0.53880000  0.84730000  0.28790000  1.0 0.2511705199
C  C314  1  0.96870000  0.65780000  0.22650000  1.0 -0.1910688787
C  C315  1  0.37510000  0.56680000  0.19840000  1.0 0.422264809
C  C316  1  0.82590000  0.75000000  0.38150000  1.0 0.5799621532
C  C317  1  0.25080000  0.75790000  0.13990000  1.0 -0.0720760543
C  C318  1  0.51730000  0.50840000  0.26630000  1.0 0.0386869362
C  C319  1  0.48210000  0.51810000  0.29780000  1.0 -0.0720760543
C  C320  1  0.94770000  0.65110000  0.26160000  1.0 -0.0879080529
C  C321  1  0.43540000  0.59780000  0.55080000  1.0 -0.0879080529
C  C322  1  0.75430000  0.77540000  0.36570000  1.0 -0.0373664412
C  C323  1  0.03370000  0.68430000  0.21810000  1.0 0.2348493377
C  C324  1  0.62410000  0.46420000  0.36520000  1.0 -0.1275013683
C  C325  1  0.62570000  0.46600000  0.29820000  1.0 0.4097438792
C  C326  1  0.52110000  0.51550000  0.19970000  1.0 -0.0560556692
C  C327  1  0.58930000  0.48460000  0.26470000  1.0 -0.082120271
C  C328  1  0.75750000  0.82070000  0.34620000  1.0 -0.082120271
C  C329  1  0.31450000  0.52930000  0.12530000  1.0 0.1287503565
C  C330  1  0.51580000  0.50440000  0.33170000  1.0 0.3903856913
C  C331  1  0.62710000  0.47720000  0.23240000  1.0 -0.0879080529
C  C332  1  0.59130000  0.49280000  0.20080000  1.0 -0.082120271
C  C333  1  0.07620000  0.71170000  0.24600000  1.0 -0.1717946056
C  C334  1  0.18600000  0.50860000  0.11260000  1.0 0.0480775477
C  C335  1  0.37440000  0.55820000  0.26520000  1.0 -0.082120271
C  C336  1  0.25280000  0.71280000  0.15970000  1.0 -0.0720760543
C  C337  1  0.58200000  0.82110000  0.26020000  1.0 -0.1991158539
C  C338  1  0.37760000  0.57390000  0.13200000  1.0 -0.1717946056
C  C339  1  0.96450000  0.67150000  0.32770000  1.0 0.5799621532
C  C340  1  0.17980000  0.78210000  0.13350000  1.0 -0.0879080529
C  C341  1  0.36530000  0.62730000  0.54840000  1.0 -0.0560556692
C  C342  1  0.24240000  0.54400000  0.11590000  1.0 -0.1910688787
C  C343  1  0.11130000  0.76190000  0.14900000  1.0 -0.209468103
C  C344  1  0.19220000  0.58100000  0.47650000  1.0 -0.082120271
C  C345  1  0.11940000  0.71200000  0.17020000  1.0 0.2511705199
C  C346  1  0.62460000  0.81840000  0.33650000  1.0 0.2098368744
C  C347  1  0.05150000  0.70740000  0.27880000  1.0 -0.082120271
C  C348  1  0.68360000  0.75110000  0.37220000  1.0 -0.0985506738
C  C349  1  0.40690000  0.54170000  0.29850000  1.0 -0.082120271
C  C350  1  0.18650000  0.68830000  0.17360000  1.0 -0.1991158539
C  C351  1  0.69200000  0.84550000  0.33190000  1.0 -0.1991158539
C  C352  1  0.06310000  0.57530000  0.45980000  1.0 0.0024439669
C  C353  1  0.32920000  0.47770000  0.12670000  1.0 -0.1717946056
C  C354  1  0.43890000  0.54700000  0.53310000  1.0 -0.0560556692
C  C355  1  0.27210000  0.44040000  0.11870000  1.0 0.0833614359
C  C356  1  0.61900000  0.77480000  0.35520000  1.0 -0.1910688787
C  C357  1  0.30250000  0.60340000  0.53000000  1.0 -0.260999847
C  C358  1  0.81050000  0.52670000  0.39240000  1.0 0.0885534838
C  C359  1  0.31290000  0.55440000  0.51410000  1.0 0.2360240708
C  C360  1  0.37720000  0.52600000  0.51560000  1.0 -0.2427059708
C  C361  1  0.73750000  0.59280000  0.37830000  1.0 0.1113927375
C  C362  1  0.14210000  0.65670000  0.44750000  1.0 -0.1172307346
C  C363  1  0.68060000  0.55460000  0.36530000  1.0 -0.1991158539
C  C364  1  0.75230000  0.49080000  0.38990000  1.0 -0.2195882267
C  C365  1  0.20690000  0.63250000  0.46180000  1.0 -0.1450292578
C  C366  1  0.00570000  0.65740000  0.42800000  1.0 0.5217203388
C  C367  1  0.07390000  0.62760000  0.44550000  1.0 -0.0720760543
C  C368  1  0.12680000  0.54950000  0.47460000  1.0 -0.0373664412
C  C369  1  0.96840000  0.58360000  0.45080000  1.0 0.2564527332
C  C370  1  0.17840000  0.53670000  0.49350000  1.0 0.0222014813
C  C371  1  0.04860000  0.52380000  0.49050000  1.0 -0.1275013683
C  C372  1  0.11830000  0.50090000  0.49960000  1.0 -0.209468103
C  C373  1  0.11340000  0.59560000  0.46120000  1.0 0.0222014813
C  C374  1  0.04420000  0.57130000  0.46980000  1.0 0.010632851
C  C375  1  0.18760000  0.57750000  0.46760000  1.0 -0.0985506738
C  C376  1  0.03210000  0.85950000  0.32250000  1.0 0.5656710008
C  C377  1  0.17930000  0.78310000  0.37350000  1.0 0.5872986654
C  C378  1  0.04920000  0.87990000  0.25490000  1.0 -0.082120271
C  C379  1  0.00590000  0.85570000  0.28290000  1.0 -0.0335452443
C  C380  1  0.01520000  0.53160000  0.33430000  1.0 0.422264809
C  C381  1  0.81390000  0.50350000  0.12590000  1.0 0.1417777779
C  C382  1  0.01670000  0.52410000  0.26730000  1.0 0.0222014813
C  C383  1  0.02610000  0.87480000  0.22100000  1.0 -0.1910688787
C  C384  1  0.00220000  0.61800000  0.92820000  1.0 0.5656710008
C  C385  1  0.51160000  0.67720000  0.21120000  1.0 -0.0373664412
C  C386  1  0.09020000  0.55010000  0.26680000  1.0 -0.0720760543
C  C387  1  0.94320000  0.82680000  0.27400000  1.0 -0.082120271
C  C388  1  0.96120000  0.84730000  0.21210000  1.0 0.2511705199
C  C389  1  0.53130000  0.65780000  0.27350000  1.0 -0.1910688787
C  C390  1  0.12490000  0.56680000  0.30160000  1.0 0.422264809
C  C391  1  0.67410000  0.75000000  0.11850000  1.0 0.5799621532
C  C392  1  0.24920000  0.75790000  0.36010000  1.0 -0.0720760543
C  C393  1  0.98270000  0.50840000  0.23370000  1.0 0.0386869362
C  C394  1  0.01790000  0.51810000  0.20220000  1.0 -0.0720760543
C  C395  1  0.55230000  0.65110000  0.23840000  1.0 -0.0879080529
C  C396  1  0.06460000  0.59780000  0.94920000  1.0 -0.0879080529
C  C397  1  0.74570000  0.77540000  0.13430000  1.0 -0.0373664412
C  C398  1  0.46630000  0.68430000  0.28190000  1.0 0.2348493377
C  C399  1  0.87590000  0.46420000  0.13480000  1.0 -0.1275013683
C  C400  1  0.87430000  0.46600000  0.20180000  1.0 0.4097438792
C  C401  1  0.97890000  0.51550000  0.30030000  1.0 -0.0560556692
C  C402  1  0.91070000  0.48460000  0.23530000  1.0 -0.082120271
C  C403  1  0.74250000  0.82070000  0.15380000  1.0 -0.082120271
C  C404  1  0.18550000  0.52930000  0.37470000  1.0 0.1287503565
C  C405  1  0.98420000  0.50440000  0.16830000  1.0 0.3903856913
C  C406  1  0.87290000  0.47720000  0.26760000  1.0 -0.0879080529
C  C407  1  0.90870000  0.49280000  0.29920000  1.0 -0.082120271
C  C408  1  0.42380000  0.71170000  0.25400000  1.0 -0.1717946056
C  C409  1  0.31400000  0.50860000  0.38740000  1.0 0.0480775477
C  C410  1  0.12560000  0.55820000  0.23480000  1.0 -0.082120271
C  C411  1  0.24720000  0.71280000  0.34030000  1.0 -0.0720760543
C  C412  1  0.91800000  0.82110000  0.23980000  1.0 -0.1991158539
C  C413  1  0.12240000  0.57390000  0.36800000  1.0 -0.1717946056
C  C414  1  0.53550000  0.67150000  0.17230000  1.0 0.5799621532
C  C415  1  0.32020000  0.78210000  0.36650000  1.0 -0.0879080529
C  C416  1  0.13470000  0.62730000  0.95160000  1.0 -0.0560556692
C  C417  1  0.25760000  0.54400000  0.38410000  1.0 -0.1910688787
C  C418  1  0.38870000  0.76190000  0.35100000  1.0 -0.209468103
C  C419  1  0.30780000  0.58100000  0.02350000  1.0 -0.082120271
C  C420  1  0.38060000  0.71200000  0.32980000  1.0 0.2511705199
C  C421  1  0.87540000  0.81840000  0.16350000  1.0 0.2098368744
C  C422  1  0.44850000  0.70740000  0.22120000  1.0 -0.082120271
C  C423  1  0.81640000  0.75110000  0.12780000  1.0 -0.0985506738
C  C424  1  0.09310000  0.54170000  0.20150000  1.0 -0.082120271
C  C425  1  0.31350000  0.68830000  0.32640000  1.0 -0.209468103
C  C426  1  0.80800000  0.84550000  0.16810000  1.0 -0.1991158539
C  C427  1  0.43690000  0.57530000  0.04020000  1.0 0.0024439669
C  C428  1  0.17080000  0.47770000  0.37330000  1.0 -0.1717946056
C  C429  1  0.06110000  0.54700000  0.96690000  1.0 -0.0560556692
C  C430  1  0.22790000  0.44040000  0.38130000  1.0 0.0833614359
C  C431  1  0.88100000  0.77480000  0.14480000  1.0 -0.1910688787
C  C432  1  0.19750000  0.60340000  0.97000000  1.0 -0.260999847
C  C433  1  0.68950000  0.52670000  0.10760000  1.0 0.0885534838
C  C434  1  0.18710000  0.55440000  0.98590000  1.0 0.2360240708
C  C435  1  0.12280000  0.52600000  0.98440000  1.0 -0.2427059708
C  C436  1  0.76250000  0.59280000  0.12170000  1.0 0.1113927375
C  C437  1  0.35790000  0.65670000  0.05250000  1.0 -0.1172307346
C  C438  1  0.81940000  0.55460000  0.13470000  1.0 -0.1991158539
C  C439  1  0.74770000  0.49080000  0.11010000  1.0 -0.2195882267
C  C440  1  0.29310000  0.63250000  0.03820000  1.0 -0.1450292578
C  C441  1  0.49430000  0.65740000  0.07200000  1.0 0.5217203388
C  C442  1  0.42610000  0.62760000  0.05450000  1.0 -0.0720760543
C  C443  1  0.37320000  0.54950000  0.02540000  1.0 -0.0373664412
C  C444  1  0.53160000  0.58360000  0.04920000  1.0 0.2511705199
C  C445  1  0.32160000  0.53670000  0.00650000  1.0 0.0222014813
C  C446  1  0.45140000  0.52380000  0.00950000  1.0 -0.1275013683
C  C447  1  0.38170000  0.50090000  0.00040000  1.0 -0.209468103
C  C448  1  0.38660000  0.59560000  0.03880000  1.0 0.025441613
C  C449  1  0.45580000  0.57130000  0.03020000  1.0 0.010632851
C  C450  1  0.31240000  0.57750000  0.03240000  1.0 -0.0985506738
C  C451  1  0.53210000  0.64050000  0.67750000  1.0 0.5656710008
C  C452  1  0.67930000  0.71690000  0.62650000  1.0 0.5872986654
C  C453  1  0.54920000  0.62010000  0.74510000  1.0 -0.082120271
C  C454  1  0.50590000  0.64430000  0.71710000  1.0 -0.0335452443
C  C455  1  0.51520000  0.96840000  0.66570000  1.0 0.422264809
C  C456  1  0.31390000  0.99650000  0.87410000  1.0 0.1417777779
C  C457  1  0.51670000  0.97590000  0.73270000  1.0 0.0222014813
C  C458  1  0.52610000  0.62520000  0.77900000  1.0 -0.1910688787
C  C459  1  0.50220000  0.88200000  0.07180000  1.0 0.5656710008
C  C460  1  0.01160000  0.82280000  0.78880000  1.0 -0.0373664412
C  C461  1  0.59020000  0.94990000  0.73320000  1.0 -0.0720760543
C  C462  1  0.44320000  0.67320000  0.72600000  1.0 -0.0879080529
C  C463  1  0.46120000  0.65270000  0.78790000  1.0 0.2511705199
C  C464  1  0.03130000  0.84220000  0.72650000  1.0 -0.1910688787
C  C465  1  0.62490000  0.93320000  0.69840000  1.0 0.422264809
C  C466  1  0.17410000  0.75000000  0.88150000  1.0 0.5799621532
C  C467  1  0.74920000  0.74210000  0.63990000  1.0 -0.0720760543
C  C468  1  0.48270000  0.99160000  0.76630000  1.0 0.0386869362
C  C469  1  0.51790000  0.98190000  0.79780000  1.0 -0.0720760543
C  C470  1  0.05230000  0.84890000  0.76160000  1.0 -0.0879080529
C  C471  1  0.56460000  0.90220000  0.05080000  1.0 -0.0879080529
C  C472  1  0.24570000  0.72460000  0.86570000  1.0 -0.0373664412
C  C473  1  0.96630000  0.81570000  0.71810000  1.0 0.2348493377
C  C474  1  0.37590000  0.03580000  0.86520000  1.0 -0.1275013683
C  C475  1  0.37430000  0.03400000  0.79820000  1.0 0.4097438792
C  C476  1  0.47890000  0.98450000  0.69970000  1.0 -0.0560556692
C  C477  1  0.41070000  0.01540000  0.76470000  1.0 -0.082120271
C  C478  1  0.24250000  0.67930000  0.84620000  1.0 -0.082120271
C  C479  1  0.68550000  0.97070000  0.62530000  1.0 0.1287503565
C  C480  1  0.48420000  0.99560000  0.83170000  1.0 0.3903856913
C  C481  1  0.37290000  0.02280000  0.73240000  1.0 -0.0879080529
C  C482  1  0.40870000  0.00720000  0.70080000  1.0 -0.082120271
C  C483  1  0.92380000  0.78830000  0.74600000  1.0 -0.1717946056
C  C484  1  0.81400000  0.99140000  0.61260000  1.0 0.0480775477
C  C485  1  0.62560000  0.94180000  0.76520000  1.0 -0.082120271
C  C486  1  0.74720000  0.78720000  0.65970000  1.0 -0.0720760543
C  C487  1  0.41800000  0.67890000  0.76020000  1.0 -0.1991158539
C  C488  1  0.62240000  0.92610000  0.63200000  1.0 -0.1717946056
C  C489  1  0.03550000  0.82850000  0.82770000  1.0 0.5799621532
C  C490  1  0.82020000  0.71790000  0.63350000  1.0 -0.0879080529
C  C491  1  0.63470000  0.87270000  0.04840000  1.0 -0.0560556692
C  C492  1  0.75760000  0.95600000  0.61590000  1.0 -0.1910688787
C  C493  1  0.88870000  0.73810000  0.64900000  1.0 -0.209468103
C  C494  1  0.80780000  0.91900000  0.97650000  1.0 -0.0720760543
C  C495  1  0.88060000  0.78800000  0.67020000  1.0 0.2511705199
C  C496  1  0.37540000  0.68160000  0.83650000  1.0 0.2098368744
C  C497  1  0.94850000  0.79260000  0.77880000  1.0 -0.082120271
C  C498  1  0.31640000  0.74890000  0.87220000  1.0 -0.0985506738
C  C499  1  0.59310000  0.95830000  0.79850000  1.0 -0.082120271
C  C500  1  0.81350000  0.81170000  0.67360000  1.0 -0.1991158539
C  C501  1  0.30800000  0.65450000  0.83190000  1.0 -0.1991158539
C  C502  1  0.93690000  0.92470000  0.95980000  1.0 0.0024439669
C  C503  1  0.67080000  0.02230000  0.62670000  1.0 -0.1717946056
C  C504  1  0.56110000  0.95300000  0.03310000  1.0 -0.0560556692
C  C505  1  0.72790000  0.05960000  0.61870000  1.0 0.0833614359
C  C506  1  0.38100000  0.72520000  0.85520000  1.0 -0.1910688787
C  C507  1  0.69750000  0.89660000  0.03000000  1.0 -0.260999847
C  C508  1  0.18950000  0.97330000  0.89240000  1.0 0.0885534838
C  C509  1  0.68710000  0.94560000  0.01410000  1.0 0.2360240708
C  C510  1  0.62280000  0.97400000  0.01560000  1.0 -0.2427059708
C  C511  1  0.26250000  0.90720000  0.87830000  1.0 0.1113927375
C  C512  1  0.85790000  0.84330000  0.94750000  1.0 -0.1172307346
C  C513  1  0.31940000  0.94540000  0.86530000  1.0 -0.1991158539
C  C514  1  0.24770000  0.00920000  0.88990000  1.0 -0.2195882267
C  C515  1  0.79310000  0.86750000  0.96180000  1.0 -0.144527029
C  C516  1  0.99430000  0.84260000  0.92800000  1.0 0.5217203388
C  C517  1  0.92610000  0.87240000  0.94550000  1.0 -0.0720760543
C  C518  1  0.87320000  0.95050000  0.97460000  1.0 -0.0373664412
C  C519  1  0.03160000  0.91640000  0.95080000  1.0 0.2564527332
C  C520  1  0.82160000  0.96330000  0.99350000  1.0 0.025441613
C  C521  1  0.95140000  0.97620000  0.99050000  1.0 -0.1275013683
C  C522  1  0.88170000  0.99910000  0.99960000  1.0 -0.209468103
C  C523  1  0.88660000  0.90440000  0.96120000  1.0 0.025441613
C  C524  1  0.95580000  0.92870000  0.96980000  1.0 0.010632851
C  C525  1  0.81240000  0.92250000  0.96760000  1.0 -0.0985506738
C  C526  1  0.96790000  0.64050000  0.82250000  1.0 0.5656710008
C  C527  1  0.82070000  0.71690000  0.87350000  1.0 0.5872986654
C  C528  1  0.95080000  0.62010000  0.75490000  1.0 -0.082120271
C  C529  1  0.99410000  0.64430000  0.78290000  1.0 -0.0335452443
C  C530  1  0.98480000  0.96840000  0.83430000  1.0 0.422264809
C  C531  1  0.18610000  0.99650000  0.62590000  1.0 0.1417777779
C  C532  1  0.98330000  0.97590000  0.76730000  1.0 0.0222014813
C  C533  1  0.97390000  0.62520000  0.72100000  1.0 -0.1910688787
C  C534  1  0.99780000  0.88200000  0.42820000  1.0 0.5656710008
C  C535  1  0.48840000  0.82280000  0.71120000  1.0 -0.0373664412
C  C536  1  0.90980000  0.94990000  0.76680000  1.0 -0.0720760543
C  C537  1  0.05680000  0.67320000  0.77400000  1.0 -0.082120271
C  C538  1  0.03880000  0.65270000  0.71210000  1.0 0.2511705199
C  C539  1  0.46870000  0.84220000  0.77350000  1.0 -0.1910688787
C  C540  1  0.87510000  0.93320000  0.80160000  1.0 0.422264809
C  C541  1  0.32590000  0.75000000  0.61850000  1.0 0.5799621532
C  C542  1  0.75080000  0.74210000  0.86010000  1.0 -0.0720760543
C  C543  1  0.01730000  0.99160000  0.73370000  1.0 0.0386869362
C  C544  1  0.98210000  0.98190000  0.70220000  1.0 -0.0720760543
C  C545  1  0.44770000  0.84890000  0.73840000  1.0 -0.0879080529
C  C546  1  0.93540000  0.90220000  0.44920000  1.0 -0.0879080529
C  C547  1  0.25430000  0.72460000  0.63430000  1.0 -0.0373664412
C  C548  1  0.53370000  0.81570000  0.78190000  1.0 0.2360240708
C  C549  1  0.12410000  0.03580000  0.63480000  1.0 -0.1275013683
C  C550  1  0.12570000  0.03400000  0.70180000  1.0 0.4097438792
C  C551  1  0.02110000  0.98450000  0.80030000  1.0 -0.0560556692
C  C552  1  0.08930000  0.01540000  0.73530000  1.0 -0.082120271
C  C553  1  0.25750000  0.67930000  0.65380000  1.0 -0.082120271
C  C554  1  0.81450000  0.97070000  0.87470000  1.0 0.1287503565
C  C555  1  0.01580000  0.99560000  0.66830000  1.0 0.3903856913
C  C556  1  0.12710000  0.02280000  0.76760000  1.0 -0.0879080529
C  C557  1  0.09130000  0.00720000  0.79920000  1.0 -0.0879080529
C  C558  1  0.57620000  0.78830000  0.75400000  1.0 -0.1717946056
C  C559  1  0.68600000  0.99140000  0.88740000  1.0 0.0480775477
C  C560  1  0.87440000  0.94180000  0.73480000  1.0 -0.082120271
C  C561  1  0.75280000  0.78720000  0.84030000  1.0 -0.0720760543
C  C562  1  0.08200000  0.67890000  0.73980000  1.0 -0.1991158539
C  C563  1  0.87760000  0.92610000  0.86800000  1.0 -0.1717946056
C  C564  1  0.46450000  0.82850000  0.67230000  1.0 0.5799621532
C  C565  1  0.67980000  0.71790000  0.86650000  1.0 -0.0879080529
C  C566  1  0.86530000  0.87270000  0.45160000  1.0 -0.0560556692
C  C567  1  0.74240000  0.95600000  0.88410000  1.0 -0.1910688787
C  C568  1  0.61130000  0.73810000  0.85100000  1.0 -0.209468103
C  C569  1  0.69220000  0.91900000  0.52350000  1.0 -0.0720760543
C  C570  1  0.61940000  0.78800000  0.82980000  1.0 0.2511705199
C  C571  1  0.12460000  0.68160000  0.66350000  1.0 0.2098368744
C  C572  1  0.55150000  0.79260000  0.72120000  1.0 -0.082120271
C  C573  1  0.18360000  0.74890000  0.62780000  1.0 -0.0985506738
C  C574  1  0.90690000  0.95830000  0.70150000  1.0 -0.082120271
C  C575  1  0.68650000  0.81170000  0.82640000  1.0 -0.1991158539
C  C576  1  0.19200000  0.65450000  0.66810000  1.0 -0.1991158539
C  C577  1  0.56310000  0.92470000  0.54020000  1.0 0.0024439669
C  C578  1  0.82920000  0.02230000  0.87330000  1.0 -0.1717946056
C  C579  1  0.93890000  0.95300000  0.46690000  1.0 -0.0560556692
C  C580  1  0.77210000  0.05960000  0.88130000  1.0 0.0833614359
C  C581  1  0.11900000  0.72520000  0.64480000  1.0 -0.1910688787
C  C582  1  0.80250000  0.89660000  0.47000000  1.0 -0.260999847
C  C583  1  0.31050000  0.97330000  0.60760000  1.0 0.0885534838
C  C584  1  0.81290000  0.94560000  0.48590000  1.0 0.2360240708
C  C585  1  0.87720000  0.97400000  0.48440000  1.0 -0.2427059708
C  C586  1  0.23750000  0.90720000  0.62170000  1.0 0.1113927375
C  C587  1  0.64210000  0.84330000  0.55250000  1.0 -0.1172307346
C  C588  1  0.18060000  0.94540000  0.63470000  1.0 -0.1991158539
C  C589  1  0.25230000  0.00920000  0.61010000  1.0 -0.2195882267
C  C590  1  0.70690000  0.86750000  0.53820000  1.0 -0.144527029
C  C591  1  0.50570000  0.84260000  0.57200000  1.0 0.5217203388
C  C592  1  0.57390000  0.87240000  0.55450000  1.0 -0.0720760543
C  C593  1  0.62680000  0.95050000  0.52540000  1.0 -0.0373664412
C  C594  1  0.46840000  0.91640000  0.54920000  1.0 0.2511705199
C  C595  1  0.67840000  0.96330000  0.50650000  1.0 0.0222014813
C  C596  1  0.54860000  0.97620000  0.50950000  1.0 -0.1275013683
C  C597  1  0.61830000  0.99910000  0.50040000  1.0 -0.209468103
C  C598  1  0.61340000  0.90440000  0.53880000  1.0 0.025441613
C  C599  1  0.54420000  0.92870000  0.53020000  1.0 0.010632851
C  C600  1  0.68760000  0.92250000  0.53240000  1.0 -0.0985506738
N  N1  1  0.41450000  0.52260000  0.66910000  1.0 -0.180526479
N  N2  1  0.58530000  0.44240000  0.83260000  1.0 -0.180526479
N  N3  1  0.19820000  0.42070000  0.61150000  1.0 -0.1991158539
N  N4  1  0.80110000  0.54700000  0.88500000  1.0 -0.2195882267
N  N5  1  0.08550000  0.52260000  0.83090000  1.0 -0.180526479
N  N6  1  0.91470000  0.44240000  0.66740000  1.0 -0.180526479
N  N7  1  0.30180000  0.42070000  0.88850000  1.0 -0.1991158539
N  N8  1  0.69890000  0.54700000  0.61500000  1.0 -0.2195882267
N  N9  1  0.58550000  0.97740000  0.16910000  1.0 -0.180526479
N  N10  1  0.41470000  0.05760000  0.33260000  1.0 -0.180526479
N  N11  1  0.80180000  0.07930000  0.11150000  1.0 -0.1991158539
N  N12  1  0.19890000  0.95300000  0.38500000  1.0 -0.2195882267
N  N13  1  0.91450000  0.97740000  0.33090000  1.0 -0.180526479
N  N14  1  0.08530000  0.05760000  0.16740000  1.0 -0.180526479
N  N15  1  0.69820000  0.07930000  0.38850000  1.0 -0.1991158539
N  N16  1  0.30110000  0.95300000  0.11500000  1.0 -0.2195882267
N  N17  1  0.58550000  0.47740000  0.33090000  1.0 -0.180526479
N  N18  1  0.41470000  0.55760000  0.16740000  1.0 -0.180526479
N  N19  1  0.80180000  0.57930000  0.38850000  1.0 -0.1991158539
N  N20  1  0.19890000  0.45300000  0.11500000  1.0 -0.2195882267
N  N21  1  0.91450000  0.47740000  0.16910000  1.0 -0.180526479
N  N22  1  0.08530000  0.55760000  0.33260000  1.0 -0.180526479
N  N23  1  0.69820000  0.57930000  0.11150000  1.0 -0.1991158539
N  N24  1  0.30110000  0.45300000  0.38500000  1.0 -0.2195882267
N  N25  1  0.41450000  0.02260000  0.83090000  1.0 -0.180526479
N  N26  1  0.58530000  0.94240000  0.66740000  1.0 -0.180526479
N  N27  1  0.19820000  0.92070000  0.88850000  1.0 -0.1991158539
N  N28  1  0.80110000  0.04700000  0.61500000  1.0 -0.2195882267
N  N29  1  0.08550000  0.02260000  0.66910000  1.0 -0.180526479
N  N30  1  0.91470000  0.94240000  0.83260000  1.0 -0.180526479
N  N31  1  0.30180000  0.92070000  0.61150000  1.0 -0.1991158539
N  N32  1  0.69890000  0.04700000  0.88500000  1.0 -0.2195882267
O  O1  1  0.68580000  0.16800000  0.88700000  1.0 -0.5534899344
O  O2  1  0.58160000  0.10720000  0.83045000  1.0 -0.5008363983
O  O3  1  0.49760000  0.33160000  0.42280000  1.0 -0.5268937608
O  O4  1  0.18120000  0.29900000  0.60760000  1.0 -0.5419125369
O  O5  1  0.45290000  0.41510000  0.41810000  1.0 -0.5101480338
O  O6  1  0.31120000  0.55490000  0.69980000  1.0 -0.4404325558
O  O7  1  0.68690000  0.40960000  0.80250000  1.0 -0.4520663878
O  O8  1  0.61820000  0.24140000  0.87090000  1.0 -0.5101480338
O  O9  1  0.48620000  0.47850000  0.86510000  1.0 -0.5101480338
O  O10  1  0.03090000  0.37930000  0.57980000  1.0 -0.2195882267
O  O11  1  0.94890000  0.31130000  0.81980000  1.0 -0.2195882267
O  O12  1  0.51150000  0.48540000  0.63820000  1.0 -0.4596619828
O  O13  1  0.08670000  0.36350000  0.66510000  1.0 -0.5197566709
O  O14  1  0.11570000  0.22390000  0.62000000  1.0 -0.5101480338
O  O15  1  0.98490000  0.28470000  0.57350000  1.0 -0.6237939557
O  O16  1  0.44490000  0.15440000  0.67520000  1.0 -0.2294518995
O  O17  1  0.49790000  0.16960000  0.84450000  1.0 -0.5419125369
O  O18  1  0.00400000  0.30180000  0.64740000  1.0 -0.5534899344
O  O19  1  0.74330000  0.45940000  0.51560000  1.0 0.0386869362
O  O20  1  0.74790000  0.49030000  0.49340000  1.0 -0.082120271
O  O21  1  0.08920000  0.43720000  0.54000000  1.0 -0.4053654035
O  O22  1  0.04390000  0.37140000  0.57580000  1.0 -0.2294518995
O  O23  1  0.81420000  0.16800000  0.61300000  1.0 -0.5534899344
O  O24  1  0.91840000  0.10720000  0.66955000  1.0 -0.5008363983
O  O25  1  0.00240000  0.33160000  0.07720000  1.0 -0.5268937608
O  O26  1  0.31880000  0.29900000  0.89240000  1.0 -0.5419125369
O  O27  1  0.04710000  0.41510000  0.08190000  1.0 -0.5101480338
O  O28  1  0.18880000  0.55490000  0.80020000  1.0 -0.4404325558
O  O29  1  0.81310000  0.40960000  0.69750000  1.0 -0.4520663878
O  O30  1  0.88180000  0.24140000  0.62910000  1.0 -0.5197566709
O  O31  1  0.01380000  0.47850000  0.63490000  1.0 -0.5101480338
O  O32  1  0.46910000  0.37930000  0.92020000  1.0 -0.2195882267
O  O33  1  0.55110000  0.31130000  0.68020000  1.0 -0.2195882267
O  O34  1  0.98850000  0.48540000  0.86180000  1.0 -0.4596619828
O  O35  1  0.41330000  0.36350000  0.83490000  1.0 -0.5197566709
O  O36  1  0.38430000  0.22390000  0.88000000  1.0 -0.5101480338
O  O37  1  0.51510000  0.28470000  0.92650000  1.0 -0.6237939557
O  O38  1  0.05510000  0.15440000  0.82480000  1.0 -0.2294518995
O  O39  1  0.00210000  0.16960000  0.65550000  1.0 -0.5419125369
O  O40  1  0.49600000  0.30180000  0.85260000  1.0 -0.5534899344
O  O41  1  0.75670000  0.45940000  0.98440000  1.0 0.0386869362
O  O42  1  0.75210000  0.49030000  0.00660000  1.0 -0.082120271
O  O43  1  0.41080000  0.43720000  0.96000000  1.0 -0.404475685
O  O44  1  0.45610000  0.37140000  0.92420000  1.0 -0.2195882267
O  O45  1  0.31420000  0.33200000  0.38700000  1.0 -0.5534899344
O  O46  1  0.41840000  0.39280000  0.33045000  1.0 -0.5008363983
O  O47  1  0.50240000  0.16840000  0.92280000  1.0 -0.5268937608
O  O48  1  0.81880000  0.20100000  0.10760000  1.0 -0.5419125369
O  O49  1  0.54710000  0.08490000  0.91810000  1.0 -0.5101480338
O  O50  1  0.68880000  0.94510000  0.19980000  1.0 -0.4404325558
O  O51  1  0.31310000  0.09040000  0.30250000  1.0 -0.4520663878
O  O52  1  0.38180000  0.25860000  0.37090000  1.0 -0.5197566709
O  O53  1  0.51380000  0.02150000  0.36510000  1.0 -0.5101480338
O  O54  1  0.96910000  0.12070000  0.07980000  1.0 -0.209468103
O  O55  1  0.05110000  0.18870000  0.31980000  1.0 -0.2195882267
O  O56  1  0.48850000  0.01460000  0.13820000  1.0 -0.4596619828
O  O57  1  0.91330000  0.13650000  0.16510000  1.0 -0.5268937608
O  O58  1  0.88430000  0.27610000  0.12000000  1.0 -0.5101480338
O  O59  1  0.01510000  0.21530000  0.07350000  1.0 -0.6237939557
O  O60  1  0.55510000  0.34560000  0.17520000  1.0 -0.2294518995
O  O61  1  0.50210000  0.33040000  0.34450000  1.0 -0.5419125369
O  O62  1  0.99600000  0.19820000  0.14740000  1.0 -0.5534899344
O  O63  1  0.25670000  0.04060000  0.01560000  1.0 0.0386869362
O  O64  1  0.25210000  0.00970000  0.99340000  1.0 -0.082120271
O  O65  1  0.91080000  0.06280000  0.04000000  1.0 -0.4053654035
O  O66  1  0.95610000  0.12860000  0.07580000  1.0 -0.2195882267
O  O67  1  0.18580000  0.33200000  0.11300000  1.0 -0.5534899344
O  O68  1  0.08160000  0.39280000  0.16955000  1.0 -0.5008363983
O  O69  1  0.99760000  0.16840000  0.57720000  1.0 -0.5268937608
O  O70  1  0.68120000  0.20100000  0.39240000  1.0 -0.5419125369
O  O71  1  0.95290000  0.08490000  0.58190000  1.0 -0.5101480338
O  O72  1  0.81120000  0.94510000  0.30020000  1.0 -0.4404325558
O  O73  1  0.18690000  0.09040000  0.19750000  1.0 -0.4520663878
O  O74  1  0.11820000  0.25860000  0.12910000  1.0 -0.5101480338
O  O75  1  0.98620000  0.02150000  0.13490000  1.0 -0.5101480338
O  O76  1  0.53090000  0.12070000  0.42020000  1.0 -0.209468103
O  O77  1  0.44890000  0.18870000  0.18020000  1.0 -0.2195882267
O  O78  1  0.01150000  0.01460000  0.36180000  1.0 -0.4596619828
O  O79  1  0.58670000  0.13650000  0.33490000  1.0 -0.5268937608
O  O80  1  0.61570000  0.27610000  0.38000000  1.0 -0.5101480338
O  O81  1  0.48490000  0.21530000  0.42650000  1.0 -0.6237939557
O  O82  1  0.94490000  0.34560000  0.32480000  1.0 -0.2294518995
O  O83  1  0.99790000  0.33040000  0.15550000  1.0 -0.5419125369
O  O84  1  0.50400000  0.19820000  0.35260000  1.0 -0.5534899344
O  O85  1  0.24330000  0.04060000  0.48440000  1.0 0.0386869362
O  O86  1  0.24790000  0.00970000  0.50660000  1.0 -0.082120271
O  O87  1  0.58920000  0.06280000  0.46000000  1.0 -0.404475685
O  O88  1  0.54390000  0.12860000  0.42420000  1.0 -0.2195882267
O  O89  1  0.31420000  0.83200000  0.11300000  1.0 -0.5534899344
O  O90  1  0.41840000  0.89280000  0.16955000  1.0 -0.5008363983
O  O91  1  0.50240000  0.66840000  0.57720000  1.0 -0.5268937608
O  O92  1  0.81880000  0.70100000  0.39240000  1.0 -0.5419125369
O  O93  1  0.54710000  0.58490000  0.58190000  1.0 -0.5101480338
O  O94  1  0.68880000  0.44510000  0.30020000  1.0 -0.4404325558
O  O95  1  0.31310000  0.59040000  0.19750000  1.0 -0.4520663878
O  O96  1  0.38180000  0.75860000  0.12910000  1.0 -0.5197566709
O  O97  1  0.51380000  0.52150000  0.13490000  1.0 -0.5101480338
O  O98  1  0.96910000  0.62070000  0.42020000  1.0 -0.2195882267
O  O99  1  0.05110000  0.68870000  0.18020000  1.0 -0.2195882267
O  O100  1  0.48850000  0.51460000  0.36180000  1.0 -0.4596619828
O  O101  1  0.91330000  0.63650000  0.33490000  1.0 -0.5268937608
O  O102  1  0.88430000  0.77610000  0.38000000  1.0 -0.5101480338
O  O103  1  0.01510000  0.71530000  0.42650000  1.0 -0.6237939557
O  O104  1  0.55510000  0.84560000  0.32480000  1.0 -0.2294518995
O  O105  1  0.50210000  0.83040000  0.15550000  1.0 -0.5419125369
O  O106  1  0.99600000  0.69820000  0.35260000  1.0 -0.5534899344
O  O107  1  0.25670000  0.54060000  0.48440000  1.0 0.0386869362
O  O108  1  0.25210000  0.50970000  0.50660000  1.0 -0.082120271
O  O109  1  0.91080000  0.56280000  0.46000000  1.0 -0.4053654035
O  O110  1  0.95610000  0.62860000  0.42420000  1.0 -0.2294518995
O  O111  1  0.18580000  0.83200000  0.38700000  1.0 -0.5534899344
O  O112  1  0.08160000  0.89280000  0.33045000  1.0 -0.5008363983
O  O113  1  0.99760000  0.66840000  0.92280000  1.0 -0.5268937608
O  O114  1  0.68120000  0.70100000  0.10760000  1.0 -0.5419125369
O  O115  1  0.95290000  0.58490000  0.91810000  1.0 -0.5101480338
O  O116  1  0.81120000  0.44510000  0.19980000  1.0 -0.4404325558
O  O117  1  0.18690000  0.59040000  0.30250000  1.0 -0.4520663878
O  O118  1  0.11820000  0.75860000  0.37090000  1.0 -0.5101480338
O  O119  1  0.98620000  0.52150000  0.36510000  1.0 -0.5101480338
O  O120  1  0.53090000  0.62070000  0.07980000  1.0 -0.2195882267
O  O121  1  0.44890000  0.68870000  0.31980000  1.0 -0.2195882267
O  O122  1  0.01150000  0.51460000  0.13820000  1.0 -0.4596619828
O  O123  1  0.58670000  0.63650000  0.16510000  1.0 -0.5268937608
O  O124  1  0.61570000  0.77610000  0.12000000  1.0 -0.5101480338
O  O125  1  0.48490000  0.71530000  0.07350000  1.0 -0.6237939557
O  O126  1  0.94490000  0.84560000  0.17520000  1.0 -0.2294518995
O  O127  1  0.99790000  0.83040000  0.34450000  1.0 -0.5419125369
O  O128  1  0.50400000  0.69820000  0.14740000  1.0 -0.5534899344
O  O129  1  0.24330000  0.54060000  0.01560000  1.0 0.0386869362
O  O130  1  0.24790000  0.50970000  0.99340000  1.0 -0.082120271
O  O131  1  0.58920000  0.56280000  0.04000000  1.0 -0.404475685
O  O132  1  0.54390000  0.62860000  0.07580000  1.0 -0.2294518995
O  O133  1  0.68580000  0.66800000  0.61300000  1.0 -0.5534899344
O  O134  1  0.58160000  0.60720000  0.66955000  1.0 -0.5008363983
O  O135  1  0.49760000  0.83160000  0.07720000  1.0 -0.5268937608
O  O136  1  0.18120000  0.79900000  0.89240000  1.0 -0.5419125369
O  O137  1  0.45290000  0.91510000  0.08190000  1.0 -0.5101480338
O  O138  1  0.31120000  0.05490000  0.80020000  1.0 -0.4404325558
O  O139  1  0.68690000  0.90960000  0.69750000  1.0 -0.4520663878
O  O140  1  0.61820000  0.74140000  0.62910000  1.0 -0.5101480338
O  O141  1  0.48620000  0.97850000  0.63490000  1.0 -0.5101480338
O  O142  1  0.03090000  0.87930000  0.92020000  1.0 -0.2195882267
O  O143  1  0.94890000  0.81130000  0.68020000  1.0 -0.2195882267
O  O144  1  0.51150000  0.98540000  0.86180000  1.0 -0.4596619828
O  O145  1  0.08670000  0.86350000  0.83490000  1.0 -0.5197566709
O  O146  1  0.11570000  0.72390000  0.88000000  1.0 -0.5101480338
O  O147  1  0.98490000  0.78470000  0.92650000  1.0 -0.6237939557
O  O148  1  0.44490000  0.65440000  0.82480000  1.0 -0.2294518995
O  O149  1  0.49790000  0.66960000  0.65550000  1.0 -0.5419125369
O  O150  1  0.00400000  0.80180000  0.85260000  1.0 -0.5534899344
O  O151  1  0.74330000  0.95940000  0.98440000  1.0 0.0386869362
O  O152  1  0.74790000  0.99030000  0.00660000  1.0 -0.082120271
O  O153  1  0.08920000  0.93720000  0.96000000  1.0 -0.4053654035
O  O154  1  0.04390000  0.87140000  0.92420000  1.0 -0.2294518995
O  O155  1  0.81420000  0.66800000  0.88700000  1.0 -0.5534899344
O  O156  1  0.91840000  0.60720000  0.83045000  1.0 -0.5008363983
O  O157  1  0.00240000  0.83160000  0.42280000  1.0 -0.5268937608
O  O158  1  0.31880000  0.79900000  0.60760000  1.0 -0.5419125369
O  O159  1  0.04710000  0.91510000  0.41810000  1.0 -0.5101480338
O  O160  1  0.18880000  0.05490000  0.69980000  1.0 -0.4404325558
O  O161  1  0.81310000  0.90960000  0.80250000  1.0 -0.4520663878
O  O162  1  0.88180000  0.74140000  0.87090000  1.0 -0.5197566709
O  O163  1  0.01380000  0.97850000  0.86510000  1.0 -0.5101480338
O  O164  1  0.46910000  0.87930000  0.57980000  1.0 -0.2195882267
O  O165  1  0.55110000  0.81130000  0.81980000  1.0 -0.2195882267
O  O166  1  0.98850000  0.98540000  0.63820000  1.0 -0.4596619828
O  O167  1  0.41330000  0.86350000  0.66510000  1.0 -0.5197566709
O  O168  1  0.38430000  0.72390000  0.62000000  1.0 -0.5101480338
O  O169  1  0.51510000  0.78470000  0.57350000  1.0 -0.6237939557
O  O170  1  0.05510000  0.65440000  0.67520000  1.0 -0.2294518995
O  O171  1  0.00210000  0.66960000  0.84450000  1.0 -0.5419125369
O  O172  1  0.49600000  0.80180000  0.64740000  1.0 -0.5534899344
O  O173  1  0.75670000  0.95940000  0.51560000  1.0 0.0386869362
O  O174  1  0.75210000  0.99030000  0.49340000  1.0 -0.082120271
O  O175  1  0.41080000  0.93720000  0.54000000  1.0 -0.4053654035
O  O176  1  0.45610000  0.87140000  0.57580000  1.0 -0.2195882267
