# DDEC6 charges by PACMAN v1.1 (https://github.com/mtap-research/PACMAN-charge/)
data_VIWZOT_ASR_pacman
_symmetry_space_group_name_H-M   'P 1'
_cell_length_a   28.10800000
_cell_length_b   28.10800000
_cell_length_c   25.91600000
_cell_angle_alpha   90.00000000
_cell_angle_beta   90.00000000
_cell_angle_gamma   90.00000000
_symmetry_Int_Tables_number   1
_chemical_formula_structural   Zn12Cu12H24C82N32O43
_chemical_formula_sum   'Zn24 Cu24 H48 C164 N64 O86'
_cell_volume   20475.18625222
_cell_formula_units_Z   2
loop_
 _symmetry_equiv_pos_site_id
 _symmetry_equiv_pos_as_xyz
  1  'x, y, z'
loop_
 _atom_site_type_symbol
 _atom_site_label
 _atom_site_symmetry_multiplicity
 _atom_site_fract_x
 _atom_site_fract_y
 _atom_site_fract_z
 _atom_site_occupancy
 _atom_site_charge
Zn  Zn1  1  0.44393000  0.80910000  0.50000000  1.0 0.9499106759
Zn  Zn2  1  0.55607000  0.19090000  0.50000000  1.0 0.9499106759
Zn  Zn3  1  0.80910000  0.55607000  0.00000000  1.0 0.9499106759
Zn  Zn4  1  0.19090000  0.44393000  0.00000000  1.0 0.9499106759
Zn  Zn5  1  0.44393000  0.19090000  0.50000000  1.0 0.9499106759
Zn  Zn6  1  0.55607000  0.80910000  0.50000000  1.0 0.9499106759
Zn  Zn7  1  0.80910000  0.44393000  0.00000000  1.0 0.9499106759
Zn  Zn8  1  0.19090000  0.55607000  0.00000000  1.0 0.9499106759
Zn  Zn9  1  0.05619000  0.00000000  0.29339000  1.0 0.9552003274
Zn  Zn10  1  0.94381000  0.00000000  0.29339000  1.0 0.9552003274
Zn  Zn11  1  0.00000000  0.94381000  0.79339000  1.0 0.9552003274
Zn  Zn12  1  0.00000000  0.05619000  0.79339000  1.0 0.9552003274
Zn  Zn13  1  0.05619000  0.00000000  0.70661000  1.0 0.9552003274
Zn  Zn14  1  0.94381000  0.00000000  0.70661000  1.0 0.9552003274
Zn  Zn15  1  0.00000000  0.05619000  0.20661000  1.0 0.9552003274
Zn  Zn16  1  0.00000000  0.94381000  0.20661000  1.0 0.9552003274
Zn  Zn17  1  0.50000000  0.72975000  0.43859000  1.0 0.9499106759
Zn  Zn18  1  0.50000000  0.27025000  0.43859000  1.0 0.9499106759
Zn  Zn19  1  0.72975000  0.50000000  0.93859000  1.0 0.9499106759
Zn  Zn20  1  0.27025000  0.50000000  0.93859000  1.0 0.9499106759
Zn  Zn21  1  0.50000000  0.27025000  0.56141000  1.0 0.9499106759
Zn  Zn22  1  0.50000000  0.72975000  0.56141000  1.0 0.9499106759
Zn  Zn23  1  0.72975000  0.50000000  0.06141000  1.0 0.9499106759
Zn  Zn24  1  0.27025000  0.50000000  0.06141000  1.0 0.9499106759
Cu  Cu1  1  0.24855000  0.80761000  0.29604000  1.0 0.5343335608
Cu  Cu2  1  0.75145000  0.19239000  0.29604000  1.0 0.537719925
Cu  Cu3  1  0.80761000  0.75145000  0.79604000  1.0 0.537719925
Cu  Cu4  1  0.19239000  0.24855000  0.79604000  1.0 0.537719925
Cu  Cu5  1  0.24855000  0.19239000  0.70396000  1.0 0.537719925
Cu  Cu6  1  0.75145000  0.80761000  0.70396000  1.0 0.537719925
Cu  Cu7  1  0.80761000  0.24855000  0.20396000  1.0 0.537719925
Cu  Cu8  1  0.19239000  0.75145000  0.20396000  1.0 0.5343335608
Cu  Cu9  1  0.75145000  0.19239000  0.70396000  1.0 0.537719925
Cu  Cu10  1  0.24855000  0.80761000  0.70396000  1.0 0.5343335608
Cu  Cu11  1  0.19239000  0.24855000  0.20396000  1.0 0.5343335608
Cu  Cu12  1  0.80761000  0.75145000  0.20396000  1.0 0.537719925
Cu  Cu13  1  0.75145000  0.80761000  0.29604000  1.0 0.537719925
Cu  Cu14  1  0.24855000  0.19239000  0.29604000  1.0 0.537719925
Cu  Cu15  1  0.19239000  0.75145000  0.79604000  1.0 0.5343335608
Cu  Cu16  1  0.80761000  0.24855000  0.79604000  1.0 0.537719925
Cu  Cu17  1  0.29207000  0.70793000  0.25000000  1.0 0.5185663978
Cu  Cu18  1  0.70793000  0.29207000  0.25000000  1.0 0.5185663978
Cu  Cu19  1  0.70793000  0.70793000  0.75000000  1.0 0.5185663978
Cu  Cu20  1  0.29207000  0.29207000  0.75000000  1.0 0.5185663978
Cu  Cu21  1  0.70793000  0.29207000  0.75000000  1.0 0.5185663978
Cu  Cu22  1  0.29207000  0.70793000  0.75000000  1.0 0.5185663978
Cu  Cu23  1  0.29207000  0.29207000  0.25000000  1.0 0.5185663978
Cu  Cu24  1  0.70793000  0.70793000  0.25000000  1.0 0.5185663978
H  H1  1  0.32730000  0.82240000  0.38380000  1.0 0.1201813704
H  H2  1  0.38220000  0.70440000  0.32570000  1.0 0.1143589102
H  H3  1  0.17390000  0.89340000  0.30490000  1.0 0.1201813704
H  H4  1  0.67270000  0.17760000  0.38380000  1.0 0.1201813704
H  H5  1  0.61780000  0.29560000  0.32570000  1.0 0.1143589102
H  H6  1  0.82610000  0.10660000  0.30490000  1.0 0.1201813704
H  H7  1  0.82240000  0.67270000  0.88380000  1.0 0.1201813704
H  H8  1  0.70440000  0.61780000  0.82570000  1.0 0.1143589102
H  H9  1  0.89340000  0.82610000  0.80490000  1.0 0.1201813704
H  H10  1  0.17760000  0.32730000  0.88380000  1.0 0.1201813704
H  H11  1  0.29560000  0.38220000  0.82570000  1.0 0.1143589102
H  H12  1  0.10660000  0.17390000  0.80490000  1.0 0.1201813704
H  H13  1  0.32730000  0.17760000  0.61620000  1.0 0.1201813704
H  H14  1  0.38220000  0.29560000  0.67430000  1.0 0.1143589102
H  H15  1  0.17390000  0.10660000  0.69510000  1.0 0.1201813704
H  H16  1  0.67270000  0.82240000  0.61620000  1.0 0.1201813704
H  H17  1  0.61780000  0.70440000  0.67430000  1.0 0.1143589102
H  H18  1  0.82610000  0.89340000  0.69510000  1.0 0.1201813704
H  H19  1  0.82240000  0.32730000  0.11620000  1.0 0.1201813704
H  H20  1  0.70440000  0.38220000  0.17430000  1.0 0.1143589102
H  H21  1  0.89340000  0.17390000  0.19510000  1.0 0.1201813704
H  H22  1  0.17760000  0.67270000  0.11620000  1.0 0.1201813704
H  H23  1  0.29560000  0.61780000  0.17430000  1.0 0.1143589102
H  H24  1  0.10660000  0.82610000  0.19510000  1.0 0.1201813704
H  H25  1  0.67270000  0.17760000  0.61620000  1.0 0.1201813704
H  H26  1  0.61780000  0.29560000  0.67430000  1.0 0.1143589102
H  H27  1  0.82610000  0.10660000  0.69510000  1.0 0.1201813704
H  H28  1  0.32730000  0.82240000  0.61620000  1.0 0.1201813704
H  H29  1  0.38220000  0.70440000  0.67430000  1.0 0.1143589102
H  H30  1  0.17390000  0.89340000  0.69510000  1.0 0.1201813704
H  H31  1  0.17760000  0.32730000  0.11620000  1.0 0.1201813704
H  H32  1  0.29560000  0.38220000  0.17430000  1.0 0.1143589102
H  H33  1  0.10660000  0.17390000  0.19510000  1.0 0.1201813704
H  H34  1  0.82240000  0.67270000  0.11620000  1.0 0.1201813704
H  H35  1  0.70440000  0.61780000  0.17430000  1.0 0.1143589102
H  H36  1  0.89340000  0.82610000  0.19510000  1.0 0.1201813704
H  H37  1  0.67270000  0.82240000  0.38380000  1.0 0.1201813704
H  H38  1  0.61780000  0.70440000  0.32570000  1.0 0.1143589102
H  H39  1  0.82610000  0.89340000  0.30490000  1.0 0.1201813704
H  H40  1  0.32730000  0.17760000  0.38380000  1.0 0.1201813704
H  H41  1  0.38220000  0.29560000  0.32570000  1.0 0.1143589102
H  H42  1  0.17390000  0.10660000  0.30490000  1.0 0.1201813704
H  H43  1  0.17760000  0.67270000  0.88380000  1.0 0.1201813704
H  H44  1  0.29560000  0.61780000  0.82570000  1.0 0.1143589102
H  H45  1  0.10660000  0.82610000  0.80490000  1.0 0.1201813704
H  H46  1  0.82240000  0.32730000  0.88380000  1.0 0.1201813704
H  H47  1  0.70440000  0.38220000  0.82570000  1.0 0.1143589102
H  H48  1  0.89340000  0.17390000  0.80490000  1.0 0.1201813704
C  C1  1  0.33220000  0.79540000  0.36370000  1.0 0.0324815026
C  C2  1  0.40730000  0.76620000  0.40670000  1.0 0.6088069153
C  C3  1  0.36280000  0.73080000  0.33110000  1.0 0.0324815026
C  C4  1  0.37010000  0.76370000  0.36940000  1.0 -0.1798511989
C  C5  1  0.16580000  0.87100000  0.27990000  1.0 -0.023060376
C  C6  1  0.66780000  0.20460000  0.36370000  1.0 0.0324815026
C  C7  1  0.59270000  0.23380000  0.40670000  1.0 0.6088069153
C  C8  1  0.63720000  0.26920000  0.33110000  1.0 0.0324815026
C  C9  1  0.62990000  0.23630000  0.36940000  1.0 -0.1798511989
C  C10  1  0.83420000  0.12900000  0.27990000  1.0 -0.023060376
C  C11  1  0.79540000  0.66780000  0.86370000  1.0 0.0324815026
C  C12  1  0.76620000  0.59270000  0.90670000  1.0 0.6088069153
C  C13  1  0.73080000  0.63720000  0.83110000  1.0 0.0324815026
C  C14  1  0.76370000  0.62990000  0.86940000  1.0 -0.1798511989
C  C15  1  0.87100000  0.83420000  0.77990000  1.0 -0.023060376
C  C16  1  0.20460000  0.33220000  0.86370000  1.0 0.0324815026
C  C17  1  0.23380000  0.40730000  0.90670000  1.0 0.6088069153
C  C18  1  0.26920000  0.36280000  0.83110000  1.0 0.0324815026
C  C19  1  0.23630000  0.37010000  0.86940000  1.0 -0.1798511989
C  C20  1  0.12900000  0.16580000  0.77990000  1.0 -0.023060376
C  C21  1  0.33220000  0.20460000  0.63630000  1.0 0.0324815026
C  C22  1  0.40730000  0.23380000  0.59330000  1.0 0.6088069153
C  C23  1  0.36280000  0.26920000  0.66890000  1.0 0.0324815026
C  C24  1  0.37010000  0.23630000  0.63060000  1.0 -0.1798511989
C  C25  1  0.16580000  0.12900000  0.72010000  1.0 -0.023060376
C  C26  1  0.66780000  0.79540000  0.63630000  1.0 0.0324815026
C  C27  1  0.59270000  0.76620000  0.59330000  1.0 0.6088069153
C  C28  1  0.63720000  0.73080000  0.66890000  1.0 0.0324815026
C  C29  1  0.62990000  0.76370000  0.63060000  1.0 -0.1798511989
C  C30  1  0.83420000  0.87100000  0.72010000  1.0 -0.023060376
C  C31  1  0.79540000  0.33220000  0.13630000  1.0 0.0324815026
C  C32  1  0.76620000  0.40730000  0.09330000  1.0 0.6088069153
C  C33  1  0.73080000  0.36280000  0.16890000  1.0 0.0324815026
C  C34  1  0.76370000  0.37010000  0.13060000  1.0 -0.1798511989
C  C35  1  0.87100000  0.16580000  0.22010000  1.0 -0.023060376
C  C36  1  0.20460000  0.66780000  0.13630000  1.0 0.0324815026
C  C37  1  0.23380000  0.59270000  0.09330000  1.0 0.6088069153
C  C38  1  0.26920000  0.63720000  0.16890000  1.0 0.0324815026
C  C39  1  0.23630000  0.62990000  0.13060000  1.0 -0.1798511989
C  C40  1  0.12900000  0.83420000  0.22010000  1.0 -0.023060376
C  C41  1  0.66780000  0.20460000  0.63630000  1.0 0.0324815026
C  C42  1  0.59270000  0.23380000  0.59330000  1.0 0.6088069153
C  C43  1  0.63720000  0.26920000  0.66890000  1.0 0.0324815026
C  C44  1  0.62990000  0.23630000  0.63060000  1.0 -0.1798511989
C  C45  1  0.83420000  0.12900000  0.72010000  1.0 -0.023060376
C  C46  1  0.33220000  0.79540000  0.63630000  1.0 0.0324815026
C  C47  1  0.40730000  0.76620000  0.59330000  1.0 0.6088069153
C  C48  1  0.36280000  0.73080000  0.66890000  1.0 0.0324815026
C  C49  1  0.37010000  0.76370000  0.63060000  1.0 -0.1798511989
C  C50  1  0.16580000  0.87100000  0.72010000  1.0 -0.023060376
C  C51  1  0.20460000  0.33220000  0.13630000  1.0 0.0324815026
C  C52  1  0.23380000  0.40730000  0.09330000  1.0 0.6088069153
C  C53  1  0.26920000  0.36280000  0.16890000  1.0 0.0324815026
C  C54  1  0.23630000  0.37010000  0.13060000  1.0 -0.1798511989
C  C55  1  0.12900000  0.16580000  0.22010000  1.0 -0.023060376
C  C56  1  0.79540000  0.66780000  0.13630000  1.0 0.0324815026
C  C57  1  0.76620000  0.59270000  0.09330000  1.0 0.6088069153
C  C58  1  0.73080000  0.63720000  0.16890000  1.0 0.0324815026
C  C59  1  0.76370000  0.62990000  0.13060000  1.0 -0.1798511989
C  C60  1  0.87100000  0.83420000  0.22010000  1.0 -0.023060376
C  C61  1  0.66780000  0.79540000  0.36370000  1.0 0.0324815026
C  C62  1  0.59270000  0.76620000  0.40670000  1.0 0.6088069153
C  C63  1  0.63720000  0.73080000  0.33110000  1.0 0.0324815026
C  C64  1  0.62990000  0.76370000  0.36940000  1.0 -0.1798511989
C  C65  1  0.83420000  0.87100000  0.27990000  1.0 -0.023060376
C  C66  1  0.33220000  0.20460000  0.36370000  1.0 0.0324815026
C  C67  1  0.40730000  0.23380000  0.40670000  1.0 0.6088069153
C  C68  1  0.36280000  0.26920000  0.33110000  1.0 0.0324815026
C  C69  1  0.37010000  0.23630000  0.36940000  1.0 -0.1798511989
C  C70  1  0.16580000  0.12900000  0.27990000  1.0 -0.023060376
C  C71  1  0.20460000  0.66780000  0.86370000  1.0 0.0324815026
C  C72  1  0.23380000  0.59270000  0.90670000  1.0 0.6088069153
C  C73  1  0.26920000  0.63720000  0.83110000  1.0 0.0324815026
C  C74  1  0.23630000  0.62990000  0.86940000  1.0 -0.1798511989
C  C75  1  0.12900000  0.83420000  0.77990000  1.0 -0.023060376
C  C76  1  0.79540000  0.33220000  0.86370000  1.0 0.0324815026
C  C77  1  0.76620000  0.40730000  0.90670000  1.0 0.6088069153
C  C78  1  0.73080000  0.36280000  0.83110000  1.0 0.0324815026
C  C79  1  0.76370000  0.37010000  0.86940000  1.0 -0.1798511989
C  C80  1  0.87100000  0.16580000  0.77990000  1.0 -0.023060376
C  C81  1  0.54210000  0.97510000  0.50000000  1.0 0.1026044486
C  C82  1  0.45790000  0.02490000  0.50000000  1.0 0.1026044486
C  C83  1  0.97510000  0.45790000  0.00000000  1.0 0.1026044486
C  C84  1  0.02490000  0.54210000  0.00000000  1.0 0.1026044486
C  C85  1  0.54210000  0.02490000  0.50000000  1.0 0.1026044486
C  C86  1  0.45790000  0.97510000  0.50000000  1.0 0.1026044486
C  C87  1  0.97510000  0.54210000  0.00000000  1.0 0.1026044486
C  C88  1  0.02490000  0.45790000  0.00000000  1.0 0.1026044486
C  C89  1  0.04540000  0.00000000  0.47300000  1.0 0.1026044486
C  C90  1  0.95460000  0.00000000  0.47300000  1.0 0.1026044486
C  C91  1  0.00000000  0.95460000  0.97300000  1.0 0.1026044486
C  C92  1  0.00000000  0.04540000  0.97300000  1.0 0.1026044486
C  C93  1  0.04540000  0.00000000  0.52700000  1.0 0.1026044486
C  C94  1  0.95460000  0.00000000  0.52700000  1.0 0.1026044486
C  C95  1  0.00000000  0.04540000  0.02700000  1.0 0.1026044486
C  C96  1  0.00000000  0.95460000  0.02700000  1.0 0.1026044486
C  C97  1  0.50000000  0.52320000  0.43340000  1.0 -0.0481751842
C  C98  1  0.50000000  0.57130000  0.43150000  1.0 0.0470848498
C  C99  1  0.50000000  0.56350000  0.46350000  1.0 0.0441736931
C  C100  1  0.50000000  0.47680000  0.43340000  1.0 -0.0481751842
C  C101  1  0.50000000  0.42870000  0.43150000  1.0 0.0470848498
C  C102  1  0.50000000  0.43650000  0.46350000  1.0 0.0441736931
C  C103  1  0.52320000  0.50000000  0.93340000  1.0 -0.0481751842
C  C104  1  0.57130000  0.50000000  0.93150000  1.0 0.0470848498
C  C105  1  0.56350000  0.50000000  0.96350000  1.0 0.0441736931
C  C106  1  0.47680000  0.50000000  0.93340000  1.0 -0.0481751842
C  C107  1  0.42870000  0.50000000  0.93150000  1.0 0.0470848498
C  C108  1  0.43650000  0.50000000  0.96350000  1.0 0.0441736931
C  C109  1  0.50000000  0.47680000  0.56660000  1.0 -0.0481751842
C  C110  1  0.50000000  0.42870000  0.56850000  1.0 0.0470848498
C  C111  1  0.50000000  0.43650000  0.53650000  1.0 0.0441736931
C  C112  1  0.50000000  0.52320000  0.56660000  1.0 -0.0481751842
C  C113  1  0.50000000  0.57130000  0.56850000  1.0 0.0470848498
C  C114  1  0.50000000  0.56350000  0.53650000  1.0 0.0441736931
C  C115  1  0.52320000  0.50000000  0.06660000  1.0 -0.0481751842
C  C116  1  0.57130000  0.50000000  0.06850000  1.0 0.0470848498
C  C117  1  0.56350000  0.50000000  0.03650000  1.0 0.0441736931
C  C118  1  0.47680000  0.50000000  0.06660000  1.0 -0.0481751842
C  C119  1  0.42870000  0.50000000  0.06850000  1.0 0.0470848498
C  C120  1  0.43650000  0.50000000  0.03650000  1.0 0.0441736931
C  C121  1  0.08850000  0.91150000  0.25000000  1.0 0.6088069153
C  C122  1  0.12650000  0.87350000  0.25000000  1.0 -0.1196327006
C  C123  1  0.91150000  0.08850000  0.25000000  1.0 0.6088069153
C  C124  1  0.87350000  0.12650000  0.25000000  1.0 -0.1196327006
C  C125  1  0.91150000  0.91150000  0.75000000  1.0 0.6088069153
C  C126  1  0.87350000  0.87350000  0.75000000  1.0 -0.1196327006
C  C127  1  0.08850000  0.08850000  0.75000000  1.0 0.6088069153
C  C128  1  0.12650000  0.12650000  0.75000000  1.0 -0.1196327006
C  C129  1  0.91150000  0.08850000  0.75000000  1.0 0.6088069153
C  C130  1  0.87350000  0.12650000  0.75000000  1.0 -0.1196327006
C  C131  1  0.08850000  0.91150000  0.75000000  1.0 0.6088069153
C  C132  1  0.12650000  0.87350000  0.75000000  1.0 -0.1196327006
C  C133  1  0.08850000  0.08850000  0.25000000  1.0 0.6088069153
C  C134  1  0.12650000  0.12650000  0.25000000  1.0 -0.1196327006
C  C135  1  0.91150000  0.91150000  0.25000000  1.0 0.6088069153
C  C136  1  0.87350000  0.87350000  0.25000000  1.0 -0.1196327006
C  C137  1  0.50000000  0.95090000  0.50000000  1.0 -0.1910901272
C  C138  1  0.50000000  0.89760000  0.50000000  1.0 0.6088069153
C  C139  1  0.50000000  0.58900000  0.50000000  1.0 -0.0295237118
C  C140  1  0.50000000  0.64460000  0.50000000  1.0 0.5742360631
C  C141  1  0.50000000  0.04910000  0.50000000  1.0 -0.1910901272
C  C142  1  0.50000000  0.10240000  0.50000000  1.0 0.6088069153
C  C143  1  0.50000000  0.41100000  0.50000000  1.0 -0.0295237118
C  C144  1  0.50000000  0.35540000  0.50000000  1.0 0.5742360631
C  C145  1  0.95090000  0.50000000  0.00000000  1.0 -0.1910901272
C  C146  1  0.89760000  0.50000000  0.00000000  1.0 0.5988563279
C  C147  1  0.58900000  0.50000000  0.00000000  1.0 -0.0295237118
C  C148  1  0.64460000  0.50000000  0.00000000  1.0 0.5742360631
C  C149  1  0.04910000  0.50000000  0.00000000  1.0 -0.1910901272
C  C150  1  0.10240000  0.50000000  0.00000000  1.0 0.5988563279
C  C151  1  0.41100000  0.50000000  0.00000000  1.0 -0.0295237118
C  C152  1  0.35540000  0.50000000  0.00000000  1.0 0.5742360631
C  C153  1  0.00000000  0.00000000  0.38750000  1.0 0.5988563279
C  C154  1  0.00000000  0.00000000  0.44610000  1.0 -0.1910901272
C  C155  1  0.00000000  0.00000000  0.88750000  1.0 0.5988563279
C  C156  1  0.00000000  0.00000000  0.94610000  1.0 -0.1910901272
C  C157  1  0.00000000  0.00000000  0.61250000  1.0 0.5988563279
C  C158  1  0.00000000  0.00000000  0.55390000  1.0 -0.1910901272
C  C159  1  0.00000000  0.00000000  0.11250000  1.0 0.5988563279
C  C160  1  0.00000000  0.00000000  0.05390000  1.0 -0.1910901272
C  C161  1  0.50000000  0.50000000  0.47250000  1.0 0.0470848498
C  C162  1  0.50000000  0.50000000  0.97250000  1.0 0.0470848498
C  C163  1  0.50000000  0.50000000  0.52750000  1.0 0.0470848498
C  C164  1  0.50000000  0.50000000  0.02750000  1.0 0.0470848498
N  N1  1  0.19140000  0.83190000  0.26890000  1.0 -0.159641972
N  N2  1  0.30440000  0.78130000  0.32540000  1.0 -0.1709759181
N  N3  1  0.32500000  0.74090000  0.30290000  1.0 -0.1798511989
N  N4  1  0.80860000  0.16810000  0.26890000  1.0 -0.159641972
N  N5  1  0.69560000  0.21870000  0.32540000  1.0 -0.1709759181
N  N6  1  0.67500000  0.25910000  0.30290000  1.0 -0.1798511989
N  N7  1  0.83190000  0.80860000  0.76890000  1.0 -0.159641972
N  N8  1  0.78130000  0.69560000  0.82540000  1.0 -0.1709759181
N  N9  1  0.74090000  0.67500000  0.80290000  1.0 -0.1798511989
N  N10  1  0.16810000  0.19140000  0.76890000  1.0 -0.159641972
N  N11  1  0.21870000  0.30440000  0.82540000  1.0 -0.1709759181
N  N12  1  0.25910000  0.32500000  0.80290000  1.0 -0.1798511989
N  N13  1  0.19140000  0.16810000  0.73110000  1.0 -0.159641972
N  N14  1  0.30440000  0.21870000  0.67460000  1.0 -0.1709759181
N  N15  1  0.32500000  0.25910000  0.69710000  1.0 -0.1798511989
N  N16  1  0.80860000  0.83190000  0.73110000  1.0 -0.159641972
N  N17  1  0.69560000  0.78130000  0.67460000  1.0 -0.1709759181
N  N18  1  0.67500000  0.74090000  0.69710000  1.0 -0.1798511989
N  N19  1  0.83190000  0.19140000  0.23110000  1.0 -0.159641972
N  N20  1  0.78130000  0.30440000  0.17460000  1.0 -0.1709759181
N  N21  1  0.74090000  0.32500000  0.19710000  1.0 -0.1798511989
N  N22  1  0.16810000  0.80860000  0.23110000  1.0 -0.159641972
N  N23  1  0.21870000  0.69560000  0.17460000  1.0 -0.1709759181
N  N24  1  0.25910000  0.67500000  0.19710000  1.0 -0.1798511989
N  N25  1  0.80860000  0.16810000  0.73110000  1.0 -0.159641972
N  N26  1  0.69560000  0.21870000  0.67460000  1.0 -0.1709759181
N  N27  1  0.67500000  0.25910000  0.69710000  1.0 -0.1798511989
N  N28  1  0.19140000  0.83190000  0.73110000  1.0 -0.159641972
N  N29  1  0.30440000  0.78130000  0.67460000  1.0 -0.1709759181
N  N30  1  0.32500000  0.74090000  0.69710000  1.0 -0.1798511989
N  N31  1  0.16810000  0.19140000  0.23110000  1.0 -0.159641972
N  N32  1  0.21870000  0.30440000  0.17460000  1.0 -0.1709759181
N  N33  1  0.25910000  0.32500000  0.19710000  1.0 -0.1798511989
N  N34  1  0.83190000  0.80860000  0.23110000  1.0 -0.159641972
N  N35  1  0.78130000  0.69560000  0.17460000  1.0 -0.1709759181
N  N36  1  0.74090000  0.67500000  0.19710000  1.0 -0.1798511989
N  N37  1  0.80860000  0.83190000  0.26890000  1.0 -0.159641972
N  N38  1  0.69560000  0.78130000  0.32540000  1.0 -0.1709759181
N  N39  1  0.67500000  0.74090000  0.30290000  1.0 -0.1798511989
N  N40  1  0.19140000  0.16810000  0.26890000  1.0 -0.159641972
N  N41  1  0.30440000  0.21870000  0.32540000  1.0 -0.1709759181
N  N42  1  0.32500000  0.25910000  0.30290000  1.0 -0.1798511989
N  N43  1  0.16810000  0.80860000  0.76890000  1.0 -0.159641972
N  N44  1  0.21870000  0.69560000  0.82540000  1.0 -0.1709759181
N  N45  1  0.25910000  0.67500000  0.80290000  1.0 -0.1798511989
N  N46  1  0.83190000  0.19140000  0.76890000  1.0 -0.159641972
N  N47  1  0.78130000  0.30440000  0.82540000  1.0 -0.1709759181
N  N48  1  0.74090000  0.32500000  0.80290000  1.0 -0.1798511989
N  N49  1  0.59100000  0.95670000  0.50000000  1.0 -0.0913536755
N  N50  1  0.40900000  0.04330000  0.50000000  1.0 -0.0913536755
N  N51  1  0.95670000  0.40900000  0.00000000  1.0 -0.0913536755
N  N52  1  0.04330000  0.59100000  0.00000000  1.0 -0.0913536755
N  N53  1  0.59100000  0.04330000  0.50000000  1.0 -0.0913536755
N  N54  1  0.40900000  0.95670000  0.50000000  1.0 -0.0913536755
N  N55  1  0.95670000  0.59100000  0.00000000  1.0 -0.0913536755
N  N56  1  0.04330000  0.40900000  0.00000000  1.0 -0.0913536755
N  N57  1  0.09680000  0.00000000  0.45700000  1.0 -0.1798511989
N  N58  1  0.90320000  0.00000000  0.45700000  1.0 -0.1798511989
N  N59  1  0.00000000  0.90320000  0.95700000  1.0 -0.1798511989
N  N60  1  0.00000000  0.09680000  0.95700000  1.0 -0.1798511989
N  N61  1  0.09680000  0.00000000  0.54300000  1.0 -0.1798511989
N  N62  1  0.90320000  0.00000000  0.54300000  1.0 -0.1798511989
N  N63  1  0.00000000  0.09680000  0.04300000  1.0 -0.1798511989
N  N64  1  0.00000000  0.90320000  0.04300000  1.0 -0.1910901272
O  O1  1  0.09450000  0.94390000  0.28250000  1.0 -0.542958731
O  O2  1  0.40640000  0.79930000  0.43920000  1.0 -0.5306014662
O  O3  1  0.44030000  0.73480000  0.40370000  1.0 -0.542958731
O  O4  1  0.90550000  0.05610000  0.28250000  1.0 -0.542958731
O  O5  1  0.59360000  0.20070000  0.43920000  1.0 -0.5306014662
O  O6  1  0.55970000  0.26520000  0.40370000  1.0 -0.542958731
O  O7  1  0.94390000  0.90550000  0.78250000  1.0 -0.542958731
O  O8  1  0.79930000  0.59360000  0.93920000  1.0 -0.5306014662
O  O9  1  0.73480000  0.55970000  0.90370000  1.0 -0.542958731
O  O10  1  0.05610000  0.09450000  0.78250000  1.0 -0.542958731
O  O11  1  0.20070000  0.40640000  0.93920000  1.0 -0.5306014662
O  O12  1  0.26520000  0.44030000  0.90370000  1.0 -0.542958731
O  O13  1  0.09450000  0.05610000  0.71750000  1.0 -0.542958731
O  O14  1  0.40640000  0.20070000  0.56080000  1.0 -0.5306014662
O  O15  1  0.44030000  0.26520000  0.59630000  1.0 -0.542958731
O  O16  1  0.90550000  0.94390000  0.71750000  1.0 -0.542958731
O  O17  1  0.59360000  0.79930000  0.56080000  1.0 -0.5306014662
O  O18  1  0.55970000  0.73480000  0.59630000  1.0 -0.542958731
O  O19  1  0.94390000  0.09450000  0.21750000  1.0 -0.542958731
O  O20  1  0.79930000  0.40640000  0.06080000  1.0 -0.5306014662
O  O21  1  0.73480000  0.44030000  0.09630000  1.0 -0.542958731
O  O22  1  0.05610000  0.90550000  0.21750000  1.0 -0.542958731
O  O23  1  0.20070000  0.59360000  0.06080000  1.0 -0.5306014662
O  O24  1  0.26520000  0.55970000  0.09630000  1.0 -0.542958731
O  O25  1  0.90550000  0.05610000  0.71750000  1.0 -0.542958731
O  O26  1  0.59360000  0.20070000  0.56080000  1.0 -0.5306014662
O  O27  1  0.55970000  0.26520000  0.59630000  1.0 -0.542958731
O  O28  1  0.09450000  0.94390000  0.71750000  1.0 -0.542958731
O  O29  1  0.40640000  0.79930000  0.56080000  1.0 -0.5306014662
O  O30  1  0.44030000  0.73480000  0.59630000  1.0 -0.542958731
O  O31  1  0.05610000  0.09450000  0.21750000  1.0 -0.542958731
O  O32  1  0.20070000  0.40640000  0.06080000  1.0 -0.5306014662
O  O33  1  0.26520000  0.44030000  0.09630000  1.0 -0.542958731
O  O34  1  0.94390000  0.90550000  0.21750000  1.0 -0.542958731
O  O35  1  0.79930000  0.59360000  0.06080000  1.0 -0.5306014662
O  O36  1  0.73480000  0.55970000  0.09630000  1.0 -0.542958731
O  O37  1  0.90550000  0.94390000  0.28250000  1.0 -0.542958731
O  O38  1  0.59360000  0.79930000  0.43920000  1.0 -0.5306014662
O  O39  1  0.55970000  0.73480000  0.40370000  1.0 -0.542958731
O  O40  1  0.09450000  0.05610000  0.28250000  1.0 -0.542958731
O  O41  1  0.40640000  0.20070000  0.43920000  1.0 -0.5306014662
O  O42  1  0.44030000  0.26520000  0.40370000  1.0 -0.542958731
O  O43  1  0.05610000  0.90550000  0.78250000  1.0 -0.542958731
O  O44  1  0.20070000  0.59360000  0.93920000  1.0 -0.5306014662
O  O45  1  0.26520000  0.55970000  0.90370000  1.0 -0.542958731
O  O46  1  0.94390000  0.09450000  0.78250000  1.0 -0.542958731
O  O47  1  0.79930000  0.40640000  0.93920000  1.0 -0.5306014662
O  O48  1  0.73480000  0.44030000  0.90370000  1.0 -0.542958731
O  O49  1  0.46100000  0.87740000  0.50000000  1.0 -0.4957553615
O  O50  1  0.53900000  0.12260000  0.50000000  1.0 -0.4957553615
O  O51  1  0.87740000  0.53900000  0.00000000  1.0 -0.4957553615
O  O52  1  0.12260000  0.46100000  0.00000000  1.0 -0.4957553615
O  O53  1  0.46100000  0.12260000  0.50000000  1.0 -0.4957553615
O  O54  1  0.53900000  0.87740000  0.50000000  1.0 -0.4957553615
O  O55  1  0.87740000  0.46100000  0.00000000  1.0 -0.4957553615
O  O56  1  0.12260000  0.53900000  0.00000000  1.0 -0.4957553615
O  O57  1  0.03970000  0.00000000  0.36630000  1.0 -0.5170313215
O  O58  1  0.96030000  0.00000000  0.36630000  1.0 -0.5170313215
O  O59  1  0.00000000  0.96030000  0.86630000  1.0 -0.5170313215
O  O60  1  0.00000000  0.03970000  0.86630000  1.0 -0.5170313215
O  O61  1  0.03970000  0.00000000  0.63370000  1.0 -0.5170313215
O  O62  1  0.96030000  0.00000000  0.63370000  1.0 -0.5170313215
O  O63  1  0.00000000  0.03970000  0.13370000  1.0 -0.5170313215
O  O64  1  0.00000000  0.96030000  0.13370000  1.0 -0.5170313215
O  O65  1  0.50000000  0.66040000  0.45770000  1.0 -0.4103423303
O  O66  1  0.50000000  0.33960000  0.45770000  1.0 -0.4103423303
O  O67  1  0.66040000  0.50000000  0.95770000  1.0 -0.4103423303
O  O68  1  0.33960000  0.50000000  0.95770000  1.0 -0.4103423303
O  O69  1  0.50000000  0.33960000  0.54230000  1.0 -0.4103423303
O  O70  1  0.50000000  0.66040000  0.54230000  1.0 -0.4103423303
O  O71  1  0.66040000  0.50000000  0.04230000  1.0 -0.4103423303
O  O72  1  0.33960000  0.50000000  0.04230000  1.0 -0.4103423303
O  O73  1  0.24440000  0.75560000  0.25000000  1.0 -0.8105049153
O  O74  1  0.75560000  0.24440000  0.25000000  1.0 -0.8105049153
O  O75  1  0.75560000  0.75560000  0.75000000  1.0 -0.8105049153
O  O76  1  0.24440000  0.24440000  0.75000000  1.0 -0.8105049153
O  O77  1  0.75560000  0.24440000  0.75000000  1.0 -0.8105049153
O  O78  1  0.24440000  0.75560000  0.75000000  1.0 -0.8105049153
O  O79  1  0.24440000  0.24440000  0.25000000  1.0 -0.8105049153
O  O80  1  0.75560000  0.75560000  0.25000000  1.0 -0.8105049153
O  O81  1  0.00000000  0.00000000  0.25000000  1.0 -1.0589931031
O  O82  1  0.00000000  0.00000000  0.75000000  1.0 -1.0589931031
O  O83  1  0.50000000  0.76860000  0.50000000  1.0 -1.0334447642
O  O84  1  0.50000000  0.23140000  0.50000000  1.0 -1.0334447642
O  O85  1  0.76860000  0.50000000  0.00000000  1.0 -1.0334447642
O  O86  1  0.23140000  0.50000000  0.00000000  1.0 -1.0334447642
