# DDEC6 charges by PACMAN v1.1 (https://github.com/mtap-research/PACMAN-charge/)
data_VIWZUZ_ASR_pacman
_symmetry_space_group_name_H-M   'P 1'
_cell_length_a   28.12300000
_cell_length_b   28.12300000
_cell_length_c   25.89220000
_cell_angle_alpha   90.00000000
_cell_angle_beta   90.00000000
_cell_angle_gamma   90.00000000
_symmetry_Int_Tables_number   1
_chemical_formula_structural   Zn12Cu12H24C122N24O43
_chemical_formula_sum   'Zn24 Cu24 H48 C244 N48 O86'
_cell_volume   20478.22199669
_cell_formula_units_Z   2
loop_
 _symmetry_equiv_pos_site_id
 _symmetry_equiv_pos_as_xyz
  1  'x, y, z'
loop_
 _atom_site_type_symbol
 _atom_site_label
 _atom_site_symmetry_multiplicity
 _atom_site_fract_x
 _atom_site_fract_y
 _atom_site_fract_z
 _atom_site_occupancy
 _atom_site_charge
Zn  Zn1  1  0.80898000  0.44364000  0.50000000  1.0 0.9296193241
Zn  Zn2  1  0.19102000  0.55636000  0.50000000  1.0 0.9296193241
Zn  Zn3  1  0.44364000  0.19102000  0.00000000  1.0 0.9296193241
Zn  Zn4  1  0.55636000  0.80898000  0.00000000  1.0 0.9296193241
Zn  Zn5  1  0.80898000  0.55636000  0.50000000  1.0 0.9296193241
Zn  Zn6  1  0.19102000  0.44364000  0.50000000  1.0 0.9296193241
Zn  Zn7  1  0.44364000  0.80898000  0.00000000  1.0 0.9296193241
Zn  Zn8  1  0.55636000  0.19102000  0.00000000  1.0 0.9296193241
Zn  Zn9  1  0.00000000  0.05615000  0.29316000  1.0 0.9455057202
Zn  Zn10  1  0.00000000  0.94385000  0.29316000  1.0 0.9455057202
Zn  Zn11  1  0.05615000  0.00000000  0.79316000  1.0 0.9455057202
Zn  Zn12  1  0.94385000  0.00000000  0.79316000  1.0 0.9455057202
Zn  Zn13  1  0.00000000  0.94385000  0.70684000  1.0 0.9455057202
Zn  Zn14  1  0.00000000  0.05615000  0.70684000  1.0 0.9455057202
Zn  Zn15  1  0.05615000  0.00000000  0.20684000  1.0 0.9455057202
Zn  Zn16  1  0.94385000  0.00000000  0.20684000  1.0 0.9455057202
Zn  Zn17  1  0.72983000  0.50000000  0.43856000  1.0 0.9223691939
Zn  Zn18  1  0.27017000  0.50000000  0.43856000  1.0 0.9223691939
Zn  Zn19  1  0.50000000  0.27017000  0.93856000  1.0 0.9223691939
Zn  Zn20  1  0.50000000  0.72983000  0.93856000  1.0 0.9223691939
Zn  Zn21  1  0.72983000  0.50000000  0.56144000  1.0 0.9223691939
Zn  Zn22  1  0.27017000  0.50000000  0.56144000  1.0 0.9223691939
Zn  Zn23  1  0.50000000  0.72983000  0.06144000  1.0 0.9223691939
Zn  Zn24  1  0.50000000  0.27017000  0.06144000  1.0 0.9223691939
Cu  Cu1  1  0.80813000  0.24951000  0.29541000  1.0 0.5179743102
Cu  Cu2  1  0.19187000  0.75049000  0.29541000  1.0 0.5179743102
Cu  Cu3  1  0.24951000  0.19187000  0.79541000  1.0 0.5179743102
Cu  Cu4  1  0.75049000  0.80813000  0.79541000  1.0 0.5179743102
Cu  Cu5  1  0.80813000  0.75049000  0.70459000  1.0 0.5179743102
Cu  Cu6  1  0.19187000  0.24951000  0.70459000  1.0 0.5179743102
Cu  Cu7  1  0.24951000  0.80813000  0.20459000  1.0 0.5179743102
Cu  Cu8  1  0.75049000  0.19187000  0.20459000  1.0 0.5179743102
Cu  Cu9  1  0.19187000  0.75049000  0.70459000  1.0 0.5179743102
Cu  Cu10  1  0.80813000  0.24951000  0.70459000  1.0 0.5179743102
Cu  Cu11  1  0.75049000  0.80813000  0.20459000  1.0 0.5179743102
Cu  Cu12  1  0.24951000  0.19187000  0.20459000  1.0 0.5179743102
Cu  Cu13  1  0.19187000  0.24951000  0.29541000  1.0 0.5179743102
Cu  Cu14  1  0.80813000  0.75049000  0.29541000  1.0 0.5179743102
Cu  Cu15  1  0.75049000  0.19187000  0.79541000  1.0 0.5179743102
Cu  Cu16  1  0.24951000  0.80813000  0.79541000  1.0 0.5179743102
Cu  Cu17  1  0.70830000  0.29170000  0.25000000  1.0 0.6167092044
Cu  Cu18  1  0.29170000  0.70830000  0.25000000  1.0 0.6120207262
Cu  Cu19  1  0.29170000  0.29170000  0.75000000  1.0 0.6167092044
Cu  Cu20  1  0.70830000  0.70830000  0.75000000  1.0 0.6167092044
Cu  Cu21  1  0.29170000  0.70830000  0.75000000  1.0 0.6120207262
Cu  Cu22  1  0.70830000  0.29170000  0.75000000  1.0 0.6167092044
Cu  Cu23  1  0.70830000  0.70830000  0.25000000  1.0 0.6167092044
Cu  Cu24  1  0.29170000  0.29170000  0.25000000  1.0 0.6167092044
H  H1  1  0.82360000  0.32790000  0.38090000  1.0 0.1123112577
H  H2  1  0.70710000  0.38390000  0.32620000  1.0 0.1123112577
H  H3  1  0.89450000  0.17500000  0.30540000  1.0 0.116413769
H  H4  1  0.17640000  0.67210000  0.38090000  1.0 0.1123112577
H  H5  1  0.29290000  0.61610000  0.32620000  1.0 0.1123112577
H  H6  1  0.10550000  0.82500000  0.30540000  1.0 0.116413769
H  H7  1  0.32790000  0.17640000  0.88090000  1.0 0.1123112577
H  H8  1  0.38390000  0.29290000  0.82620000  1.0 0.1123112577
H  H9  1  0.17500000  0.10550000  0.80540000  1.0 0.116413769
H  H10  1  0.67210000  0.82360000  0.88090000  1.0 0.1123112577
H  H11  1  0.61610000  0.70710000  0.82620000  1.0 0.1123112577
H  H12  1  0.82500000  0.89450000  0.80540000  1.0 0.116413769
H  H13  1  0.82360000  0.67210000  0.61910000  1.0 0.1123112577
H  H14  1  0.70710000  0.61610000  0.67380000  1.0 0.1123112577
H  H15  1  0.89450000  0.82500000  0.69460000  1.0 0.116413769
H  H16  1  0.17640000  0.32790000  0.61910000  1.0 0.1123112577
H  H17  1  0.29290000  0.38390000  0.67380000  1.0 0.1123112577
H  H18  1  0.10550000  0.17500000  0.69460000  1.0 0.116413769
H  H19  1  0.32790000  0.82360000  0.11910000  1.0 0.1123112577
H  H20  1  0.38390000  0.70710000  0.17380000  1.0 0.1123112577
H  H21  1  0.17500000  0.89450000  0.19460000  1.0 0.116413769
H  H22  1  0.67210000  0.17640000  0.11910000  1.0 0.1123112577
H  H23  1  0.61610000  0.29290000  0.17380000  1.0 0.1123112577
H  H24  1  0.82500000  0.10550000  0.19460000  1.0 0.116413769
H  H25  1  0.17640000  0.67210000  0.61910000  1.0 0.1123112577
H  H26  1  0.29290000  0.61610000  0.67380000  1.0 0.1123112577
H  H27  1  0.10550000  0.82500000  0.69460000  1.0 0.116413769
H  H28  1  0.82360000  0.32790000  0.61910000  1.0 0.1123112577
H  H29  1  0.70710000  0.38390000  0.67380000  1.0 0.1123112577
H  H30  1  0.89450000  0.17500000  0.69460000  1.0 0.116413769
H  H31  1  0.67210000  0.82360000  0.11910000  1.0 0.1123112577
H  H32  1  0.61610000  0.70710000  0.17380000  1.0 0.1123112577
H  H33  1  0.82500000  0.89450000  0.19460000  1.0 0.116413769
H  H34  1  0.32790000  0.17640000  0.11910000  1.0 0.1123112577
H  H35  1  0.38390000  0.29290000  0.17380000  1.0 0.1123112577
H  H36  1  0.17500000  0.10550000  0.19460000  1.0 0.116413769
H  H37  1  0.17640000  0.32790000  0.38090000  1.0 0.1123112577
H  H38  1  0.29290000  0.38390000  0.32620000  1.0 0.1123112577
H  H39  1  0.10550000  0.17500000  0.30540000  1.0 0.116413769
H  H40  1  0.82360000  0.67210000  0.38090000  1.0 0.1123112577
H  H41  1  0.70710000  0.61610000  0.32620000  1.0 0.1123112577
H  H42  1  0.89450000  0.82500000  0.30540000  1.0 0.116413769
H  H43  1  0.67210000  0.17640000  0.88090000  1.0 0.1123112577
H  H44  1  0.61610000  0.29290000  0.82620000  1.0 0.1123112577
H  H45  1  0.82500000  0.10550000  0.80540000  1.0 0.116413769
H  H46  1  0.32790000  0.82360000  0.88090000  1.0 0.1123112577
H  H47  1  0.38390000  0.70710000  0.82620000  1.0 0.1123112577
H  H48  1  0.17500000  0.89450000  0.80540000  1.0 0.116413769
C  C1  1  0.76790000  0.41020000  0.40400000  1.0 0.6120207262
C  C2  1  0.76630000  0.36680000  0.36970000  1.0 -0.1385770918
C  C3  1  0.79540000  0.33180000  0.36270000  1.0 0.0364456872
C  C4  1  0.73250000  0.36300000  0.33010000  1.0 -0.0108587607
C  C5  1  0.87160000  0.16660000  0.28110000  1.0 -0.0108587607
C  C6  1  0.97450000  0.04430000  0.46980000  1.0 0.0206420638
C  C7  1  0.97700000  0.10040000  0.45120000  1.0 -0.0309726918
C  C8  1  0.96000000  0.14600000  0.47100000  1.0 -0.0003837994
C  C9  1  0.97340000  0.53970000  0.47220000  1.0 -0.0108587607
C  C10  1  0.95490000  0.58820000  0.44700000  1.0 0.0472508675
C  C11  1  0.97330000  0.63170000  0.42200000  1.0 -0.0438768145
C  C12  1  0.23210000  0.58980000  0.40400000  1.0 0.6120207262
C  C13  1  0.23370000  0.63320000  0.36970000  1.0 -0.1385770918
C  C14  1  0.20460000  0.66820000  0.36270000  1.0 0.0364456872
C  C15  1  0.26750000  0.63700000  0.33010000  1.0 -0.0108587607
C  C16  1  0.12840000  0.83340000  0.28110000  1.0 -0.0108587607
C  C17  1  0.02550000  0.95570000  0.46980000  1.0 0.0206420638
C  C18  1  0.02300000  0.89960000  0.45120000  1.0 -0.0309726918
C  C19  1  0.04000000  0.85400000  0.47100000  1.0 -0.0003837994
C  C20  1  0.02660000  0.46030000  0.47220000  1.0 -0.0108587607
C  C21  1  0.04510000  0.41180000  0.44700000  1.0 0.0472508675
C  C22  1  0.02670000  0.36830000  0.42200000  1.0 -0.0482098413
C  C23  1  0.41020000  0.23210000  0.90400000  1.0 0.6120207262
C  C24  1  0.36680000  0.23370000  0.86970000  1.0 -0.1385770918
C  C25  1  0.33180000  0.20460000  0.86270000  1.0 0.0364456872
C  C26  1  0.36300000  0.26750000  0.83010000  1.0 -0.0108587607
C  C27  1  0.16660000  0.12840000  0.78110000  1.0 -0.0108587607
C  C28  1  0.04430000  0.02550000  0.96980000  1.0 0.0206420638
C  C29  1  0.10040000  0.02300000  0.95120000  1.0 -0.0309726918
C  C30  1  0.14600000  0.04000000  0.97100000  1.0 0.0007332001
C  C31  1  0.53970000  0.02660000  0.97220000  1.0 -0.0108587607
C  C32  1  0.58820000  0.04510000  0.94700000  1.0 0.0472508675
C  C33  1  0.63170000  0.02670000  0.92200000  1.0 -0.0438768145
C  C34  1  0.58980000  0.76790000  0.90400000  1.0 0.6120207262
C  C35  1  0.63320000  0.76630000  0.86970000  1.0 -0.1385770918
C  C36  1  0.66820000  0.79540000  0.86270000  1.0 0.0325833081
C  C37  1  0.63700000  0.73250000  0.83010000  1.0 -0.0108587607
C  C38  1  0.83340000  0.87160000  0.78110000  1.0 -0.0108587607
C  C39  1  0.95570000  0.97450000  0.96980000  1.0 0.0206420638
C  C40  1  0.89960000  0.97700000  0.95120000  1.0 -0.0309726918
C  C41  1  0.85400000  0.96000000  0.97100000  1.0 -0.0003837994
C  C42  1  0.46030000  0.97340000  0.97220000  1.0 -0.0108587607
C  C43  1  0.41180000  0.95490000  0.94700000  1.0 0.0364456872
C  C44  1  0.36830000  0.97330000  0.92200000  1.0 -0.0438768145
C  C45  1  0.76790000  0.58980000  0.59600000  1.0 0.6120207262
C  C46  1  0.76630000  0.63320000  0.63030000  1.0 -0.1385770918
C  C47  1  0.79540000  0.66820000  0.63730000  1.0 0.0364456872
C  C48  1  0.73250000  0.63700000  0.66990000  1.0 -0.0108587607
C  C49  1  0.87160000  0.83340000  0.71890000  1.0 -0.0108587607
C  C50  1  0.97450000  0.95570000  0.53020000  1.0 0.0206420638
C  C51  1  0.97700000  0.89960000  0.54880000  1.0 -0.0309726918
C  C52  1  0.96000000  0.85400000  0.52900000  1.0 -0.0003837994
C  C53  1  0.97340000  0.46030000  0.52780000  1.0 -0.0108587607
C  C54  1  0.95490000  0.41180000  0.55300000  1.0 0.0472508675
C  C55  1  0.97330000  0.36830000  0.57800000  1.0 -0.0438768145
C  C56  1  0.23210000  0.41020000  0.59600000  1.0 0.6120207262
C  C57  1  0.23370000  0.36680000  0.63030000  1.0 -0.1385770918
C  C58  1  0.20460000  0.33180000  0.63730000  1.0 0.0364456872
C  C59  1  0.26750000  0.36300000  0.66990000  1.0 -0.0108587607
C  C60  1  0.12840000  0.16660000  0.71890000  1.0 -0.0108587607
C  C61  1  0.02550000  0.04430000  0.53020000  1.0 0.0206420638
C  C62  1  0.02300000  0.10040000  0.54880000  1.0 -0.0309726918
C  C63  1  0.04000000  0.14600000  0.52900000  1.0 0.0007332001
C  C64  1  0.02660000  0.53970000  0.52780000  1.0 -0.0108587607
C  C65  1  0.04510000  0.58820000  0.55300000  1.0 0.0472508675
C  C66  1  0.02670000  0.63170000  0.57800000  1.0 -0.0482098413
C  C67  1  0.41020000  0.76790000  0.09600000  1.0 0.6120207262
C  C68  1  0.36680000  0.76630000  0.13030000  1.0 -0.1385770918
C  C69  1  0.33180000  0.79540000  0.13730000  1.0 0.0364456872
C  C70  1  0.36300000  0.73250000  0.16990000  1.0 -0.0108587607
C  C71  1  0.16660000  0.87160000  0.21890000  1.0 -0.0108587607
C  C72  1  0.04430000  0.97450000  0.03020000  1.0 0.0206420638
C  C73  1  0.10040000  0.97700000  0.04880000  1.0 -0.0309726918
C  C74  1  0.14600000  0.96000000  0.02900000  1.0 -0.0003837994
C  C75  1  0.53970000  0.97340000  0.02780000  1.0 -0.0108587607
C  C76  1  0.58820000  0.95490000  0.05300000  1.0 0.0472508675
C  C77  1  0.63170000  0.97330000  0.07800000  1.0 -0.0482098413
C  C78  1  0.58980000  0.23210000  0.09600000  1.0 0.6120207262
C  C79  1  0.63320000  0.23370000  0.13030000  1.0 -0.1385770918
C  C80  1  0.66820000  0.20460000  0.13730000  1.0 0.0364456872
C  C81  1  0.63700000  0.26750000  0.16990000  1.0 -0.0108587607
C  C82  1  0.83340000  0.12840000  0.21890000  1.0 -0.0108587607
C  C83  1  0.95570000  0.02550000  0.03020000  1.0 0.0206420638
C  C84  1  0.89960000  0.02300000  0.04880000  1.0 -0.0309726918
C  C85  1  0.85400000  0.04000000  0.02900000  1.0 -0.0003837994
C  C86  1  0.46030000  0.02660000  0.02780000  1.0 -0.0108587607
C  C87  1  0.41180000  0.04510000  0.05300000  1.0 0.0472508675
C  C88  1  0.36830000  0.02670000  0.07800000  1.0 -0.0482098413
C  C89  1  0.23210000  0.58980000  0.59600000  1.0 0.6120207262
C  C90  1  0.23370000  0.63320000  0.63030000  1.0 -0.1385770918
C  C91  1  0.20460000  0.66820000  0.63730000  1.0 0.0364456872
C  C92  1  0.26750000  0.63700000  0.66990000  1.0 -0.0108587607
C  C93  1  0.12840000  0.83340000  0.71890000  1.0 -0.0108587607
C  C94  1  0.02550000  0.95570000  0.53020000  1.0 0.0206420638
C  C95  1  0.02300000  0.89960000  0.54880000  1.0 -0.0309726918
C  C96  1  0.04000000  0.85400000  0.52900000  1.0 -0.0003837994
C  C97  1  0.02660000  0.46030000  0.52780000  1.0 -0.0108587607
C  C98  1  0.04510000  0.41180000  0.55300000  1.0 0.0472508675
C  C99  1  0.02670000  0.36830000  0.57800000  1.0 -0.0482098413
C  C100  1  0.76790000  0.41020000  0.59600000  1.0 0.6120207262
C  C101  1  0.76630000  0.36680000  0.63030000  1.0 -0.1385770918
C  C102  1  0.79540000  0.33180000  0.63730000  1.0 0.0364456872
C  C103  1  0.73250000  0.36300000  0.66990000  1.0 -0.0108587607
C  C104  1  0.87160000  0.16660000  0.71890000  1.0 -0.0108587607
C  C105  1  0.97450000  0.04430000  0.53020000  1.0 0.0206420638
C  C106  1  0.97700000  0.10040000  0.54880000  1.0 -0.0309726918
C  C107  1  0.96000000  0.14600000  0.52900000  1.0 -0.0003837994
C  C108  1  0.97340000  0.53970000  0.52780000  1.0 -0.0108587607
C  C109  1  0.95490000  0.58820000  0.55300000  1.0 0.0472508675
C  C110  1  0.97330000  0.63170000  0.57800000  1.0 -0.0438768145
C  C111  1  0.58980000  0.76790000  0.09600000  1.0 0.6120207262
C  C112  1  0.63320000  0.76630000  0.13030000  1.0 -0.1385770918
C  C113  1  0.66820000  0.79540000  0.13730000  1.0 0.0364456872
C  C114  1  0.63700000  0.73250000  0.16990000  1.0 -0.0108587607
C  C115  1  0.83340000  0.87160000  0.21890000  1.0 -0.0108587607
C  C116  1  0.95570000  0.97450000  0.03020000  1.0 0.0206420638
C  C117  1  0.89960000  0.97700000  0.04880000  1.0 -0.0309726918
C  C118  1  0.85400000  0.96000000  0.02900000  1.0 -0.0003837994
C  C119  1  0.46030000  0.97340000  0.02780000  1.0 -0.0108587607
C  C120  1  0.41180000  0.95490000  0.05300000  1.0 0.0472508675
C  C121  1  0.36830000  0.97330000  0.07800000  1.0 -0.0482098413
C  C122  1  0.41020000  0.23210000  0.09600000  1.0 0.6120207262
C  C123  1  0.36680000  0.23370000  0.13030000  1.0 -0.1385770918
C  C124  1  0.33180000  0.20460000  0.13730000  1.0 0.0364456872
C  C125  1  0.36300000  0.26750000  0.16990000  1.0 -0.0108587607
C  C126  1  0.16660000  0.12840000  0.21890000  1.0 -0.0108587607
C  C127  1  0.04430000  0.02550000  0.03020000  1.0 0.0206420638
C  C128  1  0.10040000  0.02300000  0.04880000  1.0 -0.0309726918
C  C129  1  0.14600000  0.04000000  0.02900000  1.0 -0.0003837994
C  C130  1  0.53970000  0.02660000  0.02780000  1.0 -0.0108587607
C  C131  1  0.58820000  0.04510000  0.05300000  1.0 0.0472508675
C  C132  1  0.63170000  0.02670000  0.07800000  1.0 -0.0482098413
C  C133  1  0.23210000  0.41020000  0.40400000  1.0 0.6120207262
C  C134  1  0.23370000  0.36680000  0.36970000  1.0 -0.1385770918
C  C135  1  0.20460000  0.33180000  0.36270000  1.0 0.0364456872
C  C136  1  0.26750000  0.36300000  0.33010000  1.0 -0.0108587607
C  C137  1  0.12840000  0.16660000  0.28110000  1.0 -0.0108587607
C  C138  1  0.02550000  0.04430000  0.46980000  1.0 0.0206420638
C  C139  1  0.02300000  0.10040000  0.45120000  1.0 -0.0309726918
C  C140  1  0.04000000  0.14600000  0.47100000  1.0 -0.0003837994
C  C141  1  0.02660000  0.53970000  0.47220000  1.0 -0.0108587607
C  C142  1  0.04510000  0.58820000  0.44700000  1.0 0.0472508675
C  C143  1  0.02670000  0.63170000  0.42200000  1.0 -0.0482098413
C  C144  1  0.76790000  0.58980000  0.40400000  1.0 0.6120207262
C  C145  1  0.76630000  0.63320000  0.36970000  1.0 -0.1385770918
C  C146  1  0.79540000  0.66820000  0.36270000  1.0 0.0364456872
C  C147  1  0.73250000  0.63700000  0.33010000  1.0 -0.0108587607
C  C148  1  0.87160000  0.83340000  0.28110000  1.0 -0.0108587607
C  C149  1  0.97450000  0.95570000  0.46980000  1.0 0.0206420638
C  C150  1  0.97700000  0.89960000  0.45120000  1.0 -0.0309726918
C  C151  1  0.96000000  0.85400000  0.47100000  1.0 -0.0003837994
C  C152  1  0.97340000  0.46030000  0.47220000  1.0 -0.0108587607
C  C153  1  0.95490000  0.41180000  0.44700000  1.0 0.0472508675
C  C154  1  0.97330000  0.36830000  0.42200000  1.0 -0.0438768145
C  C155  1  0.58980000  0.23210000  0.90400000  1.0 0.6120207262
C  C156  1  0.63320000  0.23370000  0.86970000  1.0 -0.1385770918
C  C157  1  0.66820000  0.20460000  0.86270000  1.0 0.0364456872
C  C158  1  0.63700000  0.26750000  0.83010000  1.0 -0.0108587607
C  C159  1  0.83340000  0.12840000  0.78110000  1.0 -0.0108587607
C  C160  1  0.95570000  0.02550000  0.96980000  1.0 0.0206420638
C  C161  1  0.89960000  0.02300000  0.95120000  1.0 -0.0309726918
C  C162  1  0.85400000  0.04000000  0.97100000  1.0 -0.0003837994
C  C163  1  0.46030000  0.02660000  0.97220000  1.0 -0.0108587607
C  C164  1  0.41180000  0.04510000  0.94700000  1.0 0.0472508675
C  C165  1  0.36830000  0.02670000  0.92200000  1.0 -0.0438768145
C  C166  1  0.41020000  0.76790000  0.90400000  1.0 0.6120207262
C  C167  1  0.36680000  0.76630000  0.86970000  1.0 -0.1385770918
C  C168  1  0.33180000  0.79540000  0.86270000  1.0 0.0325833081
C  C169  1  0.36300000  0.73250000  0.83010000  1.0 -0.0108587607
C  C170  1  0.16660000  0.87160000  0.78110000  1.0 -0.0108587607
C  C171  1  0.04430000  0.97450000  0.96980000  1.0 0.0206420638
C  C172  1  0.10040000  0.97700000  0.95120000  1.0 -0.0309726918
C  C173  1  0.14600000  0.96000000  0.97100000  1.0 0.0007332001
C  C174  1  0.53970000  0.97340000  0.97220000  1.0 -0.0108587607
C  C175  1  0.58820000  0.95490000  0.94700000  1.0 0.0364456872
C  C176  1  0.63170000  0.97330000  0.92200000  1.0 -0.0438768145
C  C177  1  0.57280000  0.50000000  0.44210000  1.0 -0.0309726918
C  C178  1  0.56190000  0.50000000  0.47050000  1.0 0.0945034915
C  C179  1  0.53070000  0.50000000  0.44780000  1.0 0.012729135
C  C180  1  0.42720000  0.50000000  0.44210000  1.0 -0.0309726918
C  C181  1  0.43810000  0.50000000  0.47050000  1.0 0.0945034915
C  C182  1  0.46930000  0.50000000  0.44780000  1.0 0.012729135
C  C183  1  0.50000000  0.42720000  0.94210000  1.0 -0.0309726918
C  C184  1  0.50000000  0.43810000  0.97050000  1.0 0.0945034915
C  C185  1  0.50000000  0.46930000  0.94780000  1.0 0.012729135
C  C186  1  0.50000000  0.57280000  0.94210000  1.0 -0.0309726918
C  C187  1  0.50000000  0.56190000  0.97050000  1.0 0.0945034915
C  C188  1  0.50000000  0.53070000  0.94780000  1.0 0.012729135
C  C189  1  0.57280000  0.50000000  0.55790000  1.0 -0.0309726918
C  C190  1  0.56190000  0.50000000  0.52950000  1.0 0.0945034915
C  C191  1  0.53070000  0.50000000  0.55220000  1.0 0.012729135
C  C192  1  0.42720000  0.50000000  0.55790000  1.0 -0.0309726918
C  C193  1  0.43810000  0.50000000  0.52950000  1.0 0.0945034915
C  C194  1  0.46930000  0.50000000  0.55220000  1.0 0.012729135
C  C195  1  0.50000000  0.57280000  0.05790000  1.0 -0.0309726918
C  C196  1  0.50000000  0.56190000  0.02950000  1.0 0.0954236506
C  C197  1  0.50000000  0.53070000  0.05220000  1.0 0.012729135
C  C198  1  0.50000000  0.42720000  0.05790000  1.0 -0.0309726918
C  C199  1  0.50000000  0.43810000  0.02950000  1.0 0.0954236506
C  C200  1  0.50000000  0.46930000  0.05220000  1.0 0.012729135
C  C201  1  0.91280000  0.08720000  0.25000000  1.0 0.59984937
C  C202  1  0.87330000  0.12670000  0.25000000  1.0 -0.1027155242
C  C203  1  0.08720000  0.91280000  0.25000000  1.0 0.59984937
C  C204  1  0.12670000  0.87330000  0.25000000  1.0 -0.1027155242
C  C205  1  0.08720000  0.08720000  0.75000000  1.0 0.59984937
C  C206  1  0.12670000  0.12670000  0.75000000  1.0 -0.1027155242
C  C207  1  0.91280000  0.91280000  0.75000000  1.0 0.59984937
C  C208  1  0.87330000  0.87330000  0.75000000  1.0 -0.1027155242
C  C209  1  0.08720000  0.91280000  0.75000000  1.0 0.59984937
C  C210  1  0.12670000  0.87330000  0.75000000  1.0 -0.1027155242
C  C211  1  0.91280000  0.08720000  0.75000000  1.0 0.59984937
C  C212  1  0.87330000  0.12670000  0.75000000  1.0 -0.1027155242
C  C213  1  0.91280000  0.91280000  0.25000000  1.0 0.59984937
C  C214  1  0.87330000  0.87330000  0.25000000  1.0 -0.1027155242
C  C215  1  0.08720000  0.08720000  0.25000000  1.0 0.59984937
C  C216  1  0.12670000  0.12670000  0.25000000  1.0 -0.1027155242
C  C217  1  0.89730000  0.50000000  0.50000000  1.0 0.5800439535
C  C218  1  0.64260000  0.50000000  0.50000000  1.0 0.5554251193
C  C219  1  0.58790000  0.50000000  0.50000000  1.0 0.0616421072
C  C220  1  0.95220000  0.50000000  0.50000000  1.0 -0.0482098413
C  C221  1  0.10270000  0.50000000  0.50000000  1.0 0.5800439535
C  C222  1  0.35740000  0.50000000  0.50000000  1.0 0.5548967837
C  C223  1  0.41210000  0.50000000  0.50000000  1.0 0.0616421072
C  C224  1  0.04780000  0.50000000  0.50000000  1.0 -0.0615516239
C  C225  1  0.50000000  0.10270000  0.00000000  1.0 0.5800439535
C  C226  1  0.50000000  0.35740000  0.00000000  1.0 0.5548967837
C  C227  1  0.50000000  0.41210000  0.00000000  1.0 0.0616421072
C  C228  1  0.50000000  0.04780000  0.00000000  1.0 -0.0482098413
C  C229  1  0.50000000  0.89730000  0.00000000  1.0 0.5800439535
C  C230  1  0.50000000  0.64260000  0.00000000  1.0 0.5548967837
C  C231  1  0.50000000  0.58790000  0.00000000  1.0 0.0616421072
C  C232  1  0.50000000  0.95220000  0.00000000  1.0 -0.0482098413
C  C233  1  0.00000000  0.00000000  0.39000000  1.0 0.5008411227
C  C234  1  0.00000000  0.00000000  0.44210000  1.0 -0.0615516239
C  C235  1  0.00000000  0.00000000  0.89000000  1.0 0.5008411227
C  C236  1  0.00000000  0.00000000  0.94210000  1.0 -0.0615516239
C  C237  1  0.00000000  0.00000000  0.61000000  1.0 0.5008411227
C  C238  1  0.00000000  0.00000000  0.55790000  1.0 -0.0615516239
C  C239  1  0.00000000  0.00000000  0.11000000  1.0 0.5008411227
C  C240  1  0.00000000  0.00000000  0.05790000  1.0 -0.0615516239
C  C241  1  0.50000000  0.50000000  0.47190000  1.0 0.0325833081
C  C242  1  0.50000000  0.50000000  0.97190000  1.0 0.0325833081
C  C243  1  0.50000000  0.50000000  0.52810000  1.0 0.0325833081
C  C244  1  0.50000000  0.50000000  0.02810000  1.0 0.0325833081
N  N1  1  0.74100000  0.32540000  0.29790000  1.0 -0.2240025786
N  N2  1  0.78060000  0.30300000  0.32760000  1.0 -0.1784261384
N  N3  1  0.83140000  0.19140000  0.27060000  1.0 -0.1858449535
N  N4  1  0.25900000  0.67460000  0.29790000  1.0 -0.2240025786
N  N5  1  0.21940000  0.69700000  0.32760000  1.0 -0.1784261384
N  N6  1  0.16860000  0.80860000  0.27060000  1.0 -0.1858449535
N  N7  1  0.32540000  0.25900000  0.79790000  1.0 -0.2240025786
N  N8  1  0.30300000  0.21940000  0.82760000  1.0 -0.1784261384
N  N9  1  0.19140000  0.16860000  0.77060000  1.0 -0.1858449535
N  N10  1  0.67460000  0.74100000  0.79790000  1.0 -0.2240025786
N  N11  1  0.69700000  0.78060000  0.82760000  1.0 -0.1784261384
N  N12  1  0.80860000  0.83140000  0.77060000  1.0 -0.1858449535
N  N13  1  0.74100000  0.67460000  0.70210000  1.0 -0.2240025786
N  N14  1  0.78060000  0.69700000  0.67240000  1.0 -0.1784261384
N  N15  1  0.83140000  0.80860000  0.72940000  1.0 -0.1858449535
N  N16  1  0.25900000  0.32540000  0.70210000  1.0 -0.2240025786
N  N17  1  0.21940000  0.30300000  0.67240000  1.0 -0.1784261384
N  N18  1  0.16860000  0.19140000  0.72940000  1.0 -0.1858449535
N  N19  1  0.32540000  0.74100000  0.20210000  1.0 -0.2240025786
N  N20  1  0.30300000  0.78060000  0.17240000  1.0 -0.1784261384
N  N21  1  0.19140000  0.83140000  0.22940000  1.0 -0.1858449535
N  N22  1  0.67460000  0.25900000  0.20210000  1.0 -0.2240025786
N  N23  1  0.69700000  0.21940000  0.17240000  1.0 -0.1784261384
N  N24  1  0.80860000  0.16860000  0.22940000  1.0 -0.1858449535
N  N25  1  0.25900000  0.67460000  0.70210000  1.0 -0.2240025786
N  N26  1  0.21940000  0.69700000  0.67240000  1.0 -0.1784261384
N  N27  1  0.16860000  0.80860000  0.72940000  1.0 -0.1858449535
N  N28  1  0.74100000  0.32540000  0.70210000  1.0 -0.2240025786
N  N29  1  0.78060000  0.30300000  0.67240000  1.0 -0.1784261384
N  N30  1  0.83140000  0.19140000  0.72940000  1.0 -0.1858449535
N  N31  1  0.67460000  0.74100000  0.20210000  1.0 -0.2240025786
N  N32  1  0.69700000  0.78060000  0.17240000  1.0 -0.1784261384
N  N33  1  0.80860000  0.83140000  0.22940000  1.0 -0.1858449535
N  N34  1  0.32540000  0.25900000  0.20210000  1.0 -0.2240025786
N  N35  1  0.30300000  0.21940000  0.17240000  1.0 -0.1784261384
N  N36  1  0.19140000  0.16860000  0.22940000  1.0 -0.1858449535
N  N37  1  0.25900000  0.32540000  0.29790000  1.0 -0.2240025786
N  N38  1  0.21940000  0.30300000  0.32760000  1.0 -0.1784261384
N  N39  1  0.16860000  0.19140000  0.27060000  1.0 -0.1858449535
N  N40  1  0.74100000  0.67460000  0.29790000  1.0 -0.2240025786
N  N41  1  0.78060000  0.69700000  0.32760000  1.0 -0.1784261384
N  N42  1  0.83140000  0.80860000  0.27060000  1.0 -0.1858449535
N  N43  1  0.67460000  0.25900000  0.79790000  1.0 -0.2240025786
N  N44  1  0.69700000  0.21940000  0.82760000  1.0 -0.1784261384
N  N45  1  0.80860000  0.16860000  0.77060000  1.0 -0.1858449535
N  N46  1  0.32540000  0.74100000  0.79790000  1.0 -0.2240025786
N  N47  1  0.30300000  0.78060000  0.82760000  1.0 -0.1784261384
N  N48  1  0.19140000  0.83140000  0.77060000  1.0 -0.1858449535
O  O1  1  0.94400000  0.09490000  0.28250000  1.0 -0.5423820087
O  O2  1  0.79890000  0.40830000  0.43790000  1.0 -0.5457369121
O  O3  1  0.73700000  0.44260000  0.40310000  1.0 -0.5423820087
O  O4  1  0.05600000  0.90510000  0.28250000  1.0 -0.5423820087
O  O5  1  0.20110000  0.59170000  0.43790000  1.0 -0.5457369121
O  O6  1  0.26300000  0.55740000  0.40310000  1.0 -0.5423820087
O  O7  1  0.09490000  0.05600000  0.78250000  1.0 -0.5423820087
O  O8  1  0.40830000  0.20110000  0.93790000  1.0 -0.5457369121
O  O9  1  0.44260000  0.26300000  0.90310000  1.0 -0.5423820087
O  O10  1  0.90510000  0.94400000  0.78250000  1.0 -0.5423820087
O  O11  1  0.59170000  0.79890000  0.93790000  1.0 -0.5457369121
O  O12  1  0.55740000  0.73700000  0.90310000  1.0 -0.5423820087
O  O13  1  0.94400000  0.90510000  0.71750000  1.0 -0.5423820087
O  O14  1  0.79890000  0.59170000  0.56210000  1.0 -0.5457369121
O  O15  1  0.73700000  0.55740000  0.59690000  1.0 -0.5423820087
O  O16  1  0.05600000  0.09490000  0.71750000  1.0 -0.5423820087
O  O17  1  0.20110000  0.40830000  0.56210000  1.0 -0.5457369121
O  O18  1  0.26300000  0.44260000  0.59690000  1.0 -0.5423820087
O  O19  1  0.09490000  0.94400000  0.21750000  1.0 -0.5423820087
O  O20  1  0.40830000  0.79890000  0.06210000  1.0 -0.5457369121
O  O21  1  0.44260000  0.73700000  0.09690000  1.0 -0.5423820087
O  O22  1  0.90510000  0.05600000  0.21750000  1.0 -0.5423820087
O  O23  1  0.59170000  0.20110000  0.06210000  1.0 -0.5457369121
O  O24  1  0.55740000  0.26300000  0.09690000  1.0 -0.5423820087
O  O25  1  0.05600000  0.90510000  0.71750000  1.0 -0.5423820087
O  O26  1  0.20110000  0.59170000  0.56210000  1.0 -0.5457369121
O  O27  1  0.26300000  0.55740000  0.59690000  1.0 -0.5423820087
O  O28  1  0.94400000  0.09490000  0.71750000  1.0 -0.5423820087
O  O29  1  0.79890000  0.40830000  0.56210000  1.0 -0.5457369121
O  O30  1  0.73700000  0.44260000  0.59690000  1.0 -0.5423820087
O  O31  1  0.90510000  0.94400000  0.21750000  1.0 -0.5423820087
O  O32  1  0.59170000  0.79890000  0.06210000  1.0 -0.5457369121
O  O33  1  0.55740000  0.73700000  0.09690000  1.0 -0.5423820087
O  O34  1  0.09490000  0.05600000  0.21750000  1.0 -0.5423820087
O  O35  1  0.40830000  0.20110000  0.06210000  1.0 -0.5457369121
O  O36  1  0.44260000  0.26300000  0.09690000  1.0 -0.5423820087
O  O37  1  0.05600000  0.09490000  0.28250000  1.0 -0.5423820087
O  O38  1  0.20110000  0.40830000  0.43790000  1.0 -0.5457369121
O  O39  1  0.26300000  0.44260000  0.40310000  1.0 -0.5423820087
O  O40  1  0.94400000  0.90510000  0.28250000  1.0 -0.5423820087
O  O41  1  0.79890000  0.59170000  0.43790000  1.0 -0.5457369121
O  O42  1  0.73700000  0.55740000  0.40310000  1.0 -0.5423820087
O  O43  1  0.90510000  0.05600000  0.78250000  1.0 -0.5423820087
O  O44  1  0.59170000  0.20110000  0.93790000  1.0 -0.5457369121
O  O45  1  0.55740000  0.26300000  0.90310000  1.0 -0.5423820087
O  O46  1  0.09490000  0.94400000  0.78250000  1.0 -0.5423820087
O  O47  1  0.40830000  0.79890000  0.93790000  1.0 -0.5457369121
O  O48  1  0.44260000  0.73700000  0.90310000  1.0 -0.5423820087
O  O49  1  0.87780000  0.46060000  0.50000000  1.0 -0.4996197851
O  O50  1  0.12220000  0.53940000  0.50000000  1.0 -0.4996197851
O  O51  1  0.46060000  0.12220000  0.00000000  1.0 -0.4996197851
O  O52  1  0.53940000  0.87780000  0.00000000  1.0 -0.4996197851
O  O53  1  0.87780000  0.53940000  0.50000000  1.0 -0.4996197851
O  O54  1  0.12220000  0.46060000  0.50000000  1.0 -0.4996197851
O  O55  1  0.46060000  0.87780000  0.00000000  1.0 -0.4996197851
O  O56  1  0.53940000  0.12220000  0.00000000  1.0 -0.4996197851
O  O57  1  0.00000000  0.04220000  0.36480000  1.0 -0.5590306775
O  O58  1  0.00000000  0.95780000  0.36480000  1.0 -0.5590306775
O  O59  1  0.04220000  0.00000000  0.86480000  1.0 -0.5590306775
O  O60  1  0.95780000  0.00000000  0.86480000  1.0 -0.5590306775
O  O61  1  0.00000000  0.95780000  0.63520000  1.0 -0.5590306775
O  O62  1  0.00000000  0.04220000  0.63520000  1.0 -0.5590306775
O  O63  1  0.04220000  0.00000000  0.13520000  1.0 -0.5590306775
O  O64  1  0.95780000  0.00000000  0.13520000  1.0 -0.5590306775
O  O65  1  0.65970000  0.50000000  0.45900000  1.0 -0.3818123632
O  O66  1  0.34030000  0.50000000  0.45900000  1.0 -0.3818123632
O  O67  1  0.50000000  0.34030000  0.95900000  1.0 -0.3818123632
O  O68  1  0.50000000  0.65970000  0.95900000  1.0 -0.3818123632
O  O69  1  0.65970000  0.50000000  0.54100000  1.0 -0.3818123632
O  O70  1  0.34030000  0.50000000  0.54100000  1.0 -0.3818123632
O  O71  1  0.50000000  0.65970000  0.04100000  1.0 -0.3818123632
O  O72  1  0.50000000  0.34030000  0.04100000  1.0 -0.3818123632
O  O73  1  0.75480000  0.24520000  0.25000000  1.0 -0.7926671536
O  O74  1  0.24520000  0.75480000  0.25000000  1.0 -0.7926671536
O  O75  1  0.24520000  0.24520000  0.75000000  1.0 -0.7926671536
O  O76  1  0.75480000  0.75480000  0.75000000  1.0 -0.7926671536
O  O77  1  0.24520000  0.75480000  0.75000000  1.0 -0.7926671536
O  O78  1  0.75480000  0.24520000  0.75000000  1.0 -0.7926671536
O  O79  1  0.75480000  0.75480000  0.25000000  1.0 -0.7926671536
O  O80  1  0.24520000  0.24520000  0.25000000  1.0 -0.7926671536
O  O81  1  0.77050000  0.50000000  0.50000000  1.0 -1.0245043518
O  O82  1  0.22950000  0.50000000  0.50000000  1.0 -1.0245043518
O  O83  1  0.50000000  0.22950000  0.00000000  1.0 -1.0245043518
O  O84  1  0.50000000  0.77050000  0.00000000  1.0 -1.0245043518
O  O85  1  0.00000000  0.00000000  0.25000000  1.0 -1.050521958
O  O86  1  0.00000000  0.00000000  0.75000000  1.0 -1.050521958
