# DDEC6 charges by PACMAN v1.1 (https://github.com/mtap-research/PACMAN-charge/)
data_VIXPUP_ASR_pacman
_symmetry_space_group_name_H-M   'P 1'
_cell_length_a   28.18000000
_cell_length_b   18.40400000
_cell_length_c   32.04400000
_cell_angle_alpha   90.00000000
_cell_angle_beta   112.17400000
_cell_angle_gamma   90.00000000
_symmetry_Int_Tables_number   1
_chemical_formula_structural   Cu2H8C18N2O11
_chemical_formula_sum   'Cu24 H96 C216 N24 O132'
_cell_volume   15389.71567759
_cell_formula_units_Z   12
loop_
 _symmetry_equiv_pos_site_id
 _symmetry_equiv_pos_as_xyz
  1  'x, y, z'
loop_
 _atom_site_type_symbol
 _atom_site_label
 _atom_site_symmetry_multiplicity
 _atom_site_fract_x
 _atom_site_fract_y
 _atom_site_fract_z
 _atom_site_occupancy
 _atom_site_charge
Cu  Cu1  1  0.71032000  0.81851000  0.00721000  1.0 0.8605883733
Cu  Cu2  1  0.28968000  0.31851000  0.49279000  1.0 0.8605883733
Cu  Cu3  1  0.28968000  0.18149000  0.99279000  1.0 0.8605883733
Cu  Cu4  1  0.71032000  0.68149000  0.50721000  1.0 0.8605883733
Cu  Cu5  1  0.28881000  0.73883000  0.47175000  1.0 0.8715895355
Cu  Cu6  1  0.71119000  0.23883000  0.02825000  1.0 0.8715895355
Cu  Cu7  1  0.71119000  0.26117000  0.52825000  1.0 0.8715895355
Cu  Cu8  1  0.28881000  0.76117000  0.97175000  1.0 0.8715895355
Cu  Cu9  1  0.21366000  0.00684000  0.69254000  1.0 0.8508822685
Cu  Cu10  1  0.78634000  0.50684000  0.80746000  1.0 0.8508822685
Cu  Cu11  1  0.78634000  0.99316000  0.30746000  1.0 0.8508822685
Cu  Cu12  1  0.21366000  0.49316000  0.19254000  1.0 0.8508822685
Cu  Cu13  1  0.20455000  0.81328000  0.46715000  1.0 0.8715895355
Cu  Cu14  1  0.79545000  0.31328000  0.03285000  1.0 0.8715895355
Cu  Cu15  1  0.79545000  0.18672000  0.53285000  1.0 0.8715895355
Cu  Cu16  1  0.20455000  0.68672000  0.96715000  1.0 0.8715895355
Cu  Cu17  1  0.79286000  0.74605000  0.01010000  1.0 0.8508822685
Cu  Cu18  1  0.20714000  0.24605000  0.48990000  1.0 0.8508822685
Cu  Cu19  1  0.20714000  0.25395000  0.98990000  1.0 0.8508822685
Cu  Cu20  1  0.79286000  0.75395000  0.51010000  1.0 0.8508822685
Cu  Cu21  1  0.29662000  0.00098000  0.76781000  1.0 0.8508822685
Cu  Cu22  1  0.70338000  0.50098000  0.73219000  1.0 0.8508822685
Cu  Cu23  1  0.70338000  0.99902000  0.23219000  1.0 0.8508822685
Cu  Cu24  1  0.29662000  0.49902000  0.26781000  1.0 0.8508822685
H  H1  1  0.38090000  0.75150000  0.61040000  1.0 0.1402681976
H  H2  1  0.61910000  0.25150000  0.88960000  1.0 0.1402681976
H  H3  1  0.61910000  0.24850000  0.38960000  1.0 0.1402681976
H  H4  1  0.38090000  0.74850000  0.11040000  1.0 0.1402681976
H  H5  1  0.26130000  0.86890000  0.60820000  1.0 0.1402681976
H  H6  1  0.73870000  0.36890000  0.89180000  1.0 0.1402681976
H  H7  1  0.73870000  0.13110000  0.39180000  1.0 0.1402681976
H  H8  1  0.26130000  0.63110000  0.10820000  1.0 0.1402681976
H  H9  1  0.38460000  0.85090000  0.72360000  1.0 0.1155647539
H  H10  1  0.61540000  0.35090000  0.77640000  1.0 0.1155647539
H  H11  1  0.61540000  0.14910000  0.27640000  1.0 0.1155647539
H  H12  1  0.38460000  0.64910000  0.22360000  1.0 0.1155647539
H  H13  1  0.61850000  0.79950000  0.86460000  1.0 0.1402681976
H  H14  1  0.38150000  0.29950000  0.63540000  1.0 0.1402681976
H  H15  1  0.38150000  0.20050000  0.13540000  1.0 0.1402681976
H  H16  1  0.61850000  0.70050000  0.36460000  1.0 0.1402681976
H  H17  1  0.73910000  0.67190000  0.87620000  1.0 0.1402681976
H  H18  1  0.26090000  0.17190000  0.62380000  1.0 0.1402681976
H  H19  1  0.26090000  0.32810000  0.12380000  1.0 0.1402681976
H  H20  1  0.73910000  0.82810000  0.37620000  1.0 0.1402681976
H  H21  1  0.61560000  0.67550000  0.75980000  1.0 0.1138550729
H  H22  1  0.38440000  0.17550000  0.74020000  1.0 0.1138550729
H  H23  1  0.38440000  0.32450000  0.24020000  1.0 0.1138550729
H  H24  1  0.61560000  0.82450000  0.25980000  1.0 0.1138550729
H  H25  1  0.88720000  0.77870000  0.14860000  1.0 0.1299655825
H  H26  1  0.11280000  0.27870000  0.35140000  1.0 0.1299655825
H  H27  1  0.11280000  0.22130000  0.85140000  1.0 0.1299655825
H  H28  1  0.88720000  0.72130000  0.64860000  1.0 0.1299655825
H  H29  1  0.75600000  0.86610000  0.14820000  1.0 0.1402681976
H  H30  1  0.24400000  0.36610000  0.35180000  1.0 0.1402681976
H  H31  1  0.24400000  0.13390000  0.85180000  1.0 0.1402681976
H  H32  1  0.75600000  0.63390000  0.64820000  1.0 0.1402681976
H  H33  1  0.88350000  0.86750000  0.26120000  1.0 0.1478810028
H  H34  1  0.11650000  0.36750000  0.23880000  1.0 0.1478810028
H  H35  1  0.11650000  0.13250000  0.73880000  1.0 0.1478810028
H  H36  1  0.88350000  0.63250000  0.76120000  1.0 0.1478810028
H  H37  1  0.12340000  0.78290000  0.32450000  1.0 0.1402681976
H  H38  1  0.87660000  0.28290000  0.17550000  1.0 0.1402681976
H  H39  1  0.87660000  0.21710000  0.67550000  1.0 0.1402681976
H  H40  1  0.12340000  0.71710000  0.82450000  1.0 0.1402681976
H  H41  1  0.24690000  0.66270000  0.33810000  1.0 0.1402681976
H  H42  1  0.75310000  0.16270000  0.16190000  1.0 0.1402681976
H  H43  1  0.75310000  0.33730000  0.66190000  1.0 0.1402681976
H  H44  1  0.24690000  0.83730000  0.83810000  1.0 0.1402681976
H  H45  1  0.12720000  0.66600000  0.22010000  1.0 0.1402681976
H  H46  1  0.87280000  0.16600000  0.27990000  1.0 0.1402681976
H  H47  1  0.87280000  0.33400000  0.77990000  1.0 0.1402681976
H  H48  1  0.12720000  0.83400000  0.72010000  1.0 0.1402681976
H  H49  1  0.61940000  0.64140000  0.02170000  1.0 0.1402681976
H  H50  1  0.38060000  0.14140000  0.47830000  1.0 0.1402681976
H  H51  1  0.38060000  0.35860000  0.97830000  1.0 0.1402681976
H  H52  1  0.61940000  0.85860000  0.52170000  1.0 0.1402681976
H  H53  1  0.74790000  0.53180000  0.03490000  1.0 0.1402681976
H  H54  1  0.25210000  0.03180000  0.46510000  1.0 0.1402681976
H  H55  1  0.25210000  0.46820000  0.96510000  1.0 0.1402681976
H  H56  1  0.74790000  0.96820000  0.53490000  1.0 0.1402681976
H  H57  1  0.62360000  0.42380000  0.03530000  1.0 0.1402681976
H  H58  1  0.37640000  0.92380000  0.46470000  1.0 0.1402681976
H  H59  1  0.37640000  0.57620000  0.96470000  1.0 0.1402681976
H  H60  1  0.62360000  0.07620000  0.53530000  1.0 0.1402681976
H  H61  1  0.88380000  0.92620000  0.99470000  1.0 0.1402681976
H  H62  1  0.11620000  0.42620000  0.50530000  1.0 0.1402681976
H  H63  1  0.11620000  0.07380000  0.00530000  1.0 0.1402681976
H  H64  1  0.88380000  0.57380000  0.49470000  1.0 0.1402681976
H  H65  1  0.76440000  0.03030000  0.00770000  1.0 0.1299655825
H  H66  1  0.23560000  0.53030000  0.49230000  1.0 0.1299655825
H  H67  1  0.23560000  0.96970000  0.99230000  1.0 0.1299655825
H  H68  1  0.76440000  0.46970000  0.50770000  1.0 0.1299655825
H  H69  1  0.88790000  0.14420000  0.01170000  1.0 0.1402681976
H  H70  1  0.11210000  0.64420000  0.48830000  1.0 0.1402681976
H  H71  1  0.11210000  0.85580000  0.98830000  1.0 0.1402681976
H  H72  1  0.88790000  0.35580000  0.51170000  1.0 0.1402681976
H  H73  1  0.44880000  0.73250000  0.68000000  1.0 0.2743792251
H  H74  1  0.55120000  0.23250000  0.82000000  1.0 0.2743792251
H  H75  1  0.55120000  0.26750000  0.32000000  1.0 0.2788993864
H  H76  1  0.44880000  0.76750000  0.18000000  1.0 0.2743792251
H  H77  1  0.54920000  0.79880000  0.79890000  1.0 0.2612254113
H  H78  1  0.45080000  0.29880000  0.70110000  1.0 0.2612254113
H  H79  1  0.45080000  0.20120000  0.20110000  1.0 0.2612254113
H  H80  1  0.54920000  0.70120000  0.29890000  1.0 0.2612254113
H  H81  1  0.95100000  0.80040000  0.26140000  1.0 0.2788993864
H  H82  1  0.04900000  0.30040000  0.23860000  1.0 0.2788993864
H  H83  1  0.04900000  0.19960000  0.73860000  1.0 0.2788993864
H  H84  1  0.95100000  0.69960000  0.76140000  1.0 0.2788993864
H  H85  1  0.05990000  0.75300000  0.21200000  1.0 0.2788993864
H  H86  1  0.94010000  0.25300000  0.28800000  1.0 0.2788993864
H  H87  1  0.94010000  0.24700000  0.78800000  1.0 0.2788993864
H  H88  1  0.05990000  0.74700000  0.71200000  1.0 0.2788993864
H  H89  1  0.55250000  0.57720000  0.03140000  1.0 0.292376077
H  H90  1  0.44750000  0.07720000  0.46860000  1.0 0.292376077
H  H91  1  0.44750000  0.42280000  0.96860000  1.0 0.292376077
H  H92  1  0.55250000  0.92280000  0.53140000  1.0 0.292376077
H  H93  1  0.95370000  0.08410000  0.99850000  1.0 0.292376077
H  H94  1  0.04630000  0.58410000  0.50150000  1.0 0.292376077
H  H95  1  0.04630000  0.91590000  0.00150000  1.0 0.2967323974
H  H96  1  0.95370000  0.41590000  0.49850000  1.0 0.292376077
C  C1  1  0.52660000  0.74910000  0.74514000  1.0 0.3691232108
C  C2  1  0.47340000  0.24910000  0.75486000  1.0 0.3691232108
C  C3  1  0.47340000  0.25090000  0.25486000  1.0 0.3691232108
C  C4  1  0.52660000  0.75090000  0.24514000  1.0 0.3691232108
C  C5  1  0.47530000  0.78910000  0.73056000  1.0 0.3691232108
C  C6  1  0.52470000  0.28910000  0.76944000  1.0 0.3691232108
C  C7  1  0.52470000  0.21090000  0.26944000  1.0 0.3691232108
C  C8  1  0.47530000  0.71090000  0.23056000  1.0 0.3691232108
C  C9  1  0.39193000  0.79610000  0.67122000  1.0 0.2202948664
C  C10  1  0.60807000  0.29610000  0.82878000  1.0 0.2202948664
C  C11  1  0.60807000  0.20390000  0.32878000  1.0 0.2202948664
C  C12  1  0.39193000  0.70390000  0.17122000  1.0 0.2202948664
C  C13  1  0.36554000  0.78060000  0.62546000  1.0 -0.1924644576
C  C14  1  0.63446000  0.28060000  0.87454000  1.0 -0.1924644576
C  C15  1  0.63446000  0.21940000  0.37454000  1.0 -0.1924644576
C  C16  1  0.36554000  0.71940000  0.12546000  1.0 -0.1924644576
C  C17  1  0.31657000  0.80820000  0.60227000  1.0 -0.0092525389
C  C18  1  0.68343000  0.30820000  0.89773000  1.0 -0.0092525389
C  C19  1  0.68343000  0.19180000  0.39773000  1.0 -0.0092525389
C  C20  1  0.31657000  0.69180000  0.10227000  1.0 -0.0092525389
C  C21  1  0.29400000  0.85060000  0.62392000  1.0 -0.1009726751
C  C22  1  0.70600000  0.35060000  0.87608000  1.0 -0.1009726751
C  C23  1  0.70600000  0.14940000  0.37608000  1.0 -0.1009726751
C  C24  1  0.29400000  0.64940000  0.12392000  1.0 -0.1009726751
C  C25  1  0.31905000  0.86720000  0.66936000  1.0 -0.0092525389
C  C26  1  0.68095000  0.36720000  0.83064000  1.0 -0.0092525389
C  C27  1  0.68095000  0.13280000  0.33064000  1.0 -0.0092525389
C  C28  1  0.31905000  0.63280000  0.16936000  1.0 -0.0092525389
C  C29  1  0.36791000  0.84000000  0.69323000  1.0 -0.1995983092
C  C30  1  0.63209000  0.34000000  0.80677000  1.0 -0.1995983092
C  C31  1  0.63209000  0.16000000  0.30677000  1.0 -0.1995983092
C  C32  1  0.36791000  0.66000000  0.19323000  1.0 -0.1995983092
C  C33  1  0.29158000  0.79340000  0.55242000  1.0 0.5783288844
C  C34  1  0.70842000  0.29340000  0.94758000  1.0 0.5783288844
C  C35  1  0.70842000  0.20660000  0.44758000  1.0 0.5783288844
C  C36  1  0.29158000  0.70660000  0.05242000  1.0 0.5783288844
C  C37  1  0.29519000  0.91780000  0.69233000  1.0 0.5783288844
C  C38  1  0.70481000  0.41780000  0.80767000  1.0 0.5783288844
C  C39  1  0.70481000  0.08220000  0.30767000  1.0 0.5783288844
C  C40  1  0.29519000  0.58220000  0.19233000  1.0 0.5783288844
C  C41  1  0.60945000  0.74140000  0.80808000  1.0 0.209961563
C  C42  1  0.39055000  0.24140000  0.69192000  1.0 0.209961563
C  C43  1  0.39055000  0.25860000  0.19192000  1.0 0.209961563
C  C44  1  0.60945000  0.75860000  0.30808000  1.0 0.209961563
C  C45  1  0.63425000  0.76610000  0.85210000  1.0 -0.1995983092
C  C46  1  0.36575000  0.26610000  0.64790000  1.0 -0.1924644576
C  C47  1  0.36575000  0.23390000  0.14790000  1.0 -0.1995983092
C  C48  1  0.63425000  0.73390000  0.35210000  1.0 -0.1924644576
C  C49  1  0.68297000  0.73980000  0.87698000  1.0 -0.0092525389
C  C50  1  0.31703000  0.23980000  0.62302000  1.0 -0.0092525389
C  C51  1  0.31703000  0.26020000  0.12302000  1.0 -0.0187448601
C  C52  1  0.68297000  0.76020000  0.37698000  1.0 -0.0092525389
C  C53  1  0.70645000  0.68910000  0.85910000  1.0 -0.1081180669
C  C54  1  0.29355000  0.18910000  0.64090000  1.0 -0.1081180669
C  C55  1  0.29355000  0.31090000  0.14090000  1.0 -0.1081180669
C  C56  1  0.70645000  0.81090000  0.35910000  1.0 -0.1081180669
C  C57  1  0.68050000  0.66400000  0.81474000  1.0 -0.0021516498
C  C58  1  0.31950000  0.16400000  0.68526000  1.0 -0.0021516498
C  C59  1  0.31950000  0.33600000  0.18526000  1.0 -0.0021516498
C  C60  1  0.68050000  0.83600000  0.31474000  1.0 -0.0021516498
C  C61  1  0.63253000  0.69100000  0.78937000  1.0 -0.1995983092
C  C62  1  0.36747000  0.19100000  0.71063000  1.0 -0.1995983092
C  C63  1  0.36747000  0.30900000  0.21063000  1.0 -0.1995983092
C  C64  1  0.63253000  0.80900000  0.28937000  1.0 -0.1995983092
C  C65  1  0.70506000  0.60520000  0.79682000  1.0 0.5783288844
C  C66  1  0.29494000  0.10520000  0.70318000  1.0 0.5783288844
C  C67  1  0.29494000  0.39480000  0.20318000  1.0 0.5783288844
C  C68  1  0.70506000  0.89480000  0.29682000  1.0 0.5783288844
C  C69  1  0.70907000  0.75940000  0.92522000  1.0 0.5719372018
C  C70  1  0.29093000  0.25940000  0.57478000  1.0 0.5719372018
C  C71  1  0.29093000  0.24060000  0.07478000  1.0 0.5719372018
C  C72  1  0.70907000  0.74060000  0.42522000  1.0 0.5719372018
C  C73  1  0.98030000  0.78690000  0.21620000  1.0 0.3280880765
C  C74  1  0.01970000  0.28690000  0.28380000  1.0 0.3280880765
C  C75  1  0.01970000  0.21310000  0.78380000  1.0 0.3280880765
C  C76  1  0.98030000  0.71310000  0.71620000  1.0 0.3280880765
C  C77  1  0.03110000  0.76930000  0.25530000  1.0 0.3280880765
C  C78  1  0.96890000  0.26930000  0.24470000  1.0 0.3467752353
C  C79  1  0.96890000  0.23070000  0.74470000  1.0 0.3280880765
C  C80  1  0.03110000  0.73070000  0.75530000  1.0 0.3246466533
C  C81  1  0.89190000  0.81590000  0.20870000  1.0 0.2323527054
C  C82  1  0.10810000  0.31590000  0.29130000  1.0 0.2323527054
C  C83  1  0.10810000  0.18410000  0.79130000  1.0 0.2323527054
C  C84  1  0.89190000  0.68410000  0.70870000  1.0 0.2323527054
C  C85  1  0.86876000  0.80060000  0.16392000  1.0 -0.1995983092
C  C86  1  0.13124000  0.30060000  0.33608000  1.0 -0.1995983092
C  C87  1  0.13124000  0.19940000  0.83608000  1.0 -0.1995983092
C  C88  1  0.86876000  0.69940000  0.66392000  1.0 -0.1995983092
C  C89  1  0.81715000  0.81820000  0.14116000  1.0 -0.0187448601
C  C90  1  0.18285000  0.31820000  0.35884000  1.0 -0.0187448601
C  C91  1  0.18285000  0.18180000  0.85884000  1.0 -0.0187448601
C  C92  1  0.81715000  0.68180000  0.64116000  1.0 -0.0187448601
C  C93  1  0.79018000  0.85350000  0.16362000  1.0 -0.1009726751
C  C94  1  0.20982000  0.35350000  0.33638000  1.0 -0.1009726751
C  C95  1  0.20982000  0.14650000  0.83638000  1.0 -0.1009726751
C  C96  1  0.79018000  0.64650000  0.66362000  1.0 -0.1009726751
C  C97  1  0.81432000  0.87010000  0.20910000  1.0 0.0023434848
C  C98  1  0.18568000  0.37010000  0.29090000  1.0 0.0023434848
C  C99  1  0.18568000  0.12990000  0.79090000  1.0 0.0023434848
C  C100  1  0.81432000  0.62990000  0.70910000  1.0 0.0023434848
C  C101  1  0.86620000  0.85350000  0.23142000  1.0 -0.2077504679
C  C102  1  0.13380000  0.35350000  0.26858000  1.0 -0.2077504679
C  C103  1  0.13380000  0.14650000  0.76858000  1.0 -0.2077504679
C  C104  1  0.86620000  0.64650000  0.73142000  1.0 -0.2077504679
C  C105  1  0.78728000  0.91330000  0.23354000  1.0 0.5719372018
C  C106  1  0.21272000  0.41330000  0.26646000  1.0 0.5719372018
C  C107  1  0.21272000  0.08670000  0.76646000  1.0 0.5719372018
C  C108  1  0.78728000  0.58670000  0.73354000  1.0 0.5719372018
C  C109  1  0.79240000  0.80380000  0.09242000  1.0 0.5783288844
C  C110  1  0.20760000  0.30380000  0.40758000  1.0 0.5783288844
C  C111  1  0.20760000  0.19620000  0.90758000  1.0 0.5783288844
C  C112  1  0.79240000  0.69620000  0.59242000  1.0 0.5783288844
C  C113  1  0.11620000  0.72530000  0.26826000  1.0 0.2001291604
C  C114  1  0.88380000  0.22530000  0.23174000  1.0 0.2001291604
C  C115  1  0.88380000  0.27470000  0.73174000  1.0 0.2001291604
C  C116  1  0.11620000  0.77470000  0.76826000  1.0 0.2001291604
C  C117  1  0.14027000  0.75030000  0.31266000  1.0 -0.1413402095
C  C118  1  0.85973000  0.25030000  0.18734000  1.0 -0.1413402095
C  C119  1  0.85973000  0.24970000  0.68734000  1.0 -0.1413402095
C  C120  1  0.14027000  0.74970000  0.81266000  1.0 -0.1413402095
C  C121  1  0.18885000  0.72640000  0.33880000  1.0 -0.0290010384
C  C122  1  0.81115000  0.22640000  0.16120000  1.0 -0.0290010384
C  C123  1  0.81115000  0.27360000  0.66120000  1.0 -0.0290010384
C  C124  1  0.18885000  0.77360000  0.83880000  1.0 -0.0290010384
C  C125  1  0.21404000  0.67870000  0.32067000  1.0 -0.1009726751
C  C126  1  0.78596000  0.17870000  0.17933000  1.0 -0.1009726751
C  C127  1  0.78596000  0.32130000  0.67933000  1.0 -0.1009726751
C  C128  1  0.21404000  0.82130000  0.82067000  1.0 -0.1009726751
C  C129  1  0.19031000  0.65470000  0.27657000  1.0 -0.0092525389
C  C130  1  0.80969000  0.15470000  0.22343000  1.0 -0.0092525389
C  C131  1  0.80969000  0.34530000  0.72343000  1.0 -0.0092525389
C  C132  1  0.19031000  0.84530000  0.77657000  1.0 -0.0092525389
C  C133  1  0.14216000  0.67980000  0.25018000  1.0 -0.1924644576
C  C134  1  0.85784000  0.17980000  0.24982000  1.0 -0.1924644576
C  C135  1  0.85784000  0.32020000  0.74982000  1.0 -0.1924644576
C  C136  1  0.14216000  0.82020000  0.75018000  1.0 -0.1924644576
C  C137  1  0.21532000  0.59680000  0.25825000  1.0 0.5719372018
C  C138  1  0.78468000  0.09680000  0.24175000  1.0 0.5719372018
C  C139  1  0.78468000  0.40320000  0.74175000  1.0 0.5719372018
C  C140  1  0.21532000  0.90320000  0.75825000  1.0 0.5719372018
C  C141  1  0.21251000  0.74790000  0.38668000  1.0 0.5783288844
C  C142  1  0.78749000  0.24790000  0.11332000  1.0 0.5783288844
C  C143  1  0.78749000  0.25210000  0.61332000  1.0 0.5783288844
C  C144  1  0.21251000  0.75210000  0.88668000  1.0 0.5783288844
C  C145  1  0.52660000  0.49140000  0.00510000  1.0 0.3280880765
C  C146  1  0.47340000  0.99140000  0.49490000  1.0 0.3280880765
C  C147  1  0.47340000  0.50860000  0.99490000  1.0 0.3280880765
C  C148  1  0.52660000  0.00860000  0.50510000  1.0 0.3280880765
C  C149  1  0.61360000  0.53440000  0.02910000  1.0 0.209961563
C  C150  1  0.38640000  0.03440000  0.47090000  1.0 0.209961563
C  C151  1  0.38640000  0.46560000  0.97090000  1.0 0.209961563
C  C152  1  0.61360000  0.96560000  0.52910000  1.0 0.209961563
C  C153  1  0.63722000  0.59780000  0.02570000  1.0 -0.1995983092
C  C154  1  0.36278000  0.09780000  0.47430000  1.0 -0.1995983092
C  C155  1  0.36278000  0.40220000  0.97430000  1.0 -0.1995983092
C  C156  1  0.63722000  0.90220000  0.52570000  1.0 -0.1995983092
C  C157  1  0.68734000  0.59800000  0.02797000  1.0 -0.0092525389
C  C158  1  0.31266000  0.09800000  0.47203000  1.0 -0.0092525389
C  C159  1  0.31266000  0.40200000  0.97203000  1.0 -0.0092525389
C  C160  1  0.68734000  0.90200000  0.52797000  1.0 -0.0092525389
C  C161  1  0.71426000  0.53230000  0.03335000  1.0 -0.1214833308
C  C162  1  0.28574000  0.03230000  0.46665000  1.0 -0.1214833308
C  C163  1  0.28574000  0.46770000  0.96665000  1.0 -0.1214833308
C  C164  1  0.71426000  0.96770000  0.53335000  1.0 -0.1253107622
C  C165  1  0.68956000  0.46720000  0.03643000  1.0 -0.0092525389
C  C166  1  0.31044000  0.96720000  0.46357000  1.0 -0.0092525389
C  C167  1  0.31044000  0.53280000  0.96357000  1.0 -0.0092525389
C  C168  1  0.68956000  0.03280000  0.53643000  1.0 -0.0092525389
C  C169  1  0.63980000  0.46720000  0.03390000  1.0 -0.1702642724
C  C170  1  0.36020000  0.96720000  0.46610000  1.0 -0.1702642724
C  C171  1  0.36020000  0.53280000  0.96610000  1.0 -0.1702642724
C  C172  1  0.63980000  0.03280000  0.53390000  1.0 -0.1702642724
C  C173  1  0.71604000  0.39580000  0.03817000  1.0 0.5783288844
C  C174  1  0.28396000  0.89580000  0.46183000  1.0 0.5783288844
C  C175  1  0.28396000  0.60420000  0.96183000  1.0 0.5783288844
C  C176  1  0.71604000  0.10420000  0.53817000  1.0 0.5783288844
C  C177  1  0.71164000  0.66750000  0.02173000  1.0 0.5719372018
C  C178  1  0.28836000  0.16750000  0.47827000  1.0 0.5719372018
C  C179  1  0.28836000  0.33250000  0.97827000  1.0 0.5719372018
C  C180  1  0.71164000  0.83250000  0.52173000  1.0 0.5719372018
C  C181  1  0.97420000  0.98770000  0.00020000  1.0 0.4094999547
C  C182  1  0.02580000  0.48770000  0.49980000  1.0 0.4043879822
C  C183  1  0.02580000  0.01230000  0.99980000  1.0 0.4094999547
C  C184  1  0.97420000  0.51230000  0.50020000  1.0 0.4094999547
C  C185  1  0.89429000  0.03520000  0.00122000  1.0 0.2202948664
C  C186  1  0.10571000  0.53520000  0.49878000  1.0 0.2202948664
C  C187  1  0.10571000  0.96480000  0.99878000  1.0 0.2202948664
C  C188  1  0.89429000  0.46480000  0.50122000  1.0 0.2202948664
C  C189  1  0.86831000  0.96920000  0.99817000  1.0 -0.1599940345
C  C190  1  0.13169000  0.46920000  0.50183000  1.0 -0.1599940345
C  C191  1  0.13169000  0.03080000  0.00183000  1.0 -0.1599940345
C  C192  1  0.86831000  0.53080000  0.49817000  1.0 -0.1599940345
C  C193  1  0.82085000  0.96680000  0.00017000  1.0 -0.0290010384
C  C194  1  0.17915000  0.46680000  0.49983000  1.0 -0.0290010384
C  C195  1  0.17915000  0.03320000  0.99983000  1.0 -0.0290010384
C  C196  1  0.82085000  0.53320000  0.50017000  1.0 -0.0290010384
C  C197  1  0.79674000  0.03150000  0.00612000  1.0 -0.1214833308
C  C198  1  0.20326000  0.53150000  0.49388000  1.0 -0.1214833308
C  C199  1  0.20326000  0.96850000  0.99388000  1.0 -0.1214833308
C  C200  1  0.79674000  0.46850000  0.50612000  1.0 -0.1214833308
C  C201  1  0.82317000  0.09770000  0.00965000  1.0 -0.0092525389
C  C202  1  0.17683000  0.59770000  0.49035000  1.0 -0.0092525389
C  C203  1  0.17683000  0.90230000  0.99035000  1.0 -0.0092525389
C  C204  1  0.82317000  0.40230000  0.50965000  1.0 -0.0092525389
C  C205  1  0.87070000  0.10010000  0.00816000  1.0 -0.1924644576
C  C206  1  0.12930000  0.60010000  0.49184000  1.0 -0.1924644576
C  C207  1  0.12930000  0.89990000  0.99184000  1.0 -0.1924644576
C  C208  1  0.87070000  0.39990000  0.50816000  1.0 -0.1924644576
C  C209  1  0.79770000  0.16540000  0.01848000  1.0 0.5783288844
C  C210  1  0.20230000  0.66540000  0.48152000  1.0 0.5783288844
C  C211  1  0.20230000  0.83460000  0.98152000  1.0 0.5783288844
C  C212  1  0.79770000  0.33460000  0.51848000  1.0 0.5783288844
C  C213  1  0.79335000  0.89770000  0.99953000  1.0 0.5783288844
C  C214  1  0.20665000  0.39770000  0.50047000  1.0 0.5719372018
C  C215  1  0.20665000  0.10230000  0.00047000  1.0 0.5719372018
C  C216  1  0.79335000  0.60230000  0.49953000  1.0 0.5719372018
N  N1  1  0.44061000  0.76840000  0.69315000  1.0 -0.3528082802
N  N2  1  0.55939000  0.26840000  0.80685000  1.0 -0.3528082802
N  N3  1  0.55939000  0.23160000  0.30685000  1.0 -0.3528082802
N  N4  1  0.44061000  0.73160000  0.19315000  1.0 -0.3528082802
N  N5  1  0.55962000  0.76670000  0.78482000  1.0 -0.3638424262
N  N6  1  0.44038000  0.26670000  0.71518000  1.0 -0.3638424262
N  N7  1  0.44038000  0.23330000  0.21518000  1.0 -0.36887882
N  N8  1  0.55962000  0.73330000  0.28482000  1.0 -0.36887882
N  N9  1  0.94180000  0.80110000  0.23260000  1.0 -0.36887882
N  N10  1  0.05820000  0.30110000  0.26740000  1.0 -0.37685565
N  N11  1  0.05820000  0.19890000  0.76740000  1.0 -0.37685565
N  N12  1  0.94180000  0.69890000  0.73260000  1.0 -0.37685565
N  N13  1  0.06696000  0.75020000  0.24052000  1.0 -0.3124166016
N  N14  1  0.93304000  0.25020000  0.25948000  1.0 -0.3216544076
N  N15  1  0.93304000  0.24980000  0.75948000  1.0 -0.3124166016
N  N16  1  0.06696000  0.74980000  0.74052000  1.0 -0.3124166016
N  N17  1  0.56200000  0.53770000  0.02240000  1.0 -0.2898525878
N  N18  1  0.43800000  0.03770000  0.47760000  1.0 -0.2898525878
N  N19  1  0.43800000  0.46230000  0.97760000  1.0 -0.2898525878
N  N20  1  0.56200000  0.96230000  0.52240000  1.0 -0.2898525878
N  N21  1  0.94287000  0.04070000  0.99978000  1.0 -0.32823257
N  N22  1  0.05713000  0.54070000  0.50022000  1.0 -0.3216544076
N  N23  1  0.05713000  0.95930000  0.00022000  1.0 -0.3216544076
N  N24  1  0.94287000  0.45930000  0.49978000  1.0 -0.32823257
O  O1  1  0.31445000  0.75298000  0.53518000  1.0 -0.5114628002
O  O2  1  0.68555000  0.25298000  0.96482000  1.0 -0.5190430703
O  O3  1  0.68555000  0.24702000  0.46482000  1.0 -0.5114628002
O  O4  1  0.31445000  0.74702000  0.03518000  1.0 -0.5114628002
O  O5  1  0.24739000  0.82087000  0.53278000  1.0 -0.5400308117
O  O6  1  0.75261000  0.32087000  0.96722000  1.0 -0.5459355101
O  O7  1  0.75261000  0.17913000  0.46722000  1.0 -0.5459355101
O  O8  1  0.24739000  0.67913000  0.03278000  1.0 -0.5400308117
O  O9  1  0.25114000  0.93978000  0.66975000  1.0 -0.5190430703
O  O10  1  0.74886000  0.43978000  0.83025000  1.0 -0.5190430703
O  O11  1  0.74886000  0.06022000  0.33025000  1.0 -0.5190430703
O  O12  1  0.25114000  0.56022000  0.16975000  1.0 -0.5190430703
O  O13  1  0.32038000  0.93265000  0.73312000  1.0 -0.5291057745
O  O14  1  0.67962000  0.43265000  0.76688000  1.0 -0.5291057745
O  O15  1  0.67962000  0.06735000  0.26688000  1.0 -0.5291057745
O  O16  1  0.32038000  0.56735000  0.23312000  1.0 -0.5291057745
O  O17  1  0.67860000  0.58104000  0.75817000  1.0 -0.5291057745
O  O18  1  0.32140000  0.08104000  0.74183000  1.0 -0.5291057745
O  O19  1  0.32140000  0.41896000  0.24183000  1.0 -0.5291057745
O  O20  1  0.67860000  0.91896000  0.25817000  1.0 -0.5291057745
O  O21  1  0.74950000  0.58753000  0.82072000  1.0 -0.5190430703
O  O22  1  0.25050000  0.08753000  0.67928000  1.0 -0.5190430703
O  O23  1  0.25050000  0.41247000  0.17928000  1.0 -0.5190430703
O  O24  1  0.74950000  0.91247000  0.32072000  1.0 -0.5190430703
O  O25  1  0.75285000  0.73144000  0.94643000  1.0 -0.5291057745
O  O26  1  0.24715000  0.23144000  0.55357000  1.0 -0.5291057745
O  O27  1  0.24715000  0.26856000  0.05357000  1.0 -0.5291057745
O  O28  1  0.75285000  0.76856000  0.44643000  1.0 -0.5291057745
O  O29  1  0.68552000  0.80097000  0.94251000  1.0 -0.5291057745
O  O30  1  0.31448000  0.30097000  0.55749000  1.0 -0.5291057745
O  O31  1  0.31448000  0.19903000  0.05749000  1.0 -0.5291057745
O  O32  1  0.68552000  0.69903000  0.44251000  1.0 -0.5291057745
O  O33  1  0.81975000  0.77285000  0.07386000  1.0 -0.5291057745
O  O34  1  0.18025000  0.27285000  0.42614000  1.0 -0.5291057745
O  O35  1  0.18025000  0.22715000  0.92614000  1.0 -0.5291057745
O  O36  1  0.81975000  0.72715000  0.57386000  1.0 -0.5291057745
O  O37  1  0.74660000  0.82381000  0.07255000  1.0 -0.5190430703
O  O38  1  0.25340000  0.32381000  0.42745000  1.0 -0.5190430703
O  O39  1  0.25340000  0.17619000  0.92745000  1.0 -0.5190430703
O  O40  1  0.74660000  0.67619000  0.57255000  1.0 -0.5190430703
O  O41  1  0.74173000  0.93031000  0.20999000  1.0 -0.5291057745
O  O42  1  0.25827000  0.43031000  0.29001000  1.0 -0.5291057745
O  O43  1  0.25827000  0.06969000  0.79001000  1.0 -0.5291057745
O  O44  1  0.74173000  0.56969000  0.70999000  1.0 -0.5291057745
O  O45  1  0.81248000  0.92789000  0.27337000  1.0 -0.5190430703
O  O46  1  0.18752000  0.42789000  0.22663000  1.0 -0.5190430703
O  O47  1  0.18752000  0.07211000  0.72663000  1.0 -0.5190430703
O  O48  1  0.81248000  0.57211000  0.77337000  1.0 -0.5114628002
O  O49  1  0.19091000  0.57532000  0.21935000  1.0 -0.5190430703
O  O50  1  0.80909000  0.07532000  0.28065000  1.0 -0.5190430703
O  O51  1  0.80909000  0.42468000  0.78065000  1.0 -0.5190430703
O  O52  1  0.19091000  0.92468000  0.71935000  1.0 -0.5190430703
O  O53  1  0.26045000  0.57809000  0.28355000  1.0 -0.5291057745
O  O54  1  0.73955000  0.07809000  0.21645000  1.0 -0.5291057745
O  O55  1  0.73955000  0.42191000  0.71645000  1.0 -0.5291057745
O  O56  1  0.26045000  0.92191000  0.78355000  1.0 -0.5291057745
O  O57  1  0.25749000  0.72702000  0.40760000  1.0 -0.5190430703
O  O58  1  0.74251000  0.22702000  0.09240000  1.0 -0.5190430703
O  O59  1  0.74251000  0.27298000  0.59240000  1.0 -0.5190430703
O  O60  1  0.25749000  0.77298000  0.90760000  1.0 -0.5190430703
O  O61  1  0.18548000  0.78446000  0.40256000  1.0 -0.5400308117
O  O62  1  0.81452000  0.28446000  0.09744000  1.0 -0.5400308117
O  O63  1  0.81452000  0.21554000  0.59744000  1.0 -0.5400308117
O  O64  1  0.18548000  0.71554000  0.90256000  1.0 -0.5400308117
O  O65  1  0.75776000  0.66330000  0.02390000  1.0 -0.5291057745
O  O66  1  0.24224000  0.16330000  0.47610000  1.0 -0.5291057745
O  O67  1  0.24224000  0.33670000  0.97610000  1.0 -0.5291057745
O  O68  1  0.75776000  0.83670000  0.52390000  1.0 -0.5291057745
O  O69  1  0.68528000  0.72267000  0.01471000  1.0 -0.5028918966
O  O70  1  0.31472000  0.22267000  0.48529000  1.0 -0.5028918966
O  O71  1  0.31472000  0.27733000  0.98529000  1.0 -0.5028918966
O  O72  1  0.68528000  0.77733000  0.51471000  1.0 -0.5028918966
O  O73  1  0.76221000  0.39955000  0.04203000  1.0 -0.5291057745
O  O74  1  0.23779000  0.89955000  0.45797000  1.0 -0.5190430703
O  O75  1  0.23779000  0.60045000  0.95797000  1.0 -0.5190430703
O  O76  1  0.76221000  0.10045000  0.54203000  1.0 -0.5291057745
O  O77  1  0.68972000  0.33983000  0.03495000  1.0 -0.5291057745
O  O78  1  0.31028000  0.83983000  0.46505000  1.0 -0.5291057745
O  O79  1  0.31028000  0.66017000  0.96505000  1.0 -0.5291057745
O  O80  1  0.68972000  0.16017000  0.53495000  1.0 -0.5291057745
O  O81  1  0.81733000  0.84014000  0.99727000  1.0 -0.5291057745
O  O82  1  0.18267000  0.34014000  0.50273000  1.0 -0.5291057745
O  O83  1  0.18267000  0.15986000  0.00273000  1.0 -0.5291057745
O  O84  1  0.81733000  0.65986000  0.49727000  1.0 -0.5291057745
O  O85  1  0.75049000  0.90137000  0.00144000  1.0 -0.5114628002
O  O86  1  0.24951000  0.40137000  0.49856000  1.0 -0.5114628002
O  O87  1  0.24951000  0.09863000  0.99856000  1.0 -0.5114628002
O  O88  1  0.75049000  0.59863000  0.50144000  1.0 -0.5114628002
O  O89  1  0.82313000  0.22357000  0.02152000  1.0 -0.5400308117
O  O90  1  0.17687000  0.72357000  0.47848000  1.0 -0.5400308117
O  O91  1  0.17687000  0.77643000  0.97848000  1.0 -0.5400308117
O  O92  1  0.82313000  0.27643000  0.52152000  1.0 -0.5400308117
O  O93  1  0.75486000  0.15909000  0.02116000  1.0 -0.5291057745
O  O94  1  0.24514000  0.65909000  0.47884000  1.0 -0.5291057745
O  O95  1  0.24514000  0.84091000  0.97884000  1.0 -0.5291057745
O  O96  1  0.75486000  0.34091000  0.52116000  1.0 -0.5291057745
O  O97  1  0.47640000  0.85310000  0.74880000  1.0 -0.0790034393
O  O98  1  0.52360000  0.35310000  0.75120000  1.0 -0.0790034393
O  O99  1  0.52360000  0.14690000  0.25120000  1.0 -0.0790034393
O  O100  1  0.47640000  0.64690000  0.24880000  1.0 -0.0790034393
O  O101  1  0.53820000  0.72020000  0.71480000  1.0 -0.0691096954
O  O102  1  0.46180000  0.22020000  0.78520000  1.0 -0.0691096954
O  O103  1  0.46180000  0.27980000  0.28520000  1.0 -0.0790034393
O  O104  1  0.53820000  0.77980000  0.21480000  1.0 -0.0631642848
O  O105  1  0.97650000  0.79410000  0.17730000  1.0 -0.0909851923
O  O106  1  0.02350000  0.29410000  0.32270000  1.0 -0.1009726751
O  O107  1  0.02350000  0.20590000  0.82270000  1.0 -0.1009726751
O  O108  1  0.97650000  0.70590000  0.67730000  1.0 -0.1009726751
O  O109  1  0.03360000  0.76400000  0.29700000  1.0 -0.4591761037
O  O110  1  0.96640000  0.26400000  0.20300000  1.0 -0.4591761037
O  O111  1  0.96640000  0.23600000  0.70300000  1.0 -0.4591761037
O  O112  1  0.03360000  0.73600000  0.79700000  1.0 -0.4591761037
O  O113  1  0.53220000  0.43550000  0.98220000  1.0 -0.5114628002
O  O114  1  0.46780000  0.93550000  0.51780000  1.0 -0.5114628002
O  O115  1  0.46780000  0.56450000  0.01780000  1.0 -0.5028918966
O  O116  1  0.53220000  0.06450000  0.48220000  1.0 -0.5028918966
O  O117  1  0.96480000  0.92350000  0.99892000  1.0 -0.4689560616
O  O118  1  0.03520000  0.42350000  0.50108000  1.0 -0.4689560616
O  O119  1  0.03520000  0.07650000  0.00108000  1.0 -0.4591761037
O  O120  1  0.96480000  0.57650000  0.49892000  1.0 -0.4689560616
O  O121  1  0.46380000  0.81790000  0.76250000  1.0 -0.0790034393
O  O122  1  0.53620000  0.31790000  0.73750000  1.0 -0.0790034393
O  O123  1  0.53620000  0.18210000  0.23750000  1.0 -0.0790034393
O  O124  1  0.46380000  0.68210000  0.26250000  1.0 -0.0790034393
O  O125  1  0.52700000  0.68870000  0.72590000  1.0 -0.0909851923
O  O126  1  0.47300000  0.18870000  0.77410000  1.0 -0.0909851923
O  O127  1  0.47300000  0.31130000  0.27410000  1.0 -0.1009726751
O  O128  1  0.52700000  0.81130000  0.22590000  1.0 -0.0909851923
O  O129  1  0.96690000  0.75060000  0.18080000  1.0 -0.1009726751
O  O130  1  0.03310000  0.25060000  0.31920000  1.0 -0.1009726751
O  O131  1  0.03310000  0.24940000  0.81920000  1.0 -0.1009726751
O  O132  1  0.96690000  0.74940000  0.68080000  1.0 -0.1009726751
