# DDEC6 charges by PACMAN v1.1 (https://github.com/mtap-research/PACMAN-charge/)
data_VIXWIJ_ASR_pacman
_symmetry_space_group_name_H-M   'P 1'
_cell_length_a   39.28800000
_cell_length_b   39.28800000
_cell_length_c   39.28800000
_cell_angle_alpha   90.00000000
_cell_angle_beta   90.00000000
_cell_angle_gamma   90.00000000
_symmetry_Int_Tables_number   1
_chemical_formula_structural   CoH7C21NO10
_chemical_formula_sum   'Co48 H336 C1008 N48 O480'
_cell_volume   60642.87233587
_cell_formula_units_Z   48
loop_
 _symmetry_equiv_pos_site_id
 _symmetry_equiv_pos_as_xyz
  1  'x, y, z'
loop_
 _atom_site_type_symbol
 _atom_site_label
 _atom_site_symmetry_multiplicity
 _atom_site_fract_x
 _atom_site_fract_y
 _atom_site_fract_z
 _atom_site_occupancy
 _atom_site_charge
Co  Co1  1  0.13595000  0.96524000  0.03383000  1.0 1.0428731664
Co  Co2  1  0.36405000  0.03476000  0.53383000  1.0 1.0428731664
Co  Co3  1  0.63595000  0.53476000  0.96617000  1.0 1.0428731664
Co  Co4  1  0.03383000  0.13595000  0.96524000  1.0 1.0428731664
Co  Co5  1  0.86405000  0.46524000  0.46617000  1.0 1.0428731664
Co  Co6  1  0.46617000  0.86405000  0.46524000  1.0 1.0428731664
Co  Co7  1  0.53383000  0.36405000  0.03476000  1.0 1.0428731664
Co  Co8  1  0.96617000  0.63595000  0.53476000  1.0 1.0428731664
Co  Co9  1  0.96524000  0.03383000  0.13595000  1.0 1.0428731664
Co  Co10  1  0.46524000  0.46617000  0.86405000  1.0 1.0428731664
Co  Co11  1  0.03476000  0.53383000  0.36405000  1.0 1.0428731664
Co  Co12  1  0.53476000  0.96617000  0.63595000  1.0 1.0428731664
Co  Co13  1  0.86405000  0.03476000  0.96617000  1.0 1.0428731664
Co  Co14  1  0.63595000  0.96524000  0.46617000  1.0 1.0428731664
Co  Co15  1  0.36405000  0.46524000  0.03383000  1.0 1.0428731664
Co  Co16  1  0.96617000  0.86405000  0.03476000  1.0 1.0428731664
Co  Co17  1  0.13595000  0.53476000  0.53383000  1.0 1.0428731664
Co  Co18  1  0.53383000  0.13595000  0.53476000  1.0 1.0428731664
Co  Co19  1  0.46617000  0.63595000  0.96524000  1.0 1.0428731664
Co  Co20  1  0.03383000  0.36405000  0.46524000  1.0 1.0428731664
Co  Co21  1  0.03476000  0.96617000  0.86405000  1.0 1.0428731664
Co  Co22  1  0.53476000  0.53383000  0.13595000  1.0 1.0428731664
Co  Co23  1  0.96524000  0.46617000  0.63595000  1.0 1.0428731664
Co  Co24  1  0.46524000  0.03383000  0.36405000  1.0 1.0428731664
Co  Co25  1  0.21319000  0.92067000  0.02977000  1.0 0.9920635396
Co  Co26  1  0.28681000  0.07933000  0.52977000  1.0 0.9920635396
Co  Co27  1  0.71319000  0.57933000  0.97023000  1.0 0.9920635396
Co  Co28  1  0.02977000  0.21319000  0.92067000  1.0 0.9920635396
Co  Co29  1  0.78681000  0.42067000  0.47023000  1.0 0.9920635396
Co  Co30  1  0.47023000  0.78681000  0.42067000  1.0 0.9920635396
Co  Co31  1  0.52977000  0.28681000  0.07933000  1.0 0.9920635396
Co  Co32  1  0.97023000  0.71319000  0.57933000  1.0 0.9920635396
Co  Co33  1  0.92067000  0.02977000  0.21319000  1.0 0.9920635396
Co  Co34  1  0.42067000  0.47023000  0.78681000  1.0 0.9920635396
Co  Co35  1  0.07933000  0.52977000  0.28681000  1.0 0.9920635396
Co  Co36  1  0.57933000  0.97023000  0.71319000  1.0 0.9920635396
Co  Co37  1  0.78681000  0.07933000  0.97023000  1.0 0.9920635396
Co  Co38  1  0.71319000  0.92067000  0.47023000  1.0 0.9920635396
Co  Co39  1  0.28681000  0.42067000  0.02977000  1.0 0.9920635396
Co  Co40  1  0.97023000  0.78681000  0.07933000  1.0 0.9920635396
Co  Co41  1  0.21319000  0.57933000  0.52977000  1.0 0.9920635396
Co  Co42  1  0.52977000  0.21319000  0.57933000  1.0 0.9920635396
Co  Co43  1  0.47023000  0.71319000  0.92067000  1.0 0.9920635396
Co  Co44  1  0.02977000  0.28681000  0.42067000  1.0 0.9920635396
Co  Co45  1  0.07933000  0.97023000  0.78681000  1.0 0.9920635396
Co  Co46  1  0.57933000  0.52977000  0.21319000  1.0 0.9920635396
Co  Co47  1  0.92067000  0.47023000  0.71319000  1.0 0.9920635396
Co  Co48  1  0.42067000  0.02977000  0.28681000  1.0 0.9920635396
H  H1  1  0.24810000  0.19370000  0.10670000  1.0 0.0588568977
H  H2  1  0.25190000  0.80630000  0.60670000  1.0 0.0588568977
H  H3  1  0.74810000  0.30630000  0.89330000  1.0 0.0588568977
H  H4  1  0.10670000  0.24810000  0.19370000  1.0 0.0588568977
H  H5  1  0.75190000  0.69370000  0.39330000  1.0 0.0588568977
H  H6  1  0.39330000  0.75190000  0.69370000  1.0 0.0588568977
H  H7  1  0.60670000  0.25190000  0.80630000  1.0 0.0588568977
H  H8  1  0.89330000  0.74810000  0.30630000  1.0 0.0588568977
H  H9  1  0.19370000  0.10670000  0.24810000  1.0 0.0588568977
H  H10  1  0.69370000  0.39330000  0.75190000  1.0 0.0588568977
H  H11  1  0.80630000  0.60670000  0.25190000  1.0 0.0588568977
H  H12  1  0.30630000  0.89330000  0.74810000  1.0 0.0588568977
H  H13  1  0.75190000  0.80630000  0.89330000  1.0 0.0588568977
H  H14  1  0.74810000  0.19370000  0.39330000  1.0 0.0588568977
H  H15  1  0.25190000  0.69370000  0.10670000  1.0 0.0588568977
H  H16  1  0.89330000  0.75190000  0.80630000  1.0 0.0588568977
H  H17  1  0.24810000  0.30630000  0.60670000  1.0 0.0588568977
H  H18  1  0.60670000  0.24810000  0.30630000  1.0 0.0588568977
H  H19  1  0.39330000  0.74810000  0.19370000  1.0 0.0588568977
H  H20  1  0.10670000  0.25190000  0.69370000  1.0 0.0588568977
H  H21  1  0.80630000  0.89330000  0.75190000  1.0 0.0588568977
H  H22  1  0.30630000  0.60670000  0.24810000  1.0 0.0588568977
H  H23  1  0.19370000  0.39330000  0.74810000  1.0 0.0588568977
H  H24  1  0.69370000  0.10670000  0.25190000  1.0 0.0588568977
H  H25  1  0.28220000  0.24480000  0.10880000  1.0 0.0588568977
H  H26  1  0.21780000  0.75520000  0.60880000  1.0 0.0588568977
H  H27  1  0.78220000  0.25520000  0.89120000  1.0 0.0588568977
H  H28  1  0.10880000  0.28220000  0.24480000  1.0 0.0588568977
H  H29  1  0.71780000  0.74480000  0.39120000  1.0 0.0588568977
H  H30  1  0.39120000  0.71780000  0.74480000  1.0 0.0588568977
H  H31  1  0.60880000  0.21780000  0.75520000  1.0 0.0588568977
H  H32  1  0.89120000  0.78220000  0.25520000  1.0 0.0588568977
H  H33  1  0.24480000  0.10880000  0.28220000  1.0 0.0588568977
H  H34  1  0.74480000  0.39120000  0.71780000  1.0 0.0588568977
H  H35  1  0.75520000  0.60880000  0.21780000  1.0 0.0588568977
H  H36  1  0.25520000  0.89120000  0.78220000  1.0 0.0588568977
H  H37  1  0.71780000  0.75520000  0.89120000  1.0 0.0588568977
H  H38  1  0.78220000  0.24480000  0.39120000  1.0 0.0588568977
H  H39  1  0.21780000  0.74480000  0.10880000  1.0 0.0588568977
H  H40  1  0.89120000  0.71780000  0.75520000  1.0 0.0588568977
H  H41  1  0.28220000  0.25520000  0.60880000  1.0 0.0588568977
H  H42  1  0.60880000  0.28220000  0.25520000  1.0 0.0588568977
H  H43  1  0.39120000  0.78220000  0.24480000  1.0 0.0588568977
H  H44  1  0.10880000  0.21780000  0.74480000  1.0 0.0588568977
H  H45  1  0.75520000  0.89120000  0.71780000  1.0 0.0588568977
H  H46  1  0.25520000  0.60880000  0.28220000  1.0 0.0588568977
H  H47  1  0.24480000  0.39120000  0.78220000  1.0 0.0588568977
H  H48  1  0.74480000  0.10880000  0.21780000  1.0 0.0588568977
H  H49  1  0.35010000  0.20090000  0.96600000  1.0 0.0588568977
H  H50  1  0.14990000  0.79910000  0.46600000  1.0 0.0588568977
H  H51  1  0.85010000  0.29910000  0.03400000  1.0 0.0588568977
H  H52  1  0.96600000  0.35010000  0.20090000  1.0 0.0588568977
H  H53  1  0.64990000  0.70090000  0.53400000  1.0 0.0588568977
H  H54  1  0.53400000  0.64990000  0.70090000  1.0 0.0588568977
H  H55  1  0.46600000  0.14990000  0.79910000  1.0 0.0588568977
H  H56  1  0.03400000  0.85010000  0.29910000  1.0 0.0588568977
H  H57  1  0.20090000  0.96600000  0.35010000  1.0 0.0588568977
H  H58  1  0.70090000  0.53400000  0.64990000  1.0 0.0588568977
H  H59  1  0.79910000  0.46600000  0.14990000  1.0 0.0588568977
H  H60  1  0.29910000  0.03400000  0.85010000  1.0 0.0588568977
H  H61  1  0.64990000  0.79910000  0.03400000  1.0 0.0588568977
H  H62  1  0.85010000  0.20090000  0.53400000  1.0 0.0588568977
H  H63  1  0.14990000  0.70090000  0.96600000  1.0 0.0588568977
H  H64  1  0.03400000  0.64990000  0.79910000  1.0 0.0588568977
H  H65  1  0.35010000  0.29910000  0.46600000  1.0 0.0588568977
H  H66  1  0.46600000  0.35010000  0.29910000  1.0 0.0588568977
H  H67  1  0.53400000  0.85010000  0.20090000  1.0 0.0588568977
H  H68  1  0.96600000  0.14990000  0.70090000  1.0 0.0588568977
H  H69  1  0.79910000  0.03400000  0.64990000  1.0 0.0588568977
H  H70  1  0.29910000  0.46600000  0.35010000  1.0 0.0588568977
H  H71  1  0.20090000  0.53400000  0.85010000  1.0 0.0588568977
H  H72  1  0.70090000  0.96600000  0.14990000  1.0 0.0588568977
H  H73  1  0.30650000  0.15930000  0.95680000  1.0 0.0588568977
H  H74  1  0.19350000  0.84070000  0.45680000  1.0 0.0588568977
H  H75  1  0.80650000  0.34070000  0.04320000  1.0 0.0588568977
H  H76  1  0.95680000  0.30650000  0.15930000  1.0 0.0588568977
H  H77  1  0.69350000  0.65930000  0.54320000  1.0 0.0588568977
H  H78  1  0.54320000  0.69350000  0.65930000  1.0 0.0588568977
H  H79  1  0.45680000  0.19350000  0.84070000  1.0 0.0588568977
H  H80  1  0.04320000  0.80650000  0.34070000  1.0 0.0588568977
H  H81  1  0.15930000  0.95680000  0.30650000  1.0 0.0588568977
H  H82  1  0.65930000  0.54320000  0.69350000  1.0 0.0588568977
H  H83  1  0.84070000  0.45680000  0.19350000  1.0 0.0588568977
H  H84  1  0.34070000  0.04320000  0.80650000  1.0 0.0588568977
H  H85  1  0.69350000  0.84070000  0.04320000  1.0 0.0588568977
H  H86  1  0.80650000  0.15930000  0.54320000  1.0 0.0588568977
H  H87  1  0.19350000  0.65930000  0.95680000  1.0 0.0588568977
H  H88  1  0.04320000  0.69350000  0.84070000  1.0 0.0588568977
H  H89  1  0.30650000  0.34070000  0.45680000  1.0 0.0588568977
H  H90  1  0.45680000  0.30650000  0.34070000  1.0 0.0588568977
H  H91  1  0.54320000  0.80650000  0.15930000  1.0 0.0588568977
H  H92  1  0.95680000  0.19350000  0.65930000  1.0 0.0588568977
H  H93  1  0.84070000  0.04320000  0.69350000  1.0 0.0588568977
H  H94  1  0.34070000  0.45680000  0.30650000  1.0 0.0588568977
H  H95  1  0.15930000  0.54320000  0.80650000  1.0 0.0588568977
H  H96  1  0.65930000  0.95680000  0.19350000  1.0 0.0588568977
H  H97  1  0.42670000  0.37450000  0.04550000  1.0 0.1203483391
H  H98  1  0.07330000  0.62550000  0.54550000  1.0 0.1203483391
H  H99  1  0.92670000  0.12550000  0.95450000  1.0 0.1203483391
H  H100  1  0.04550000  0.42670000  0.37450000  1.0 0.1203483391
H  H101  1  0.57330000  0.87450000  0.45450000  1.0 0.1203483391
H  H102  1  0.45450000  0.57330000  0.87450000  1.0 0.1203483391
H  H103  1  0.54550000  0.07330000  0.62550000  1.0 0.1203483391
H  H104  1  0.95450000  0.92670000  0.12550000  1.0 0.1203483391
H  H105  1  0.37450000  0.04550000  0.42670000  1.0 0.1203483391
H  H106  1  0.87450000  0.45450000  0.57330000  1.0 0.1203483391
H  H107  1  0.62550000  0.54550000  0.07330000  1.0 0.1203483391
H  H108  1  0.12550000  0.95450000  0.92670000  1.0 0.1203483391
H  H109  1  0.57330000  0.62550000  0.95450000  1.0 0.1203483391
H  H110  1  0.92670000  0.37450000  0.45450000  1.0 0.1203483391
H  H111  1  0.07330000  0.87450000  0.04550000  1.0 0.1203483391
H  H112  1  0.95450000  0.57330000  0.62550000  1.0 0.1203483391
H  H113  1  0.42670000  0.12550000  0.54550000  1.0 0.1203483391
H  H114  1  0.54550000  0.42670000  0.12550000  1.0 0.1203483391
H  H115  1  0.45450000  0.92670000  0.37450000  1.0 0.1203483391
H  H116  1  0.04550000  0.07330000  0.87450000  1.0 0.1203483391
H  H117  1  0.62550000  0.95450000  0.57330000  1.0 0.1203483391
H  H118  1  0.12550000  0.54550000  0.42670000  1.0 0.1203483391
H  H119  1  0.37450000  0.45450000  0.92670000  1.0 0.1203483391
H  H120  1  0.87450000  0.04550000  0.07330000  1.0 0.1203483391
H  H121  1  0.33640000  0.32790000  0.03830000  1.0 0.0902946234
H  H122  1  0.16360000  0.67210000  0.53830000  1.0 0.0902946234
H  H123  1  0.83640000  0.17210000  0.96170000  1.0 0.0902946234
H  H124  1  0.03830000  0.33640000  0.32790000  1.0 0.0902946234
H  H125  1  0.66360000  0.82790000  0.46170000  1.0 0.0902946234
H  H126  1  0.46170000  0.66360000  0.82790000  1.0 0.0902946234
H  H127  1  0.53830000  0.16360000  0.67210000  1.0 0.0902946234
H  H128  1  0.96170000  0.83640000  0.17210000  1.0 0.0902946234
H  H129  1  0.32790000  0.03830000  0.33640000  1.0 0.0902946234
H  H130  1  0.82790000  0.46170000  0.66360000  1.0 0.0902946234
H  H131  1  0.67210000  0.53830000  0.16360000  1.0 0.0902946234
H  H132  1  0.17210000  0.96170000  0.83640000  1.0 0.0902946234
H  H133  1  0.66360000  0.67210000  0.96170000  1.0 0.0902946234
H  H134  1  0.83640000  0.32790000  0.46170000  1.0 0.0902946234
H  H135  1  0.16360000  0.82790000  0.03830000  1.0 0.0902946234
H  H136  1  0.96170000  0.66360000  0.67210000  1.0 0.0902946234
H  H137  1  0.33640000  0.17210000  0.53830000  1.0 0.0902946234
H  H138  1  0.53830000  0.33640000  0.17210000  1.0 0.0902946234
H  H139  1  0.46170000  0.83640000  0.32790000  1.0 0.0902946234
H  H140  1  0.03830000  0.16360000  0.82790000  1.0 0.0902946234
H  H141  1  0.67210000  0.96170000  0.66360000  1.0 0.0902946234
H  H142  1  0.17210000  0.53830000  0.33640000  1.0 0.0902946234
H  H143  1  0.32790000  0.46170000  0.83640000  1.0 0.0902946234
H  H144  1  0.82790000  0.03830000  0.16360000  1.0 0.0902946234
H  H145  1  0.42440000  0.27120000  0.04550000  1.0 0.0961415238
H  H146  1  0.07560000  0.72880000  0.54550000  1.0 0.0961415238
H  H147  1  0.92440000  0.22880000  0.95450000  1.0 0.0961415238
H  H148  1  0.04550000  0.42440000  0.27120000  1.0 0.0961415238
H  H149  1  0.57560000  0.77120000  0.45450000  1.0 0.0961415238
H  H150  1  0.45450000  0.57560000  0.77120000  1.0 0.0961415238
H  H151  1  0.54550000  0.07560000  0.72880000  1.0 0.0961415238
H  H152  1  0.95450000  0.92440000  0.22880000  1.0 0.0961415238
H  H153  1  0.27120000  0.04550000  0.42440000  1.0 0.0961415238
H  H154  1  0.77120000  0.45450000  0.57560000  1.0 0.0961415238
H  H155  1  0.72880000  0.54550000  0.07560000  1.0 0.0961415238
H  H156  1  0.22880000  0.95450000  0.92440000  1.0 0.0961415238
H  H157  1  0.57560000  0.72880000  0.95450000  1.0 0.0961415238
H  H158  1  0.92440000  0.27120000  0.45450000  1.0 0.0961415238
H  H159  1  0.07560000  0.77120000  0.04550000  1.0 0.0961415238
H  H160  1  0.95450000  0.57560000  0.72880000  1.0 0.0961415238
H  H161  1  0.42440000  0.22880000  0.54550000  1.0 0.0961415238
H  H162  1  0.54550000  0.42440000  0.22880000  1.0 0.0961415238
H  H163  1  0.45450000  0.92440000  0.27120000  1.0 0.0961415238
H  H164  1  0.04550000  0.07560000  0.77120000  1.0 0.0961415238
H  H165  1  0.72880000  0.95450000  0.57560000  1.0 0.0961415238
H  H166  1  0.22880000  0.54550000  0.42440000  1.0 0.0961415238
H  H167  1  0.27120000  0.45450000  0.92440000  1.0 0.0961415238
H  H168  1  0.77120000  0.04550000  0.07560000  1.0 0.0961415238
H  H169  1  0.21830000  0.08090000  0.03180000  1.0 0.0902946234
H  H170  1  0.28170000  0.91910000  0.53180000  1.0 0.0902946234
H  H171  1  0.71830000  0.41910000  0.96820000  1.0 0.0902946234
H  H172  1  0.03180000  0.21830000  0.08090000  1.0 0.0902946234
H  H173  1  0.78170000  0.58090000  0.46820000  1.0 0.0902946234
H  H174  1  0.46820000  0.78170000  0.58090000  1.0 0.0902946234
H  H175  1  0.53180000  0.28170000  0.91910000  1.0 0.0902946234
H  H176  1  0.96820000  0.71830000  0.41910000  1.0 0.0902946234
H  H177  1  0.08090000  0.03180000  0.21830000  1.0 0.0902946234
H  H178  1  0.58090000  0.46820000  0.78170000  1.0 0.0902946234
H  H179  1  0.91910000  0.53180000  0.28170000  1.0 0.0902946234
H  H180  1  0.41910000  0.96820000  0.71830000  1.0 0.0902946234
H  H181  1  0.78170000  0.91910000  0.96820000  1.0 0.0902946234
H  H182  1  0.71830000  0.08090000  0.46820000  1.0 0.0902946234
H  H183  1  0.28170000  0.58090000  0.03180000  1.0 0.0902946234
H  H184  1  0.96820000  0.78170000  0.91910000  1.0 0.0902946234
H  H185  1  0.21830000  0.41910000  0.53180000  1.0 0.0902946234
H  H186  1  0.53180000  0.21830000  0.41910000  1.0 0.0902946234
H  H187  1  0.46820000  0.71830000  0.08090000  1.0 0.0902946234
H  H188  1  0.03180000  0.28170000  0.58090000  1.0 0.0902946234
H  H189  1  0.91910000  0.96820000  0.78170000  1.0 0.0902946234
H  H190  1  0.41910000  0.53180000  0.21830000  1.0 0.0902946234
H  H191  1  0.08090000  0.46820000  0.71830000  1.0 0.0902946234
H  H192  1  0.58090000  0.03180000  0.28170000  1.0 0.0902946234
H  H193  1  0.16810000  0.16090000  0.99220000  1.0 0.0902946234
H  H194  1  0.33190000  0.83910000  0.49220000  1.0 0.0902946234
H  H195  1  0.66810000  0.33910000  0.00780000  1.0 0.0902946234
H  H196  1  0.99220000  0.16810000  0.16090000  1.0 0.0902946234
H  H197  1  0.83190000  0.66090000  0.50780000  1.0 0.0902946234
H  H198  1  0.50780000  0.83190000  0.66090000  1.0 0.0902946234
H  H199  1  0.49220000  0.33190000  0.83910000  1.0 0.0902946234
H  H200  1  0.00780000  0.66810000  0.33910000  1.0 0.0902946234
H  H201  1  0.16090000  0.99220000  0.16810000  1.0 0.0902946234
H  H202  1  0.66090000  0.50780000  0.83190000  1.0 0.0902946234
H  H203  1  0.83910000  0.49220000  0.33190000  1.0 0.0902946234
H  H204  1  0.33910000  0.00780000  0.66810000  1.0 0.0902946234
H  H205  1  0.83190000  0.83910000  0.00780000  1.0 0.0902946234
H  H206  1  0.66810000  0.16090000  0.50780000  1.0 0.0902946234
H  H207  1  0.33190000  0.66090000  0.99220000  1.0 0.0902946234
H  H208  1  0.00780000  0.83190000  0.83910000  1.0 0.0902946234
H  H209  1  0.16810000  0.33910000  0.49220000  1.0 0.0902946234
H  H210  1  0.49220000  0.16810000  0.33910000  1.0 0.0902946234
H  H211  1  0.50780000  0.66810000  0.16090000  1.0 0.0902946234
H  H212  1  0.99220000  0.33190000  0.66090000  1.0 0.0902946234
H  H213  1  0.83910000  0.00780000  0.83190000  1.0 0.0902946234
H  H214  1  0.33910000  0.49220000  0.16810000  1.0 0.0902946234
H  H215  1  0.16090000  0.50780000  0.66810000  1.0 0.0902946234
H  H216  1  0.66090000  0.99220000  0.33190000  1.0 0.0902946234
H  H217  1  0.12090000  0.06950000  0.00140000  1.0 0.1092131416
H  H218  1  0.37910000  0.93050000  0.50140000  1.0 0.1092131416
H  H219  1  0.62090000  0.43050000  0.99860000  1.0 0.1092131416
H  H220  1  0.00140000  0.12090000  0.06950000  1.0 0.1092131416
H  H221  1  0.87910000  0.56950000  0.49860000  1.0 0.1092131416
H  H222  1  0.49860000  0.87910000  0.56950000  1.0 0.1092131416
H  H223  1  0.50140000  0.37910000  0.93050000  1.0 0.1092131416
H  H224  1  0.99860000  0.62090000  0.43050000  1.0 0.1092131416
H  H225  1  0.06950000  0.00140000  0.12090000  1.0 0.1092131416
H  H226  1  0.56950000  0.49860000  0.87910000  1.0 0.1092131416
H  H227  1  0.93050000  0.50140000  0.37910000  1.0 0.1092131416
H  H228  1  0.43050000  0.99860000  0.62090000  1.0 0.1092131416
H  H229  1  0.87910000  0.93050000  0.99860000  1.0 0.1092131416
H  H230  1  0.62090000  0.06950000  0.49860000  1.0 0.1092131416
H  H231  1  0.37910000  0.56950000  0.00140000  1.0 0.1092131416
H  H232  1  0.99860000  0.87910000  0.93050000  1.0 0.1092131416
H  H233  1  0.12090000  0.43050000  0.50140000  1.0 0.1092131416
H  H234  1  0.50140000  0.12090000  0.43050000  1.0 0.1092131416
H  H235  1  0.49860000  0.62090000  0.06950000  1.0 0.1092131416
H  H236  1  0.00140000  0.37910000  0.56950000  1.0 0.1092131416
H  H237  1  0.93050000  0.99860000  0.87910000  1.0 0.1092131416
H  H238  1  0.43050000  0.50140000  0.12090000  1.0 0.1092131416
H  H239  1  0.06950000  0.49860000  0.62090000  1.0 0.1092131416
H  H240  1  0.56950000  0.00140000  0.37910000  1.0 0.1092131416
H  H241  1  0.22870000  0.66810000  0.10820000  1.0 0.0588568977
H  H242  1  0.27130000  0.33190000  0.60820000  1.0 0.0588568977
H  H243  1  0.72870000  0.83190000  0.89180000  1.0 0.0588568977
H  H244  1  0.10820000  0.22870000  0.66810000  1.0 0.0588568977
H  H245  1  0.77130000  0.16810000  0.39180000  1.0 0.0588568977
H  H246  1  0.39180000  0.77130000  0.16810000  1.0 0.0588568977
H  H247  1  0.60820000  0.27130000  0.33190000  1.0 0.0588568977
H  H248  1  0.89180000  0.72870000  0.83190000  1.0 0.0588568977
H  H249  1  0.66810000  0.10820000  0.22870000  1.0 0.0588568977
H  H250  1  0.16810000  0.39180000  0.77130000  1.0 0.0588568977
H  H251  1  0.33190000  0.60820000  0.27130000  1.0 0.0588568977
H  H252  1  0.83190000  0.89180000  0.72870000  1.0 0.0588568977
H  H253  1  0.77130000  0.33190000  0.89180000  1.0 0.0588568977
H  H254  1  0.72870000  0.66810000  0.39180000  1.0 0.0588568977
H  H255  1  0.27130000  0.16810000  0.10820000  1.0 0.0588568977
H  H256  1  0.89180000  0.77130000  0.33190000  1.0 0.0588568977
H  H257  1  0.22870000  0.83190000  0.60820000  1.0 0.0588568977
H  H258  1  0.60820000  0.22870000  0.83190000  1.0 0.0588568977
H  H259  1  0.39180000  0.72870000  0.66810000  1.0 0.0588568977
H  H260  1  0.10820000  0.27130000  0.16810000  1.0 0.0588568977
H  H261  1  0.33190000  0.89180000  0.77130000  1.0 0.0588568977
H  H262  1  0.83190000  0.60820000  0.22870000  1.0 0.0588568977
H  H263  1  0.66810000  0.39180000  0.72870000  1.0 0.0588568977
H  H264  1  0.16810000  0.10820000  0.27130000  1.0 0.0588568977
H  H265  1  0.19420000  0.71930000  0.11590000  1.0 0.0588568977
H  H266  1  0.30580000  0.28070000  0.61590000  1.0 0.0588568977
H  H267  1  0.69420000  0.78070000  0.88410000  1.0 0.0588568977
H  H268  1  0.11590000  0.19420000  0.71930000  1.0 0.0588568977
H  H269  1  0.80580000  0.21930000  0.38410000  1.0 0.0588568977
H  H270  1  0.38410000  0.80580000  0.21930000  1.0 0.0588568977
H  H271  1  0.61590000  0.30580000  0.28070000  1.0 0.0588568977
H  H272  1  0.88410000  0.69420000  0.78070000  1.0 0.0588568977
H  H273  1  0.71930000  0.11590000  0.19420000  1.0 0.0588568977
H  H274  1  0.21930000  0.38410000  0.80580000  1.0 0.0588568977
H  H275  1  0.28070000  0.61590000  0.30580000  1.0 0.0588568977
H  H276  1  0.78070000  0.88410000  0.69420000  1.0 0.0588568977
H  H277  1  0.80580000  0.28070000  0.88410000  1.0 0.0588568977
H  H278  1  0.69420000  0.71930000  0.38410000  1.0 0.0588568977
H  H279  1  0.30580000  0.21930000  0.11590000  1.0 0.0588568977
H  H280  1  0.88410000  0.80580000  0.28070000  1.0 0.0588568977
H  H281  1  0.19420000  0.78070000  0.61590000  1.0 0.0588568977
H  H282  1  0.61590000  0.19420000  0.78070000  1.0 0.0588568977
H  H283  1  0.38410000  0.69420000  0.71930000  1.0 0.0588568977
H  H284  1  0.11590000  0.30580000  0.21930000  1.0 0.0588568977
H  H285  1  0.28070000  0.88410000  0.80580000  1.0 0.0588568977
H  H286  1  0.78070000  0.61590000  0.19420000  1.0 0.0588568977
H  H287  1  0.71930000  0.38410000  0.69420000  1.0 0.0588568977
H  H288  1  0.21930000  0.11590000  0.30580000  1.0 0.0588568977
H  H289  1  0.17340000  0.72700000  0.95340000  1.0 0.0588568977
H  H290  1  0.32660000  0.27300000  0.45340000  1.0 0.0588568977
H  H291  1  0.67340000  0.77300000  0.04660000  1.0 0.0588568977
H  H292  1  0.95340000  0.17340000  0.72700000  1.0 0.0588568977
H  H293  1  0.82660000  0.22700000  0.54660000  1.0 0.0588568977
H  H294  1  0.54660000  0.82660000  0.22700000  1.0 0.0588568977
H  H295  1  0.45340000  0.32660000  0.27300000  1.0 0.0588568977
H  H296  1  0.04660000  0.67340000  0.77300000  1.0 0.0588568977
H  H297  1  0.72700000  0.95340000  0.17340000  1.0 0.0588568977
H  H298  1  0.22700000  0.54660000  0.82660000  1.0 0.0588568977
H  H299  1  0.27300000  0.45340000  0.32660000  1.0 0.0588568977
H  H300  1  0.77300000  0.04660000  0.67340000  1.0 0.0588568977
H  H301  1  0.82660000  0.27300000  0.04660000  1.0 0.0588568977
H  H302  1  0.67340000  0.72700000  0.54660000  1.0 0.0588568977
H  H303  1  0.32660000  0.22700000  0.95340000  1.0 0.0588568977
H  H304  1  0.04660000  0.82660000  0.27300000  1.0 0.0588568977
H  H305  1  0.17340000  0.77300000  0.45340000  1.0 0.0588568977
H  H306  1  0.45340000  0.17340000  0.77300000  1.0 0.0588568977
H  H307  1  0.54660000  0.67340000  0.72700000  1.0 0.0588568977
H  H308  1  0.95340000  0.32660000  0.22700000  1.0 0.0588568977
H  H309  1  0.27300000  0.04660000  0.82660000  1.0 0.0588568977
H  H310  1  0.77300000  0.45340000  0.17340000  1.0 0.0588568977
H  H311  1  0.72700000  0.54660000  0.67340000  1.0 0.0588568977
H  H312  1  0.22700000  0.95340000  0.32660000  1.0 0.0588568977
H  H313  1  0.21450000  0.68270000  0.94530000  1.0 0.0514082361
H  H314  1  0.28550000  0.31730000  0.44530000  1.0 0.0514082361
H  H315  1  0.71450000  0.81730000  0.05470000  1.0 0.0514082361
H  H316  1  0.94530000  0.21450000  0.68270000  1.0 0.0514082361
H  H317  1  0.78550000  0.18270000  0.55470000  1.0 0.0514082361
H  H318  1  0.55470000  0.78550000  0.18270000  1.0 0.0514082361
H  H319  1  0.44530000  0.28550000  0.31730000  1.0 0.0514082361
H  H320  1  0.05470000  0.71450000  0.81730000  1.0 0.0514082361
H  H321  1  0.68270000  0.94530000  0.21450000  1.0 0.0514082361
H  H322  1  0.18270000  0.55470000  0.78550000  1.0 0.0514082361
H  H323  1  0.31730000  0.44530000  0.28550000  1.0 0.0514082361
H  H324  1  0.81730000  0.05470000  0.71450000  1.0 0.0514082361
H  H325  1  0.78550000  0.31730000  0.05470000  1.0 0.0514082361
H  H326  1  0.71450000  0.68270000  0.55470000  1.0 0.0514082361
H  H327  1  0.28550000  0.18270000  0.94530000  1.0 0.0514082361
H  H328  1  0.05470000  0.78550000  0.31730000  1.0 0.0514082361
H  H329  1  0.21450000  0.81730000  0.44530000  1.0 0.0514082361
H  H330  1  0.44530000  0.21450000  0.81730000  1.0 0.0514082361
H  H331  1  0.55470000  0.71450000  0.68270000  1.0 0.0514082361
H  H332  1  0.94530000  0.28550000  0.18270000  1.0 0.0514082361
H  H333  1  0.31730000  0.05470000  0.78550000  1.0 0.0514082361
H  H334  1  0.81730000  0.44530000  0.21450000  1.0 0.0514082361
H  H335  1  0.68270000  0.55470000  0.71450000  1.0 0.0514082361
H  H336  1  0.18270000  0.94530000  0.28550000  1.0 0.0514082361
C  C1  1  0.30730000  0.21520000  0.03360000  1.0 -0.0691863377
C  C2  1  0.19270000  0.78480000  0.53360000  1.0 -0.0691863377
C  C3  1  0.80730000  0.28480000  0.96640000  1.0 -0.0691863377
C  C4  1  0.03360000  0.30730000  0.21520000  1.0 -0.0691863377
C  C5  1  0.69270000  0.71520000  0.46640000  1.0 -0.0691863377
C  C6  1  0.46640000  0.69270000  0.71520000  1.0 -0.0691863377
C  C7  1  0.53360000  0.19270000  0.78480000  1.0 -0.0691863377
C  C8  1  0.96640000  0.80730000  0.28480000  1.0 -0.0691863377
C  C9  1  0.21520000  0.03360000  0.30730000  1.0 -0.0691863377
C  C10  1  0.71520000  0.46640000  0.69270000  1.0 -0.0691863377
C  C11  1  0.78480000  0.53360000  0.19270000  1.0 -0.0691863377
C  C12  1  0.28480000  0.96640000  0.80730000  1.0 -0.0691863377
C  C13  1  0.69270000  0.78480000  0.96640000  1.0 -0.0691863377
C  C14  1  0.80730000  0.21520000  0.46640000  1.0 -0.0691863377
C  C15  1  0.19270000  0.71520000  0.03360000  1.0 -0.0691863377
C  C16  1  0.96640000  0.69270000  0.78480000  1.0 -0.0691863377
C  C17  1  0.30730000  0.28480000  0.53360000  1.0 -0.0691863377
C  C18  1  0.53360000  0.30730000  0.28480000  1.0 -0.0691863377
C  C19  1  0.46640000  0.80730000  0.21520000  1.0 -0.0691863377
C  C20  1  0.03360000  0.19270000  0.71520000  1.0 -0.0691863377
C  C21  1  0.78480000  0.96640000  0.69270000  1.0 -0.0691863377
C  C22  1  0.28480000  0.53360000  0.30730000  1.0 -0.0691863377
C  C23  1  0.21520000  0.46640000  0.80730000  1.0 -0.0691863377
C  C24  1  0.71520000  0.03360000  0.19270000  1.0 -0.0691863377
C  C25  1  0.28080000  0.18890000  0.02940000  1.0 -0.0877161004
C  C26  1  0.21920000  0.81110000  0.52940000  1.0 -0.0877161004
C  C27  1  0.78080000  0.31110000  0.97060000  1.0 -0.0877161004
C  C28  1  0.02940000  0.28080000  0.18890000  1.0 -0.0877161004
C  C29  1  0.71920000  0.68890000  0.47060000  1.0 -0.0877161004
C  C30  1  0.47060000  0.71920000  0.68890000  1.0 -0.0877161004
C  C31  1  0.52940000  0.21920000  0.81110000  1.0 -0.0877161004
C  C32  1  0.97060000  0.78080000  0.31110000  1.0 -0.0877161004
C  C33  1  0.18890000  0.02940000  0.28080000  1.0 -0.0877161004
C  C34  1  0.68890000  0.47060000  0.71920000  1.0 -0.0877161004
C  C35  1  0.81110000  0.52940000  0.21920000  1.0 -0.0877161004
C  C36  1  0.31110000  0.97060000  0.78080000  1.0 -0.0877161004
C  C37  1  0.71920000  0.81110000  0.97060000  1.0 -0.0877161004
C  C38  1  0.78080000  0.18890000  0.47060000  1.0 -0.0877161004
C  C39  1  0.21920000  0.68890000  0.02940000  1.0 -0.0877161004
C  C40  1  0.97060000  0.71920000  0.81110000  1.0 -0.0877161004
C  C41  1  0.28080000  0.31110000  0.52940000  1.0 -0.0877161004
C  C42  1  0.52940000  0.28080000  0.31110000  1.0 -0.0877161004
C  C43  1  0.47060000  0.78080000  0.18890000  1.0 -0.0877161004
C  C44  1  0.02940000  0.21920000  0.68890000  1.0 -0.0877161004
C  C45  1  0.81110000  0.97060000  0.71920000  1.0 -0.0877161004
C  C46  1  0.31110000  0.52940000  0.28080000  1.0 -0.0877161004
C  C47  1  0.18890000  0.47060000  0.78080000  1.0 -0.0877161004
C  C48  1  0.68890000  0.02940000  0.21920000  1.0 -0.0877161004
C  C49  1  0.33502000  0.26080000  0.07020000  1.0 0.2020485326
C  C50  1  0.16498000  0.73920000  0.57020000  1.0 0.2020485326
C  C51  1  0.83502000  0.23920000  0.92980000  1.0 0.2020485326
C  C52  1  0.07020000  0.33502000  0.26080000  1.0 0.2020485326
C  C53  1  0.66498000  0.76080000  0.42980000  1.0 0.2020485326
C  C54  1  0.42980000  0.66498000  0.76080000  1.0 0.2020485326
C  C55  1  0.57020000  0.16498000  0.73920000  1.0 0.2020485326
C  C56  1  0.92980000  0.83502000  0.23920000  1.0 0.2020485326
C  C57  1  0.26080000  0.07020000  0.33502000  1.0 0.2020485326
C  C58  1  0.76080000  0.42980000  0.66498000  1.0 0.2020485326
C  C59  1  0.73920000  0.57020000  0.16498000  1.0 0.2020485326
C  C60  1  0.23920000  0.92980000  0.83502000  1.0 0.2020485326
C  C61  1  0.66498000  0.73920000  0.92980000  1.0 0.2020485326
C  C62  1  0.83502000  0.26080000  0.42980000  1.0 0.2020485326
C  C63  1  0.16498000  0.76080000  0.07020000  1.0 0.2020485326
C  C64  1  0.92980000  0.66498000  0.73920000  1.0 0.2020485326
C  C65  1  0.33502000  0.23920000  0.57020000  1.0 0.2020485326
C  C66  1  0.57020000  0.33502000  0.23920000  1.0 0.2020485326
C  C67  1  0.42980000  0.83502000  0.26080000  1.0 0.2020485326
C  C68  1  0.07020000  0.16498000  0.76080000  1.0 0.2020485326
C  C69  1  0.73920000  0.92980000  0.66498000  1.0 0.2020485326
C  C70  1  0.23920000  0.57020000  0.33502000  1.0 0.2020485326
C  C71  1  0.26080000  0.42980000  0.83502000  1.0 0.2020485326
C  C72  1  0.76080000  0.07020000  0.16498000  1.0 0.2020485326
C  C73  1  0.30720000  0.23430000  0.06540000  1.0 -0.0111258007
C  C74  1  0.19280000  0.76570000  0.56540000  1.0 -0.0111258007
C  C75  1  0.80720000  0.26570000  0.93460000  1.0 -0.0111258007
C  C76  1  0.06540000  0.30720000  0.23430000  1.0 -0.0111258007
C  C77  1  0.69280000  0.73430000  0.43460000  1.0 -0.0111258007
C  C78  1  0.43460000  0.69280000  0.73430000  1.0 -0.0111258007
C  C79  1  0.56540000  0.19280000  0.76570000  1.0 -0.0111258007
C  C80  1  0.93460000  0.80720000  0.26570000  1.0 -0.0111258007
C  C81  1  0.23430000  0.06540000  0.30720000  1.0 -0.0111258007
C  C82  1  0.73430000  0.43460000  0.69280000  1.0 -0.0111258007
C  C83  1  0.76570000  0.56540000  0.19280000  1.0 -0.0111258007
C  C84  1  0.26570000  0.93460000  0.80720000  1.0 -0.0111258007
C  C85  1  0.69280000  0.76570000  0.93460000  1.0 -0.0111258007
C  C86  1  0.80720000  0.23430000  0.43460000  1.0 -0.0111258007
C  C87  1  0.19280000  0.73430000  0.06540000  1.0 -0.0111258007
C  C88  1  0.93460000  0.69280000  0.76570000  1.0 -0.0111258007
C  C89  1  0.30720000  0.26570000  0.56540000  1.0 -0.0111258007
C  C90  1  0.56540000  0.30720000  0.26570000  1.0 -0.0111258007
C  C91  1  0.43460000  0.80720000  0.23430000  1.0 -0.0111258007
C  C92  1  0.06540000  0.19280000  0.73430000  1.0 -0.0111258007
C  C93  1  0.76570000  0.93460000  0.69280000  1.0 -0.0111258007
C  C94  1  0.26570000  0.56540000  0.30720000  1.0 -0.0111258007
C  C95  1  0.23430000  0.43460000  0.80720000  1.0 -0.0111258007
C  C96  1  0.73430000  0.06540000  0.19280000  1.0 -0.0111258007
C  C97  1  0.25730000  0.18670000  0.05690000  1.0 -0.020067455
C  C98  1  0.24270000  0.81330000  0.55690000  1.0 -0.020067455
C  C99  1  0.75730000  0.31330000  0.94310000  1.0 -0.020067455
C  C100  1  0.05690000  0.25730000  0.18670000  1.0 -0.020067455
C  C101  1  0.74270000  0.68670000  0.44310000  1.0 -0.020067455
C  C102  1  0.44310000  0.74270000  0.68670000  1.0 -0.020067455
C  C103  1  0.55690000  0.24270000  0.81330000  1.0 -0.020067455
C  C104  1  0.94310000  0.75730000  0.31330000  1.0 -0.020067455
C  C105  1  0.18670000  0.05690000  0.25730000  1.0 -0.020067455
C  C106  1  0.68670000  0.44310000  0.74270000  1.0 -0.020067455
C  C107  1  0.81330000  0.55690000  0.24270000  1.0 -0.020067455
C  C108  1  0.31330000  0.94310000  0.75730000  1.0 -0.020067455
C  C109  1  0.74270000  0.81330000  0.94310000  1.0 -0.020067455
C  C110  1  0.75730000  0.18670000  0.44310000  1.0 -0.020067455
C  C111  1  0.24270000  0.68670000  0.05690000  1.0 -0.020067455
C  C112  1  0.94310000  0.74270000  0.81330000  1.0 -0.020067455
C  C113  1  0.25730000  0.31330000  0.55690000  1.0 -0.020067455
C  C114  1  0.55690000  0.25730000  0.31330000  1.0 -0.020067455
C  C115  1  0.44310000  0.75730000  0.18670000  1.0 -0.020067455
C  C116  1  0.05690000  0.24270000  0.68670000  1.0 -0.020067455
C  C117  1  0.81330000  0.94310000  0.74270000  1.0 -0.020067455
C  C118  1  0.31330000  0.55690000  0.25730000  1.0 -0.020067455
C  C119  1  0.18670000  0.44310000  0.75730000  1.0 -0.020067455
C  C120  1  0.68670000  0.05690000  0.24270000  1.0 -0.020067455
C  C121  1  0.26060000  0.20150000  0.08750000  1.0 -0.0691863377
C  C122  1  0.23940000  0.79850000  0.58750000  1.0 -0.0691863377
C  C123  1  0.76060000  0.29850000  0.91250000  1.0 -0.0691863377
C  C124  1  0.08750000  0.26060000  0.20150000  1.0 -0.0691863377
C  C125  1  0.73940000  0.70150000  0.41250000  1.0 -0.0691863377
C  C126  1  0.41250000  0.73940000  0.70150000  1.0 -0.0691863377
C  C127  1  0.58750000  0.23940000  0.79850000  1.0 -0.0691863377
C  C128  1  0.91250000  0.76060000  0.29850000  1.0 -0.0691863377
C  C129  1  0.20150000  0.08750000  0.26060000  1.0 -0.0691863377
C  C130  1  0.70150000  0.41250000  0.73940000  1.0 -0.0691863377
C  C131  1  0.79850000  0.58750000  0.23940000  1.0 -0.0691863377
C  C132  1  0.29850000  0.91250000  0.76060000  1.0 -0.0691863377
C  C133  1  0.73940000  0.79850000  0.91250000  1.0 -0.0691863377
C  C134  1  0.76060000  0.20150000  0.41250000  1.0 -0.0691863377
C  C135  1  0.23940000  0.70150000  0.08750000  1.0 -0.0691863377
C  C136  1  0.91250000  0.73940000  0.79850000  1.0 -0.0691863377
C  C137  1  0.26060000  0.29850000  0.58750000  1.0 -0.0691863377
C  C138  1  0.58750000  0.26060000  0.29850000  1.0 -0.0691863377
C  C139  1  0.41250000  0.76060000  0.20150000  1.0 -0.0691863377
C  C140  1  0.08750000  0.23940000  0.70150000  1.0 -0.0691863377
C  C141  1  0.79850000  0.91250000  0.73940000  1.0 -0.0691863377
C  C142  1  0.29850000  0.58750000  0.26060000  1.0 -0.0691863377
C  C143  1  0.20150000  0.41250000  0.76060000  1.0 -0.0691863377
C  C144  1  0.70150000  0.08750000  0.23940000  1.0 -0.0691863377
C  C145  1  0.28350000  0.22960000  0.09000000  1.0 -0.1100464218
C  C146  1  0.21650000  0.77040000  0.59000000  1.0 -0.1100464218
C  C147  1  0.78350000  0.27040000  0.91000000  1.0 -0.1100464218
C  C148  1  0.09000000  0.28350000  0.22960000  1.0 -0.1100464218
C  C149  1  0.71650000  0.72960000  0.41000000  1.0 -0.1100464218
C  C150  1  0.41000000  0.71650000  0.72960000  1.0 -0.1100464218
C  C151  1  0.59000000  0.21650000  0.77040000  1.0 -0.1100464218
C  C152  1  0.91000000  0.78350000  0.27040000  1.0 -0.1100464218
C  C153  1  0.22960000  0.09000000  0.28350000  1.0 -0.1100464218
C  C154  1  0.72960000  0.41000000  0.71650000  1.0 -0.1100464218
C  C155  1  0.77040000  0.59000000  0.21650000  1.0 -0.1100464218
C  C156  1  0.27040000  0.91000000  0.78350000  1.0 -0.1100464218
C  C157  1  0.71650000  0.77040000  0.91000000  1.0 -0.1100464218
C  C158  1  0.78350000  0.22960000  0.41000000  1.0 -0.1100464218
C  C159  1  0.21650000  0.72960000  0.09000000  1.0 -0.1100464218
C  C160  1  0.91000000  0.71650000  0.77040000  1.0 -0.1100464218
C  C161  1  0.28350000  0.27040000  0.59000000  1.0 -0.1100464218
C  C162  1  0.59000000  0.28350000  0.27040000  1.0 -0.1100464218
C  C163  1  0.41000000  0.78350000  0.22960000  1.0 -0.1100464218
C  C164  1  0.09000000  0.21650000  0.72960000  1.0 -0.1100464218
C  C165  1  0.77040000  0.91000000  0.71650000  1.0 -0.1100464218
C  C166  1  0.27040000  0.59000000  0.28350000  1.0 -0.1100464218
C  C167  1  0.22960000  0.41000000  0.78350000  1.0 -0.1100464218
C  C168  1  0.72960000  0.09000000  0.21650000  1.0 -0.1100464218
C  C169  1  0.22880000  0.16240000  0.05060000  1.0 0.2295301493
C  C170  1  0.27120000  0.83760000  0.55060000  1.0 0.2295301493
C  C171  1  0.72880000  0.33760000  0.94940000  1.0 0.2295301493
C  C172  1  0.05060000  0.22880000  0.16240000  1.0 0.2295301493
C  C173  1  0.77120000  0.66240000  0.44940000  1.0 0.2295301493
C  C174  1  0.44940000  0.77120000  0.66240000  1.0 0.2295301493
C  C175  1  0.55060000  0.27120000  0.83760000  1.0 0.2295301493
C  C176  1  0.94940000  0.72880000  0.33760000  1.0 0.2295301493
C  C177  1  0.16240000  0.05060000  0.22880000  1.0 0.2295301493
C  C178  1  0.66240000  0.44940000  0.77120000  1.0 0.2295301493
C  C179  1  0.83760000  0.55060000  0.27120000  1.0 0.2295301493
C  C180  1  0.33760000  0.94940000  0.72880000  1.0 0.2295301493
C  C181  1  0.77120000  0.83760000  0.94940000  1.0 0.2295301493
C  C182  1  0.72880000  0.16240000  0.44940000  1.0 0.2295301493
C  C183  1  0.27120000  0.66240000  0.05060000  1.0 0.2295301493
C  C184  1  0.94940000  0.77120000  0.83760000  1.0 0.2295301493
C  C185  1  0.22880000  0.33760000  0.55060000  1.0 0.2295301493
C  C186  1  0.55060000  0.22880000  0.33760000  1.0 0.2295301493
C  C187  1  0.44940000  0.72880000  0.16240000  1.0 0.2295301493
C  C188  1  0.05060000  0.27120000  0.66240000  1.0 0.2295301493
C  C189  1  0.83760000  0.94940000  0.77120000  1.0 0.2295301493
C  C190  1  0.33760000  0.55060000  0.22880000  1.0 0.2295301493
C  C191  1  0.16240000  0.44940000  0.72880000  1.0 0.2295301493
C  C192  1  0.66240000  0.05060000  0.27120000  1.0 0.2295301493
C  C193  1  0.33590000  0.21450000  0.01360000  1.0 -0.0327849762
C  C194  1  0.16410000  0.78550000  0.51360000  1.0 -0.0327849762
C  C195  1  0.83590000  0.28550000  0.98640000  1.0 -0.0327849762
C  C196  1  0.01360000  0.33590000  0.21450000  1.0 -0.0327849762
C  C197  1  0.66410000  0.71450000  0.48640000  1.0 -0.0327849762
C  C198  1  0.48640000  0.66410000  0.71450000  1.0 -0.0327849762
C  C199  1  0.51360000  0.16410000  0.78550000  1.0 -0.0327849762
C  C200  1  0.98640000  0.83590000  0.28550000  1.0 -0.0327849762
C  C201  1  0.21450000  0.01360000  0.33590000  1.0 -0.0327849762
C  C202  1  0.71450000  0.48640000  0.66410000  1.0 -0.0327849762
C  C203  1  0.78550000  0.51360000  0.16410000  1.0 -0.0327849762
C  C204  1  0.28550000  0.98640000  0.83590000  1.0 -0.0327849762
C  C205  1  0.66410000  0.78550000  0.98640000  1.0 -0.0327849762
C  C206  1  0.83590000  0.21450000  0.48640000  1.0 -0.0327849762
C  C207  1  0.16410000  0.71450000  0.01360000  1.0 -0.0327849762
C  C208  1  0.98640000  0.66410000  0.78550000  1.0 -0.0327849762
C  C209  1  0.33590000  0.28550000  0.51360000  1.0 -0.0327849762
C  C210  1  0.51360000  0.33590000  0.28550000  1.0 -0.0327849762
C  C211  1  0.48640000  0.83590000  0.21450000  1.0 -0.0327849762
C  C212  1  0.01360000  0.16410000  0.71450000  1.0 -0.0327849762
C  C213  1  0.78550000  0.98640000  0.66410000  1.0 -0.0327849762
C  C214  1  0.28550000  0.51360000  0.33590000  1.0 -0.0327849762
C  C215  1  0.21450000  0.48640000  0.83590000  1.0 -0.0327849762
C  C216  1  0.71450000  0.01360000  0.16410000  1.0 -0.0327849762
C  C217  1  0.36500000  0.23870000  0.02110000  1.0 0.1287901976
C  C218  1  0.13500000  0.76130000  0.52110000  1.0 0.1203483391
C  C219  1  0.86500000  0.26130000  0.97890000  1.0 0.1203483391
C  C220  1  0.02110000  0.36500000  0.23870000  1.0 0.1203483391
C  C221  1  0.63500000  0.73870000  0.47890000  1.0 0.1203483391
C  C222  1  0.47890000  0.63500000  0.73870000  1.0 0.1203483391
C  C223  1  0.52110000  0.13500000  0.76130000  1.0 0.1203483391
C  C224  1  0.97890000  0.86500000  0.26130000  1.0 0.1203483391
C  C225  1  0.23870000  0.02110000  0.36500000  1.0 0.1203483391
C  C226  1  0.73870000  0.47890000  0.63500000  1.0 0.1203483391
C  C227  1  0.76130000  0.52110000  0.13500000  1.0 0.1287901976
C  C228  1  0.26130000  0.97890000  0.86500000  1.0 0.1203483391
C  C229  1  0.63500000  0.76130000  0.97890000  1.0 0.1203483391
C  C230  1  0.86500000  0.23870000  0.47890000  1.0 0.1203483391
C  C231  1  0.13500000  0.73870000  0.02110000  1.0 0.1203483391
C  C232  1  0.97890000  0.63500000  0.76130000  1.0 0.1203483391
C  C233  1  0.36500000  0.26130000  0.52110000  1.0 0.1203483391
C  C234  1  0.52110000  0.36500000  0.26130000  1.0 0.1287901976
C  C235  1  0.47890000  0.86500000  0.23870000  1.0 0.1203483391
C  C236  1  0.02110000  0.13500000  0.73870000  1.0 0.1203483391
C  C237  1  0.76130000  0.97890000  0.63500000  1.0 0.1203483391
C  C238  1  0.26130000  0.52110000  0.36500000  1.0 0.1203483391
C  C239  1  0.23870000  0.47890000  0.86500000  1.0 0.1203483391
C  C240  1  0.73870000  0.02110000  0.13500000  1.0 0.1287901976
C  C241  1  0.33360000  0.19690000  0.98320000  1.0 -0.0877161004
C  C242  1  0.16640000  0.80310000  0.48320000  1.0 -0.0877161004
C  C243  1  0.83360000  0.30310000  0.01680000  1.0 -0.0877161004
C  C244  1  0.98320000  0.33360000  0.19690000  1.0 -0.0877161004
C  C245  1  0.66640000  0.69690000  0.51680000  1.0 -0.0877161004
C  C246  1  0.51680000  0.66640000  0.69690000  1.0 -0.0877161004
C  C247  1  0.48320000  0.16640000  0.80310000  1.0 -0.0877161004
C  C248  1  0.01680000  0.83360000  0.30310000  1.0 -0.0877161004
C  C249  1  0.19690000  0.98320000  0.33360000  1.0 -0.0877161004
C  C250  1  0.69690000  0.51680000  0.66640000  1.0 -0.0877161004
C  C251  1  0.80310000  0.48320000  0.16640000  1.0 -0.0877161004
C  C252  1  0.30310000  0.01680000  0.83360000  1.0 -0.0877161004
C  C253  1  0.66640000  0.80310000  0.01680000  1.0 -0.0877161004
C  C254  1  0.83360000  0.19690000  0.51680000  1.0 -0.0877161004
C  C255  1  0.16640000  0.69690000  0.98320000  1.0 -0.0877161004
C  C256  1  0.01680000  0.66640000  0.80310000  1.0 -0.0877161004
C  C257  1  0.33360000  0.30310000  0.48320000  1.0 -0.0877161004
C  C258  1  0.48320000  0.33360000  0.30310000  1.0 -0.0877161004
C  C259  1  0.51680000  0.83360000  0.19690000  1.0 -0.0877161004
C  C260  1  0.98320000  0.16640000  0.69690000  1.0 -0.0877161004
C  C261  1  0.80310000  0.01680000  0.66640000  1.0 -0.0877161004
C  C262  1  0.30310000  0.48320000  0.33360000  1.0 -0.0877161004
C  C263  1  0.19690000  0.51680000  0.83360000  1.0 -0.0877161004
C  C264  1  0.69690000  0.98320000  0.16640000  1.0 -0.0877161004
C  C265  1  0.30670000  0.17270000  0.97690000  1.0 -0.0877161004
C  C266  1  0.19330000  0.82730000  0.47690000  1.0 -0.0877161004
C  C267  1  0.80670000  0.32730000  0.02310000  1.0 -0.0877161004
C  C268  1  0.97690000  0.30670000  0.17270000  1.0 -0.0792431061
C  C269  1  0.69330000  0.67270000  0.52310000  1.0 -0.0877161004
C  C270  1  0.52310000  0.69330000  0.67270000  1.0 -0.0877161004
C  C271  1  0.47690000  0.19330000  0.82730000  1.0 -0.0877161004
C  C272  1  0.02310000  0.80670000  0.32730000  1.0 -0.0877161004
C  C273  1  0.17270000  0.97690000  0.30670000  1.0 -0.0877161004
C  C274  1  0.67270000  0.52310000  0.69330000  1.0 -0.0877161004
C  C275  1  0.82730000  0.47690000  0.19330000  1.0 -0.0877161004
C  C276  1  0.32730000  0.02310000  0.80670000  1.0 -0.0877161004
C  C277  1  0.69330000  0.82730000  0.02310000  1.0 -0.0792431061
C  C278  1  0.80670000  0.17270000  0.52310000  1.0 -0.0792431061
C  C279  1  0.19330000  0.67270000  0.97690000  1.0 -0.0877161004
C  C280  1  0.02310000  0.69330000  0.82730000  1.0 -0.0877161004
C  C281  1  0.30670000  0.32730000  0.47690000  1.0 -0.0877161004
C  C282  1  0.47690000  0.30670000  0.32730000  1.0 -0.0877161004
C  C283  1  0.52310000  0.80670000  0.17270000  1.0 -0.0877161004
C  C284  1  0.97690000  0.19330000  0.67270000  1.0 -0.0792431061
C  C285  1  0.82730000  0.02310000  0.69330000  1.0 -0.0792431061
C  C286  1  0.32730000  0.47690000  0.30670000  1.0 -0.0877161004
C  C287  1  0.17270000  0.52310000  0.80670000  1.0 -0.0877161004
C  C288  1  0.67270000  0.97690000  0.19330000  1.0 -0.0877161004
C  C289  1  0.28140000  0.16960000  0.00080000  1.0 -0.0028744231
C  C290  1  0.21860000  0.83040000  0.50080000  1.0 0.0012727341
C  C291  1  0.78140000  0.33040000  0.99920000  1.0 -0.0028744231
C  C292  1  0.00080000  0.28140000  0.16960000  1.0 -0.0028744231
C  C293  1  0.71860000  0.66960000  0.49920000  1.0 -0.0028744231
C  C294  1  0.49920000  0.71860000  0.66960000  1.0 -0.0028744231
C  C295  1  0.50080000  0.21860000  0.83040000  1.0 0.0012727341
C  C296  1  0.99920000  0.78140000  0.33040000  1.0 -0.0028744231
C  C297  1  0.16960000  0.00080000  0.28140000  1.0 -0.0028744231
C  C298  1  0.66960000  0.49920000  0.71860000  1.0 -0.0028744231
C  C299  1  0.83040000  0.50080000  0.21860000  1.0 0.0012727341
C  C300  1  0.33040000  0.99920000  0.78140000  1.0 -0.0028744231
C  C301  1  0.71860000  0.83040000  0.99920000  1.0 -0.0028744231
C  C302  1  0.78140000  0.16960000  0.49920000  1.0 -0.0028744231
C  C303  1  0.21860000  0.66960000  0.00080000  1.0 -0.0028744231
C  C304  1  0.99920000  0.71860000  0.83040000  1.0 -0.0028744231
C  C305  1  0.28140000  0.33040000  0.50080000  1.0 0.0012727341
C  C306  1  0.50080000  0.28140000  0.33040000  1.0 0.0012727341
C  C307  1  0.49920000  0.78140000  0.16960000  1.0 -0.0028744231
C  C308  1  0.00080000  0.21860000  0.66960000  1.0 -0.0028744231
C  C309  1  0.83040000  0.99920000  0.71860000  1.0 -0.0028744231
C  C310  1  0.33040000  0.50080000  0.28140000  1.0 0.0012727341
C  C311  1  0.16960000  0.49920000  0.78140000  1.0 -0.0028744231
C  C312  1  0.66960000  0.00080000  0.21860000  1.0 -0.0028744231
C  C313  1  0.25730000  0.14000000  0.00190000  1.0 0.1287901976
C  C314  1  0.24270000  0.86000000  0.50190000  1.0 0.1287901976
C  C315  1  0.75730000  0.36000000  0.99810000  1.0 0.1287901976
C  C316  1  0.00190000  0.25730000  0.14000000  1.0 0.1287901976
C  C317  1  0.74270000  0.64000000  0.49810000  1.0 0.1287901976
C  C318  1  0.49810000  0.74270000  0.64000000  1.0 0.1287901976
C  C319  1  0.50190000  0.24270000  0.86000000  1.0 0.1362672174
C  C320  1  0.99810000  0.75730000  0.36000000  1.0 0.1287901976
C  C321  1  0.14000000  0.00190000  0.25730000  1.0 0.1287901976
C  C322  1  0.64000000  0.49810000  0.74270000  1.0 0.1287901976
C  C323  1  0.86000000  0.50190000  0.24270000  1.0 0.1362672174
C  C324  1  0.36000000  0.99810000  0.75730000  1.0 0.1287901976
C  C325  1  0.74270000  0.86000000  0.99810000  1.0 0.1287901976
C  C326  1  0.75730000  0.14000000  0.49810000  1.0 0.1287901976
C  C327  1  0.24270000  0.64000000  0.00190000  1.0 0.1287901976
C  C328  1  0.99810000  0.74270000  0.86000000  1.0 0.1287901976
C  C329  1  0.25730000  0.36000000  0.50190000  1.0 0.1287901976
C  C330  1  0.50190000  0.25730000  0.36000000  1.0 0.1287901976
C  C331  1  0.49810000  0.75730000  0.14000000  1.0 0.1287901976
C  C332  1  0.00190000  0.24270000  0.64000000  1.0 0.1287901976
C  C333  1  0.86000000  0.99810000  0.74270000  1.0 0.1287901976
C  C334  1  0.36000000  0.50190000  0.25730000  1.0 0.1287901976
C  C335  1  0.14000000  0.49810000  0.75730000  1.0 0.1287901976
C  C336  1  0.64000000  0.00190000  0.24270000  1.0 0.1287901976
C  C337  1  0.46850000  0.32520000  0.04900000  1.0 0.5813791179
C  C338  1  0.03150000  0.67480000  0.54900000  1.0 0.5813791179
C  C339  1  0.96850000  0.17480000  0.95100000  1.0 0.5813791179
C  C340  1  0.04900000  0.46850000  0.32520000  1.0 0.5813791179
C  C341  1  0.53150000  0.82520000  0.45100000  1.0 0.5813791179
C  C342  1  0.45100000  0.53150000  0.82520000  1.0 0.5813791179
C  C343  1  0.54900000  0.03150000  0.67480000  1.0 0.5813791179
C  C344  1  0.95100000  0.96850000  0.17480000  1.0 0.5813791179
C  C345  1  0.32520000  0.04900000  0.46850000  1.0 0.5813791179
C  C346  1  0.82520000  0.45100000  0.53150000  1.0 0.5813791179
C  C347  1  0.67480000  0.54900000  0.03150000  1.0 0.5813791179
C  C348  1  0.17480000  0.95100000  0.96850000  1.0 0.5813791179
C  C349  1  0.53150000  0.67480000  0.95100000  1.0 0.5813791179
C  C350  1  0.96850000  0.32520000  0.45100000  1.0 0.5813791179
C  C351  1  0.03150000  0.82520000  0.04900000  1.0 0.5813791179
C  C352  1  0.95100000  0.53150000  0.67480000  1.0 0.5813791179
C  C353  1  0.46850000  0.17480000  0.54900000  1.0 0.5813791179
C  C354  1  0.54900000  0.46850000  0.17480000  1.0 0.5813791179
C  C355  1  0.45100000  0.96850000  0.32520000  1.0 0.5813791179
C  C356  1  0.04900000  0.03150000  0.82520000  1.0 0.5813791179
C  C357  1  0.67480000  0.95100000  0.53150000  1.0 0.5813791179
C  C358  1  0.17480000  0.54900000  0.46850000  1.0 0.5813791179
C  C359  1  0.32520000  0.45100000  0.96850000  1.0 0.5813791179
C  C360  1  0.82520000  0.04900000  0.03150000  1.0 0.5813791179
C  C361  1  0.43140000  0.32300000  0.04630000  1.0 -0.0421938368
C  C362  1  0.06860000  0.67700000  0.54630000  1.0 -0.0421938368
C  C363  1  0.93140000  0.17700000  0.95370000  1.0 -0.0421938368
C  C364  1  0.04630000  0.43140000  0.32300000  1.0 -0.0421938368
C  C365  1  0.56860000  0.82300000  0.45370000  1.0 -0.0421938368
C  C366  1  0.45370000  0.56860000  0.82300000  1.0 -0.0421938368
C  C367  1  0.54630000  0.06860000  0.67700000  1.0 -0.0421938368
C  C368  1  0.95370000  0.93140000  0.17700000  1.0 -0.0421938368
C  C369  1  0.32300000  0.04630000  0.43140000  1.0 -0.0421938368
C  C370  1  0.82300000  0.45370000  0.56860000  1.0 -0.0421938368
C  C371  1  0.67700000  0.54630000  0.06860000  1.0 -0.0421938368
C  C372  1  0.17700000  0.95370000  0.93140000  1.0 -0.0421938368
C  C373  1  0.56860000  0.67700000  0.95370000  1.0 -0.0421938368
C  C374  1  0.93140000  0.32300000  0.45370000  1.0 -0.0421938368
C  C375  1  0.06860000  0.82300000  0.04630000  1.0 -0.0421938368
C  C376  1  0.95370000  0.56860000  0.67700000  1.0 -0.0421938368
C  C377  1  0.43140000  0.17700000  0.54630000  1.0 -0.0421938368
C  C378  1  0.54630000  0.43140000  0.17700000  1.0 -0.0421938368
C  C379  1  0.45370000  0.93140000  0.32300000  1.0 -0.0421938368
C  C380  1  0.04630000  0.06860000  0.82300000  1.0 -0.0421938368
C  C381  1  0.67700000  0.95370000  0.56860000  1.0 -0.0421938368
C  C382  1  0.17700000  0.54630000  0.43140000  1.0 -0.0421938368
C  C383  1  0.32300000  0.45370000  0.93140000  1.0 -0.0421938368
C  C384  1  0.82300000  0.04630000  0.06860000  1.0 -0.0421938368
C  C385  1  0.41380000  0.35410000  0.04510000  1.0 -0.1100464218
C  C386  1  0.08620000  0.64590000  0.54510000  1.0 -0.1100464218
C  C387  1  0.91380000  0.14590000  0.95490000  1.0 -0.1100464218
C  C388  1  0.04510000  0.41380000  0.35410000  1.0 -0.1100464218
C  C389  1  0.58620000  0.85410000  0.45490000  1.0 -0.1100464218
C  C390  1  0.45490000  0.58620000  0.85410000  1.0 -0.1100464218
C  C391  1  0.54510000  0.08620000  0.64590000  1.0 -0.1100464218
C  C392  1  0.95490000  0.91380000  0.14590000  1.0 -0.1100464218
C  C393  1  0.35410000  0.04510000  0.41380000  1.0 -0.1100464218
C  C394  1  0.85410000  0.45490000  0.58620000  1.0 -0.1100464218
C  C395  1  0.64590000  0.54510000  0.08620000  1.0 -0.1100464218
C  C396  1  0.14590000  0.95490000  0.91380000  1.0 -0.1100464218
C  C397  1  0.58620000  0.64590000  0.95490000  1.0 -0.1100464218
C  C398  1  0.91380000  0.35410000  0.45490000  1.0 -0.1100464218
C  C399  1  0.08620000  0.85410000  0.04510000  1.0 -0.1100464218
C  C400  1  0.95490000  0.58620000  0.64590000  1.0 -0.1100464218
C  C401  1  0.41380000  0.14590000  0.54510000  1.0 -0.1100464218
C  C402  1  0.54510000  0.41380000  0.14590000  1.0 -0.1100464218
C  C403  1  0.45490000  0.91380000  0.35410000  1.0 -0.1100464218
C  C404  1  0.04510000  0.08620000  0.85410000  1.0 -0.1100464218
C  C405  1  0.64590000  0.95490000  0.58620000  1.0 -0.1100464218
C  C406  1  0.14590000  0.54510000  0.41380000  1.0 -0.1100464218
C  C407  1  0.35410000  0.45490000  0.91380000  1.0 -0.1100464218
C  C408  1  0.85410000  0.04510000  0.08620000  1.0 -0.1100464218
C  C409  1  0.37990000  0.35640000  0.04350000  1.0 -0.020067455
C  C410  1  0.12010000  0.64360000  0.54350000  1.0 -0.020067455
C  C411  1  0.87990000  0.14360000  0.95650000  1.0 -0.020067455
C  C412  1  0.04350000  0.37990000  0.35640000  1.0 -0.020067455
C  C413  1  0.62010000  0.85640000  0.45650000  1.0 -0.020067455
C  C414  1  0.45650000  0.62010000  0.85640000  1.0 -0.020067455
C  C415  1  0.54350000  0.12010000  0.64360000  1.0 -0.020067455
C  C416  1  0.95650000  0.87990000  0.14360000  1.0 -0.020067455
C  C417  1  0.35640000  0.04350000  0.37990000  1.0 -0.020067455
C  C418  1  0.85640000  0.45650000  0.62010000  1.0 -0.020067455
C  C419  1  0.64360000  0.54350000  0.12010000  1.0 -0.020067455
C  C420  1  0.14360000  0.95650000  0.87990000  1.0 -0.020067455
C  C421  1  0.62010000  0.64360000  0.95650000  1.0 -0.020067455
C  C422  1  0.87990000  0.35640000  0.45650000  1.0 -0.020067455
C  C423  1  0.12010000  0.85640000  0.04350000  1.0 -0.020067455
C  C424  1  0.95650000  0.62010000  0.64360000  1.0 -0.020067455
C  C425  1  0.37990000  0.14360000  0.54350000  1.0 -0.020067455
C  C426  1  0.54350000  0.37990000  0.14360000  1.0 -0.020067455
C  C427  1  0.45650000  0.87990000  0.35640000  1.0 -0.020067455
C  C428  1  0.04350000  0.12010000  0.85640000  1.0 -0.020067455
C  C429  1  0.64360000  0.95650000  0.62010000  1.0 -0.020067455
C  C430  1  0.14360000  0.54350000  0.37990000  1.0 -0.020067455
C  C431  1  0.35640000  0.45650000  0.87990000  1.0 -0.020067455
C  C432  1  0.85640000  0.04350000  0.12010000  1.0 -0.020067455
C  C433  1  0.36030000  0.32710000  0.04130000  1.0 -0.218883546
C  C434  1  0.13970000  0.67290000  0.54130000  1.0 -0.218883546
C  C435  1  0.86030000  0.17290000  0.95870000  1.0 -0.218883546
C  C436  1  0.04130000  0.36030000  0.32710000  1.0 -0.218883546
C  C437  1  0.63970000  0.82710000  0.45870000  1.0 -0.218883546
C  C438  1  0.45870000  0.63970000  0.82710000  1.0 -0.218883546
C  C439  1  0.54130000  0.13970000  0.67290000  1.0 -0.218883546
C  C440  1  0.95870000  0.86030000  0.17290000  1.0 -0.218883546
C  C441  1  0.32710000  0.04130000  0.36030000  1.0 -0.218883546
C  C442  1  0.82710000  0.45870000  0.63970000  1.0 -0.218883546
C  C443  1  0.67290000  0.54130000  0.13970000  1.0 -0.218883546
C  C444  1  0.17290000  0.95870000  0.86030000  1.0 -0.218883546
C  C445  1  0.63970000  0.67290000  0.95870000  1.0 -0.218883546
C  C446  1  0.86030000  0.32710000  0.45870000  1.0 -0.218883546
C  C447  1  0.13970000  0.82710000  0.04130000  1.0 -0.218883546
C  C448  1  0.95870000  0.63970000  0.67290000  1.0 -0.218883546
C  C449  1  0.36030000  0.17290000  0.54130000  1.0 -0.218883546
C  C450  1  0.54130000  0.36030000  0.17290000  1.0 -0.218883546
C  C451  1  0.45870000  0.86030000  0.32710000  1.0 -0.218883546
C  C452  1  0.04130000  0.13970000  0.82710000  1.0 -0.218883546
C  C453  1  0.67290000  0.95870000  0.63970000  1.0 -0.218883546
C  C454  1  0.17290000  0.54130000  0.36030000  1.0 -0.218883546
C  C455  1  0.32710000  0.45870000  0.86030000  1.0 -0.218883546
C  C456  1  0.82710000  0.04130000  0.13970000  1.0 -0.218883546
C  C457  1  0.37760000  0.29680000  0.04380000  1.0 0.1618855236
C  C458  1  0.12240000  0.70320000  0.54380000  1.0 0.1618855236
C  C459  1  0.87760000  0.20320000  0.95620000  1.0 0.1618855236
C  C460  1  0.04380000  0.37760000  0.29680000  1.0 0.1618855236
C  C461  1  0.62240000  0.79680000  0.45620000  1.0 0.1618855236
C  C462  1  0.45620000  0.62240000  0.79680000  1.0 0.1618855236
C  C463  1  0.54380000  0.12240000  0.70320000  1.0 0.1618855236
C  C464  1  0.95620000  0.87760000  0.20320000  1.0 0.1618855236
C  C465  1  0.29680000  0.04380000  0.37760000  1.0 0.1618855236
C  C466  1  0.79680000  0.45620000  0.62240000  1.0 0.1618855236
C  C467  1  0.70320000  0.54380000  0.12240000  1.0 0.1618855236
C  C468  1  0.20320000  0.95620000  0.87760000  1.0 0.1618855236
C  C469  1  0.62240000  0.70320000  0.95620000  1.0 0.1618855236
C  C470  1  0.87760000  0.29680000  0.45620000  1.0 0.1730456497
C  C471  1  0.12240000  0.79680000  0.04380000  1.0 0.1618855236
C  C472  1  0.95620000  0.62240000  0.70320000  1.0 0.1618855236
C  C473  1  0.37760000  0.20320000  0.54380000  1.0 0.1618855236
C  C474  1  0.54380000  0.37760000  0.20320000  1.0 0.1618855236
C  C475  1  0.45620000  0.87760000  0.29680000  1.0 0.1730456497
C  C476  1  0.04380000  0.12240000  0.79680000  1.0 0.1618855236
C  C477  1  0.70320000  0.95620000  0.62240000  1.0 0.1618855236
C  C478  1  0.20320000  0.54380000  0.37760000  1.0 0.1618855236
C  C479  1  0.29680000  0.45620000  0.87760000  1.0 0.1730456497
C  C480  1  0.79680000  0.04380000  0.12240000  1.0 0.1618855236
C  C481  1  0.41360000  0.29280000  0.04530000  1.0 -0.2268987295
C  C482  1  0.08640000  0.70720000  0.54530000  1.0 -0.2268987295
C  C483  1  0.91360000  0.20720000  0.95470000  1.0 -0.2268987295
C  C484  1  0.04530000  0.41360000  0.29280000  1.0 -0.2268987295
C  C485  1  0.58640000  0.79280000  0.45470000  1.0 -0.2268987295
C  C486  1  0.45470000  0.58640000  0.79280000  1.0 -0.2268987295
C  C487  1  0.54530000  0.08640000  0.70720000  1.0 -0.2268987295
C  C488  1  0.95470000  0.91360000  0.20720000  1.0 -0.2268987295
C  C489  1  0.29280000  0.04530000  0.41360000  1.0 -0.2268987295
C  C490  1  0.79280000  0.45470000  0.58640000  1.0 -0.2268987295
C  C491  1  0.70720000  0.54530000  0.08640000  1.0 -0.2268987295
C  C492  1  0.20720000  0.95470000  0.91360000  1.0 -0.2268987295
C  C493  1  0.58640000  0.70720000  0.95470000  1.0 -0.2268987295
C  C494  1  0.91360000  0.29280000  0.45470000  1.0 -0.2268987295
C  C495  1  0.08640000  0.79280000  0.04530000  1.0 -0.2268987295
C  C496  1  0.95470000  0.58640000  0.70720000  1.0 -0.2268987295
C  C497  1  0.41360000  0.20720000  0.54530000  1.0 -0.2268987295
C  C498  1  0.54530000  0.41360000  0.20720000  1.0 -0.2268987295
C  C499  1  0.45470000  0.91360000  0.29280000  1.0 -0.2268987295
C  C500  1  0.04530000  0.08640000  0.79280000  1.0 -0.2268987295
C  C501  1  0.70720000  0.95470000  0.58640000  1.0 -0.2268987295
C  C502  1  0.20720000  0.54530000  0.41360000  1.0 -0.2268987295
C  C503  1  0.29280000  0.45470000  0.91360000  1.0 -0.2268987295
C  C504  1  0.79280000  0.04530000  0.08640000  1.0 -0.2268987295
C  C505  1  0.17130000  0.03320000  0.02710000  1.0 0.5813791179
C  C506  1  0.32870000  0.96680000  0.52710000  1.0 0.5813791179
C  C507  1  0.67130000  0.46680000  0.97290000  1.0 0.5813791179
C  C508  1  0.02710000  0.17130000  0.03320000  1.0 0.5813791179
C  C509  1  0.82870000  0.53320000  0.47290000  1.0 0.5813791179
C  C510  1  0.47290000  0.82870000  0.53320000  1.0 0.5813791179
C  C511  1  0.52710000  0.32870000  0.96680000  1.0 0.5813791179
C  C512  1  0.97290000  0.67130000  0.46680000  1.0 0.5813791179
C  C513  1  0.03320000  0.02710000  0.17130000  1.0 0.5813791179
C  C514  1  0.53320000  0.47290000  0.82870000  1.0 0.5813791179
C  C515  1  0.96680000  0.52710000  0.32870000  1.0 0.5813791179
C  C516  1  0.46680000  0.97290000  0.67130000  1.0 0.5813791179
C  C517  1  0.82870000  0.96680000  0.97290000  1.0 0.5813791179
C  C518  1  0.67130000  0.03320000  0.47290000  1.0 0.5813791179
C  C519  1  0.32870000  0.53320000  0.02710000  1.0 0.5813791179
C  C520  1  0.97290000  0.82870000  0.96680000  1.0 0.5813791179
C  C521  1  0.17130000  0.46680000  0.52710000  1.0 0.5813791179
C  C522  1  0.52710000  0.17130000  0.46680000  1.0 0.5813791179
C  C523  1  0.47290000  0.67130000  0.03320000  1.0 0.5813791179
C  C524  1  0.02710000  0.32870000  0.53320000  1.0 0.5813791179
C  C525  1  0.96680000  0.97290000  0.82870000  1.0 0.5813791179
C  C526  1  0.46680000  0.52710000  0.17130000  1.0 0.5813791179
C  C527  1  0.03320000  0.47290000  0.67130000  1.0 0.5813791179
C  C528  1  0.53320000  0.02710000  0.32870000  1.0 0.5813791179
C  C529  1  0.16970000  0.06880000  0.01700000  1.0 -0.0517745157
C  C530  1  0.33030000  0.93120000  0.51700000  1.0 -0.0517745157
C  C531  1  0.66970000  0.43120000  0.98300000  1.0 -0.0517745157
C  C532  1  0.01700000  0.16970000  0.06880000  1.0 -0.0517745157
C  C533  1  0.83030000  0.56880000  0.48300000  1.0 -0.0517745157
C  C534  1  0.48300000  0.83030000  0.56880000  1.0 -0.0517745157
C  C535  1  0.51700000  0.33030000  0.93120000  1.0 -0.0517745157
C  C536  1  0.98300000  0.66970000  0.43120000  1.0 -0.0517745157
C  C537  1  0.06880000  0.01700000  0.16970000  1.0 -0.0517745157
C  C538  1  0.56880000  0.48300000  0.83030000  1.0 -0.0517745157
C  C539  1  0.93120000  0.51700000  0.33030000  1.0 -0.0517745157
C  C540  1  0.43120000  0.98300000  0.66970000  1.0 -0.0517745157
C  C541  1  0.83030000  0.93120000  0.98300000  1.0 -0.0517745157
C  C542  1  0.66970000  0.06880000  0.48300000  1.0 -0.0517745157
C  C543  1  0.33030000  0.56880000  0.01700000  1.0 -0.0517745157
C  C544  1  0.98300000  0.83030000  0.93120000  1.0 -0.0517745157
C  C545  1  0.16970000  0.43120000  0.51700000  1.0 -0.0517745157
C  C546  1  0.51700000  0.16970000  0.43120000  1.0 -0.0517745157
C  C547  1  0.48300000  0.66970000  0.06880000  1.0 -0.0517745157
C  C548  1  0.01700000  0.33030000  0.56880000  1.0 -0.0517745157
C  C549  1  0.93120000  0.98300000  0.83030000  1.0 -0.0517745157
C  C550  1  0.43120000  0.51700000  0.16970000  1.0 -0.0517745157
C  C551  1  0.06880000  0.48300000  0.66970000  1.0 -0.0517745157
C  C552  1  0.56880000  0.01700000  0.33030000  1.0 -0.0517745157
C  C553  1  0.19800000  0.09000000  0.02240000  1.0 -0.218883546
C  C554  1  0.30200000  0.91000000  0.52240000  1.0 -0.218883546
C  C555  1  0.69800000  0.41000000  0.97760000  1.0 -0.218883546
C  C556  1  0.02240000  0.19800000  0.09000000  1.0 -0.218883546
C  C557  1  0.80200000  0.59000000  0.47760000  1.0 -0.218883546
C  C558  1  0.47760000  0.80200000  0.59000000  1.0 -0.218883546
C  C559  1  0.52240000  0.30200000  0.91000000  1.0 -0.218883546
C  C560  1  0.97760000  0.69800000  0.41000000  1.0 -0.2268987295
C  C561  1  0.09000000  0.02240000  0.19800000  1.0 -0.218883546
C  C562  1  0.59000000  0.47760000  0.80200000  1.0 -0.218883546
C  C563  1  0.91000000  0.52240000  0.30200000  1.0 -0.218883546
C  C564  1  0.41000000  0.97760000  0.69800000  1.0 -0.2268987295
C  C565  1  0.80200000  0.91000000  0.97760000  1.0 -0.218883546
C  C566  1  0.69800000  0.09000000  0.47760000  1.0 -0.218883546
C  C567  1  0.30200000  0.59000000  0.02240000  1.0 -0.218883546
C  C568  1  0.97760000  0.80200000  0.91000000  1.0 -0.218883546
C  C569  1  0.19800000  0.41000000  0.52240000  1.0 -0.2268987295
C  C570  1  0.52240000  0.19800000  0.41000000  1.0 -0.218883546
C  C571  1  0.47760000  0.69800000  0.09000000  1.0 -0.218883546
C  C572  1  0.02240000  0.30200000  0.59000000  1.0 -0.218883546
C  C573  1  0.91000000  0.97760000  0.80200000  1.0 -0.218883546
C  C574  1  0.41000000  0.52240000  0.19800000  1.0 -0.2268987295
C  C575  1  0.09000000  0.47760000  0.69800000  1.0 -0.218883546
C  C576  1  0.59000000  0.02240000  0.30200000  1.0 -0.218883546
C  C577  1  0.19620000  0.12570000  0.01370000  1.0 0.1287901976
C  C578  1  0.30380000  0.87430000  0.51370000  1.0 0.1287901976
C  C579  1  0.69620000  0.37430000  0.98630000  1.0 0.1287901976
C  C580  1  0.01370000  0.19620000  0.12570000  1.0 0.1287901976
C  C581  1  0.80380000  0.62570000  0.48630000  1.0 0.1287901976
C  C582  1  0.48630000  0.80380000  0.62570000  1.0 0.1287901976
C  C583  1  0.51370000  0.30380000  0.87430000  1.0 0.1287901976
C  C584  1  0.98630000  0.69620000  0.37430000  1.0 0.1287901976
C  C585  1  0.12570000  0.01370000  0.19620000  1.0 0.1287901976
C  C586  1  0.62570000  0.48630000  0.80380000  1.0 0.1287901976
C  C587  1  0.87430000  0.51370000  0.30380000  1.0 0.1287901976
C  C588  1  0.37430000  0.98630000  0.69620000  1.0 0.1287901976
C  C589  1  0.80380000  0.87430000  0.98630000  1.0 0.1287901976
C  C590  1  0.69620000  0.12570000  0.48630000  1.0 0.1287901976
C  C591  1  0.30380000  0.62570000  0.01370000  1.0 0.1287901976
C  C592  1  0.98630000  0.80380000  0.87430000  1.0 0.1287901976
C  C593  1  0.19620000  0.37430000  0.51370000  1.0 0.1287901976
C  C594  1  0.51370000  0.19620000  0.37430000  1.0 0.1287901976
C  C595  1  0.48630000  0.69620000  0.12570000  1.0 0.1287901976
C  C596  1  0.01370000  0.30380000  0.62570000  1.0 0.1287901976
C  C597  1  0.87430000  0.98630000  0.80380000  1.0 0.1287901976
C  C598  1  0.37430000  0.51370000  0.19620000  1.0 0.1287901976
C  C599  1  0.12570000  0.48630000  0.69620000  1.0 0.1287901976
C  C600  1  0.62570000  0.01370000  0.30380000  1.0 0.1287901976
C  C601  1  0.16860000  0.13780000  0.99950000  1.0 -0.1853833805
C  C602  1  0.33140000  0.86220000  0.49950000  1.0 -0.1853833805
C  C603  1  0.66860000  0.36220000  0.00050000  1.0 -0.1853833805
C  C604  1  0.99950000  0.16860000  0.13780000  1.0 -0.1853833805
C  C605  1  0.83140000  0.63780000  0.50050000  1.0 -0.1846009171
C  C606  1  0.50050000  0.83140000  0.63780000  1.0 -0.1853833805
C  C607  1  0.49950000  0.33140000  0.86220000  1.0 -0.1853833805
C  C608  1  0.00050000  0.66860000  0.36220000  1.0 -0.1853833805
C  C609  1  0.13780000  0.99950000  0.16860000  1.0 -0.1853833805
C  C610  1  0.63780000  0.50050000  0.83140000  1.0 -0.1853833805
C  C611  1  0.86220000  0.49950000  0.33140000  1.0 -0.1846009171
C  C612  1  0.36220000  0.00050000  0.66860000  1.0 -0.1853833805
C  C613  1  0.83140000  0.86220000  0.00050000  1.0 -0.1853833805
C  C614  1  0.66860000  0.13780000  0.50050000  1.0 -0.1853833805
C  C615  1  0.33140000  0.63780000  0.99950000  1.0 -0.1853833805
C  C616  1  0.00050000  0.83140000  0.86220000  1.0 -0.1853833805
C  C617  1  0.16860000  0.36220000  0.49950000  1.0 -0.1853833805
C  C618  1  0.49950000  0.16860000  0.36220000  1.0 -0.1853833805
C  C619  1  0.50050000  0.66860000  0.13780000  1.0 -0.1853833805
C  C620  1  0.99950000  0.33140000  0.63780000  1.0 -0.1853833805
C  C621  1  0.86220000  0.00050000  0.83140000  1.0 -0.1853833805
C  C622  1  0.36220000  0.49950000  0.16860000  1.0 -0.1853833805
C  C623  1  0.13780000  0.50050000  0.66860000  1.0 -0.1853833805
C  C624  1  0.63780000  0.99950000  0.33140000  1.0 -0.1853833805
C  C625  1  0.13970000  0.11740000  0.99470000  1.0 -0.0517745157
C  C626  1  0.36030000  0.88260000  0.49470000  1.0 -0.0517745157
C  C627  1  0.63970000  0.38260000  0.00530000  1.0 -0.0517745157
C  C628  1  0.99470000  0.13970000  0.11740000  1.0 -0.0517745157
C  C629  1  0.86030000  0.61740000  0.50530000  1.0 -0.0517745157
C  C630  1  0.50530000  0.86030000  0.61740000  1.0 -0.0517745157
C  C631  1  0.49470000  0.36030000  0.88260000  1.0 -0.0517745157
C  C632  1  0.00530000  0.63970000  0.38260000  1.0 -0.0517745157
C  C633  1  0.11740000  0.99470000  0.13970000  1.0 -0.0517745157
C  C634  1  0.61740000  0.50530000  0.86030000  1.0 -0.0517745157
C  C635  1  0.88260000  0.49470000  0.36030000  1.0 -0.0517745157
C  C636  1  0.38260000  0.00530000  0.63970000  1.0 -0.0517745157
C  C637  1  0.86030000  0.88260000  0.00530000  1.0 -0.0517745157
C  C638  1  0.63970000  0.11740000  0.50530000  1.0 -0.0517745157
C  C639  1  0.36030000  0.61740000  0.99470000  1.0 -0.0517745157
C  C640  1  0.00530000  0.86030000  0.88260000  1.0 -0.0517745157
C  C641  1  0.13970000  0.38260000  0.49470000  1.0 -0.0517745157
C  C642  1  0.49470000  0.13970000  0.38260000  1.0 -0.0517745157
C  C643  1  0.50530000  0.63970000  0.11740000  1.0 -0.0517745157
C  C644  1  0.99470000  0.36030000  0.61740000  1.0 -0.0517745157
C  C645  1  0.88260000  0.00530000  0.86030000  1.0 -0.0517745157
C  C646  1  0.38260000  0.49470000  0.13970000  1.0 -0.0517745157
C  C647  1  0.11740000  0.50530000  0.63970000  1.0 -0.0517745157
C  C648  1  0.61740000  0.99470000  0.36030000  1.0 -0.0517745157
C  C649  1  0.14070000  0.08310000  0.00400000  1.0 -0.1025336655
C  C650  1  0.35930000  0.91690000  0.50400000  1.0 -0.1025336655
C  C651  1  0.64070000  0.41690000  0.99600000  1.0 -0.1025336655
C  C652  1  0.00400000  0.14070000  0.08310000  1.0 -0.1025336655
C  C653  1  0.85930000  0.58310000  0.49600000  1.0 -0.1025336655
C  C654  1  0.49600000  0.85930000  0.58310000  1.0 -0.1025336655
C  C655  1  0.50400000  0.35930000  0.91690000  1.0 -0.1025336655
C  C656  1  0.99600000  0.64070000  0.41690000  1.0 -0.1025336655
C  C657  1  0.08310000  0.00400000  0.14070000  1.0 -0.1025336655
C  C658  1  0.58310000  0.49600000  0.85930000  1.0 -0.1025336655
C  C659  1  0.91690000  0.50400000  0.35930000  1.0 -0.1025336655
C  C660  1  0.41690000  0.99600000  0.64070000  1.0 -0.1025336655
C  C661  1  0.85930000  0.91690000  0.99600000  1.0 -0.1025336655
C  C662  1  0.64070000  0.08310000  0.49600000  1.0 -0.1025336655
C  C663  1  0.35930000  0.58310000  0.00400000  1.0 -0.1025336655
C  C664  1  0.99600000  0.85930000  0.91690000  1.0 -0.1025336655
C  C665  1  0.14070000  0.41690000  0.50400000  1.0 -0.1025336655
C  C666  1  0.50400000  0.14070000  0.41690000  1.0 -0.1025336655
C  C667  1  0.49600000  0.64070000  0.08310000  1.0 -0.1025336655
C  C668  1  0.00400000  0.35930000  0.58310000  1.0 -0.1025336655
C  C669  1  0.91690000  0.99600000  0.85930000  1.0 -0.1025336655
C  C670  1  0.41690000  0.50400000  0.14070000  1.0 -0.1025336655
C  C671  1  0.08310000  0.49600000  0.64070000  1.0 -0.1025336655
C  C672  1  0.58310000  0.00400000  0.35930000  1.0 -0.1025336655
C  C673  1  0.36010000  0.38930000  0.04470000  1.0 0.6129731062
C  C674  1  0.13990000  0.61070000  0.54470000  1.0 0.6129731062
C  C675  1  0.86010000  0.11070000  0.95530000  1.0 0.6129731062
C  C676  1  0.04470000  0.36010000  0.38930000  1.0 0.6129731062
C  C677  1  0.63990000  0.88930000  0.45530000  1.0 0.6129731062
C  C678  1  0.45530000  0.63990000  0.88930000  1.0 0.6129731062
C  C679  1  0.54470000  0.13990000  0.61070000  1.0 0.6129731062
C  C680  1  0.95530000  0.86010000  0.11070000  1.0 0.6129731062
C  C681  1  0.38930000  0.04470000  0.36010000  1.0 0.6129731062
C  C682  1  0.88930000  0.45530000  0.63990000  1.0 0.6129731062
C  C683  1  0.61070000  0.54470000  0.13990000  1.0 0.6129731062
C  C684  1  0.11070000  0.95530000  0.86010000  1.0 0.6129731062
C  C685  1  0.63990000  0.61070000  0.95530000  1.0 0.6129731062
C  C686  1  0.86010000  0.38930000  0.45530000  1.0 0.6129731062
C  C687  1  0.13990000  0.88930000  0.04470000  1.0 0.6129731062
C  C688  1  0.95530000  0.63990000  0.61070000  1.0 0.6129731062
C  C689  1  0.36010000  0.11070000  0.54470000  1.0 0.6129731062
C  C690  1  0.54470000  0.36010000  0.11070000  1.0 0.6129731062
C  C691  1  0.45530000  0.86010000  0.38930000  1.0 0.6129731062
C  C692  1  0.04470000  0.13990000  0.88930000  1.0 0.6129731062
C  C693  1  0.61070000  0.95530000  0.63990000  1.0 0.6129731062
C  C694  1  0.11070000  0.54470000  0.36010000  1.0 0.6129731062
C  C695  1  0.38930000  0.45530000  0.86010000  1.0 0.6129731062
C  C696  1  0.88930000  0.04470000  0.13990000  1.0 0.6129731062
C  C697  1  0.11030000  0.13540000  0.98080000  1.0 0.5708818509
C  C698  1  0.38970000  0.86460000  0.48080000  1.0 0.5708818509
C  C699  1  0.61030000  0.36460000  0.01920000  1.0 0.5708818509
C  C700  1  0.98080000  0.11030000  0.13540000  1.0 0.5708818509
C  C701  1  0.88970000  0.63540000  0.51920000  1.0 0.5708818509
C  C702  1  0.51920000  0.88970000  0.63540000  1.0 0.5708818509
C  C703  1  0.48080000  0.38970000  0.86460000  1.0 0.5708818509
C  C704  1  0.01920000  0.61030000  0.36460000  1.0 0.5708818509
C  C705  1  0.13540000  0.98080000  0.11030000  1.0 0.5708818509
C  C706  1  0.63540000  0.51920000  0.88970000  1.0 0.5708818509
C  C707  1  0.86460000  0.48080000  0.38970000  1.0 0.5708818509
C  C708  1  0.36460000  0.01920000  0.61030000  1.0 0.5708818509
C  C709  1  0.88970000  0.86460000  0.01920000  1.0 0.5708818509
C  C710  1  0.61030000  0.13540000  0.51920000  1.0 0.5708818509
C  C711  1  0.38970000  0.63540000  0.98080000  1.0 0.5708818509
C  C712  1  0.01920000  0.88970000  0.86460000  1.0 0.5708818509
C  C713  1  0.11030000  0.36460000  0.48080000  1.0 0.5708818509
C  C714  1  0.48080000  0.11030000  0.36460000  1.0 0.5708818509
C  C715  1  0.51920000  0.61030000  0.13540000  1.0 0.5708818509
C  C716  1  0.98080000  0.38970000  0.63540000  1.0 0.5708818509
C  C717  1  0.86460000  0.01920000  0.88970000  1.0 0.5708818509
C  C718  1  0.36460000  0.48080000  0.11030000  1.0 0.5708818509
C  C719  1  0.13540000  0.51920000  0.61030000  1.0 0.5708818509
C  C720  1  0.63540000  0.98080000  0.38970000  1.0 0.5708818509
C  C721  1  0.15389000  0.74700000  0.07030000  1.0 0.1730456497
C  C722  1  0.34611000  0.25300000  0.57030000  1.0 0.1730456497
C  C723  1  0.65389000  0.75300000  0.92970000  1.0 0.1730456497
C  C724  1  0.07030000  0.15389000  0.74700000  1.0 0.1730456497
C  C725  1  0.84611000  0.24700000  0.42970000  1.0 0.1730456497
C  C726  1  0.42970000  0.84611000  0.24700000  1.0 0.1730456497
C  C727  1  0.57030000  0.34611000  0.25300000  1.0 0.1730456497
C  C728  1  0.92970000  0.65389000  0.75300000  1.0 0.1730456497
C  C729  1  0.74700000  0.07030000  0.15389000  1.0 0.1730456497
C  C730  1  0.24700000  0.42970000  0.84611000  1.0 0.1730456497
C  C731  1  0.25300000  0.57030000  0.34611000  1.0 0.1730456497
C  C732  1  0.75300000  0.92970000  0.65389000  1.0 0.1730456497
C  C733  1  0.84611000  0.25300000  0.92970000  1.0 0.1730456497
C  C734  1  0.65389000  0.74700000  0.42970000  1.0 0.1730456497
C  C735  1  0.34611000  0.24700000  0.07030000  1.0 0.1730456497
C  C736  1  0.92970000  0.84611000  0.25300000  1.0 0.1730456497
C  C737  1  0.15389000  0.75300000  0.57030000  1.0 0.1730456497
C  C738  1  0.57030000  0.15389000  0.75300000  1.0 0.1730456497
C  C739  1  0.42970000  0.65389000  0.74700000  1.0 0.1730456497
C  C740  1  0.07030000  0.34611000  0.24700000  1.0 0.1730456497
C  C741  1  0.25300000  0.92970000  0.84611000  1.0 0.1730456497
C  C742  1  0.75300000  0.57030000  0.15389000  1.0 0.1730456497
C  C743  1  0.74700000  0.42970000  0.65389000  1.0 0.1730456497
C  C744  1  0.24700000  0.07030000  0.34611000  1.0 0.1730456497
C  C745  1  0.18100000  0.72140000  0.06570000  1.0 -0.020067455
C  C746  1  0.31900000  0.27860000  0.56570000  1.0 -0.020067455
C  C747  1  0.68100000  0.77860000  0.93430000  1.0 -0.020067455
C  C748  1  0.06570000  0.18100000  0.72140000  1.0 -0.020067455
C  C749  1  0.81900000  0.22140000  0.43430000  1.0 -0.020067455
C  C750  1  0.43430000  0.81900000  0.22140000  1.0 -0.020067455
C  C751  1  0.56570000  0.31900000  0.27860000  1.0 -0.020067455
C  C752  1  0.93430000  0.68100000  0.77860000  1.0 -0.020067455
C  C753  1  0.72140000  0.06570000  0.18100000  1.0 -0.020067455
C  C754  1  0.22140000  0.43430000  0.81900000  1.0 -0.020067455
C  C755  1  0.27860000  0.56570000  0.31900000  1.0 -0.020067455
C  C756  1  0.77860000  0.93430000  0.68100000  1.0 -0.020067455
C  C757  1  0.81900000  0.27860000  0.93430000  1.0 -0.020067455
C  C758  1  0.68100000  0.72140000  0.43430000  1.0 -0.020067455
C  C759  1  0.31900000  0.22140000  0.06570000  1.0 -0.020067455
C  C760  1  0.93430000  0.81900000  0.27860000  1.0 -0.020067455
C  C761  1  0.18100000  0.77860000  0.56570000  1.0 -0.020067455
C  C762  1  0.56570000  0.18100000  0.77860000  1.0 -0.020067455
C  C763  1  0.43430000  0.68100000  0.72140000  1.0 -0.020067455
C  C764  1  0.06570000  0.31900000  0.22140000  1.0 -0.020067455
C  C765  1  0.27860000  0.93430000  0.81900000  1.0 -0.020067455
C  C766  1  0.77860000  0.56570000  0.18100000  1.0 -0.020067455
C  C767  1  0.72140000  0.43430000  0.68100000  1.0 -0.020067455
C  C768  1  0.22140000  0.06570000  0.31900000  1.0 -0.020067455
C  C769  1  0.23250000  0.67270000  0.05690000  1.0 -0.0028744231
C  C770  1  0.26750000  0.32730000  0.55690000  1.0 -0.0028744231
C  C771  1  0.73250000  0.82730000  0.94310000  1.0 -0.0028744231
C  C772  1  0.05690000  0.23250000  0.67270000  1.0 -0.0028744231
C  C773  1  0.76750000  0.17270000  0.44310000  1.0 -0.0028744231
C  C774  1  0.44310000  0.76750000  0.17270000  1.0 -0.0028744231
C  C775  1  0.55690000  0.26750000  0.32730000  1.0 -0.0028744231
C  C776  1  0.94310000  0.73250000  0.82730000  1.0 -0.0028744231
C  C777  1  0.67270000  0.05690000  0.23250000  1.0 -0.0028744231
C  C778  1  0.17270000  0.44310000  0.76750000  1.0 -0.0028744231
C  C779  1  0.32730000  0.55690000  0.26750000  1.0 -0.0028744231
C  C780  1  0.82730000  0.94310000  0.73250000  1.0 -0.0028744231
C  C781  1  0.76750000  0.32730000  0.94310000  1.0 -0.0028744231
C  C782  1  0.73250000  0.67270000  0.44310000  1.0 -0.0028744231
C  C783  1  0.26750000  0.17270000  0.05690000  1.0 -0.0028744231
C  C784  1  0.94310000  0.76750000  0.32730000  1.0 -0.0028744231
C  C785  1  0.23250000  0.82730000  0.55690000  1.0 -0.0028744231
C  C786  1  0.55690000  0.23250000  0.82730000  1.0 -0.0028744231
C  C787  1  0.44310000  0.73250000  0.67270000  1.0 -0.0028744231
C  C788  1  0.05690000  0.26750000  0.17270000  1.0 -0.0028744231
C  C789  1  0.32730000  0.94310000  0.76750000  1.0 -0.0028744231
C  C790  1  0.82730000  0.55690000  0.23250000  1.0 -0.0028744231
C  C791  1  0.67270000  0.44310000  0.73250000  1.0 -0.0028744231
C  C792  1  0.17270000  0.05690000  0.26750000  1.0 -0.0028744231
C  C793  1  0.22120000  0.68100000  0.08910000  1.0 -0.1100464218
C  C794  1  0.27880000  0.31900000  0.58910000  1.0 -0.1100464218
C  C795  1  0.72120000  0.81900000  0.91090000  1.0 -0.1100464218
C  C796  1  0.08910000  0.22120000  0.68100000  1.0 -0.1100464218
C  C797  1  0.77880000  0.18100000  0.41090000  1.0 -0.1100464218
C  C798  1  0.41090000  0.77880000  0.18100000  1.0 -0.1100464218
C  C799  1  0.58910000  0.27880000  0.31900000  1.0 -0.1100464218
C  C800  1  0.91090000  0.72120000  0.81900000  1.0 -0.1025336655
C  C801  1  0.68100000  0.08910000  0.22120000  1.0 -0.1100464218
C  C802  1  0.18100000  0.41090000  0.77880000  1.0 -0.1100464218
C  C803  1  0.31900000  0.58910000  0.27880000  1.0 -0.1100464218
C  C804  1  0.81900000  0.91090000  0.72120000  1.0 -0.1100464218
C  C805  1  0.77880000  0.31900000  0.91090000  1.0 -0.1100464218
C  C806  1  0.72120000  0.68100000  0.41090000  1.0 -0.1025336655
C  C807  1  0.27880000  0.18100000  0.08910000  1.0 -0.1100464218
C  C808  1  0.91090000  0.77880000  0.31900000  1.0 -0.1025336655
C  C809  1  0.22120000  0.81900000  0.58910000  1.0 -0.1100464218
C  C810  1  0.58910000  0.22120000  0.81900000  1.0 -0.1100464218
C  C811  1  0.41090000  0.72120000  0.68100000  1.0 -0.1100464218
C  C812  1  0.08910000  0.27880000  0.18100000  1.0 -0.1100464218
C  C813  1  0.31900000  0.91090000  0.77880000  1.0 -0.1100464218
C  C814  1  0.81900000  0.58910000  0.22120000  1.0 -0.1025336655
C  C815  1  0.68100000  0.41090000  0.72120000  1.0 -0.1100464218
C  C816  1  0.18100000  0.08910000  0.27880000  1.0 -0.1100464218
C  C817  1  0.19770000  0.70950000  0.09410000  1.0 -0.0691863377
C  C818  1  0.30230000  0.29050000  0.59410000  1.0 -0.0691863377
C  C819  1  0.69770000  0.79050000  0.90590000  1.0 -0.0691863377
C  C820  1  0.09410000  0.19770000  0.70950000  1.0 -0.0691863377
C  C821  1  0.80230000  0.20950000  0.40590000  1.0 -0.0646556034
C  C822  1  0.40590000  0.80230000  0.20950000  1.0 -0.0691863377
C  C823  1  0.59410000  0.30230000  0.29050000  1.0 -0.0691863377
C  C824  1  0.90590000  0.69770000  0.79050000  1.0 -0.0691863377
C  C825  1  0.70950000  0.09410000  0.19770000  1.0 -0.0646556034
C  C826  1  0.20950000  0.40590000  0.80230000  1.0 -0.0691863377
C  C827  1  0.29050000  0.59410000  0.30230000  1.0 -0.0691863377
C  C828  1  0.79050000  0.90590000  0.69770000  1.0 -0.0691863377
C  C829  1  0.80230000  0.29050000  0.90590000  1.0 -0.0691863377
C  C830  1  0.69770000  0.70950000  0.40590000  1.0 -0.0691863377
C  C831  1  0.30230000  0.20950000  0.09410000  1.0 -0.0691863377
C  C832  1  0.90590000  0.80230000  0.29050000  1.0 -0.0646556034
C  C833  1  0.19770000  0.79050000  0.59410000  1.0 -0.0691863377
C  C834  1  0.59410000  0.19770000  0.79050000  1.0 -0.0691863377
C  C835  1  0.40590000  0.69770000  0.70950000  1.0 -0.0691863377
C  C836  1  0.09410000  0.30230000  0.20950000  1.0 -0.0691863377
C  C837  1  0.29050000  0.90590000  0.80230000  1.0 -0.0691863377
C  C838  1  0.79050000  0.59410000  0.19770000  1.0 -0.0646556034
C  C839  1  0.70950000  0.40590000  0.69770000  1.0 -0.0691863377
C  C840  1  0.20950000  0.09410000  0.30230000  1.0 -0.0691863377
C  C841  1  0.25720000  0.64460000  0.04980000  1.0 0.1203483391
C  C842  1  0.24280000  0.35540000  0.54980000  1.0 0.1203483391
C  C843  1  0.75720000  0.85540000  0.95020000  1.0 0.1203483391
C  C844  1  0.04980000  0.25720000  0.64460000  1.0 0.1203483391
C  C845  1  0.74280000  0.14460000  0.45020000  1.0 0.1203483391
C  C846  1  0.45020000  0.74280000  0.14460000  1.0 0.1203483391
C  C847  1  0.54980000  0.24280000  0.35540000  1.0 0.1203483391
C  C848  1  0.95020000  0.75720000  0.85540000  1.0 0.1203483391
C  C849  1  0.64460000  0.04980000  0.25720000  1.0 0.1203483391
C  C850  1  0.14460000  0.45020000  0.74280000  1.0 0.1203483391
C  C851  1  0.35540000  0.54980000  0.24280000  1.0 0.1203483391
C  C852  1  0.85540000  0.95020000  0.75720000  1.0 0.1203483391
C  C853  1  0.74280000  0.35540000  0.95020000  1.0 0.1203483391
C  C854  1  0.75720000  0.64460000  0.45020000  1.0 0.1203483391
C  C855  1  0.24280000  0.14460000  0.04980000  1.0 0.1203483391
C  C856  1  0.95020000  0.74280000  0.35540000  1.0 0.1203483391
C  C857  1  0.25720000  0.85540000  0.54980000  1.0 0.1203483391
C  C858  1  0.54980000  0.25720000  0.85540000  1.0 0.1203483391
C  C859  1  0.45020000  0.75720000  0.64460000  1.0 0.1203483391
C  C860  1  0.04980000  0.24280000  0.14460000  1.0 0.1203483391
C  C861  1  0.35540000  0.95020000  0.74280000  1.0 0.1203483391
C  C862  1  0.85540000  0.54980000  0.25720000  1.0 0.1203483391
C  C863  1  0.64460000  0.45020000  0.75720000  1.0 0.1203483391
C  C864  1  0.14460000  0.04980000  0.24280000  1.0 0.1203483391
C  C865  1  0.17520000  0.72610000  0.00440000  1.0 -0.020067455
C  C866  1  0.32480000  0.27390000  0.50440000  1.0 -0.020067455
C  C867  1  0.67520000  0.77390000  0.99560000  1.0 -0.020067455
C  C868  1  0.00440000  0.17520000  0.72610000  1.0 -0.020067455
C  C869  1  0.82480000  0.22610000  0.49560000  1.0 -0.020067455
C  C870  1  0.49560000  0.82480000  0.22610000  1.0 -0.020067455
C  C871  1  0.50440000  0.32480000  0.27390000  1.0 -0.020067455
C  C872  1  0.99560000  0.67520000  0.77390000  1.0 -0.020067455
C  C873  1  0.72610000  0.00440000  0.17520000  1.0 -0.020067455
C  C874  1  0.22610000  0.49560000  0.82480000  1.0 -0.020067455
C  C875  1  0.27390000  0.50440000  0.32480000  1.0 -0.020067455
C  C876  1  0.77390000  0.99560000  0.67520000  1.0 -0.020067455
C  C877  1  0.82480000  0.27390000  0.99560000  1.0 -0.020067455
C  C878  1  0.67520000  0.72610000  0.49560000  1.0 -0.020067455
C  C879  1  0.32480000  0.22610000  0.00440000  1.0 -0.020067455
C  C880  1  0.99560000  0.82480000  0.27390000  1.0 -0.020067455
C  C881  1  0.17520000  0.77390000  0.50440000  1.0 -0.020067455
C  C882  1  0.50440000  0.17520000  0.77390000  1.0 -0.020067455
C  C883  1  0.49560000  0.67520000  0.72610000  1.0 -0.020067455
C  C884  1  0.00440000  0.32480000  0.22610000  1.0 -0.020067455
C  C885  1  0.27390000  0.99560000  0.82480000  1.0 -0.020067455
C  C886  1  0.77390000  0.50440000  0.17520000  1.0 -0.020067455
C  C887  1  0.72610000  0.49560000  0.67520000  1.0 -0.020067455
C  C888  1  0.22610000  0.00440000  0.32480000  1.0 -0.020067455
C  C889  1  0.14770000  0.75280000  0.00900000  1.0 0.2295301493
C  C890  1  0.35230000  0.24720000  0.50900000  1.0 0.2295301493
C  C891  1  0.64770000  0.74720000  0.99100000  1.0 0.2295301493
C  C892  1  0.00900000  0.14770000  0.75280000  1.0 0.2295301493
C  C893  1  0.85230000  0.25280000  0.49100000  1.0 0.2295301493
C  C894  1  0.49100000  0.85230000  0.25280000  1.0 0.2295301493
C  C895  1  0.50900000  0.35230000  0.24720000  1.0 0.2295301493
C  C896  1  0.99100000  0.64770000  0.74720000  1.0 0.2295301493
C  C897  1  0.75280000  0.00900000  0.14770000  1.0 0.2295301493
C  C898  1  0.25280000  0.49100000  0.85230000  1.0 0.2295301493
C  C899  1  0.24720000  0.50900000  0.35230000  1.0 0.2295301493
C  C900  1  0.74720000  0.99100000  0.64770000  1.0 0.2295301493
C  C901  1  0.85230000  0.24720000  0.99100000  1.0 0.2295301493
C  C902  1  0.64770000  0.75280000  0.49100000  1.0 0.2295301493
C  C903  1  0.35230000  0.25280000  0.00900000  1.0 0.2295301493
C  C904  1  0.99100000  0.85230000  0.24720000  1.0 0.2295301493
C  C905  1  0.14770000  0.74720000  0.50900000  1.0 0.2295301493
C  C906  1  0.50900000  0.14770000  0.74720000  1.0 0.2295301493
C  C907  1  0.49100000  0.64770000  0.75280000  1.0 0.2295301493
C  C908  1  0.00900000  0.35230000  0.25280000  1.0 0.2295301493
C  C909  1  0.24720000  0.99100000  0.85230000  1.0 0.2295301493
C  C910  1  0.74720000  0.50900000  0.14770000  1.0 0.2295301493
C  C911  1  0.75280000  0.49100000  0.64770000  1.0 0.2295301493
C  C912  1  0.25280000  0.00900000  0.35230000  1.0 0.2295301493
C  C913  1  0.18410000  0.71670000  0.97240000  1.0 -0.1025336655
C  C914  1  0.31590000  0.28330000  0.47240000  1.0 -0.1025336655
C  C915  1  0.68410000  0.78330000  0.02760000  1.0 -0.1025336655
C  C916  1  0.97240000  0.18410000  0.71670000  1.0 -0.1025336655
C  C917  1  0.81590000  0.21670000  0.52760000  1.0 -0.1025336655
C  C918  1  0.52760000  0.81590000  0.21670000  1.0 -0.1025336655
C  C919  1  0.47240000  0.31590000  0.28330000  1.0 -0.1025336655
C  C920  1  0.02760000  0.68410000  0.78330000  1.0 -0.1025336655
C  C921  1  0.71670000  0.97240000  0.18410000  1.0 -0.1025336655
C  C922  1  0.21670000  0.52760000  0.81590000  1.0 -0.1025336655
C  C923  1  0.28330000  0.47240000  0.31590000  1.0 -0.1025336655
C  C924  1  0.78330000  0.02760000  0.68410000  1.0 -0.1025336655
C  C925  1  0.81590000  0.28330000  0.02760000  1.0 -0.1025336655
C  C926  1  0.68410000  0.71670000  0.52760000  1.0 -0.1025336655
C  C927  1  0.31590000  0.21670000  0.97240000  1.0 -0.1025336655
C  C928  1  0.02760000  0.81590000  0.28330000  1.0 -0.1025336655
C  C929  1  0.18410000  0.78330000  0.47240000  1.0 -0.1025336655
C  C930  1  0.47240000  0.18410000  0.78330000  1.0 -0.1025336655
C  C931  1  0.52760000  0.68410000  0.71670000  1.0 -0.1025336655
C  C932  1  0.97240000  0.31590000  0.21670000  1.0 -0.1025336655
C  C933  1  0.28330000  0.02760000  0.81590000  1.0 -0.1025336655
C  C934  1  0.78330000  0.47240000  0.18410000  1.0 -0.1025336655
C  C935  1  0.71670000  0.52760000  0.68410000  1.0 -0.1025336655
C  C936  1  0.21670000  0.97240000  0.31590000  1.0 -0.1025336655
C  C937  1  0.20950000  0.69110000  0.96750000  1.0 -0.0691863377
C  C938  1  0.29050000  0.30890000  0.46750000  1.0 -0.0691863377
C  C939  1  0.70950000  0.80890000  0.03250000  1.0 -0.0691863377
C  C940  1  0.96750000  0.20950000  0.69110000  1.0 -0.0691863377
C  C941  1  0.79050000  0.19110000  0.53250000  1.0 -0.0691863377
C  C942  1  0.53250000  0.79050000  0.19110000  1.0 -0.0691863377
C  C943  1  0.46750000  0.29050000  0.30890000  1.0 -0.0691863377
C  C944  1  0.03250000  0.70950000  0.80890000  1.0 -0.0691863377
C  C945  1  0.69110000  0.96750000  0.20950000  1.0 -0.0691863377
C  C946  1  0.19110000  0.53250000  0.79050000  1.0 -0.0691863377
C  C947  1  0.30890000  0.46750000  0.29050000  1.0 -0.0691863377
C  C948  1  0.80890000  0.03250000  0.70950000  1.0 -0.0691863377
C  C949  1  0.79050000  0.30890000  0.03250000  1.0 -0.0691863377
C  C950  1  0.70950000  0.69110000  0.53250000  1.0 -0.0691863377
C  C951  1  0.29050000  0.19110000  0.96750000  1.0 -0.0691863377
C  C952  1  0.03250000  0.79050000  0.30890000  1.0 -0.0691863377
C  C953  1  0.20950000  0.80890000  0.46750000  1.0 -0.0691863377
C  C954  1  0.46750000  0.20950000  0.80890000  1.0 -0.0691863377
C  C955  1  0.53250000  0.70950000  0.69110000  1.0 -0.0691863377
C  C956  1  0.96750000  0.29050000  0.19110000  1.0 -0.0691863377
C  C957  1  0.30890000  0.03250000  0.79050000  1.0 -0.0691863377
C  C958  1  0.80890000  0.46750000  0.20950000  1.0 -0.0691863377
C  C959  1  0.69110000  0.53250000  0.70950000  1.0 -0.0691863377
C  C960  1  0.19110000  0.96750000  0.29050000  1.0 -0.0691863377
C  C961  1  0.22630000  0.67920000  0.99490000  1.0 -0.0111258007
C  C962  1  0.27370000  0.32080000  0.49490000  1.0 -0.0111258007
C  C963  1  0.72630000  0.82080000  0.00510000  1.0 -0.0111258007
C  C964  1  0.99490000  0.22630000  0.67920000  1.0 -0.0111258007
C  C965  1  0.77370000  0.17920000  0.50510000  1.0 -0.0111258007
C  C966  1  0.50510000  0.77370000  0.17920000  1.0 -0.0111258007
C  C967  1  0.49490000  0.27370000  0.32080000  1.0 -0.0111258007
C  C968  1  0.00510000  0.72630000  0.82080000  1.0 -0.0111258007
C  C969  1  0.67920000  0.99490000  0.22630000  1.0 -0.0111258007
C  C970  1  0.17920000  0.50510000  0.77370000  1.0 -0.0111258007
C  C971  1  0.32080000  0.49490000  0.27370000  1.0 -0.0111258007
C  C972  1  0.82080000  0.00510000  0.72630000  1.0 -0.0111258007
C  C973  1  0.77370000  0.32080000  0.00510000  1.0 -0.0111258007
C  C974  1  0.72630000  0.67920000  0.50510000  1.0 -0.0111258007
C  C975  1  0.27370000  0.17920000  0.99490000  1.0 -0.0111258007
C  C976  1  0.00510000  0.77370000  0.32080000  1.0 -0.0111258007
C  C977  1  0.22630000  0.82080000  0.49490000  1.0 -0.0111258007
C  C978  1  0.49490000  0.22630000  0.82080000  1.0 -0.0111258007
C  C979  1  0.50510000  0.72630000  0.67920000  1.0 -0.0111258007
C  C980  1  0.99490000  0.27370000  0.17920000  1.0 -0.0111258007
C  C981  1  0.32080000  0.00510000  0.77370000  1.0 -0.0111258007
C  C982  1  0.82080000  0.49490000  0.22630000  1.0 -0.0111258007
C  C983  1  0.67920000  0.50510000  0.72630000  1.0 -0.0111258007
C  C984  1  0.17920000  0.99490000  0.27370000  1.0 -0.0111258007
C  C985  1  0.25390000  0.65310000  0.98980000  1.0 0.2227567191
C  C986  1  0.24610000  0.34690000  0.48980000  1.0 0.2227567191
C  C987  1  0.75390000  0.84690000  0.01020000  1.0 0.2227567191
C  C988  1  0.98980000  0.25390000  0.65310000  1.0 0.2227567191
C  C989  1  0.74610000  0.15310000  0.51020000  1.0 0.2227567191
C  C990  1  0.51020000  0.74610000  0.15310000  1.0 0.2227567191
C  C991  1  0.48980000  0.24610000  0.34690000  1.0 0.2227567191
C  C992  1  0.01020000  0.75390000  0.84690000  1.0 0.2227567191
C  C993  1  0.65310000  0.98980000  0.25390000  1.0 0.2227567191
C  C994  1  0.15310000  0.51020000  0.74610000  1.0 0.2227567191
C  C995  1  0.34690000  0.48980000  0.24610000  1.0 0.2227567191
C  C996  1  0.84690000  0.01020000  0.75390000  1.0 0.2227567191
C  C997  1  0.74610000  0.34690000  0.01020000  1.0 0.2227567191
C  C998  1  0.75390000  0.65310000  0.51020000  1.0 0.2227567191
C  C999  1  0.24610000  0.15310000  0.98980000  1.0 0.2227567191
C  C1000  1  0.01020000  0.74610000  0.34690000  1.0 0.2227567191
C  C1001  1  0.25390000  0.84690000  0.48980000  1.0 0.2227567191
C  C1002  1  0.48980000  0.25390000  0.84690000  1.0 0.2227567191
C  C1003  1  0.51020000  0.75390000  0.65310000  1.0 0.2227567191
C  C1004  1  0.98980000  0.24610000  0.15310000  1.0 0.2227567191
C  C1005  1  0.34690000  0.01020000  0.74610000  1.0 0.2227567191
C  C1006  1  0.84690000  0.48980000  0.25390000  1.0 0.2227567191
C  C1007  1  0.65310000  0.51020000  0.75390000  1.0 0.2227567191
C  C1008  1  0.15310000  0.98980000  0.24610000  1.0 0.2227567191
N  N1  1  0.35690000  0.26420000  0.04260000  1.0 -0.218883546
N  N2  1  0.14310000  0.73580000  0.54260000  1.0 -0.218883546
N  N3  1  0.85690000  0.23580000  0.95740000  1.0 -0.218883546
N  N4  1  0.04260000  0.35690000  0.26420000  1.0 -0.218883546
N  N5  1  0.64310000  0.76420000  0.45740000  1.0 -0.218883546
N  N6  1  0.45740000  0.64310000  0.76420000  1.0 -0.218883546
N  N7  1  0.54260000  0.14310000  0.73580000  1.0 -0.218883546
N  N8  1  0.95740000  0.85690000  0.23580000  1.0 -0.218883546
N  N9  1  0.26420000  0.04260000  0.35690000  1.0 -0.218883546
N  N10  1  0.76420000  0.45740000  0.64310000  1.0 -0.218883546
N  N11  1  0.73580000  0.54260000  0.14310000  1.0 -0.218883546
N  N12  1  0.23580000  0.95740000  0.85690000  1.0 -0.218883546
N  N13  1  0.64310000  0.73580000  0.95740000  1.0 -0.218883546
N  N14  1  0.85690000  0.26420000  0.45740000  1.0 -0.218883546
N  N15  1  0.14310000  0.76420000  0.04260000  1.0 -0.218883546
N  N16  1  0.95740000  0.64310000  0.73580000  1.0 -0.218883546
N  N17  1  0.35690000  0.23580000  0.54260000  1.0 -0.218883546
N  N18  1  0.54260000  0.35690000  0.23580000  1.0 -0.218883546
N  N19  1  0.45740000  0.85690000  0.26420000  1.0 -0.218883546
N  N20  1  0.04260000  0.14310000  0.76420000  1.0 -0.218883546
N  N21  1  0.73580000  0.95740000  0.64310000  1.0 -0.218883546
N  N22  1  0.23580000  0.54260000  0.35690000  1.0 -0.218883546
N  N23  1  0.26420000  0.45740000  0.85690000  1.0 -0.218883546
N  N24  1  0.76420000  0.04260000  0.14310000  1.0 -0.218883546
N  N25  1  0.22700000  0.14550000  0.01840000  1.0 -0.202238278
N  N26  1  0.27300000  0.85450000  0.51840000  1.0 -0.202238278
N  N27  1  0.72700000  0.35450000  0.98160000  1.0 -0.202238278
N  N28  1  0.01840000  0.22700000  0.14550000  1.0 -0.202238278
N  N29  1  0.77300000  0.64550000  0.48160000  1.0 -0.202238278
N  N30  1  0.48160000  0.77300000  0.64550000  1.0 -0.202238278
N  N31  1  0.51840000  0.27300000  0.85450000  1.0 -0.202238278
N  N32  1  0.98160000  0.72700000  0.35450000  1.0 -0.202238278
N  N33  1  0.14550000  0.01840000  0.22700000  1.0 -0.202238278
N  N34  1  0.64550000  0.48160000  0.77300000  1.0 -0.202238278
N  N35  1  0.85450000  0.51840000  0.27300000  1.0 -0.202238278
N  N36  1  0.35450000  0.98160000  0.72700000  1.0 -0.202238278
N  N37  1  0.77300000  0.85450000  0.98160000  1.0 -0.202238278
N  N38  1  0.72700000  0.14550000  0.48160000  1.0 -0.202238278
N  N39  1  0.27300000  0.64550000  0.01840000  1.0 -0.202238278
N  N40  1  0.98160000  0.77300000  0.85450000  1.0 -0.202238278
N  N41  1  0.22700000  0.35450000  0.51840000  1.0 -0.202238278
N  N42  1  0.51840000  0.22700000  0.35450000  1.0 -0.202238278
N  N43  1  0.48160000  0.72700000  0.14550000  1.0 -0.202238278
N  N44  1  0.01840000  0.27300000  0.64550000  1.0 -0.202238278
N  N45  1  0.85450000  0.98160000  0.77300000  1.0 -0.202238278
N  N46  1  0.35450000  0.51840000  0.22700000  1.0 -0.202238278
N  N47  1  0.14550000  0.48160000  0.72700000  1.0 -0.202238278
N  N48  1  0.64550000  0.01840000  0.27300000  1.0 -0.202238278
O  O1  1  0.18663000  0.95608000  0.05202000  1.0 -0.5800601369
O  O2  1  0.31337000  0.04392000  0.55202000  1.0 -0.5800601369
O  O3  1  0.68663000  0.54392000  0.94798000  1.0 -0.5800601369
O  O4  1  0.05202000  0.18663000  0.95608000  1.0 -0.5800601369
O  O5  1  0.81337000  0.45608000  0.44798000  1.0 -0.5800601369
O  O6  1  0.44798000  0.81337000  0.45608000  1.0 -0.5800601369
O  O7  1  0.55202000  0.31337000  0.04392000  1.0 -0.5800601369
O  O8  1  0.94798000  0.68663000  0.54392000  1.0 -0.5800601369
O  O9  1  0.95608000  0.05202000  0.18663000  1.0 -0.5800601369
O  O10  1  0.45608000  0.44798000  0.81337000  1.0 -0.5800601369
O  O11  1  0.04392000  0.55202000  0.31337000  1.0 -0.5800601369
O  O12  1  0.54392000  0.94798000  0.68663000  1.0 -0.5800601369
O  O13  1  0.81337000  0.04392000  0.94798000  1.0 -0.5800601369
O  O14  1  0.68663000  0.95608000  0.44798000  1.0 -0.5800601369
O  O15  1  0.31337000  0.45608000  0.05202000  1.0 -0.5800601369
O  O16  1  0.94798000  0.81337000  0.04392000  1.0 -0.5800601369
O  O17  1  0.18663000  0.54392000  0.55202000  1.0 -0.5800601369
O  O18  1  0.55202000  0.18663000  0.54392000  1.0 -0.5800601369
O  O19  1  0.44798000  0.68663000  0.95608000  1.0 -0.5800601369
O  O20  1  0.05202000  0.31337000  0.45608000  1.0 -0.5800601369
O  O21  1  0.04392000  0.94798000  0.81337000  1.0 -0.5800601369
O  O22  1  0.54392000  0.55202000  0.18663000  1.0 -0.5800601369
O  O23  1  0.95608000  0.44798000  0.68663000  1.0 -0.5800601369
O  O24  1  0.45608000  0.05202000  0.31337000  1.0 -0.5800601369
O  O25  1  0.25650000  0.94400000  0.02980000  1.0 -0.5800601369
O  O26  1  0.24350000  0.05600000  0.52980000  1.0 -0.5800601369
O  O27  1  0.75650000  0.55600000  0.97020000  1.0 -0.5800601369
O  O28  1  0.02980000  0.25650000  0.94400000  1.0 -0.5800601369
O  O29  1  0.74350000  0.44400000  0.47020000  1.0 -0.5897819044
O  O30  1  0.47020000  0.74350000  0.44400000  1.0 -0.5897819044
O  O31  1  0.52980000  0.24350000  0.05600000  1.0 -0.5800601369
O  O32  1  0.97020000  0.75650000  0.55600000  1.0 -0.5800601369
O  O33  1  0.94400000  0.02980000  0.25650000  1.0 -0.5800601369
O  O34  1  0.44400000  0.47020000  0.74350000  1.0 -0.5800601369
O  O35  1  0.05600000  0.52980000  0.24350000  1.0 -0.5800601369
O  O36  1  0.55600000  0.97020000  0.75650000  1.0 -0.5800601369
O  O37  1  0.74350000  0.05600000  0.97020000  1.0 -0.5800601369
O  O38  1  0.75650000  0.94400000  0.47020000  1.0 -0.5800601369
O  O39  1  0.24350000  0.44400000  0.02980000  1.0 -0.5800601369
O  O40  1  0.97020000  0.74350000  0.05600000  1.0 -0.5800601369
O  O41  1  0.25650000  0.55600000  0.52980000  1.0 -0.5800601369
O  O42  1  0.52980000  0.25650000  0.55600000  1.0 -0.5800601369
O  O43  1  0.47020000  0.75650000  0.94400000  1.0 -0.5800601369
O  O44  1  0.02980000  0.24350000  0.44400000  1.0 -0.5800601369
O  O45  1  0.05600000  0.97020000  0.74350000  1.0 -0.5800601369
O  O46  1  0.55600000  0.52980000  0.25650000  1.0 -0.5800601369
O  O47  1  0.94400000  0.47020000  0.75650000  1.0 -0.5800601369
O  O48  1  0.44400000  0.02980000  0.24350000  1.0 -0.5800601369
O  O49  1  0.22549000  0.97423000  0.02963000  1.0 0.7095031968
O  O50  1  0.27451000  0.02577000  0.52963000  1.0 0.7095031968
O  O51  1  0.72549000  0.52577000  0.97037000  1.0 0.7095031968
O  O52  1  0.02963000  0.22549000  0.97423000  1.0 0.7095031968
O  O53  1  0.77451000  0.47423000  0.47037000  1.0 0.7362985783
O  O54  1  0.47037000  0.77451000  0.47423000  1.0 0.7362985783
O  O55  1  0.52963000  0.27451000  0.02577000  1.0 0.7095031968
O  O56  1  0.97037000  0.72549000  0.52577000  1.0 0.7095031968
O  O57  1  0.97423000  0.02963000  0.22549000  1.0 0.7095031968
O  O58  1  0.47423000  0.47037000  0.77451000  1.0 0.7362985783
O  O59  1  0.02577000  0.52963000  0.27451000  1.0 0.7095031968
O  O60  1  0.52577000  0.97037000  0.72549000  1.0 0.7095031968
O  O61  1  0.77451000  0.02577000  0.97037000  1.0 0.7095031968
O  O62  1  0.72549000  0.97423000  0.47037000  1.0 0.7095031968
O  O63  1  0.27451000  0.47423000  0.02963000  1.0 0.7095031968
O  O64  1  0.97037000  0.77451000  0.02577000  1.0 0.7095031968
O  O65  1  0.22549000  0.52577000  0.52963000  1.0 0.7095031968
O  O66  1  0.52963000  0.22549000  0.52577000  1.0 0.7095031968
O  O67  1  0.47037000  0.72549000  0.97423000  1.0 0.7095031968
O  O68  1  0.02963000  0.27451000  0.47423000  1.0 0.7095031968
O  O69  1  0.02577000  0.97037000  0.77451000  1.0 0.7095031968
O  O70  1  0.52577000  0.52963000  0.22549000  1.0 0.7095031968
O  O71  1  0.97423000  0.47037000  0.72549000  1.0 0.7095031968
O  O72  1  0.47423000  0.02963000  0.27451000  1.0 0.7095031968
O  O73  1  0.33600000  0.27710000  0.09770000  1.0 -0.1159685775
O  O74  1  0.16400000  0.72290000  0.59770000  1.0 -0.1159685775
O  O75  1  0.83600000  0.22290000  0.90230000  1.0 -0.1159685775
O  O76  1  0.09770000  0.33600000  0.27710000  1.0 -0.1159685775
O  O77  1  0.66400000  0.77710000  0.40230000  1.0 -0.1159685775
O  O78  1  0.40230000  0.66400000  0.77710000  1.0 -0.1159685775
O  O79  1  0.59770000  0.16400000  0.72290000  1.0 -0.1159685775
O  O80  1  0.90230000  0.83600000  0.22290000  1.0 -0.1159685775
O  O81  1  0.27710000  0.09770000  0.33600000  1.0 -0.1159685775
O  O82  1  0.77710000  0.40230000  0.66400000  1.0 -0.1159685775
O  O83  1  0.72290000  0.59770000  0.16400000  1.0 -0.1159685775
O  O84  1  0.22290000  0.90230000  0.83600000  1.0 -0.1159685775
O  O85  1  0.66400000  0.72290000  0.90230000  1.0 -0.1100464218
O  O86  1  0.83600000  0.27710000  0.40230000  1.0 -0.1159685775
O  O87  1  0.16400000  0.77710000  0.09770000  1.0 -0.1159685775
O  O88  1  0.90230000  0.66400000  0.72290000  1.0 -0.1159685775
O  O89  1  0.33600000  0.22290000  0.59770000  1.0 -0.1159685775
O  O90  1  0.59770000  0.33600000  0.22290000  1.0 -0.1159685775
O  O91  1  0.40230000  0.83600000  0.27710000  1.0 -0.1159685775
O  O92  1  0.09770000  0.16400000  0.77710000  1.0 -0.1159685775
O  O93  1  0.72290000  0.90230000  0.66400000  1.0 -0.1159685775
O  O94  1  0.22290000  0.59770000  0.33600000  1.0 -0.1159685775
O  O95  1  0.27710000  0.40230000  0.83600000  1.0 -0.1159685775
O  O96  1  0.77710000  0.09770000  0.16400000  1.0 -0.1159685775
O  O97  1  0.20670000  0.15870000  0.07210000  1.0 -0.1406576883
O  O98  1  0.29330000  0.84130000  0.57210000  1.0 -0.1472412697
O  O99  1  0.70670000  0.34130000  0.92790000  1.0 -0.1406576883
O  O100  1  0.07210000  0.20670000  0.15870000  1.0 -0.1406576883
O  O101  1  0.79330000  0.65870000  0.42790000  1.0 -0.1472412697
O  O102  1  0.42790000  0.79330000  0.65870000  1.0 -0.1472412697
O  O103  1  0.57210000  0.29330000  0.84130000  1.0 -0.1472412697
O  O104  1  0.92790000  0.70670000  0.34130000  1.0 -0.1406576883
O  O105  1  0.15870000  0.07210000  0.20670000  1.0 -0.1406576883
O  O106  1  0.65870000  0.42790000  0.79330000  1.0 -0.1472412697
O  O107  1  0.84130000  0.57210000  0.29330000  1.0 -0.1472412697
O  O108  1  0.34130000  0.92790000  0.70670000  1.0 -0.1406576883
O  O109  1  0.79330000  0.84130000  0.92790000  1.0 -0.1472412697
O  O110  1  0.70670000  0.15870000  0.42790000  1.0 -0.1472412697
O  O111  1  0.29330000  0.65870000  0.07210000  1.0 -0.1472412697
O  O112  1  0.92790000  0.79330000  0.84130000  1.0 -0.1472412697
O  O113  1  0.20670000  0.34130000  0.57210000  1.0 -0.1406576883
O  O114  1  0.57210000  0.20670000  0.34130000  1.0 -0.1406576883
O  O115  1  0.42790000  0.70670000  0.15870000  1.0 -0.1472412697
O  O116  1  0.07210000  0.29330000  0.65870000  1.0 -0.1472412697
O  O117  1  0.84130000  0.92790000  0.79330000  1.0 -0.1472412697
O  O118  1  0.34130000  0.57210000  0.20670000  1.0 -0.1406576883
O  O119  1  0.15870000  0.42790000  0.70670000  1.0 -0.1472412697
O  O120  1  0.65870000  0.07210000  0.29330000  1.0 -0.1472412697
O  O121  1  0.37990000  0.24840000  0.99650000  1.0 -0.0691863377
O  O122  1  0.12010000  0.75160000  0.49650000  1.0 -0.0691863377
O  O123  1  0.87990000  0.25160000  0.00350000  1.0 -0.0691863377
O  O124  1  0.99650000  0.37990000  0.24840000  1.0 -0.0691863377
O  O125  1  0.62010000  0.74840000  0.50350000  1.0 -0.0691863377
O  O126  1  0.50350000  0.62010000  0.74840000  1.0 -0.0691863377
O  O127  1  0.49650000  0.12010000  0.75160000  1.0 -0.0691863377
O  O128  1  0.00350000  0.87990000  0.25160000  1.0 -0.0691863377
O  O129  1  0.24840000  0.99650000  0.37990000  1.0 -0.0691863377
O  O130  1  0.74840000  0.50350000  0.62010000  1.0 -0.0691863377
O  O131  1  0.75160000  0.49650000  0.12010000  1.0 -0.0691863377
O  O132  1  0.25160000  0.00350000  0.87990000  1.0 -0.0691863377
O  O133  1  0.62010000  0.75160000  0.00350000  1.0 -0.0691863377
O  O134  1  0.87990000  0.24840000  0.50350000  1.0 -0.0691863377
O  O135  1  0.12010000  0.74840000  0.99650000  1.0 -0.0691863377
O  O136  1  0.00350000  0.62010000  0.75160000  1.0 -0.0691863377
O  O137  1  0.37990000  0.25160000  0.49650000  1.0 -0.0691863377
O  O138  1  0.49650000  0.37990000  0.25160000  1.0 -0.0691863377
O  O139  1  0.50350000  0.87990000  0.24840000  1.0 -0.0691863377
O  O140  1  0.99650000  0.12010000  0.74840000  1.0 -0.0691863377
O  O141  1  0.75160000  0.00350000  0.62010000  1.0 -0.0691863377
O  O142  1  0.25160000  0.49650000  0.37990000  1.0 -0.0691863377
O  O143  1  0.24840000  0.50350000  0.87990000  1.0 -0.0691863377
O  O144  1  0.74840000  0.99650000  0.12010000  1.0 -0.0691863377
O  O145  1  0.25090000  0.12630000  0.97540000  1.0 -0.0792431061
O  O146  1  0.24910000  0.87370000  0.47540000  1.0 -0.0792431061
O  O147  1  0.75090000  0.37370000  0.02460000  1.0 -0.0792431061
O  O148  1  0.97540000  0.25090000  0.12630000  1.0 -0.0792431061
O  O149  1  0.74910000  0.62630000  0.52460000  1.0 -0.0792431061
O  O150  1  0.52460000  0.74910000  0.62630000  1.0 -0.0792431061
O  O151  1  0.47540000  0.24910000  0.87370000  1.0 -0.0792431061
O  O152  1  0.02460000  0.75090000  0.37370000  1.0 -0.0792431061
O  O153  1  0.12630000  0.97540000  0.25090000  1.0 -0.0792431061
O  O154  1  0.62630000  0.52460000  0.74910000  1.0 -0.0792431061
O  O155  1  0.87370000  0.47540000  0.24910000  1.0 -0.0792431061
O  O156  1  0.37370000  0.02460000  0.75090000  1.0 -0.0792431061
O  O157  1  0.74910000  0.87370000  0.02460000  1.0 -0.0792431061
O  O158  1  0.75090000  0.12630000  0.52460000  1.0 -0.0792431061
O  O159  1  0.24910000  0.62630000  0.97540000  1.0 -0.0792431061
O  O160  1  0.02460000  0.74910000  0.87370000  1.0 -0.0792431061
O  O161  1  0.25090000  0.37370000  0.47540000  1.0 -0.0792431061
O  O162  1  0.47540000  0.25090000  0.37370000  1.0 -0.0792431061
O  O163  1  0.52460000  0.75090000  0.12630000  1.0 -0.0792431061
O  O164  1  0.97540000  0.24910000  0.62630000  1.0 -0.0792431061
O  O165  1  0.87370000  0.02460000  0.74910000  1.0 -0.0792431061
O  O166  1  0.37370000  0.47540000  0.25090000  1.0 -0.0792431061
O  O167  1  0.12630000  0.52460000  0.75090000  1.0 -0.0792431061
O  O168  1  0.62630000  0.97540000  0.24910000  1.0 -0.0792431061
O  O169  1  0.14488000  0.01657000  0.02331000  1.0 -0.5387403134
O  O170  1  0.35512000  0.98343000  0.52331000  1.0 -0.5387403134
O  O171  1  0.64488000  0.48343000  0.97669000  1.0 -0.5387403134
O  O172  1  0.02331000  0.14488000  0.01657000  1.0 -0.5387403134
O  O173  1  0.85512000  0.51657000  0.47669000  1.0 -0.5387403134
O  O174  1  0.47669000  0.85512000  0.51657000  1.0 -0.5387403134
O  O175  1  0.52331000  0.35512000  0.98343000  1.0 -0.5387403134
O  O176  1  0.97669000  0.64488000  0.48343000  1.0 -0.5387403134
O  O177  1  0.01657000  0.02331000  0.14488000  1.0 -0.5387403134
O  O178  1  0.51657000  0.47669000  0.85512000  1.0 -0.5387403134
O  O179  1  0.98343000  0.52331000  0.35512000  1.0 -0.5387403134
O  O180  1  0.48343000  0.97669000  0.64488000  1.0 -0.5387403134
O  O181  1  0.85512000  0.98343000  0.97669000  1.0 -0.5387403134
O  O182  1  0.64488000  0.01657000  0.47669000  1.0 -0.5387403134
O  O183  1  0.35512000  0.51657000  0.02331000  1.0 -0.5387403134
O  O184  1  0.97669000  0.85512000  0.98343000  1.0 -0.5387403134
O  O185  1  0.14488000  0.48343000  0.52331000  1.0 -0.5387403134
O  O186  1  0.52331000  0.14488000  0.48343000  1.0 -0.5387403134
O  O187  1  0.47669000  0.64488000  0.01657000  1.0 -0.5387403134
O  O188  1  0.02331000  0.35512000  0.51657000  1.0 -0.5387403134
O  O189  1  0.98343000  0.97669000  0.85512000  1.0 -0.5387403134
O  O190  1  0.48343000  0.52331000  0.14488000  1.0 -0.5387403134
O  O191  1  0.01657000  0.47669000  0.64488000  1.0 -0.5387403134
O  O192  1  0.51657000  0.02331000  0.35512000  1.0 -0.5387403134
O  O193  1  0.19880000  0.02195000  0.03800000  1.0 -0.5387403134
O  O194  1  0.30120000  0.97805000  0.53800000  1.0 -0.5387403134
O  O195  1  0.69880000  0.47805000  0.96200000  1.0 -0.5387403134
O  O196  1  0.03800000  0.19880000  0.02195000  1.0 -0.5387403134
O  O197  1  0.80120000  0.52195000  0.46200000  1.0 -0.5387403134
O  O198  1  0.46200000  0.80120000  0.52195000  1.0 -0.5387403134
O  O199  1  0.53800000  0.30120000  0.97805000  1.0 -0.5387403134
O  O200  1  0.96200000  0.69880000  0.47805000  1.0 -0.5387403134
O  O201  1  0.02195000  0.03800000  0.19880000  1.0 -0.5387403134
O  O202  1  0.52195000  0.46200000  0.80120000  1.0 -0.5387403134
O  O203  1  0.97805000  0.53800000  0.30120000  1.0 -0.5387403134
O  O204  1  0.47805000  0.96200000  0.69880000  1.0 -0.5387403134
O  O205  1  0.80120000  0.97805000  0.96200000  1.0 -0.5387403134
O  O206  1  0.69880000  0.02195000  0.46200000  1.0 -0.5387403134
O  O207  1  0.30120000  0.52195000  0.03800000  1.0 -0.5387403134
O  O208  1  0.96200000  0.80120000  0.97805000  1.0 -0.5387403134
O  O209  1  0.19880000  0.47805000  0.53800000  1.0 -0.5387403134
O  O210  1  0.53800000  0.19880000  0.47805000  1.0 -0.5387403134
O  O211  1  0.46200000  0.69880000  0.02195000  1.0 -0.5387403134
O  O212  1  0.03800000  0.30120000  0.52195000  1.0 -0.5387403134
O  O213  1  0.97805000  0.96200000  0.80120000  1.0 -0.5387403134
O  O214  1  0.47805000  0.53800000  0.19880000  1.0 -0.5387403134
O  O215  1  0.02195000  0.46200000  0.69880000  1.0 -0.5387403134
O  O216  1  0.52195000  0.03800000  0.30120000  1.0 -0.5387403134
O  O217  1  0.11210000  0.16410000  0.96860000  1.0 -0.4954398325
O  O218  1  0.38790000  0.83590000  0.46860000  1.0 -0.4923639423
O  O219  1  0.61210000  0.33590000  0.03140000  1.0 -0.4954398325
O  O220  1  0.96860000  0.11210000  0.16410000  1.0 -0.4954398325
O  O221  1  0.88790000  0.66410000  0.53140000  1.0 -0.4954398325
O  O222  1  0.53140000  0.88790000  0.66410000  1.0 -0.4923639423
O  O223  1  0.46860000  0.38790000  0.83590000  1.0 -0.4923639423
O  O224  1  0.03140000  0.61210000  0.33590000  1.0 -0.4954398325
O  O225  1  0.16410000  0.96860000  0.11210000  1.0 -0.4954398325
O  O226  1  0.66410000  0.53140000  0.88790000  1.0 -0.4954398325
O  O227  1  0.83590000  0.46860000  0.38790000  1.0 -0.4923639423
O  O228  1  0.33590000  0.03140000  0.61210000  1.0 -0.4954398325
O  O229  1  0.88790000  0.83590000  0.03140000  1.0 -0.4954398325
O  O230  1  0.61210000  0.16410000  0.53140000  1.0 -0.4954398325
O  O231  1  0.38790000  0.66410000  0.96860000  1.0 -0.4954398325
O  O232  1  0.03140000  0.88790000  0.83590000  1.0 -0.4954398325
O  O233  1  0.11210000  0.33590000  0.46860000  1.0 -0.4954398325
O  O234  1  0.46860000  0.11210000  0.33590000  1.0 -0.4954398325
O  O235  1  0.53140000  0.61210000  0.16410000  1.0 -0.4954398325
O  O236  1  0.96860000  0.38790000  0.66410000  1.0 -0.4954398325
O  O237  1  0.83590000  0.03140000  0.88790000  1.0 -0.4954398325
O  O238  1  0.33590000  0.46860000  0.11210000  1.0 -0.4954398325
O  O239  1  0.16410000  0.53140000  0.61210000  1.0 -0.4954398325
O  O240  1  0.66410000  0.96860000  0.38790000  1.0 -0.4954398325
O  O241  1  0.08213000  0.11851000  0.97958000  1.0 -0.5800601369
O  O242  1  0.41787000  0.88149000  0.47958000  1.0 -0.5800601369
O  O243  1  0.58213000  0.38149000  0.02042000  1.0 -0.5800601369
O  O244  1  0.97958000  0.08213000  0.11851000  1.0 -0.5800601369
O  O245  1  0.91787000  0.61851000  0.52042000  1.0 -0.5800601369
O  O246  1  0.52042000  0.91787000  0.61851000  1.0 -0.5800601369
O  O247  1  0.47958000  0.41787000  0.88149000  1.0 -0.5800601369
O  O248  1  0.02042000  0.58213000  0.38149000  1.0 -0.5800601369
O  O249  1  0.11851000  0.97958000  0.08213000  1.0 -0.5800601369
O  O250  1  0.61851000  0.52042000  0.91787000  1.0 -0.5800601369
O  O251  1  0.88149000  0.47958000  0.41787000  1.0 -0.5800601369
O  O252  1  0.38149000  0.02042000  0.58213000  1.0 -0.5800601369
O  O253  1  0.91787000  0.88149000  0.02042000  1.0 -0.5800601369
O  O254  1  0.58213000  0.11851000  0.52042000  1.0 -0.5800601369
O  O255  1  0.41787000  0.61851000  0.97958000  1.0 -0.5800601369
O  O256  1  0.02042000  0.91787000  0.88149000  1.0 -0.5800601369
O  O257  1  0.08213000  0.38149000  0.47958000  1.0 -0.5800601369
O  O258  1  0.47958000  0.08213000  0.38149000  1.0 -0.5800601369
O  O259  1  0.52042000  0.58213000  0.11851000  1.0 -0.5800601369
O  O260  1  0.97958000  0.41787000  0.61851000  1.0 -0.5800601369
O  O261  1  0.88149000  0.02042000  0.91787000  1.0 -0.5800601369
O  O262  1  0.38149000  0.47958000  0.08213000  1.0 -0.5800601369
O  O263  1  0.11851000  0.52042000  0.58213000  1.0 -0.5800601369
O  O264  1  0.61851000  0.97958000  0.41787000  1.0 -0.5800601369
O  O265  1  0.37724000  0.41612000  0.04311000  1.0 -0.553586585
O  O266  1  0.12276000  0.58388000  0.54311000  1.0 -0.553586585
O  O267  1  0.87724000  0.08388000  0.95689000  1.0 -0.553586585
O  O268  1  0.04311000  0.37724000  0.41612000  1.0 -0.553586585
O  O269  1  0.62276000  0.91612000  0.45689000  1.0 -0.553586585
O  O270  1  0.45689000  0.62276000  0.91612000  1.0 -0.553586585
O  O271  1  0.54311000  0.12276000  0.58388000  1.0 -0.553586585
O  O272  1  0.95689000  0.87724000  0.08388000  1.0 -0.553586585
O  O273  1  0.41612000  0.04311000  0.37724000  1.0 -0.553586585
O  O274  1  0.91612000  0.45689000  0.62276000  1.0 -0.553586585
O  O275  1  0.58388000  0.54311000  0.12276000  1.0 -0.553586585
O  O276  1  0.08388000  0.95689000  0.87724000  1.0 -0.553586585
O  O277  1  0.62276000  0.58388000  0.95689000  1.0 -0.553586585
O  O278  1  0.87724000  0.41612000  0.45689000  1.0 -0.553586585
O  O279  1  0.12276000  0.91612000  0.04311000  1.0 -0.553586585
O  O280  1  0.95689000  0.62276000  0.58388000  1.0 -0.553586585
O  O281  1  0.37724000  0.08388000  0.54311000  1.0 -0.553586585
O  O282  1  0.54311000  0.37724000  0.08388000  1.0 -0.553586585
O  O283  1  0.45689000  0.87724000  0.41612000  1.0 -0.553586585
O  O284  1  0.04311000  0.12276000  0.91612000  1.0 -0.553586585
O  O285  1  0.58388000  0.95689000  0.62276000  1.0 -0.553586585
O  O286  1  0.08388000  0.54311000  0.37724000  1.0 -0.553586585
O  O287  1  0.41612000  0.45689000  0.87724000  1.0 -0.553586585
O  O288  1  0.91612000  0.04311000  0.12276000  1.0 -0.553586585
O  O289  1  0.32850000  0.38862000  0.03990000  1.0 -0.5897819044
O  O290  1  0.17150000  0.61138000  0.53990000  1.0 -0.5897819044
O  O291  1  0.82850000  0.11138000  0.96010000  1.0 -0.5897819044
O  O292  1  0.03990000  0.32850000  0.38862000  1.0 -0.5897819044
O  O293  1  0.67150000  0.88862000  0.46010000  1.0 -0.5897819044
O  O294  1  0.46010000  0.67150000  0.88862000  1.0 -0.5897819044
O  O295  1  0.53990000  0.17150000  0.61138000  1.0 -0.5897819044
O  O296  1  0.96010000  0.82850000  0.11138000  1.0 -0.5897819044
O  O297  1  0.38862000  0.03990000  0.32850000  1.0 -0.5897819044
O  O298  1  0.88862000  0.46010000  0.67150000  1.0 -0.5897819044
O  O299  1  0.61138000  0.53990000  0.17150000  1.0 -0.5897819044
O  O300  1  0.11138000  0.96010000  0.82850000  1.0 -0.5897819044
O  O301  1  0.67150000  0.61138000  0.96010000  1.0 -0.5897819044
O  O302  1  0.82850000  0.38862000  0.46010000  1.0 -0.5897819044
O  O303  1  0.17150000  0.88862000  0.03990000  1.0 -0.5897819044
O  O304  1  0.96010000  0.67150000  0.61138000  1.0 -0.5897819044
O  O305  1  0.32850000  0.11138000  0.53990000  1.0 -0.5897819044
O  O306  1  0.53990000  0.32850000  0.11138000  1.0 -0.5897819044
O  O307  1  0.46010000  0.82850000  0.38862000  1.0 -0.5897819044
O  O308  1  0.03990000  0.17150000  0.88862000  1.0 -0.5897819044
O  O309  1  0.61138000  0.96010000  0.67150000  1.0 -0.5897819044
O  O310  1  0.11138000  0.53990000  0.32850000  1.0 -0.5897819044
O  O311  1  0.38862000  0.46010000  0.82850000  1.0 -0.5897819044
O  O312  1  0.88862000  0.03990000  0.17150000  1.0 -0.5897819044
O  O313  1  0.48441000  0.35158000  0.04728000  1.0 -0.5074850049
O  O314  1  0.01559000  0.64842000  0.54728000  1.0 -0.5074850049
O  O315  1  0.98441000  0.14842000  0.95272000  1.0 -0.5074850049
O  O316  1  0.04728000  0.48441000  0.35158000  1.0 -0.5074850049
O  O317  1  0.51559000  0.85158000  0.45272000  1.0 -0.5074850049
O  O318  1  0.45272000  0.51559000  0.85158000  1.0 -0.5074850049
O  O319  1  0.54728000  0.01559000  0.64842000  1.0 -0.5074850049
O  O320  1  0.95272000  0.98441000  0.14842000  1.0 -0.5074850049
O  O321  1  0.35158000  0.04728000  0.48441000  1.0 -0.5074850049
O  O322  1  0.85158000  0.45272000  0.51559000  1.0 -0.5074850049
O  O323  1  0.64842000  0.54728000  0.01559000  1.0 -0.5074850049
O  O324  1  0.14842000  0.95272000  0.98441000  1.0 -0.5074850049
O  O325  1  0.51559000  0.64842000  0.95272000  1.0 -0.5074850049
O  O326  1  0.98441000  0.35158000  0.45272000  1.0 -0.5074850049
O  O327  1  0.01559000  0.85158000  0.04728000  1.0 -0.5074850049
O  O328  1  0.95272000  0.51559000  0.64842000  1.0 -0.5074850049
O  O329  1  0.48441000  0.14842000  0.54728000  1.0 -0.5074850049
O  O330  1  0.54728000  0.48441000  0.14842000  1.0 -0.5074850049
O  O331  1  0.45272000  0.98441000  0.35158000  1.0 -0.5074850049
O  O332  1  0.04728000  0.01559000  0.85158000  1.0 -0.5074850049
O  O333  1  0.64842000  0.95272000  0.51559000  1.0 -0.5074850049
O  O334  1  0.14842000  0.54728000  0.48441000  1.0 -0.5074850049
O  O335  1  0.35158000  0.45272000  0.98441000  1.0 -0.5074850049
O  O336  1  0.85158000  0.04728000  0.01559000  1.0 -0.5074850049
O  O337  1  0.48170000  0.29760000  0.05200000  1.0 -0.5165793227
O  O338  1  0.01830000  0.70240000  0.55200000  1.0 -0.5165793227
O  O339  1  0.98170000  0.20240000  0.94800000  1.0 -0.5165793227
O  O340  1  0.05200000  0.48170000  0.29760000  1.0 -0.5165793227
O  O341  1  0.51830000  0.79760000  0.44800000  1.0 -0.5165793227
O  O342  1  0.44800000  0.51830000  0.79760000  1.0 -0.5165793227
O  O343  1  0.55200000  0.01830000  0.70240000  1.0 -0.5165793227
O  O344  1  0.94800000  0.98170000  0.20240000  1.0 -0.5165793227
O  O345  1  0.29760000  0.05200000  0.48170000  1.0 -0.5165793227
O  O346  1  0.79760000  0.44800000  0.51830000  1.0 -0.5165793227
O  O347  1  0.70240000  0.55200000  0.01830000  1.0 -0.5165793227
O  O348  1  0.20240000  0.94800000  0.98170000  1.0 -0.5165793227
O  O349  1  0.51830000  0.70240000  0.94800000  1.0 -0.5165793227
O  O350  1  0.98170000  0.29760000  0.44800000  1.0 -0.5165793227
O  O351  1  0.01830000  0.79760000  0.05200000  1.0 -0.5165793227
O  O352  1  0.94800000  0.51830000  0.70240000  1.0 -0.5165793227
O  O353  1  0.48170000  0.20240000  0.55200000  1.0 -0.5165793227
O  O354  1  0.55200000  0.48170000  0.20240000  1.0 -0.5165793227
O  O355  1  0.44800000  0.98170000  0.29760000  1.0 -0.5165793227
O  O356  1  0.05200000  0.01830000  0.79760000  1.0 -0.5165793227
O  O357  1  0.70240000  0.94800000  0.51830000  1.0 -0.5165793227
O  O358  1  0.20240000  0.55200000  0.48170000  1.0 -0.5165793227
O  O359  1  0.29760000  0.44800000  0.98170000  1.0 -0.5165793227
O  O360  1  0.79760000  0.05200000  0.01830000  1.0 -0.5165793227
O  O361  1  0.92050000  0.78890000  0.01440000  1.0 1.1085402476
O  O362  1  0.57950000  0.21110000  0.51440000  1.0 1.1085402476
O  O363  1  0.42050000  0.71110000  0.98560000  1.0 1.1085402476
O  O364  1  0.01440000  0.92050000  0.78890000  1.0 1.1085402476
O  O365  1  0.07950000  0.28890000  0.48560000  1.0 1.1085402476
O  O366  1  0.48560000  0.07950000  0.28890000  1.0 1.1085402476
O  O367  1  0.51440000  0.57950000  0.21110000  1.0 1.1085402476
O  O368  1  0.98560000  0.42050000  0.71110000  1.0 1.1085402476
O  O369  1  0.78890000  0.01440000  0.92050000  1.0 1.1085402476
O  O370  1  0.28890000  0.48560000  0.07950000  1.0 1.1085402476
O  O371  1  0.21110000  0.51440000  0.57950000  1.0 1.1023935252
O  O372  1  0.71110000  0.98560000  0.42050000  1.0 1.1085402476
O  O373  1  0.07950000  0.21110000  0.98560000  1.0 1.1023935252
O  O374  1  0.42050000  0.78890000  0.48560000  1.0 1.1023935252
O  O375  1  0.57950000  0.28890000  0.01440000  1.0 1.1085402476
O  O376  1  0.98560000  0.07950000  0.21110000  1.0 1.1085402476
O  O377  1  0.92050000  0.71110000  0.51440000  1.0 1.1085402476
O  O378  1  0.51440000  0.92050000  0.71110000  1.0 1.1085402476
O  O379  1  0.48560000  0.42050000  0.78890000  1.0 1.1023935252
O  O380  1  0.01440000  0.57950000  0.28890000  1.0 1.1085402476
O  O381  1  0.21110000  0.98560000  0.07950000  1.0 1.1023935252
O  O382  1  0.71110000  0.51440000  0.92050000  1.0 1.1085402476
O  O383  1  0.78890000  0.48560000  0.42050000  1.0 1.1023935252
O  O384  1  0.28890000  0.01440000  0.57950000  1.0 1.1085402476
O  O385  1  0.14620000  0.76170000  0.09550000  1.0 -0.1100464218
O  O386  1  0.35380000  0.23830000  0.59550000  1.0 -0.1100464218
O  O387  1  0.64620000  0.73830000  0.90450000  1.0 -0.1100464218
O  O388  1  0.09550000  0.14620000  0.76170000  1.0 -0.1100464218
O  O389  1  0.85380000  0.26170000  0.40450000  1.0 -0.1100464218
O  O390  1  0.40450000  0.85380000  0.26170000  1.0 -0.1100464218
O  O391  1  0.59550000  0.35380000  0.23830000  1.0 -0.1100464218
O  O392  1  0.90450000  0.64620000  0.73830000  1.0 -0.1100464218
O  O393  1  0.76170000  0.09550000  0.14620000  1.0 -0.1100464218
O  O394  1  0.26170000  0.40450000  0.85380000  1.0 -0.1100464218
O  O395  1  0.23830000  0.59550000  0.35380000  1.0 -0.1100464218
O  O396  1  0.73830000  0.90450000  0.64620000  1.0 -0.1100464218
O  O397  1  0.85380000  0.23830000  0.90450000  1.0 -0.1100464218
O  O398  1  0.64620000  0.76170000  0.40450000  1.0 -0.1100464218
O  O399  1  0.35380000  0.26170000  0.09550000  1.0 -0.1100464218
O  O400  1  0.90450000  0.85380000  0.23830000  1.0 -0.1100464218
O  O401  1  0.14620000  0.73830000  0.59550000  1.0 -0.1100464218
O  O402  1  0.59550000  0.14620000  0.73830000  1.0 -0.1100464218
O  O403  1  0.40450000  0.64620000  0.76170000  1.0 -0.1100464218
O  O404  1  0.09550000  0.35380000  0.26170000  1.0 -0.1100464218
O  O405  1  0.23830000  0.90450000  0.85380000  1.0 -0.1100464218
O  O406  1  0.73830000  0.59550000  0.14620000  1.0 -0.1100464218
O  O407  1  0.76170000  0.40450000  0.64620000  1.0 -0.1100464218
O  O408  1  0.26170000  0.09550000  0.35380000  1.0 -0.1100464218
O  O409  1  0.27640000  0.64060000  0.07300000  1.0 -0.0792431061
O  O410  1  0.22360000  0.35940000  0.57300000  1.0 -0.0792431061
O  O411  1  0.77640000  0.85940000  0.92700000  1.0 -0.0792431061
O  O412  1  0.07300000  0.27640000  0.64060000  1.0 -0.0792431061
O  O413  1  0.72360000  0.14060000  0.42700000  1.0 -0.0792431061
O  O414  1  0.42700000  0.72360000  0.14060000  1.0 -0.0792431061
O  O415  1  0.57300000  0.22360000  0.35940000  1.0 -0.0792431061
O  O416  1  0.92700000  0.77640000  0.85940000  1.0 -0.0792431061
O  O417  1  0.64060000  0.07300000  0.27640000  1.0 -0.0792431061
O  O418  1  0.14060000  0.42700000  0.72360000  1.0 -0.0792431061
O  O419  1  0.35940000  0.57300000  0.22360000  1.0 -0.0792431061
O  O420  1  0.85940000  0.92700000  0.77640000  1.0 -0.0792431061
O  O421  1  0.72360000  0.35940000  0.92700000  1.0 -0.0792431061
O  O422  1  0.77640000  0.64060000  0.42700000  1.0 -0.0792431061
O  O423  1  0.22360000  0.14060000  0.07300000  1.0 -0.0792431061
O  O424  1  0.92700000  0.72360000  0.35940000  1.0 -0.0792431061
O  O425  1  0.27640000  0.85940000  0.57300000  1.0 -0.0792431061
O  O426  1  0.57300000  0.27640000  0.85940000  1.0 -0.0792431061
O  O427  1  0.42700000  0.77640000  0.64060000  1.0 -0.0792431061
O  O428  1  0.07300000  0.22360000  0.14060000  1.0 -0.0792431061
O  O429  1  0.35940000  0.92700000  0.72360000  1.0 -0.0792431061
O  O430  1  0.85940000  0.57300000  0.27640000  1.0 -0.0792431061
O  O431  1  0.64060000  0.42700000  0.77640000  1.0 -0.0792431061
O  O432  1  0.14060000  0.07300000  0.22360000  1.0 -0.0792431061
O  O433  1  0.13510000  0.76630000  0.98300000  1.0 -0.1406576883
O  O434  1  0.36490000  0.23370000  0.48300000  1.0 -0.1406576883
O  O435  1  0.63510000  0.73370000  0.01700000  1.0 -0.1406576883
O  O436  1  0.98300000  0.13510000  0.76630000  1.0 -0.1406576883
O  O437  1  0.86490000  0.26630000  0.51700000  1.0 -0.1406576883
O  O438  1  0.51700000  0.86490000  0.26630000  1.0 -0.1406576883
O  O439  1  0.48300000  0.36490000  0.23370000  1.0 -0.1406576883
O  O440  1  0.01700000  0.63510000  0.73370000  1.0 -0.1406576883
O  O441  1  0.76630000  0.98300000  0.13510000  1.0 -0.1406576883
O  O442  1  0.26630000  0.51700000  0.86490000  1.0 -0.1406576883
O  O443  1  0.23370000  0.48300000  0.36490000  1.0 -0.1406576883
O  O444  1  0.73370000  0.01700000  0.63510000  1.0 -0.1406576883
O  O445  1  0.86490000  0.23370000  0.01700000  1.0 -0.1406576883
O  O446  1  0.63510000  0.76630000  0.51700000  1.0 -0.1406576883
O  O447  1  0.36490000  0.26630000  0.98300000  1.0 -0.1406576883
O  O448  1  0.01700000  0.86490000  0.23370000  1.0 -0.1406576883
O  O449  1  0.13510000  0.73370000  0.48300000  1.0 -0.1406576883
O  O450  1  0.48300000  0.13510000  0.73370000  1.0 -0.1406576883
O  O451  1  0.51700000  0.63510000  0.76630000  1.0 -0.1406576883
O  O452  1  0.98300000  0.36490000  0.26630000  1.0 -0.1406576883
O  O453  1  0.23370000  0.01700000  0.86490000  1.0 -0.1406576883
O  O454  1  0.73370000  0.48300000  0.13510000  1.0 -0.1406576883
O  O455  1  0.76630000  0.51700000  0.63510000  1.0 -0.1406576883
O  O456  1  0.26630000  0.98300000  0.36490000  1.0 -0.1406576883
O  O457  1  0.26070000  0.64370000  0.96030000  1.0 -0.1326654605
O  O458  1  0.23930000  0.35630000  0.46030000  1.0 -0.1326654605
O  O459  1  0.76070000  0.85630000  0.03970000  1.0 -0.1326654605
O  O460  1  0.96030000  0.26070000  0.64370000  1.0 -0.1326654605
O  O461  1  0.73930000  0.14370000  0.53970000  1.0 -0.1326654605
O  O462  1  0.53970000  0.73930000  0.14370000  1.0 -0.1326654605
O  O463  1  0.46030000  0.23930000  0.35630000  1.0 -0.1326654605
O  O464  1  0.03970000  0.76070000  0.85630000  1.0 -0.1326654605
O  O465  1  0.64370000  0.96030000  0.26070000  1.0 -0.1326654605
O  O466  1  0.14370000  0.53970000  0.73930000  1.0 -0.1326654605
O  O467  1  0.35630000  0.46030000  0.23930000  1.0 -0.1326654605
O  O468  1  0.85630000  0.03970000  0.76070000  1.0 -0.1326654605
O  O469  1  0.73930000  0.35630000  0.03970000  1.0 -0.1326654605
O  O470  1  0.76070000  0.64370000  0.53970000  1.0 -0.1326654605
O  O471  1  0.23930000  0.14370000  0.96030000  1.0 -0.1326654605
O  O472  1  0.03970000  0.73930000  0.35630000  1.0 -0.1326654605
O  O473  1  0.26070000  0.85630000  0.46030000  1.0 -0.1326654605
O  O474  1  0.46030000  0.26070000  0.85630000  1.0 -0.1326654605
O  O475  1  0.53970000  0.76070000  0.64370000  1.0 -0.1326654605
O  O476  1  0.96030000  0.23930000  0.14370000  1.0 -0.1326654605
O  O477  1  0.35630000  0.03970000  0.73930000  1.0 -0.1326654605
O  O478  1  0.85630000  0.46030000  0.26070000  1.0 -0.1326654605
O  O479  1  0.64370000  0.53970000  0.76070000  1.0 -0.1326654605
O  O480  1  0.14370000  0.96030000  0.23930000  1.0 -0.1326654605
