# DDEC6 charges by PACMAN v1.1 (https://github.com/mtap-research/PACMAN-charge/)
data_VIYXOT_ion_pacman
_symmetry_space_group_name_H-M   'P 1'
_cell_length_a   10.00770000
_cell_length_b   10.38150000
_cell_length_c   15.94930000
_cell_angle_alpha   70.87750000
_cell_angle_beta   78.23930000
_cell_angle_gamma   64.37900000
_symmetry_Int_Tables_number   1
_chemical_formula_structural   EuH24C28N3O8
_chemical_formula_sum   'Eu2 H48 C56 N6 O16'
_cell_volume   1407.91142166
_cell_formula_units_Z   2
loop_
 _symmetry_equiv_pos_site_id
 _symmetry_equiv_pos_as_xyz
  1  'x, y, z'
loop_
 _atom_site_type_symbol
 _atom_site_label
 _atom_site_symmetry_multiplicity
 _atom_site_fract_x
 _atom_site_fract_y
 _atom_site_fract_z
 _atom_site_occupancy
 _atom_site_charge
Eu  Eu1  1  0.90770000  0.63963000  0.08378000  1.0 2.0424309783
Eu  Eu2  1  0.09230000  0.36037000  0.91622000  1.0 2.0424309783
H  H1  1  0.00020000  0.06610000  0.09660000  1.0 0.1484255704
H  H2  1  0.53960000  0.87320000  0.95140000  1.0 0.1303284533
H  H3  1  0.78900000  0.72320000  0.74660000  1.0 0.1211478941
H  H4  1  0.84220000  0.23130000  0.30870000  1.0 0.1211478941
H  H5  1  0.87770000  0.82410000  0.32820000  1.0 0.1303284533
H  H6  1  0.49660000  0.14750000  0.70370000  1.0 0.1211478941
H  H7  1  0.70100000  0.86050000  0.43750000  1.0 0.1071563524
H  H8  1  0.77060000  0.11940000  0.60080000  1.0 0.1071563524
H  H9  1  0.85450000  0.15110000  0.45380000  1.0 0.1022546701
H  H10  1  0.59470000  0.73850000  0.56190000  1.0 0.1407137737
H  H11  1  0.57150000  0.76610000  0.65080000  1.0 0.2220878341
H  H12  1  0.90520000  0.80310000  0.62630000  1.0 0.1211478941
H  H13  1  0.97780000  0.82130000  0.47990000  1.0 0.1022546701
H  H14  1  0.53580000  0.15280000  0.56270000  1.0 0.1071563524
H  H15  1  0.59000000  0.23300000  0.33770000  1.0 0.2220878341
H  H16  1  0.48880000  0.28840000  0.41210000  1.0 0.1211478941
H  H17  1  0.99980000  0.93390000  0.90340000  1.0 0.1484255704
H  H18  1  0.46040000  0.12680000  0.04860000  1.0 0.1303284533
H  H19  1  0.21100000  0.27680000  0.25340000  1.0 0.1211478941
H  H20  1  0.15780000  0.76870000  0.69130000  1.0 0.1211478941
H  H21  1  0.12230000  0.17590000  0.67180000  1.0 0.1303284533
H  H22  1  0.50340000  0.85250000  0.29630000  1.0 0.1211478941
H  H23  1  0.29900000  0.13950000  0.56250000  1.0 0.1071563524
H  H24  1  0.22940000  0.88060000  0.39920000  1.0 0.1071563524
H  H25  1  0.14550000  0.84890000  0.54620000  1.0 0.1022546701
H  H26  1  0.40530000  0.26150000  0.43810000  1.0 0.1407137737
H  H27  1  0.42850000  0.23390000  0.34920000  1.0 0.2220878341
H  H28  1  0.09480000  0.19690000  0.37370000  1.0 0.1211478941
H  H29  1  0.02220000  0.17870000  0.52010000  1.0 0.1022546701
H  H30  1  0.46420000  0.84720000  0.43730000  1.0 0.1071563524
H  H31  1  0.41000000  0.76700000  0.66230000  1.0 0.2220878341
H  H32  1  0.51120000  0.71160000  0.58790000  1.0 0.1211478941
H  H33  1  0.56550000  0.34090000  0.90420000  1.0 0.2683920078
H  H34  1  0.45210000  0.38750000  0.84530000  1.0 0.2683920078
H  H35  1  0.38520000  0.55620000  0.91720000  1.0 0.1484255704
H  H36  1  0.53770000  0.57150000  0.88470000  1.0 0.1303284533
H  H37  1  0.41970000  0.62500000  0.81620000  1.0 0.1303284533
H  H38  1  0.72640000  0.40360000  0.78960000  1.0 0.1484255704
H  H39  1  0.67390000  0.29830000  0.76600000  1.0 0.1407137737
H  H40  1  0.60100000  0.47030000  0.72400000  1.0 0.1303284533
H  H41  1  0.43450000  0.65910000  0.09580000  1.0 0.2683920078
H  H42  1  0.54790000  0.61250000  0.15470000  1.0 0.2683920078
H  H43  1  0.61480000  0.44380000  0.08280000  1.0 0.1484255704
H  H44  1  0.46230000  0.42850000  0.11530000  1.0 0.1303284533
H  H45  1  0.58030000  0.37500000  0.18380000  1.0 0.1303284533
H  H46  1  0.27360000  0.59640000  0.21040000  1.0 0.1484255704
H  H47  1  0.32610000  0.70170000  0.23400000  1.0 0.1407137737
H  H48  1  0.39900000  0.52970000  0.27600000  1.0 0.1303284533
C  C1  1  0.93600000  0.31250000  0.14110000  1.0 0.624733787
C  C2  1  0.92380000  0.16940000  0.19370000  1.0 -0.0204711109
C  C3  1  0.75730000  0.63150000  0.92210000  1.0 0.6134545021
C  C4  1  0.96240000  0.05590000  0.15560000  1.0 -0.1043711044
C  C5  1  0.49650000  0.02850000  0.83240000  1.0 -0.0030307191
C  C6  1  0.94500000  0.92520000  0.20560000  1.0 -0.0030307191
C  C7  1  0.67750000  0.77650000  0.85830000  1.0 -0.0258585475
C  C8  1  0.36920000  0.14740000  0.86650000  1.0 0.5556971841
C  C9  1  0.85290000  0.02250000  0.33490000  1.0 0.0482418937
C  C10  1  0.56700000  0.88960000  0.89070000  1.0 -0.1068274378
C  C11  1  0.71700000  0.80090000  0.76810000  1.0 -0.1665798761
C  C12  1  0.65150000  0.93940000  0.70830000  1.0 0.0482418937
C  C13  1  0.86850000  0.15370000  0.28350000  1.0 -0.1900801845
C  C14  1  0.88970000  0.91120000  0.29500000  1.0 -0.1631258912
C  C15  1  0.69840000  0.96310000  0.61190000  1.0 0.0272707455
C  C16  1  0.79610000  0.00540000  0.43040000  1.0 0.0272707455
C  C17  1  0.54080000  0.05370000  0.74210000  1.0 -0.1768960245
C  C18  1  0.71880000  0.90900000  0.47110000  1.0 -0.1631258912
C  C19  1  0.67080000  0.88780000  0.56040000  1.0 0.1022546701
C  C20  1  0.76100000  0.06320000  0.56920000  1.0 -0.0517656263
C  C21  1  0.81050000  0.08340000  0.48030000  1.0 -0.0911714025
C  C22  1  0.97030000  0.80560000  0.16470000  1.0 0.5556971841
C  C23  1  0.84000000  0.87420000  0.58380000  1.0 -0.1300102659
C  C24  1  0.88600000  0.88860000  0.49640000  1.0 -0.0795698128
C  C25  1  0.62500000  0.08110000  0.54690000  1.0 -0.1212224849
C  C26  1  0.67400000  0.10050000  0.45950000  1.0 0.0895103179
C  C27  1  0.06400000  0.68750000  0.85890000  1.0 0.624733787
C  C28  1  0.07620000  0.83060000  0.80630000  1.0 -0.0204711109
C  C29  1  0.24270000  0.36850000  0.07790000  1.0 0.6134545021
C  C30  1  0.03760000  0.94410000  0.84440000  1.0 -0.1043711044
C  C31  1  0.50350000  0.97150000  0.16760000  1.0 -0.0030307191
C  C32  1  0.05500000  0.07480000  0.79440000  1.0 -0.0030307191
C  C33  1  0.32250000  0.22350000  0.14170000  1.0 -0.0258585475
C  C34  1  0.63080000  0.85260000  0.13350000  1.0 0.5556971841
C  C35  1  0.14710000  0.97750000  0.66510000  1.0 0.0482418937
C  C36  1  0.43300000  0.11040000  0.10930000  1.0 -0.1068274378
C  C37  1  0.28300000  0.19910000  0.23190000  1.0 -0.1665798761
C  C38  1  0.34850000  0.06060000  0.29170000  1.0 0.0482418937
C  C39  1  0.13150000  0.84630000  0.71650000  1.0 -0.1900801845
C  C40  1  0.11030000  0.08880000  0.70500000  1.0 -0.1631258912
C  C41  1  0.30160000  0.03690000  0.38810000  1.0 0.0272707455
C  C42  1  0.20390000  0.99460000  0.56960000  1.0 0.0272707455
C  C43  1  0.45920000  0.94630000  0.25790000  1.0 -0.1768960245
C  C44  1  0.28120000  0.09100000  0.52890000  1.0 -0.1631258912
C  C45  1  0.32920000  0.11220000  0.43960000  1.0 0.1022546701
C  C46  1  0.23900000  0.93680000  0.43080000  1.0 -0.0517656263
C  C47  1  0.18950000  0.91660000  0.51970000  1.0 -0.0911714025
C  C48  1  0.02970000  0.19440000  0.83530000  1.0 0.5556971841
C  C49  1  0.16000000  0.12580000  0.41620000  1.0 -0.1300102659
C  C50  1  0.11400000  0.11140000  0.50360000  1.0 -0.0795698128
C  C51  1  0.37500000  0.91890000  0.45310000  1.0 -0.1212224849
C  C52  1  0.32600000  0.89950000  0.54050000  1.0 0.0895103179
C  C53  1  0.46160000  0.55190000  0.86950000  1.0 -0.3109119721
C  C54  1  0.64300000  0.39370000  0.77630000  1.0 -0.3043372519
C  C55  1  0.53840000  0.44810000  0.13050000  1.0 -0.3109119721
C  C56  1  0.35700000  0.60630000  0.22370000  1.0 -0.3043372519
N  N1  1  0.60300000  0.78340000  0.59560000  1.0 -0.3925734051
N  N2  1  0.56900000  0.22530000  0.39370000  1.0 -0.3674186356
N  N3  1  0.39700000  0.21660000  0.40440000  1.0 -0.3925734051
N  N4  1  0.43100000  0.77470000  0.60630000  1.0 -0.3674186356
N  N5  1  0.52440000  0.40780000  0.85520000  1.0 -0.0795698128
N  N6  1  0.47560000  0.59220000  0.14480000  1.0 -0.0795698128
O  O1  1  0.99540000  0.32460000  0.06340000  1.0 -0.7066853531
O  O2  1  0.84070000  0.52380000  0.89160000  1.0 -0.6459010429
O  O3  1  0.73910000  0.62540000  0.00400000  1.0 -0.6823005863
O  O4  1  0.28920000  0.10860000  0.93400000  1.0 -0.6302454658
O  O5  1  0.88430000  0.41770000  0.17770000  1.0 -0.6406648494
O  O6  1  0.34170000  0.28180000  0.82830000  1.0 -0.6178031154
O  O7  1  0.01680000  0.81620000  0.08410000  1.0 -0.6096145399
O  O8  1  0.93810000  0.69660000  0.21200000  1.0 -0.6406648494
O  O9  1  0.00460000  0.67540000  0.93660000  1.0 -0.7066853531
O  O10  1  0.15930000  0.47620000  0.10840000  1.0 -0.6459010429
O  O11  1  0.26090000  0.37460000  0.99600000  1.0 -0.6823005863
O  O12  1  0.71080000  0.89140000  0.06600000  1.0 -0.6302454658
O  O13  1  0.11570000  0.58230000  0.82230000  1.0 -0.6406648494
O  O14  1  0.65830000  0.71820000  0.17170000  1.0 -0.6178031154
O  O15  1  0.98320000  0.18380000  0.91590000  1.0 -0.6096145399
O  O16  1  0.06190000  0.30340000  0.78800000  1.0 -0.6406648494
