# DDEC6 charges by PACMAN v1.1 (https://github.com/mtap-research/PACMAN-charge/)
data_VIZTIJ_FSR_pacman
_symmetry_space_group_name_H-M   'P 1'
_cell_length_a   19.39140000
_cell_length_b   19.39140000
_cell_length_c   30.78300000
_cell_angle_alpha   78.86430000
_cell_angle_beta   101.13600000
_cell_angle_gamma   135.01100000
_symmetry_Int_Tables_number   1
_chemical_formula_structural   Zn3H44C56S2I8N12(OF3)2
_chemical_formula_sum   'Zn12 H176 C224 S8 I32 N48 O8 F24'
_cell_volume   8002.55056437
_cell_formula_units_Z   4
loop_
 _symmetry_equiv_pos_site_id
 _symmetry_equiv_pos_as_xyz
  1  'x, y, z'
loop_
 _atom_site_type_symbol
 _atom_site_label
 _atom_site_symmetry_multiplicity
 _atom_site_fract_x
 _atom_site_fract_y
 _atom_site_fract_z
 _atom_site_occupancy
 _atom_site_charge
Zn  Zn1  1  0.52260000  0.27930000  0.56687000  1.0 0.4443886275
Zn  Zn2  1  0.72070000  0.47740000  0.06687000  1.0 0.4443886275
Zn  Zn3  1  0.04349000  0.20435000  0.40531000  1.0 0.4646224673
Zn  Zn4  1  0.79565000  0.95651000  0.90531000  1.0 0.4652340705
Zn  Zn5  1  0.46437000  0.81129000  0.72560000  1.0 0.4506070907
Zn  Zn6  1  0.18871000  0.53563000  0.22560000  1.0 0.4506070907
Zn  Zn7  1  0.27930000  0.52260000  0.93313000  1.0 0.4443886275
Zn  Zn8  1  0.47740000  0.72070000  0.43313000  1.0 0.4443886275
Zn  Zn9  1  0.20435000  0.04349000  0.09469000  1.0 0.4646224673
Zn  Zn10  1  0.95651000  0.79565000  0.59469000  1.0 0.4652340705
Zn  Zn11  1  0.81129000  0.46437000  0.77440000  1.0 0.4506070907
Zn  Zn12  1  0.53563000  0.18871000  0.27440000  1.0 0.4506070907
H  H1  1  0.00540000  0.27060000  0.81230000  1.0 0.1302746003
H  H2  1  0.72940000  0.99460000  0.31230000  1.0 0.1302746003
H  H3  1  0.96310000  0.15290000  0.86980000  1.0 0.1015148564
H  H4  1  0.84710000  0.03690000  0.36980000  1.0 0.1015148564
H  H5  1  0.68390000  0.99410000  0.83770000  1.0 0.0915597639
H  H6  1  0.00590000  0.31610000  0.33770000  1.0 0.0915597639
H  H7  1  0.71920000  0.11160000  0.78050000  1.0 0.1302746003
H  H8  1  0.88840000  0.28080000  0.28050000  1.0 0.1302746003
H  H9  1  0.66080000  0.20100000  0.69890000  1.0 0.1302746003
H  H10  1  0.79900000  0.33920000  0.19890000  1.0 0.1302746003
H  H11  1  0.54100000  0.18260000  0.65170000  1.0 0.0915597639
H  H12  1  0.81740000  0.45900000  0.15170000  1.0 0.0915597639
H  H13  1  0.73880000  0.41800000  0.57680000  1.0 0.1015148564
H  H14  1  0.58200000  0.26120000  0.07680000  1.0 0.1015148564
H  H15  1  0.86530000  0.44610000  0.62300000  1.0 0.1098375941
H  H16  1  0.55390000  0.13470000  0.12300000  1.0 0.1098375941
H  H17  1  0.10500000  0.60340000  0.67620000  1.0 0.1201815538
H  H18  1  0.39660000  0.89500000  0.17620000  1.0 0.1201815538
H  H19  1  0.27040000  0.74380000  0.67980000  1.0 0.1015148564
H  H20  1  0.25620000  0.72960000  0.17980000  1.0 0.1015148564
H  H21  1  0.33090000  0.60430000  0.75950000  1.0 0.0915597639
H  H22  1  0.39570000  0.66910000  0.25950000  1.0 0.0915597639
H  H23  1  0.16640000  0.46020000  0.75920000  1.0 0.1302746003
H  H24  1  0.53980000  0.83360000  0.25920000  1.0 0.1302746003
H  H25  1  0.79400000  0.01260000  0.51620000  1.0 0.1302746003
H  H26  1  0.98740000  0.20600000  0.01620000  1.0 0.1302746003
H  H27  1  0.91260000  0.14620000  0.47080000  1.0 0.0789345377
H  H28  1  0.85380000  0.08740000  0.97080000  1.0 0.0789345377
H  H29  1  0.96230000  0.00050000  0.43630000  1.0 0.1015148564
H  H30  1  0.99950000  0.03770000  0.93630000  1.0 0.1015148564
H  H31  1  0.84580000  0.86340000  0.48170000  1.0 0.1302746003
H  H32  1  0.13660000  0.15420000  0.98170000  1.0 0.1302746003
H  H33  1  0.62940000  0.59620000  0.49510000  1.0 0.1302746003
H  H34  1  0.40380000  0.37060000  0.99510000  1.0 0.1302746003
H  H35  1  0.58690000  0.44870000  0.49780000  1.0 0.1015148564
H  H36  1  0.55130000  0.41310000  0.99780000  1.0 0.1015148564
H  H37  1  0.56830000  0.40990000  0.62740000  1.0 0.1015148564
H  H38  1  0.59010000  0.43170000  0.12740000  1.0 0.1015148564
H  H39  1  0.60710000  0.55250000  0.62740000  1.0 0.1302746003
H  H40  1  0.44750000  0.39290000  0.12740000  1.0 0.1302746003
H  H41  1  0.54400000  0.65860000  0.66110000  1.0 0.1393808767
H  H42  1  0.34140000  0.45600000  0.16110000  1.0 0.1393808767
H  H43  1  0.48240000  0.67720000  0.71020000  1.0 0.1015148564
H  H44  1  0.32280000  0.51760000  0.21020000  1.0 0.1015148564
H  H45  1  0.57330000  0.91930000  0.64180000  1.0 0.0915597639
H  H46  1  0.08070000  0.42670000  0.14180000  1.0 0.0915597639
H  H47  1  0.63940000  0.90680000  0.59240000  1.0 0.1201815538
H  H48  1  0.09320000  0.36060000  0.09240000  1.0 0.1201815538
H  H49  1  0.27060000  0.00540000  0.68770000  1.0 0.1302746003
H  H50  1  0.99460000  0.72940000  0.18770000  1.0 0.1302746003
H  H51  1  0.15290000  0.96310000  0.63020000  1.0 0.1015148564
H  H52  1  0.03690000  0.84710000  0.13020000  1.0 0.1015148564
H  H53  1  0.99410000  0.68390000  0.66230000  1.0 0.0915597639
H  H54  1  0.31610000  0.00590000  0.16230000  1.0 0.0915597639
H  H55  1  0.11160000  0.71920000  0.71950000  1.0 0.1302746003
H  H56  1  0.28080000  0.88840000  0.21950000  1.0 0.1302746003
H  H57  1  0.20100000  0.66080000  0.80110000  1.0 0.1302746003
H  H58  1  0.33920000  0.79900000  0.30110000  1.0 0.1302746003
H  H59  1  0.18260000  0.54100000  0.84830000  1.0 0.0915597639
H  H60  1  0.45900000  0.81740000  0.34830000  1.0 0.0915597639
H  H61  1  0.41800000  0.73880000  0.92320000  1.0 0.1015148564
H  H62  1  0.26120000  0.58200000  0.42320000  1.0 0.1015148564
H  H63  1  0.44610000  0.86530000  0.87700000  1.0 0.1098375941
H  H64  1  0.13470000  0.55390000  0.37700000  1.0 0.1098375941
H  H65  1  0.60340000  0.10500000  0.82380000  1.0 0.1201815538
H  H66  1  0.89500000  0.39660000  0.32380000  1.0 0.1201815538
H  H67  1  0.74380000  0.27040000  0.82020000  1.0 0.1015148564
H  H68  1  0.72960000  0.25620000  0.32020000  1.0 0.1015148564
H  H69  1  0.60430000  0.33090000  0.74050000  1.0 0.0915597639
H  H70  1  0.66910000  0.39570000  0.24050000  1.0 0.0915597639
H  H71  1  0.46020000  0.16640000  0.74080000  1.0 0.1302746003
H  H72  1  0.83360000  0.53980000  0.24080000  1.0 0.1302746003
H  H73  1  0.01260000  0.79400000  0.98380000  1.0 0.1302746003
H  H74  1  0.20600000  0.98740000  0.48380000  1.0 0.1302746003
H  H75  1  0.14620000  0.91260000  0.02920000  1.0 0.0789345377
H  H76  1  0.08740000  0.85380000  0.52920000  1.0 0.0789345377
H  H77  1  0.00050000  0.96230000  0.06370000  1.0 0.1015148564
H  H78  1  0.03770000  0.99950000  0.56370000  1.0 0.1015148564
H  H79  1  0.86340000  0.84580000  0.01830000  1.0 0.1302746003
H  H80  1  0.15420000  0.13660000  0.51830000  1.0 0.1302746003
H  H81  1  0.59620000  0.62940000  0.00490000  1.0 0.1302746003
H  H82  1  0.37060000  0.40380000  0.50490000  1.0 0.1302746003
H  H83  1  0.44870000  0.58690000  0.00220000  1.0 0.1015148564
H  H84  1  0.41310000  0.55130000  0.50220000  1.0 0.1015148564
H  H85  1  0.40990000  0.56830000  0.87260000  1.0 0.1015148564
H  H86  1  0.43170000  0.59010000  0.37260000  1.0 0.1015148564
H  H87  1  0.55250000  0.60710000  0.87260000  1.0 0.1302746003
H  H88  1  0.39290000  0.44750000  0.37260000  1.0 0.1302746003
H  H89  1  0.65860000  0.54400000  0.83890000  1.0 0.1393808767
H  H90  1  0.45600000  0.34140000  0.33890000  1.0 0.1393808767
H  H91  1  0.67720000  0.48240000  0.78980000  1.0 0.1015148564
H  H92  1  0.51760000  0.32280000  0.28980000  1.0 0.1015148564
H  H93  1  0.91930000  0.57330000  0.85820000  1.0 0.0915597639
H  H94  1  0.42670000  0.08070000  0.35820000  1.0 0.0915597639
H  H95  1  0.90680000  0.63940000  0.90760000  1.0 0.1201815538
H  H96  1  0.36060000  0.09320000  0.40760000  1.0 0.1201815538
H  H97  1  0.91820000  0.48220000  0.40090000  1.0 0.1015148564
H  H98  1  0.08180000  0.51780000  0.59910000  1.0 0.1015148564
H  H99  1  0.79540000  0.47920000  0.38120000  1.0 0.1201815538
H  H100  1  0.20460000  0.52080000  0.61880000  1.0 0.1201815538
H  H101  1  0.63760000  0.33580000  0.39160000  1.0 0.1015148564
H  H102  1  0.36240000  0.66420000  0.60840000  1.0 0.1015148564
H  H103  1  0.59450000  0.18930000  0.41550000  1.0 0.0915597639
H  H104  1  0.40550000  0.81070000  0.58450000  1.0 0.0915597639
H  H105  1  0.57750000  0.10230000  0.46110000  1.0 0.1015148564
H  H106  1  0.42250000  0.89770000  0.53890000  1.0 0.1015148564
H  H107  1  0.55550000  0.03290000  0.42820000  1.0 0.1098375941
H  H108  1  0.44450000  0.96710000  0.57180000  1.0 0.1098375941
H  H109  1  0.59060000  0.02880000  0.47940000  1.0 0.1098375941
H  H110  1  0.40940000  0.97120000  0.52060000  1.0 0.1098375941
H  H111  1  0.67970000  0.04310000  0.41600000  1.0 0.1201815538
H  H112  1  0.32030000  0.95690000  0.58400000  1.0 0.1201815538
H  H113  1  0.68920000  0.11840000  0.37830000  1.0 0.0789345377
H  H114  1  0.31080000  0.88160000  0.62170000  1.0 0.0789345377
H  H115  1  0.78500000  0.15000000  0.40660000  1.0 0.0789345377
H  H116  1  0.21500000  0.85000000  0.59340000  1.0 0.0789345377
H  H117  1  0.60250000  0.96370000  0.50310000  1.0 0.1098375941
H  H118  1  0.39750000  0.03630000  0.49690000  1.0 0.1098375941
H  H119  1  0.54660000  0.95580000  0.56430000  1.0 0.1201815538
H  H120  1  0.45340000  0.04420000  0.43570000  1.0 0.1201815538
H  H121  1  0.61880000  0.09960000  0.59160000  1.0 0.1466771285
H  H122  1  0.38120000  0.90040000  0.40840000  1.0 0.1466771285
H  H123  1  0.69470000  0.23930000  0.54220000  1.0 0.1201815538
H  H124  1  0.30530000  0.76070000  0.45780000  1.0 0.1201815538
H  H125  1  0.80300000  0.34780000  0.52350000  1.0 0.1098375941
H  H126  1  0.19700000  0.65220000  0.47650000  1.0 0.1098375941
H  H127  1  0.85790000  0.42690000  0.48220000  1.0 0.1393808767
H  H128  1  0.14210000  0.57310000  0.51780000  1.0 0.1393808767
H  H129  1  0.74820000  0.37160000  0.48840000  1.0 0.1393808767
H  H130  1  0.25180000  0.62840000  0.51160000  1.0 0.1393808767
H  H131  1  0.68730000  0.25050000  0.39940000  1.0 0.0915597639
H  H132  1  0.31270000  0.74950000  0.60060000  1.0 0.0915597639
H  H133  1  0.62320000  0.23580000  0.43280000  1.0 0.1015148564
H  H134  1  0.37680000  0.76420000  0.56720000  1.0 0.1015148564
H  H135  1  0.71700000  0.34380000  0.41440000  1.0 0.0915597639
H  H136  1  0.28300000  0.65620000  0.58560000  1.0 0.0915597639
H  H137  1  0.48220000  0.91820000  0.09910000  1.0 0.1015148564
H  H138  1  0.51780000  0.08180000  0.90090000  1.0 0.1015148564
H  H139  1  0.47920000  0.79540000  0.11880000  1.0 0.1201815538
H  H140  1  0.52080000  0.20460000  0.88120000  1.0 0.1201815538
H  H141  1  0.33580000  0.63760000  0.10840000  1.0 0.1015148564
H  H142  1  0.66420000  0.36240000  0.89160000  1.0 0.1015148564
H  H143  1  0.18930000  0.59450000  0.08450000  1.0 0.0915597639
H  H144  1  0.81070000  0.40550000  0.91550000  1.0 0.0915597639
H  H145  1  0.10230000  0.57750000  0.03890000  1.0 0.1015148564
H  H146  1  0.89770000  0.42250000  0.96110000  1.0 0.1015148564
H  H147  1  0.03290000  0.55550000  0.07180000  1.0 0.1098375941
H  H148  1  0.96710000  0.44450000  0.92820000  1.0 0.1098375941
H  H149  1  0.02880000  0.59060000  0.02060000  1.0 0.1098375941
H  H150  1  0.97120000  0.40940000  0.97940000  1.0 0.1098375941
H  H151  1  0.04310000  0.67970000  0.08400000  1.0 0.1201815538
H  H152  1  0.95690000  0.32030000  0.91600000  1.0 0.1201815538
H  H153  1  0.11840000  0.68920000  0.12170000  1.0 0.0789345377
H  H154  1  0.88160000  0.31080000  0.87830000  1.0 0.0789345377
H  H155  1  0.15000000  0.78500000  0.09340000  1.0 0.0789345377
H  H156  1  0.85000000  0.21500000  0.90660000  1.0 0.0789345377
H  H157  1  0.96370000  0.60250000  0.99690000  1.0 0.1098375941
H  H158  1  0.03630000  0.39750000  0.00310000  1.0 0.1098375941
H  H159  1  0.95580000  0.54660000  0.93570000  1.0 0.1201815538
H  H160  1  0.04420000  0.45340000  0.06430000  1.0 0.1201815538
H  H161  1  0.09960000  0.61880000  0.90840000  1.0 0.1466771285
H  H162  1  0.90040000  0.38120000  0.09160000  1.0 0.1466771285
H  H163  1  0.23930000  0.69470000  0.95780000  1.0 0.1201815538
H  H164  1  0.76070000  0.30530000  0.04220000  1.0 0.1201815538
H  H165  1  0.34780000  0.80300000  0.97650000  1.0 0.1098375941
H  H166  1  0.65220000  0.19700000  0.02350000  1.0 0.1098375941
H  H167  1  0.42690000  0.85790000  0.01780000  1.0 0.1393808767
H  H168  1  0.57310000  0.14210000  0.98220000  1.0 0.1393808767
H  H169  1  0.37160000  0.74820000  0.01160000  1.0 0.1393808767
H  H170  1  0.62840000  0.25180000  0.98840000  1.0 0.1393808767
H  H171  1  0.25050000  0.68730000  0.10060000  1.0 0.0915597639
H  H172  1  0.74950000  0.31270000  0.89940000  1.0 0.0915597639
H  H173  1  0.23580000  0.62320000  0.06720000  1.0 0.1015148564
H  H174  1  0.76420000  0.37680000  0.93280000  1.0 0.1015148564
H  H175  1  0.34380000  0.71700000  0.08560000  1.0 0.0915597639
H  H176  1  0.65620000  0.28300000  0.91440000  1.0 0.0915597639
C  C1  1  0.89330000  0.27910000  0.75410000  1.0 0.3630589142
C  C2  1  0.72090000  0.10670000  0.25410000  1.0 0.3630589142
C  C3  1  0.86650000  0.20310000  0.79070000  1.0 0.0509182954
C  C4  1  0.79690000  0.13350000  0.29070000  1.0 0.0509182954
C  C5  1  0.93850000  0.21470000  0.81700000  1.0 -0.1499019109
C  C6  1  0.78530000  0.06150000  0.31700000  1.0 -0.1499019109
C  C7  1  0.91260000  0.14360000  0.85080000  1.0 0.0789345377
C  C8  1  0.85640000  0.08740000  0.35080000  1.0 0.0789345377
C  C9  1  0.75020000  0.05140000  0.83250000  1.0 0.069070728
C  C10  1  0.94860000  0.24980000  0.33250000  1.0 0.069070728
C  C11  1  0.77070000  0.12090000  0.79830000  1.0 -0.161754053
C  C12  1  0.87910000  0.22930000  0.29830000  1.0 -0.161754053
C  C13  1  0.85350000  0.33850000  0.69630000  1.0 0.3630589142
C  C14  1  0.66150000  0.14650000  0.19630000  1.0 0.3630589142
C  C15  1  0.77590000  0.32550000  0.66590000  1.0 0.0617444197
C  C16  1  0.67450000  0.22410000  0.16590000  1.0 0.0617444197
C  C17  1  0.67860000  0.24700000  0.67400000  1.0 -0.161754053
C  C18  1  0.75300000  0.32140000  0.17400000  1.0 -0.161754053
C  C19  1  0.60770000  0.23610000  0.64570000  1.0 0.0789345377
C  C20  1  0.76390000  0.39230000  0.14570000  1.0 0.0789345377
C  C21  1  0.72330000  0.37390000  0.60220000  1.0 0.0915597639
C  C22  1  0.62610000  0.27670000  0.10220000  1.0 0.0915597639
C  C23  1  0.79920000  0.39100000  0.62930000  1.0 -0.178231292
C  C24  1  0.60900000  0.20080000  0.12930000  1.0 -0.178231292
C  C25  1  0.01160000  0.42500000  0.71880000  1.0 0.3630589142
C  C26  1  0.57500000  0.98840000  0.21880000  1.0 0.3630589142
C  C27  1  0.11740000  0.51620000  0.71710000  1.0 0.0617444197
C  C28  1  0.48380000  0.88260000  0.21710000  1.0 0.0617444197
C  C29  1  0.15010000  0.60190000  0.69370000  1.0 -0.161754053
C  C30  1  0.39810000  0.84990000  0.19370000  1.0 -0.161754053
C  C31  1  0.24880000  0.68520000  0.69580000  1.0 0.0395176186
C  C32  1  0.31480000  0.75120000  0.19580000  1.0 0.0395176186
C  C33  1  0.28420000  0.60380000  0.74250000  1.0 0.0789345377
C  C34  1  0.39620000  0.71580000  0.24250000  1.0 0.0789345377
C  C35  1  0.18650000  0.51770000  0.74240000  1.0 -0.1499019109
C  C36  1  0.48230000  0.81350000  0.24240000  1.0 -0.1499019109
C  C37  1  0.73510000  0.83870000  0.53470000  1.0 0.3665615091
C  C38  1  0.16130000  0.26490000  0.03470000  1.0 0.3665615091
C  C39  1  0.80880000  0.92480000  0.50470000  1.0 0.0617444197
C  C40  1  0.07520000  0.19120000  0.00470000  1.0 0.0617444197
C  C41  1  0.82850000  0.00870000  0.50040000  1.0 -0.161754053
C  C42  1  0.99130000  0.17150000  0.00040000  1.0 -0.161754053
C  C43  1  0.89910000  0.08810000  0.47300000  1.0 0.069070728
C  C44  1  0.91190000  0.10090000  0.97300000  1.0 0.069070728
C  C45  1  0.92790000  0.00310000  0.45300000  1.0 0.069070728
C  C46  1  0.99690000  0.07210000  0.95300000  1.0 0.069070728
C  C47  1  0.85870000  0.92110000  0.48010000  1.0 -0.1407518634
C  C48  1  0.07890000  0.14130000  0.98010000  1.0 -0.1407518634
C  C49  1  0.64820000  0.68260000  0.56040000  1.0 0.3493461182
C  C50  1  0.31740000  0.35180000  0.06040000  1.0 0.3493461182
C  C51  1  0.62100000  0.58980000  0.56060000  1.0 0.0617444197
C  C52  1  0.41020000  0.37900000  0.06060000  1.0 0.0617444197
C  C53  1  0.61580000  0.55800000  0.52260000  1.0 -0.1499019109
C  C54  1  0.44200000  0.38420000  0.02260000  1.0 -0.1499019109
C  C55  1  0.59060000  0.47000000  0.52420000  1.0 0.0789345377
C  C56  1  0.53000000  0.40940000  0.02420000  1.0 0.0789345377
C  C57  1  0.57960000  0.44780000  0.60000000  1.0 0.0789345377
C  C58  1  0.55220000  0.42040000  0.10000000  1.0 0.0789345377
C  C59  1  0.60300000  0.53260000  0.60030000  1.0 -0.1499019109
C  C60  1  0.46740000  0.39700000  0.10030000  1.0 -0.1499019109
C  C61  1  0.64220000  0.77420000  0.59100000  1.0 0.3493461182
C  C62  1  0.22580000  0.35780000  0.09100000  1.0 0.3493461182
C  C63  1  0.60090000  0.78310000  0.62230000  1.0 0.0617444197
C  C64  1  0.21690000  0.39910000  0.12230000  1.0 0.0617444197
C  C65  1  0.55170000  0.71350000  0.65690000  1.0 -0.1499019109
C  C66  1  0.28650000  0.44830000  0.15690000  1.0 -0.1499019109
C  C67  1  0.51360000  0.72420000  0.68560000  1.0 0.069070728
C  C68  1  0.27580000  0.48640000  0.18560000  1.0 0.069070728
C  C69  1  0.56680000  0.86520000  0.64590000  1.0 0.0509182954
C  C70  1  0.13480000  0.43320000  0.14590000  1.0 0.0509182954
C  C71  1  0.60720000  0.85860000  0.61660000  1.0 -0.161754053
C  C72  1  0.14140000  0.39280000  0.11660000  1.0 -0.161754053
C  C73  1  0.27910000  0.89330000  0.74590000  1.0 0.3630589142
C  C74  1  0.10670000  0.72090000  0.24590000  1.0 0.3630589142
C  C75  1  0.20310000  0.86650000  0.70930000  1.0 0.0509182954
C  C76  1  0.13350000  0.79690000  0.20930000  1.0 0.0509182954
C  C77  1  0.21470000  0.93850000  0.68300000  1.0 -0.1499019109
C  C78  1  0.06150000  0.78530000  0.18300000  1.0 -0.1499019109
C  C79  1  0.14360000  0.91260000  0.64920000  1.0 0.0789345377
C  C80  1  0.08740000  0.85640000  0.14920000  1.0 0.0789345377
C  C81  1  0.05140000  0.75020000  0.66750000  1.0 0.069070728
C  C82  1  0.24980000  0.94860000  0.16750000  1.0 0.069070728
C  C83  1  0.12090000  0.77070000  0.70170000  1.0 -0.161754053
C  C84  1  0.22930000  0.87910000  0.20170000  1.0 -0.161754053
C  C85  1  0.33850000  0.85350000  0.80370000  1.0 0.3630589142
C  C86  1  0.14650000  0.66150000  0.30370000  1.0 0.3630589142
C  C87  1  0.32550000  0.77590000  0.83410000  1.0 0.0617444197
C  C88  1  0.22410000  0.67450000  0.33410000  1.0 0.0617444197
C  C89  1  0.24700000  0.67860000  0.82600000  1.0 -0.161754053
C  C90  1  0.32140000  0.75300000  0.32600000  1.0 -0.161754053
C  C91  1  0.23610000  0.60770000  0.85430000  1.0 0.0789345377
C  C92  1  0.39230000  0.76390000  0.35430000  1.0 0.0789345377
C  C93  1  0.37390000  0.72330000  0.89780000  1.0 0.0915597639
C  C94  1  0.27670000  0.62610000  0.39780000  1.0 0.0915597639
C  C95  1  0.39100000  0.79920000  0.87070000  1.0 -0.178231292
C  C96  1  0.20080000  0.60900000  0.37070000  1.0 -0.178231292
C  C97  1  0.42500000  0.01160000  0.78120000  1.0 0.3630589142
C  C98  1  0.98840000  0.57500000  0.28120000  1.0 0.3630589142
C  C99  1  0.51620000  0.11740000  0.78290000  1.0 0.0617444197
C  C100  1  0.88260000  0.48380000  0.28290000  1.0 0.0617444197
C  C101  1  0.60190000  0.15010000  0.80630000  1.0 -0.161754053
C  C102  1  0.84990000  0.39810000  0.30630000  1.0 -0.161754053
C  C103  1  0.68520000  0.24880000  0.80420000  1.0 0.0395176186
C  C104  1  0.75120000  0.31480000  0.30420000  1.0 0.0395176186
C  C105  1  0.60380000  0.28420000  0.75750000  1.0 0.0789345377
C  C106  1  0.71580000  0.39620000  0.25750000  1.0 0.0789345377
C  C107  1  0.51770000  0.18650000  0.75760000  1.0 -0.1499019109
C  C108  1  0.81350000  0.48230000  0.25760000  1.0 -0.1499019109
C  C109  1  0.83870000  0.73510000  0.96530000  1.0 0.3665615091
C  C110  1  0.26490000  0.16130000  0.46530000  1.0 0.3665615091
C  C111  1  0.92480000  0.80880000  0.99530000  1.0 0.0617444197
C  C112  1  0.19120000  0.07520000  0.49530000  1.0 0.0617444197
C  C113  1  0.00870000  0.82850000  0.99960000  1.0 -0.161754053
C  C114  1  0.17150000  0.99130000  0.49960000  1.0 -0.161754053
C  C115  1  0.08810000  0.89910000  0.02700000  1.0 0.069070728
C  C116  1  0.10090000  0.91190000  0.52700000  1.0 0.069070728
C  C117  1  0.00310000  0.92790000  0.04700000  1.0 0.069070728
C  C118  1  0.07210000  0.99690000  0.54700000  1.0 0.069070728
C  C119  1  0.92110000  0.85870000  0.01990000  1.0 -0.1407518634
C  C120  1  0.14130000  0.07890000  0.51990000  1.0 -0.1407518634
C  C121  1  0.68260000  0.64820000  0.93960000  1.0 0.3493461182
C  C122  1  0.35180000  0.31740000  0.43960000  1.0 0.3493461182
C  C123  1  0.58980000  0.62100000  0.93940000  1.0 0.0617444197
C  C124  1  0.37900000  0.41020000  0.43940000  1.0 0.0617444197
C  C125  1  0.55800000  0.61580000  0.97740000  1.0 -0.1499019109
C  C126  1  0.38420000  0.44200000  0.47740000  1.0 -0.1499019109
C  C127  1  0.47000000  0.59060000  0.97580000  1.0 0.0789345377
C  C128  1  0.40940000  0.53000000  0.47580000  1.0 0.0789345377
C  C129  1  0.44780000  0.57960000  0.90000000  1.0 0.0789345377
C  C130  1  0.42040000  0.55220000  0.40000000  1.0 0.0789345377
C  C131  1  0.53260000  0.60300000  0.89970000  1.0 -0.1499019109
C  C132  1  0.39700000  0.46740000  0.39970000  1.0 -0.1499019109
C  C133  1  0.77420000  0.64220000  0.90900000  1.0 0.3493461182
C  C134  1  0.35780000  0.22580000  0.40900000  1.0 0.3493461182
C  C135  1  0.78310000  0.60090000  0.87770000  1.0 0.0617444197
C  C136  1  0.39910000  0.21690000  0.37770000  1.0 0.0617444197
C  C137  1  0.71350000  0.55170000  0.84310000  1.0 -0.1499019109
C  C138  1  0.44830000  0.28650000  0.34310000  1.0 -0.1499019109
C  C139  1  0.72420000  0.51360000  0.81440000  1.0 0.069070728
C  C140  1  0.48640000  0.27580000  0.31440000  1.0 0.069070728
C  C141  1  0.86520000  0.56680000  0.85410000  1.0 0.0509182954
C  C142  1  0.43320000  0.13480000  0.35410000  1.0 0.0509182954
C  C143  1  0.85860000  0.60720000  0.88340000  1.0 -0.161754053
C  C144  1  0.39280000  0.14140000  0.38340000  1.0 -0.161754053
C  C145  1  0.70470000  0.15150000  0.44230000  1.0 0.0789345377
C  C146  1  0.29530000  0.84850000  0.55770000  1.0 0.0789345377
C  C147  1  0.73460000  0.24600000  0.42550000  1.0 0.0028738863
C  C148  1  0.26540000  0.75400000  0.57450000  1.0 0.0028738863
C  C149  1  0.83060000  0.33580000  0.41910000  1.0 0.0197103736
C  C150  1  0.16940000  0.66420000  0.58090000  1.0 0.0197103736
C  C151  1  0.85200000  0.42200000  0.40360000  1.0 -0.2892209296
C  C152  1  0.14800000  0.57800000  0.59640000  1.0 -0.2892209296
C  C153  1  0.78050000  0.42110000  0.39260000  1.0 -0.1220697263
C  C154  1  0.21950000  0.57890000  0.60740000  1.0 -0.1220697263
C  C155  1  0.68780000  0.33600000  0.39830000  1.0 -0.0908248057
C  C156  1  0.31220000  0.66400000  0.60170000  1.0 -0.0908248057
C  C157  1  0.66150000  0.24810000  0.41330000  1.0 -0.1035914352
C  C158  1  0.33850000  0.75190000  0.58670000  1.0 -0.1035914352
C  C159  1  0.59730000  0.07170000  0.45380000  1.0 -0.2575044637
C  C160  1  0.40270000  0.92830000  0.54620000  1.0 -0.2575044637
C  C161  1  0.71570000  0.11210000  0.40760000  1.0 -0.2103983467
C  C162  1  0.28430000  0.88790000  0.59240000  1.0 -0.2103983467
C  C163  1  0.73570000  0.13590000  0.56710000  1.0 0.3493461182
C  C164  1  0.26430000  0.86410000  0.43290000  1.0 0.3493461182
C  C165  1  0.75450000  0.28250000  0.46380000  1.0 0.0915597639
C  C166  1  0.24550000  0.71750000  0.53620000  1.0 0.0915597639
C  C167  1  0.69910000  0.18770000  0.49150000  1.0 0.0028738863
C  C168  1  0.30090000  0.81230000  0.50850000  1.0 0.0028738863
C  C169  1  0.67050000  0.10350000  0.48020000  1.0 0.0617444197
C  C170  1  0.32950000  0.89650000  0.51980000  1.0 0.0617444197
C  C171  1  0.61850000  0.01950000  0.50990000  1.0 -0.2498699655
C  C172  1  0.38150000  0.98050000  0.49010000  1.0 -0.2498699655
C  C173  1  0.59140000  0.01660000  0.54760000  1.0 -0.0758558788
C  C174  1  0.40860000  0.98340000  0.45240000  1.0 -0.0758558788
C  C175  1  0.62700000  0.09900000  0.56220000  1.0 0.0395176186
C  C176  1  0.37300000  0.90100000  0.43780000  1.0 0.0395176186
C  C177  1  0.67640000  0.18360000  0.53350000  1.0 -0.2498699655
C  C178  1  0.32360000  0.81640000  0.46650000  1.0 -0.2498699655
C  C179  1  0.79460000  0.36480000  0.49210000  1.0 -0.5761001413
C  C180  1  0.20540000  0.63520000  0.50790000  1.0 -0.5761001413
C  C181  1  0.69000000  0.27800000  0.42390000  1.0 -0.1035914352
C  C182  1  0.31000000  0.72200000  0.57610000  1.0 -0.1035914352
C  C183  1  0.01950000  0.45050000  0.48150000  1.0 0.2483842487
C  C184  1  0.98050000  0.54950000  0.51850000  1.0 0.2483842487
C  C185  1  0.15150000  0.70470000  0.05770000  1.0 0.0789345377
C  C186  1  0.84850000  0.29530000  0.94230000  1.0 0.0789345377
C  C187  1  0.24600000  0.73460000  0.07450000  1.0 0.0028738863
C  C188  1  0.75400000  0.26540000  0.92550000  1.0 0.0028738863
C  C189  1  0.33580000  0.83060000  0.08090000  1.0 0.0197103736
C  C190  1  0.66420000  0.16940000  0.91910000  1.0 0.0197103736
C  C191  1  0.42200000  0.85200000  0.09640000  1.0 -0.2892209296
C  C192  1  0.57800000  0.14800000  0.90360000  1.0 -0.2892209296
C  C193  1  0.42110000  0.78050000  0.10740000  1.0 -0.1220697263
C  C194  1  0.57890000  0.21950000  0.89260000  1.0 -0.1220697263
C  C195  1  0.33600000  0.68780000  0.10170000  1.0 -0.0908248057
C  C196  1  0.66400000  0.31220000  0.89830000  1.0 -0.0908248057
C  C197  1  0.24810000  0.66150000  0.08670000  1.0 -0.1035914352
C  C198  1  0.75190000  0.33850000  0.91330000  1.0 -0.1035914352
C  C199  1  0.07170000  0.59730000  0.04620000  1.0 -0.2575044637
C  C200  1  0.92830000  0.40270000  0.95380000  1.0 -0.2575044637
C  C201  1  0.11210000  0.71570000  0.09240000  1.0 -0.2103983467
C  C202  1  0.88790000  0.28430000  0.90760000  1.0 -0.2103983467
C  C203  1  0.13590000  0.73570000  0.93290000  1.0 0.3493461182
C  C204  1  0.86410000  0.26430000  0.06710000  1.0 0.3493461182
C  C205  1  0.28250000  0.75450000  0.03620000  1.0 0.0915597639
C  C206  1  0.71750000  0.24550000  0.96380000  1.0 0.0915597639
C  C207  1  0.18770000  0.69910000  0.00850000  1.0 0.0028738863
C  C208  1  0.81230000  0.30090000  0.99150000  1.0 0.0028738863
C  C209  1  0.10350000  0.67050000  0.01980000  1.0 0.0617444197
C  C210  1  0.89650000  0.32950000  0.98020000  1.0 0.0617444197
C  C211  1  0.01950000  0.61850000  0.99010000  1.0 -0.2498699655
C  C212  1  0.98050000  0.38150000  0.00990000  1.0 -0.2498699655
C  C213  1  0.01660000  0.59140000  0.95240000  1.0 -0.0758558788
C  C214  1  0.98340000  0.40860000  0.04760000  1.0 -0.0758558788
C  C215  1  0.09900000  0.62700000  0.93780000  1.0 0.0395176186
C  C216  1  0.90100000  0.37300000  0.06220000  1.0 0.0395176186
C  C217  1  0.18360000  0.67640000  0.96650000  1.0 -0.2498699655
C  C218  1  0.81640000  0.32360000  0.03350000  1.0 -0.2498699655
C  C219  1  0.36480000  0.79460000  0.00790000  1.0 -0.5761001413
C  C220  1  0.63520000  0.20540000  0.99210000  1.0 -0.5761001413
C  C221  1  0.27800000  0.69000000  0.07610000  1.0 -0.1035914352
C  C222  1  0.72200000  0.31000000  0.92390000  1.0 -0.1035914352
C  C223  1  0.45050000  0.01950000  0.01850000  1.0 0.2483842487
C  C224  1  0.54950000  0.98050000  0.98150000  1.0 0.2483842487
S  S1  1  0.78555000  0.22605000  0.52090000  1.0 0.2135919327
S  S2  1  0.21445000  0.77395000  0.47910000  1.0 0.2135919327
S  S3  1  0.91760000  0.32120000  0.48390000  1.0 0.0115664936
S  S4  1  0.08240000  0.67880000  0.51610000  1.0 0.0115664936
S  S5  1  0.22605000  0.78555000  0.97910000  1.0 0.2135919327
S  S6  1  0.77395000  0.21445000  0.02090000  1.0 0.2135919327
S  S7  1  0.32120000  0.91760000  0.01610000  1.0 0.0115664936
S  S8  1  0.67880000  0.08240000  0.98390000  1.0 0.0115664936
I  I1  1  0.53250000  0.25112000  0.49282000  1.0 -0.4589451184
I  I2  1  0.74888000  0.46750000  0.99282000  1.0 -0.4589451184
I  I3  1  0.36715000  0.16689000  0.60689000  1.0 -0.4589451184
I  I4  1  0.83311000  0.63285000  0.10689000  1.0 -0.4589451184
I  I5  1  0.49386000  0.96234000  0.69928000  1.0 -0.481167682
I  I6  1  0.03766000  0.50614000  0.19928000  1.0 -0.481167682
I  I7  1  0.52803000  0.78933000  0.80205000  1.0 -0.4093654161
I  I8  1  0.21067000  0.47197000  0.30205000  1.0 -0.4093654161
I  I9  1  0.13845000  0.35581000  0.44409000  1.0 -0.3982510989
I  I10  1  0.64419000  0.86155000  0.94409000  1.0 -0.3982510989
I  I11  1  0.12006000  0.16780000  0.36820000  1.0 -0.4093654161
I  I12  1  0.83220000  0.87994000  0.86820000  1.0 -0.4093654161
I  I13  1  0.25112000  0.53250000  0.00718000  1.0 -0.4589451184
I  I14  1  0.46750000  0.74888000  0.50718000  1.0 -0.4589451184
I  I15  1  0.16689000  0.36715000  0.89311000  1.0 -0.4589451184
I  I16  1  0.63285000  0.83311000  0.39311000  1.0 -0.4589451184
I  I17  1  0.96234000  0.49386000  0.80072000  1.0 -0.481167682
I  I18  1  0.50614000  0.03766000  0.30072000  1.0 -0.481167682
I  I19  1  0.78933000  0.52803000  0.69795000  1.0 -0.4093654161
I  I20  1  0.47197000  0.21067000  0.19795000  1.0 -0.4093654161
I  I21  1  0.35581000  0.13845000  0.05591000  1.0 -0.3982510989
I  I22  1  0.86155000  0.64419000  0.55591000  1.0 -0.3982510989
I  I23  1  0.16780000  0.12006000  0.13180000  1.0 -0.4093654161
I  I24  1  0.87994000  0.83220000  0.63180000  1.0 -0.4093654161
I  I25  1  0.95249000  0.34895000  0.43065000  1.0 0.2567711865
I  I26  1  0.04751000  0.65105000  0.56935000  1.0 0.2567711865
I  I27  1  0.70773000  0.10207000  0.41936000  1.0 0.0325553809
I  I28  1  0.29227000  0.89793000  0.58064000  1.0 0.0395176186
I  I29  1  0.34895000  0.95249000  0.06935000  1.0 0.2483842487
I  I30  1  0.65105000  0.04751000  0.93065000  1.0 0.2567711865
I  I31  1  0.10207000  0.70773000  0.08064000  1.0 0.0395176186
I  I32  1  0.89793000  0.29227000  0.91936000  1.0 0.0325553809
N  N1  1  0.98916000  0.35564000  0.75080000  1.0 -0.3982510989
N  N2  1  0.64436000  0.01084000  0.25080000  1.0 -0.3982510989
N  N3  1  0.82237000  0.26723000  0.72870000  1.0 -0.3982510989
N  N4  1  0.73277000  0.17763000  0.22870000  1.0 -0.3982510989
N  N5  1  0.94732000  0.42008000  0.69010000  1.0 -0.4093654161
N  N6  1  0.57992000  0.05268000  0.19010000  1.0 -0.4093654161
N  N7  1  0.82076000  0.06324000  0.85810000  1.0 -0.1922946801
N  N8  1  0.93676000  0.17924000  0.35810000  1.0 -0.1922946801
N  N9  1  0.62951000  0.29869000  0.61007000  1.0 -0.1982686413
N  N10  1  0.70131000  0.37049000  0.11007000  1.0 -0.1982686413
N  N11  1  0.31579000  0.68681000  0.71960000  1.0 -0.1922946801
N  N12  1  0.31319000  0.68421000  0.21960000  1.0 -0.1922946801
N  N13  1  0.70538000  0.85302000  0.56380000  1.0 -0.381358624
N  N14  1  0.14698000  0.29462000  0.06380000  1.0 -0.381358624
N  N15  1  0.70613000  0.75387000  0.52982000  1.0 -0.3982510989
N  N16  1  0.24613000  0.29387000  0.02982000  1.0 -0.3982510989
N  N17  1  0.61329000  0.68751000  0.59170000  1.0 -0.3982510989
N  N18  1  0.31249000  0.38671000  0.09170000  1.0 -0.3982510989
N  N19  1  0.94824000  0.08636000  0.44970000  1.0 -0.1982686413
N  N20  1  0.91364000  0.05176000  0.94970000  1.0 -0.1982686413
N  N21  1  0.57166000  0.41494000  0.56290000  1.0 -0.1982686413
N  N22  1  0.58506000  0.42834000  0.06290000  1.0 -0.1982686413
N  N23  1  0.51880000  0.79780000  0.68010000  1.0 -0.1982686413
N  N24  1  0.20220000  0.48120000  0.18010000  1.0 -0.1982686413
N  N25  1  0.35564000  0.98916000  0.74920000  1.0 -0.3982510989
N  N26  1  0.01084000  0.64436000  0.24920000  1.0 -0.3982510989
N  N27  1  0.26723000  0.82237000  0.77130000  1.0 -0.3982510989
N  N28  1  0.17763000  0.73277000  0.27130000  1.0 -0.3982510989
N  N29  1  0.42008000  0.94732000  0.80990000  1.0 -0.4093654161
N  N30  1  0.05268000  0.57992000  0.30990000  1.0 -0.4093654161
N  N31  1  0.06324000  0.82076000  0.64190000  1.0 -0.1922946801
N  N32  1  0.17924000  0.93676000  0.14190000  1.0 -0.1922946801
N  N33  1  0.29869000  0.62951000  0.88993000  1.0 -0.1982686413
N  N34  1  0.37049000  0.70131000  0.38993000  1.0 -0.1982686413
N  N35  1  0.68681000  0.31579000  0.78040000  1.0 -0.1922946801
N  N36  1  0.68421000  0.31319000  0.28040000  1.0 -0.1922946801
N  N37  1  0.85302000  0.70538000  0.93620000  1.0 -0.381358624
N  N38  1  0.29462000  0.14698000  0.43620000  1.0 -0.381358624
N  N39  1  0.75387000  0.70613000  0.97018000  1.0 -0.3982510989
N  N40  1  0.29387000  0.24613000  0.47018000  1.0 -0.3982510989
N  N41  1  0.68751000  0.61329000  0.90830000  1.0 -0.3982510989
N  N42  1  0.38671000  0.31249000  0.40830000  1.0 -0.3982510989
N  N43  1  0.08636000  0.94824000  0.05030000  1.0 -0.1982686413
N  N44  1  0.05176000  0.91364000  0.55030000  1.0 -0.1982686413
N  N45  1  0.41494000  0.57166000  0.93710000  1.0 -0.1982686413
N  N46  1  0.42834000  0.58506000  0.43710000  1.0 -0.1982686413
N  N47  1  0.79780000  0.51880000  0.81990000  1.0 -0.1982686413
N  N48  1  0.48120000  0.20220000  0.31990000  1.0 -0.1982686413
O  O1  1  0.76570000  0.16330000  0.48180000  1.0 -0.1499019109
O  O2  1  0.23430000  0.83670000  0.51820000  1.0 -0.1499019109
O  O3  1  0.83840000  0.31480000  0.44630000  1.0 -0.0758558788
O  O4  1  0.16160000  0.68520000  0.55370000  1.0 -0.0758558788
O  O5  1  0.16330000  0.76570000  0.01820000  1.0 -0.1499019109
O  O6  1  0.83670000  0.23430000  0.98180000  1.0 -0.1499019109
O  O7  1  0.31480000  0.83840000  0.05370000  1.0 -0.0758558788
O  O8  1  0.68520000  0.16160000  0.94630000  1.0 -0.0758558788
F  F1  1  0.77300000  0.10000000  0.57660000  1.0 -0.161754053
F  F2  1  0.22700000  0.90000000  0.42340000  1.0 -0.161754053
F  F3  1  0.64590000  0.06190000  0.56130000  1.0 0.0325553809
F  F4  1  0.35410000  0.93810000  0.43870000  1.0 0.0325553809
F  F5  1  0.74810000  0.17150000  0.60090000  1.0 -0.1334524085
F  F6  1  0.25190000  0.82850000  0.39910000  1.0 -0.1334524085
F  F7  1  0.01300000  0.49700000  0.50080000  1.0 0.0789345377
F  F8  1  0.98700000  0.50300000  0.49920000  1.0 0.0789345377
F  F9  1  0.09860000  0.47500000  0.49630000  1.0 -0.1407518634
F  F10  1  0.90140000  0.52500000  0.50370000  1.0 -0.1407518634
F  F11  1  0.03540000  0.49060000  0.44260000  1.0 -0.0758558788
F  F12  1  0.96460000  0.50940000  0.55740000  1.0 -0.0758558788
F  F13  1  0.10000000  0.77300000  0.92340000  1.0 -0.161754053
F  F14  1  0.90000000  0.22700000  0.07660000  1.0 -0.161754053
F  F15  1  0.06190000  0.64590000  0.93870000  1.0 0.0325553809
F  F16  1  0.93810000  0.35410000  0.06130000  1.0 0.0325553809
F  F17  1  0.17150000  0.74810000  0.89910000  1.0 -0.1334524085
F  F18  1  0.82850000  0.25190000  0.10090000  1.0 -0.1334524085
F  F19  1  0.49700000  0.01300000  0.99920000  1.0 0.0789345377
F  F20  1  0.50300000  0.98700000  0.00080000  1.0 0.0789345377
F  F21  1  0.47500000  0.09860000  0.00370000  1.0 -0.1407518634
F  F22  1  0.52500000  0.90140000  0.99630000  1.0 -0.1407518634
F  F23  1  0.49060000  0.03540000  0.05740000  1.0 -0.0749169221
F  F24  1  0.50940000  0.96460000  0.94260000  1.0 -0.0758558788
