# DDEC6 charges by PACMAN v1.1 (https://github.com/mtap-research/PACMAN-charge/)
data_VOBGEA_ASR_pacman
_symmetry_space_group_name_H-M   'P 1'
_cell_length_a   18.09080000
_cell_length_b   18.09080000
_cell_length_c   24.75300000
_cell_angle_alpha   90.00000000
_cell_angle_beta   90.00000000
_cell_angle_gamma   120.00000000
_symmetry_Int_Tables_number   1
_chemical_formula_structural   Tb2Zn19H54C54N72(Cl2O9)4
_chemical_formula_sum   'Tb4 Zn38 H108 C108 N144 Cl16 O72'
_cell_volume   7015.74860036
_cell_formula_units_Z   2
loop_
 _symmetry_equiv_pos_site_id
 _symmetry_equiv_pos_as_xyz
  1  'x, y, z'
loop_
 _atom_site_type_symbol
 _atom_site_label
 _atom_site_symmetry_multiplicity
 _atom_site_fract_x
 _atom_site_fract_y
 _atom_site_fract_z
 _atom_site_occupancy
 _atom_site_charge
Tb  Tb1  1  0.00000000  0.00000000  0.12452000  1.0 1.9123309832
Tb  Tb2  1  0.00000000  0.00000000  0.62452000  1.0 1.9123309832
Tb  Tb3  1  0.00000000  0.00000000  0.87548000  1.0 1.9123309832
Tb  Tb4  1  0.00000000  0.00000000  0.37548000  1.0 1.9123309832
Zn  Zn1  1  0.00000000  0.21069000  0.14329000  1.0 0.8630634379
Zn  Zn2  1  0.78931000  0.00000000  0.64329000  1.0 0.8630634379
Zn  Zn3  1  0.78931000  0.78931000  0.14329000  1.0 0.8630634379
Zn  Zn4  1  0.00000000  0.78931000  0.64329000  1.0 0.8630634379
Zn  Zn5  1  0.21069000  0.00000000  0.14329000  1.0 0.8630634379
Zn  Zn6  1  0.21069000  0.21069000  0.64329000  1.0 0.8630634379
Zn  Zn7  1  0.78931000  0.00000000  0.85671000  1.0 0.8630634379
Zn  Zn8  1  0.78931000  0.78931000  0.35671000  1.0 0.8630634379
Zn  Zn9  1  0.00000000  0.78931000  0.85671000  1.0 0.8630634379
Zn  Zn10  1  0.21069000  0.00000000  0.35671000  1.0 0.8630634379
Zn  Zn11  1  0.21069000  0.21069000  0.85671000  1.0 0.8630634379
Zn  Zn12  1  0.00000000  0.21069000  0.35671000  1.0 0.8630634379
Zn  Zn13  1  0.00000000  0.33285000  0.91356000  1.0 0.6917030495
Zn  Zn14  1  0.66715000  0.00000000  0.41356000  1.0 0.6917030495
Zn  Zn15  1  0.66715000  0.66715000  0.91356000  1.0 0.6917030495
Zn  Zn16  1  0.00000000  0.66715000  0.41356000  1.0 0.6917030495
Zn  Zn17  1  0.33285000  0.00000000  0.91356000  1.0 0.6917030495
Zn  Zn18  1  0.33285000  0.33285000  0.41356000  1.0 0.6917030495
Zn  Zn19  1  0.66715000  0.00000000  0.08644000  1.0 0.6917030495
Zn  Zn20  1  0.66715000  0.66715000  0.58644000  1.0 0.6917030495
Zn  Zn21  1  0.00000000  0.66715000  0.08644000  1.0 0.6917030495
Zn  Zn22  1  0.33285000  0.00000000  0.58644000  1.0 0.6917030495
Zn  Zn23  1  0.33285000  0.33285000  0.08644000  1.0 0.6917030495
Zn  Zn24  1  0.00000000  0.33285000  0.58644000  1.0 0.6917030495
Zn  Zn25  1  0.00000000  0.50000000  0.00000000  1.0 0.5565511963
Zn  Zn26  1  0.50000000  0.00000000  0.50000000  1.0 0.5565511963
Zn  Zn27  1  0.50000000  0.50000000  0.00000000  1.0 0.5565511963
Zn  Zn28  1  0.00000000  0.50000000  0.50000000  1.0 0.5565511963
Zn  Zn29  1  0.50000000  0.00000000  0.00000000  1.0 0.5565511963
Zn  Zn30  1  0.50000000  0.50000000  0.50000000  1.0 0.5565511963
Zn  Zn31  1  0.33333333  0.66666667  0.87266000  1.0 0.6479815674
Zn  Zn32  1  0.66666667  0.33333333  0.37266000  1.0 0.6479815674
Zn  Zn33  1  0.33333333  0.66666667  0.12734000  1.0 0.6479815674
Zn  Zn34  1  0.66666667  0.33333333  0.62734000  1.0 0.6479815674
Zn  Zn35  1  0.66666667  0.33333333  0.12734000  1.0 0.6479815674
Zn  Zn36  1  0.33333333  0.66666667  0.62734000  1.0 0.6479815674
Zn  Zn37  1  0.66666667  0.33333333  0.87266000  1.0 0.6479815674
Zn  Zn38  1  0.33333333  0.66666667  0.37266000  1.0 0.6479815674
H  H1  1  0.00000000  0.21410000  0.01810000  1.0 0.1195257214
H  H2  1  0.78590000  0.00000000  0.51810000  1.0 0.1195257214
H  H3  1  0.78590000  0.78590000  0.01810000  1.0 0.1195257214
H  H4  1  0.00000000  0.78590000  0.51810000  1.0 0.1195257214
H  H5  1  0.21410000  0.00000000  0.01810000  1.0 0.1195257214
H  H6  1  0.21410000  0.21410000  0.51810000  1.0 0.1195257214
H  H7  1  0.78590000  0.00000000  0.98190000  1.0 0.1195257214
H  H8  1  0.78590000  0.78590000  0.48190000  1.0 0.1195257214
H  H9  1  0.00000000  0.78590000  0.98190000  1.0 0.1195257214
H  H10  1  0.21410000  0.00000000  0.48190000  1.0 0.1195257214
H  H11  1  0.21410000  0.21410000  0.98190000  1.0 0.1195257214
H  H12  1  0.00000000  0.21410000  0.48190000  1.0 0.1195257214
H  H13  1  0.18090000  0.64170000  0.94760000  1.0 0.1076467093
H  H14  1  0.53920000  0.18090000  0.44760000  1.0 0.1076467093
H  H15  1  0.35830000  0.53920000  0.94760000  1.0 0.1076467093
H  H16  1  0.81910000  0.35830000  0.44760000  1.0 0.1076467093
H  H17  1  0.46080000  0.81910000  0.94760000  1.0 0.1076467093
H  H18  1  0.64170000  0.46080000  0.44760000  1.0 0.1076467093
H  H19  1  0.35830000  0.81910000  0.05240000  1.0 0.1076467093
H  H20  1  0.53920000  0.35830000  0.55240000  1.0 0.1076467093
H  H21  1  0.18090000  0.53920000  0.05240000  1.0 0.1076467093
H  H22  1  0.64170000  0.18090000  0.55240000  1.0 0.1076467093
H  H23  1  0.46080000  0.64170000  0.05240000  1.0 0.1076467093
H  H24  1  0.81910000  0.46080000  0.55240000  1.0 0.1076467093
H  H25  1  0.81910000  0.35830000  0.05240000  1.0 0.1076467093
H  H26  1  0.46080000  0.81910000  0.55240000  1.0 0.1076467093
H  H27  1  0.64170000  0.46080000  0.05240000  1.0 0.1076467093
H  H28  1  0.18090000  0.64170000  0.55240000  1.0 0.1076467093
H  H29  1  0.53920000  0.18090000  0.05240000  1.0 0.1076467093
H  H30  1  0.35830000  0.53920000  0.55240000  1.0 0.1076467093
H  H31  1  0.64170000  0.18090000  0.94760000  1.0 0.1076467093
H  H32  1  0.46080000  0.64170000  0.44760000  1.0 0.1076467093
H  H33  1  0.81910000  0.46080000  0.94760000  1.0 0.1076467093
H  H34  1  0.35830000  0.81910000  0.44760000  1.0 0.1076467093
H  H35  1  0.53920000  0.35830000  0.94760000  1.0 0.1076467093
H  H36  1  0.18090000  0.53920000  0.44760000  1.0 0.1076467093
H  H37  1  0.00000000  0.44660000  0.12680000  1.0 0.3029348608
H  H38  1  0.55340000  0.00000000  0.62680000  1.0 0.3029348608
H  H39  1  0.55340000  0.55340000  0.12680000  1.0 0.3029348608
H  H40  1  0.00000000  0.55340000  0.62680000  1.0 0.3029348608
H  H41  1  0.44660000  0.00000000  0.12680000  1.0 0.3029348608
H  H42  1  0.44660000  0.44660000  0.62680000  1.0 0.3029348608
H  H43  1  0.55340000  0.00000000  0.87320000  1.0 0.3029348608
H  H44  1  0.55340000  0.55340000  0.37320000  1.0 0.3029348608
H  H45  1  0.00000000  0.55340000  0.87320000  1.0 0.3029348608
H  H46  1  0.44660000  0.00000000  0.37320000  1.0 0.3029348608
H  H47  1  0.44660000  0.44660000  0.87320000  1.0 0.3029348608
H  H48  1  0.00000000  0.44660000  0.37320000  1.0 0.3029348608
H  H49  1  0.00000000  0.37710000  0.15940000  1.0 0.3029348608
H  H50  1  0.62290000  0.00000000  0.65940000  1.0 0.3029348608
H  H51  1  0.62290000  0.62290000  0.15940000  1.0 0.3029348608
H  H52  1  0.00000000  0.62290000  0.65940000  1.0 0.3029348608
H  H53  1  0.37710000  0.00000000  0.15940000  1.0 0.3029348608
H  H54  1  0.37710000  0.37710000  0.65940000  1.0 0.3029348608
H  H55  1  0.62290000  0.00000000  0.84060000  1.0 0.3029348608
H  H56  1  0.62290000  0.62290000  0.34060000  1.0 0.3029348608
H  H57  1  0.00000000  0.62290000  0.84060000  1.0 0.3029348608
H  H58  1  0.37710000  0.00000000  0.34060000  1.0 0.3029348608
H  H59  1  0.37710000  0.37710000  0.84060000  1.0 0.3029348608
H  H60  1  0.00000000  0.37710000  0.34060000  1.0 0.3029348608
H  H61  1  0.17550000  0.40090000  0.84940000  1.0 0.3283728119
H  H62  1  0.77460000  0.17550000  0.34940000  1.0 0.3283728119
H  H63  1  0.59910000  0.77460000  0.84940000  1.0 0.3283728119
H  H64  1  0.82450000  0.59910000  0.34940000  1.0 0.3283728119
H  H65  1  0.22540000  0.82450000  0.84940000  1.0 0.3283728119
H  H66  1  0.40090000  0.22540000  0.34940000  1.0 0.3283728119
H  H67  1  0.59910000  0.82450000  0.15060000  1.0 0.3283728119
H  H68  1  0.77460000  0.59910000  0.65060000  1.0 0.3283728119
H  H69  1  0.17550000  0.77460000  0.15060000  1.0 0.3283728119
H  H70  1  0.40090000  0.17550000  0.65060000  1.0 0.3283728119
H  H71  1  0.22540000  0.40090000  0.15060000  1.0 0.3283728119
H  H72  1  0.82450000  0.22540000  0.65060000  1.0 0.3283728119
H  H73  1  0.82450000  0.59910000  0.15060000  1.0 0.3283728119
H  H74  1  0.22540000  0.82450000  0.65060000  1.0 0.3283728119
H  H75  1  0.40090000  0.22540000  0.15060000  1.0 0.3283728119
H  H76  1  0.17550000  0.40090000  0.65060000  1.0 0.3283728119
H  H77  1  0.77460000  0.17550000  0.15060000  1.0 0.3283728119
H  H78  1  0.59910000  0.77460000  0.65060000  1.0 0.3283728119
H  H79  1  0.40090000  0.17550000  0.84940000  1.0 0.3283728119
H  H80  1  0.22540000  0.40090000  0.34940000  1.0 0.3283728119
H  H81  1  0.82450000  0.22540000  0.84940000  1.0 0.3283728119
H  H82  1  0.59910000  0.82450000  0.34940000  1.0 0.3283728119
H  H83  1  0.77460000  0.59910000  0.84940000  1.0 0.3283728119
H  H84  1  0.17550000  0.77460000  0.34940000  1.0 0.3283728119
H  H85  1  0.25320000  0.48490000  0.83760000  1.0 0.3029348608
H  H86  1  0.76830000  0.25320000  0.33760000  1.0 0.3029348608
H  H87  1  0.51510000  0.76830000  0.83760000  1.0 0.3029348608
H  H88  1  0.74680000  0.51510000  0.33760000  1.0 0.3029348608
H  H89  1  0.23170000  0.74680000  0.83760000  1.0 0.3029348608
H  H90  1  0.48490000  0.23170000  0.33760000  1.0 0.3029348608
H  H91  1  0.51510000  0.74680000  0.16240000  1.0 0.3029348608
H  H92  1  0.76830000  0.51510000  0.66240000  1.0 0.3029348608
H  H93  1  0.25320000  0.76830000  0.16240000  1.0 0.3029348608
H  H94  1  0.48490000  0.25320000  0.66240000  1.0 0.3029348608
H  H95  1  0.23170000  0.48490000  0.16240000  1.0 0.3029348608
H  H96  1  0.74680000  0.23170000  0.66240000  1.0 0.3029348608
H  H97  1  0.74680000  0.51510000  0.16240000  1.0 0.3029348608
H  H98  1  0.23170000  0.74680000  0.66240000  1.0 0.3029348608
H  H99  1  0.48490000  0.23170000  0.16240000  1.0 0.3029348608
H  H100  1  0.25320000  0.48490000  0.66240000  1.0 0.3029348608
H  H101  1  0.76830000  0.25320000  0.16240000  1.0 0.3029348608
H  H102  1  0.51510000  0.76830000  0.66240000  1.0 0.3029348608
H  H103  1  0.48490000  0.25320000  0.83760000  1.0 0.3029348608
H  H104  1  0.23170000  0.48490000  0.33760000  1.0 0.3029348608
H  H105  1  0.74680000  0.23170000  0.83760000  1.0 0.3029348608
H  H106  1  0.51510000  0.74680000  0.33760000  1.0 0.3029348608
H  H107  1  0.76830000  0.51510000  0.83760000  1.0 0.3029348608
H  H108  1  0.25320000  0.76830000  0.33760000  1.0 0.3029348608
C  C1  1  0.15610000  0.20480000  0.11080000  1.0 0.4957698863
C  C2  1  0.95130000  0.15610000  0.61080000  1.0 0.4957698863
C  C3  1  0.79520000  0.95130000  0.11080000  1.0 0.4957698863
C  C4  1  0.84390000  0.79520000  0.61080000  1.0 0.4957698863
C  C5  1  0.04870000  0.84390000  0.11080000  1.0 0.4957698863
C  C6  1  0.20480000  0.04870000  0.61080000  1.0 0.4957698863
C  C7  1  0.79520000  0.84390000  0.88920000  1.0 0.4957698863
C  C8  1  0.95130000  0.79520000  0.38920000  1.0 0.4957698863
C  C9  1  0.15610000  0.95130000  0.88920000  1.0 0.4957698863
C  C10  1  0.20480000  0.15610000  0.38920000  1.0 0.4957698863
C  C11  1  0.04870000  0.20480000  0.88920000  1.0 0.4957698863
C  C12  1  0.84390000  0.04870000  0.38920000  1.0 0.4957698863
C  C13  1  0.84390000  0.79520000  0.88920000  1.0 0.4957698863
C  C14  1  0.04870000  0.84390000  0.38920000  1.0 0.4957698863
C  C15  1  0.20480000  0.04870000  0.88920000  1.0 0.4957698863
C  C16  1  0.15610000  0.20480000  0.38920000  1.0 0.4957698863
C  C17  1  0.95130000  0.15610000  0.88920000  1.0 0.4957698863
C  C18  1  0.79520000  0.95130000  0.38920000  1.0 0.4957698863
C  C19  1  0.20480000  0.15610000  0.11080000  1.0 0.4957698863
C  C20  1  0.04870000  0.20480000  0.61080000  1.0 0.4957698863
C  C21  1  0.84390000  0.04870000  0.11080000  1.0 0.4957698863
C  C22  1  0.79520000  0.84390000  0.61080000  1.0 0.4957698863
C  C23  1  0.95130000  0.79520000  0.11080000  1.0 0.4957698863
C  C24  1  0.15610000  0.95130000  0.61080000  1.0 0.4957698863
C  C25  1  0.04910000  0.26250000  0.25000000  1.0 0.4458631557
C  C26  1  0.78660000  0.04910000  0.75000000  1.0 0.4458631557
C  C27  1  0.73750000  0.78660000  0.25000000  1.0 0.4458631557
C  C28  1  0.95090000  0.73750000  0.75000000  1.0 0.4458631557
C  C29  1  0.21340000  0.95090000  0.25000000  1.0 0.4458631557
C  C30  1  0.26250000  0.21340000  0.75000000  1.0 0.4458631557
C  C31  1  0.73750000  0.95090000  0.75000000  1.0 0.4458631557
C  C32  1  0.78660000  0.73750000  0.25000000  1.0 0.4458631557
C  C33  1  0.04910000  0.78660000  0.75000000  1.0 0.4458631557
C  C34  1  0.26250000  0.04910000  0.25000000  1.0 0.4458631557
C  C35  1  0.21340000  0.26250000  0.75000000  1.0 0.4458631557
C  C36  1  0.95090000  0.21340000  0.25000000  1.0 0.4458631557
C  C37  1  0.00000000  0.26280000  0.03050000  1.0 0.1555862409
C  C38  1  0.73720000  0.00000000  0.53050000  1.0 0.1555862409
C  C39  1  0.73720000  0.73720000  0.03050000  1.0 0.1555862409
C  C40  1  0.00000000  0.73720000  0.53050000  1.0 0.1555862409
C  C41  1  0.26280000  0.00000000  0.03050000  1.0 0.1555862409
C  C42  1  0.26280000  0.26280000  0.53050000  1.0 0.1555862409
C  C43  1  0.73720000  0.00000000  0.96950000  1.0 0.1555862409
C  C44  1  0.73720000  0.73720000  0.46950000  1.0 0.1555862409
C  C45  1  0.00000000  0.73720000  0.96950000  1.0 0.1555862409
C  C46  1  0.26280000  0.00000000  0.46950000  1.0 0.1555862409
C  C47  1  0.26280000  0.26280000  0.96950000  1.0 0.1555862409
C  C48  1  0.00000000  0.26280000  0.46950000  1.0 0.1555862409
C  C49  1  0.00000000  0.35810000  0.08220000  1.0 0.4925195258
C  C50  1  0.64190000  0.00000000  0.58220000  1.0 0.4925195258
C  C51  1  0.64190000  0.64190000  0.08220000  1.0 0.4925195258
C  C52  1  0.00000000  0.64190000  0.58220000  1.0 0.4925195258
C  C53  1  0.35810000  0.00000000  0.08220000  1.0 0.4925195258
C  C54  1  0.35810000  0.35810000  0.58220000  1.0 0.4925195258
C  C55  1  0.64190000  0.00000000  0.91780000  1.0 0.4925195258
C  C56  1  0.64190000  0.64190000  0.41780000  1.0 0.4925195258
C  C57  1  0.00000000  0.64190000  0.91780000  1.0 0.4925195258
C  C58  1  0.35810000  0.00000000  0.41780000  1.0 0.4925195258
C  C59  1  0.35810000  0.35810000  0.91780000  1.0 0.4925195258
C  C60  1  0.00000000  0.35810000  0.41780000  1.0 0.4925195258
C  C61  1  0.17500000  0.49460000  0.88530000  1.0 0.5124437493
C  C62  1  0.68040000  0.17500000  0.38530000  1.0 0.5124437493
C  C63  1  0.50540000  0.68040000  0.88530000  1.0 0.5124437493
C  C64  1  0.82500000  0.50540000  0.38530000  1.0 0.5124437493
C  C65  1  0.31960000  0.82500000  0.88530000  1.0 0.5124437493
C  C66  1  0.49460000  0.31960000  0.38530000  1.0 0.5124437493
C  C67  1  0.50540000  0.82500000  0.11470000  1.0 0.5124437493
C  C68  1  0.68040000  0.50540000  0.61470000  1.0 0.5124437493
C  C69  1  0.17500000  0.68040000  0.11470000  1.0 0.5124437493
C  C70  1  0.49460000  0.17500000  0.61470000  1.0 0.5124437493
C  C71  1  0.31960000  0.49460000  0.11470000  1.0 0.5124437493
C  C72  1  0.82500000  0.31960000  0.61470000  1.0 0.5124437493
C  C73  1  0.82500000  0.50540000  0.11470000  1.0 0.5124437493
C  C74  1  0.31960000  0.82500000  0.61470000  1.0 0.5124437493
C  C75  1  0.49460000  0.31960000  0.11470000  1.0 0.5124437493
C  C76  1  0.17500000  0.49460000  0.61470000  1.0 0.5124437493
C  C77  1  0.68040000  0.17500000  0.11470000  1.0 0.5124437493
C  C78  1  0.50540000  0.68040000  0.61470000  1.0 0.5124437493
C  C79  1  0.49460000  0.17500000  0.88530000  1.0 0.5124437493
C  C80  1  0.31960000  0.49460000  0.38530000  1.0 0.5124437493
C  C81  1  0.82500000  0.31960000  0.88530000  1.0 0.5124437493
C  C82  1  0.50540000  0.82500000  0.38530000  1.0 0.5124437493
C  C83  1  0.68040000  0.50540000  0.88530000  1.0 0.5124437493
C  C84  1  0.17500000  0.68040000  0.38530000  1.0 0.5124437493
C  C85  1  0.16720000  0.58930000  0.93230000  1.0 0.1195257214
C  C86  1  0.57790000  0.16720000  0.43230000  1.0 0.1195257214
C  C87  1  0.41070000  0.57790000  0.93230000  1.0 0.1195257214
C  C88  1  0.83280000  0.41070000  0.43230000  1.0 0.1195257214
C  C89  1  0.42210000  0.83280000  0.93230000  1.0 0.1195257214
C  C90  1  0.58930000  0.42210000  0.43230000  1.0 0.1195257214
C  C91  1  0.41070000  0.83280000  0.06770000  1.0 0.1195257214
C  C92  1  0.57790000  0.41070000  0.56770000  1.0 0.1195257214
C  C93  1  0.16720000  0.57790000  0.06770000  1.0 0.1195257214
C  C94  1  0.58930000  0.16720000  0.56770000  1.0 0.1195257214
C  C95  1  0.42210000  0.58930000  0.06770000  1.0 0.1195257214
C  C96  1  0.83280000  0.42210000  0.56770000  1.0 0.1195257214
C  C97  1  0.83280000  0.41070000  0.06770000  1.0 0.1195257214
C  C98  1  0.42210000  0.83280000  0.56770000  1.0 0.1195257214
C  C99  1  0.58930000  0.42210000  0.06770000  1.0 0.1195257214
C  C100  1  0.16720000  0.58930000  0.56770000  1.0 0.1195257214
C  C101  1  0.57790000  0.16720000  0.06770000  1.0 0.1195257214
C  C102  1  0.41070000  0.57790000  0.56770000  1.0 0.1195257214
C  C103  1  0.58930000  0.16720000  0.93230000  1.0 0.1195257214
C  C104  1  0.42210000  0.58930000  0.43230000  1.0 0.1195257214
C  C105  1  0.83280000  0.42210000  0.93230000  1.0 0.1195257214
C  C106  1  0.41070000  0.83280000  0.43230000  1.0 0.1195257214
C  C107  1  0.57790000  0.41070000  0.93230000  1.0 0.1195257214
C  C108  1  0.16720000  0.57790000  0.43230000  1.0 0.1195257214
N  N1  1  0.00000000  0.28200000  0.08300000  1.0 -0.4359598848
N  N2  1  0.71800000  0.00000000  0.58300000  1.0 -0.4359598848
N  N3  1  0.71800000  0.71800000  0.08300000  1.0 -0.4359598848
N  N4  1  0.00000000  0.71800000  0.58300000  1.0 -0.4359598848
N  N5  1  0.28200000  0.00000000  0.08300000  1.0 -0.4359598848
N  N6  1  0.28200000  0.28200000  0.58300000  1.0 -0.4359598848
N  N7  1  0.71800000  0.00000000  0.91700000  1.0 -0.4359598848
N  N8  1  0.71800000  0.71800000  0.41700000  1.0 -0.4359598848
N  N9  1  0.00000000  0.71800000  0.91700000  1.0 -0.4359598848
N  N10  1  0.28200000  0.00000000  0.41700000  1.0 -0.4359598848
N  N11  1  0.28200000  0.28200000  0.91700000  1.0 -0.4359598848
N  N12  1  0.00000000  0.28200000  0.41700000  1.0 -0.4359598848
N  N13  1  0.00000000  0.32240000  0.99810000  1.0 -0.1826579755
N  N14  1  0.67760000  0.00000000  0.49810000  1.0 -0.1826579755
N  N15  1  0.67760000  0.67760000  0.99810000  1.0 -0.1826579755
N  N16  1  0.00000000  0.67760000  0.49810000  1.0 -0.1826579755
N  N17  1  0.32240000  0.00000000  0.99810000  1.0 -0.1826579755
N  N18  1  0.32240000  0.32240000  0.49810000  1.0 -0.1826579755
N  N19  1  0.67760000  0.00000000  0.00190000  1.0 -0.1826579755
N  N20  1  0.67760000  0.67760000  0.50190000  1.0 -0.1826579755
N  N21  1  0.00000000  0.67760000  0.00190000  1.0 -0.1826579755
N  N22  1  0.32240000  0.00000000  0.50190000  1.0 -0.1826579755
N  N23  1  0.32240000  0.32240000  0.00190000  1.0 -0.1826579755
N  N24  1  0.00000000  0.32240000  0.50190000  1.0 -0.1826579755
N  N25  1  0.00000000  0.38380000  0.03260000  1.0 -0.325670639
N  N26  1  0.61620000  0.00000000  0.53260000  1.0 -0.325670639
N  N27  1  0.61620000  0.61620000  0.03260000  1.0 -0.325670639
N  N28  1  0.00000000  0.61620000  0.53260000  1.0 -0.325670639
N  N29  1  0.38380000  0.00000000  0.03260000  1.0 -0.325670639
N  N30  1  0.38380000  0.38380000  0.53260000  1.0 -0.325670639
N  N31  1  0.61620000  0.00000000  0.96740000  1.0 -0.325670639
N  N32  1  0.61620000  0.61620000  0.46740000  1.0 -0.325670639
N  N33  1  0.00000000  0.61620000  0.96740000  1.0 -0.325670639
N  N34  1  0.38380000  0.00000000  0.46740000  1.0 -0.325670639
N  N35  1  0.38380000  0.38380000  0.96740000  1.0 -0.325670639
N  N36  1  0.00000000  0.38380000  0.46740000  1.0 -0.325670639
N  N37  1  0.00000000  0.39900000  0.12850000  1.0 -0.6410603591
N  N38  1  0.60100000  0.00000000  0.62850000  1.0 -0.6410603591
N  N39  1  0.60100000  0.60100000  0.12850000  1.0 -0.6410603591
N  N40  1  0.00000000  0.60100000  0.62850000  1.0 -0.6410603591
N  N41  1  0.39900000  0.00000000  0.12850000  1.0 -0.6410603591
N  N42  1  0.39900000  0.39900000  0.62850000  1.0 -0.6410603591
N  N43  1  0.60100000  0.00000000  0.87150000  1.0 -0.6410603591
N  N44  1  0.60100000  0.60100000  0.37150000  1.0 -0.6410603591
N  N45  1  0.00000000  0.60100000  0.87150000  1.0 -0.6410603591
N  N46  1  0.39900000  0.00000000  0.37150000  1.0 -0.6410603591
N  N47  1  0.39900000  0.39900000  0.87150000  1.0 -0.6410603591
N  N48  1  0.00000000  0.39900000  0.37150000  1.0 -0.6410603591
N  N49  1  0.09750000  0.51890000  0.94300000  1.0 -0.1826579755
N  N50  1  0.57860000  0.09750000  0.44300000  1.0 -0.1826579755
N  N51  1  0.48110000  0.57860000  0.94300000  1.0 -0.1826579755
N  N52  1  0.90250000  0.48110000  0.44300000  1.0 -0.1826579755
N  N53  1  0.42140000  0.90250000  0.94300000  1.0 -0.1826579755
N  N54  1  0.51890000  0.42140000  0.44300000  1.0 -0.1826579755
N  N55  1  0.48110000  0.90250000  0.05700000  1.0 -0.1826579755
N  N56  1  0.57860000  0.48110000  0.55700000  1.0 -0.1826579755
N  N57  1  0.09750000  0.57860000  0.05700000  1.0 -0.1826579755
N  N58  1  0.51890000  0.09750000  0.55700000  1.0 -0.1826579755
N  N59  1  0.42140000  0.51890000  0.05700000  1.0 -0.1826579755
N  N60  1  0.90250000  0.42140000  0.55700000  1.0 -0.1826579755
N  N61  1  0.90250000  0.48110000  0.05700000  1.0 -0.1826579755
N  N62  1  0.42140000  0.90250000  0.55700000  1.0 -0.1826579755
N  N63  1  0.51890000  0.42140000  0.05700000  1.0 -0.1826579755
N  N64  1  0.09750000  0.51890000  0.55700000  1.0 -0.1826579755
N  N65  1  0.57860000  0.09750000  0.05700000  1.0 -0.1826579755
N  N66  1  0.48110000  0.57860000  0.55700000  1.0 -0.1826579755
N  N67  1  0.51890000  0.09750000  0.94300000  1.0 -0.1826579755
N  N68  1  0.42140000  0.51890000  0.44300000  1.0 -0.1826579755
N  N69  1  0.90250000  0.42140000  0.94300000  1.0 -0.1826579755
N  N70  1  0.48110000  0.90250000  0.44300000  1.0 -0.1826579755
N  N71  1  0.57860000  0.48110000  0.94300000  1.0 -0.1826579755
N  N72  1  0.09750000  0.57860000  0.44300000  1.0 -0.1826579755
N  N73  1  0.21860000  0.57940000  0.89630000  1.0 -0.4544611815
N  N74  1  0.63920000  0.21860000  0.39630000  1.0 -0.4544611815
N  N75  1  0.42060000  0.63920000  0.89630000  1.0 -0.4544611815
N  N76  1  0.78140000  0.42060000  0.39630000  1.0 -0.4544611815
N  N77  1  0.36080000  0.78140000  0.89630000  1.0 -0.4544611815
N  N78  1  0.57940000  0.36080000  0.39630000  1.0 -0.4544611815
N  N79  1  0.42060000  0.78140000  0.10370000  1.0 -0.4544611815
N  N80  1  0.63920000  0.42060000  0.60370000  1.0 -0.4544611815
N  N81  1  0.21860000  0.63920000  0.10370000  1.0 -0.4544611815
N  N82  1  0.57940000  0.21860000  0.60370000  1.0 -0.4544611815
N  N83  1  0.36080000  0.57940000  0.10370000  1.0 -0.4544611815
N  N84  1  0.78140000  0.36080000  0.60370000  1.0 -0.4544611815
N  N85  1  0.78140000  0.42060000  0.10370000  1.0 -0.4544611815
N  N86  1  0.36080000  0.78140000  0.60370000  1.0 -0.4544611815
N  N87  1  0.57940000  0.36080000  0.10370000  1.0 -0.4544611815
N  N88  1  0.21860000  0.57940000  0.60370000  1.0 -0.4544611815
N  N89  1  0.63920000  0.21860000  0.10370000  1.0 -0.4544611815
N  N90  1  0.42060000  0.63920000  0.60370000  1.0 -0.4544611815
N  N91  1  0.57940000  0.21860000  0.89630000  1.0 -0.4544611815
N  N92  1  0.36080000  0.57940000  0.39630000  1.0 -0.4544611815
N  N93  1  0.78140000  0.36080000  0.89630000  1.0 -0.4544611815
N  N94  1  0.42060000  0.78140000  0.39630000  1.0 -0.4544611815
N  N95  1  0.63920000  0.42060000  0.89630000  1.0 -0.4544611815
N  N96  1  0.21860000  0.63920000  0.39630000  1.0 -0.4544611815
N  N97  1  0.10040000  0.45580000  0.91240000  1.0 -0.2889651935
N  N98  1  0.64460000  0.10040000  0.41240000  1.0 -0.2889651935
N  N99  1  0.54420000  0.64460000  0.91240000  1.0 -0.2889651935
N  N100  1  0.89960000  0.54420000  0.41240000  1.0 -0.2889651935
N  N101  1  0.35540000  0.89960000  0.91240000  1.0 -0.2889651935
N  N102  1  0.45580000  0.35540000  0.41240000  1.0 -0.2889651935
N  N103  1  0.54420000  0.89960000  0.08760000  1.0 -0.2889651935
N  N104  1  0.64460000  0.54420000  0.58760000  1.0 -0.2889651935
N  N105  1  0.10040000  0.64460000  0.08760000  1.0 -0.2889651935
N  N106  1  0.45580000  0.10040000  0.58760000  1.0 -0.2889651935
N  N107  1  0.35540000  0.45580000  0.08760000  1.0 -0.2889651935
N  N108  1  0.89960000  0.35540000  0.58760000  1.0 -0.2889651935
N  N109  1  0.89960000  0.54420000  0.08760000  1.0 -0.2889651935
N  N110  1  0.35540000  0.89960000  0.58760000  1.0 -0.2889651935
N  N111  1  0.45580000  0.35540000  0.08760000  1.0 -0.2889651935
N  N112  1  0.10040000  0.45580000  0.58760000  1.0 -0.2889651935
N  N113  1  0.64460000  0.10040000  0.08760000  1.0 -0.2889651935
N  N114  1  0.54420000  0.64460000  0.58760000  1.0 -0.2889651935
N  N115  1  0.45580000  0.10040000  0.91240000  1.0 -0.2889651935
N  N116  1  0.35540000  0.45580000  0.41240000  1.0 -0.2889651935
N  N117  1  0.89960000  0.35540000  0.91240000  1.0 -0.2889651935
N  N118  1  0.54420000  0.89960000  0.41240000  1.0 -0.2889651935
N  N119  1  0.64460000  0.54420000  0.91240000  1.0 -0.2889651935
N  N120  1  0.10040000  0.64460000  0.41240000  1.0 -0.2889651935
N  N121  1  0.20470000  0.45550000  0.85370000  1.0 -0.6173018533
N  N122  1  0.74920000  0.20470000  0.35370000  1.0 -0.6173018533
N  N123  1  0.54450000  0.74920000  0.85370000  1.0 -0.6173018533
N  N124  1  0.79530000  0.54450000  0.35370000  1.0 -0.6173018533
N  N125  1  0.25080000  0.79530000  0.85370000  1.0 -0.6173018533
N  N126  1  0.45550000  0.25080000  0.35370000  1.0 -0.6173018533
N  N127  1  0.54450000  0.79530000  0.14630000  1.0 -0.6173018533
N  N128  1  0.74920000  0.54450000  0.64630000  1.0 -0.6173018533
N  N129  1  0.20470000  0.74920000  0.14630000  1.0 -0.6173018533
N  N130  1  0.45550000  0.20470000  0.64630000  1.0 -0.6173018533
N  N131  1  0.25080000  0.45550000  0.14630000  1.0 -0.6173018533
N  N132  1  0.79530000  0.25080000  0.64630000  1.0 -0.6173018533
N  N133  1  0.79530000  0.54450000  0.14630000  1.0 -0.6173018533
N  N134  1  0.25080000  0.79530000  0.64630000  1.0 -0.6173018533
N  N135  1  0.45550000  0.25080000  0.14630000  1.0 -0.6173018533
N  N136  1  0.20470000  0.45550000  0.64630000  1.0 -0.6173018533
N  N137  1  0.74920000  0.20470000  0.14630000  1.0 -0.6173018533
N  N138  1  0.54450000  0.74920000  0.64630000  1.0 -0.6173018533
N  N139  1  0.45550000  0.20470000  0.85370000  1.0 -0.6173018533
N  N140  1  0.25080000  0.45550000  0.35370000  1.0 -0.6173018533
N  N141  1  0.79530000  0.25080000  0.85370000  1.0 -0.6173018533
N  N142  1  0.54450000  0.79530000  0.35370000  1.0 -0.6173018533
N  N143  1  0.74920000  0.54450000  0.85370000  1.0 -0.6173018533
N  N144  1  0.20470000  0.74920000  0.35370000  1.0 -0.6173018533
Cl  Cl1  1  0.00000000  0.00000000  0.25000000  1.0 -0.7402311433
Cl  Cl2  1  0.00000000  0.00000000  0.75000000  1.0 -0.7402311433
Cl  Cl3  1  0.00000000  0.00000000  0.00000000  1.0 -0.7402311433
Cl  Cl4  1  0.00000000  0.00000000  0.50000000  1.0 -0.7402311433
Cl  Cl5  1  0.00000000  0.33670000  0.82110000  1.0 -0.4875092525
Cl  Cl6  1  0.66330000  0.00000000  0.32110000  1.0 -0.4875092525
Cl  Cl7  1  0.66330000  0.66330000  0.82110000  1.0 -0.4875092525
Cl  Cl8  1  0.00000000  0.66330000  0.32110000  1.0 -0.4875092525
Cl  Cl9  1  0.33670000  0.00000000  0.82110000  1.0 -0.4875092525
Cl  Cl10  1  0.33670000  0.33670000  0.32110000  1.0 -0.4875092525
Cl  Cl11  1  0.66330000  0.00000000  0.17890000  1.0 -0.4875092525
Cl  Cl12  1  0.66330000  0.66330000  0.67890000  1.0 -0.4875092525
Cl  Cl13  1  0.00000000  0.66330000  0.17890000  1.0 -0.4875092525
Cl  Cl14  1  0.33670000  0.00000000  0.67890000  1.0 -0.4875092525
Cl  Cl15  1  0.33670000  0.33670000  0.17890000  1.0 -0.4875092525
Cl  Cl16  1  0.00000000  0.33670000  0.67890000  1.0 -0.4875092525
O  O1  1  0.07900000  0.16240000  0.12440000  1.0 -0.5806761477
O  O2  1  0.91660000  0.07900000  0.62440000  1.0 -0.5806761477
O  O3  1  0.83760000  0.91660000  0.12440000  1.0 -0.5806761477
O  O4  1  0.92100000  0.83760000  0.62440000  1.0 -0.5806761477
O  O5  1  0.08340000  0.92100000  0.12440000  1.0 -0.5806761477
O  O6  1  0.16240000  0.08340000  0.62440000  1.0 -0.5806761477
O  O7  1  0.83760000  0.92100000  0.87560000  1.0 -0.5806761477
O  O8  1  0.91660000  0.83760000  0.37560000  1.0 -0.5806761477
O  O9  1  0.07900000  0.91660000  0.87560000  1.0 -0.5806761477
O  O10  1  0.16240000  0.07900000  0.37560000  1.0 -0.5806761477
O  O11  1  0.08340000  0.16240000  0.87560000  1.0 -0.5806761477
O  O12  1  0.92100000  0.08340000  0.37560000  1.0 -0.5806761477
O  O13  1  0.92100000  0.83760000  0.87560000  1.0 -0.5806761477
O  O14  1  0.08340000  0.92100000  0.37560000  1.0 -0.5806761477
O  O15  1  0.16240000  0.08340000  0.87560000  1.0 -0.5806761477
O  O16  1  0.07900000  0.16240000  0.37560000  1.0 -0.5806761477
O  O17  1  0.91660000  0.07900000  0.87560000  1.0 -0.5806761477
O  O18  1  0.83760000  0.91660000  0.37560000  1.0 -0.5806761477
O  O19  1  0.16240000  0.07900000  0.12440000  1.0 -0.5806761477
O  O20  1  0.08340000  0.16240000  0.62440000  1.0 -0.5806761477
O  O21  1  0.92100000  0.08340000  0.12440000  1.0 -0.5806761477
O  O22  1  0.83760000  0.92100000  0.62440000  1.0 -0.5806761477
O  O23  1  0.91660000  0.83760000  0.12440000  1.0 -0.5806761477
O  O24  1  0.07900000  0.91660000  0.62440000  1.0 -0.5806761477
O  O25  1  0.08600000  0.28050000  0.20510000  1.0 -0.4806332905
O  O26  1  0.80550000  0.08600000  0.70510000  1.0 -0.4806332905
O  O27  1  0.71950000  0.80550000  0.20510000  1.0 -0.4806332905
O  O28  1  0.91400000  0.71950000  0.70510000  1.0 -0.4806332905
O  O29  1  0.19450000  0.91400000  0.20510000  1.0 -0.4806332905
O  O30  1  0.28050000  0.19450000  0.70510000  1.0 -0.4806332905
O  O31  1  0.71950000  0.91400000  0.79490000  1.0 -0.4806332905
O  O32  1  0.80550000  0.71950000  0.29490000  1.0 -0.4806332905
O  O33  1  0.08600000  0.80550000  0.79490000  1.0 -0.4806332905
O  O34  1  0.28050000  0.08600000  0.29490000  1.0 -0.4806332905
O  O35  1  0.19450000  0.28050000  0.79490000  1.0 -0.4806332905
O  O36  1  0.91400000  0.19450000  0.29490000  1.0 -0.4806332905
O  O37  1  0.91400000  0.71950000  0.79490000  1.0 -0.4806332905
O  O38  1  0.19450000  0.91400000  0.29490000  1.0 -0.4806332905
O  O39  1  0.28050000  0.19450000  0.79490000  1.0 -0.4806332905
O  O40  1  0.08600000  0.28050000  0.29490000  1.0 -0.4806332905
O  O41  1  0.80550000  0.08600000  0.79490000  1.0 -0.4806332905
O  O42  1  0.71950000  0.80550000  0.29490000  1.0 -0.4806332905
O  O43  1  0.28050000  0.08600000  0.20510000  1.0 -0.4806332905
O  O44  1  0.19450000  0.28050000  0.70510000  1.0 -0.4806332905
O  O45  1  0.91400000  0.19450000  0.20510000  1.0 -0.4806332905
O  O46  1  0.71950000  0.91400000  0.70510000  1.0 -0.4806332905
O  O47  1  0.80550000  0.71950000  0.20510000  1.0 -0.4806332905
O  O48  1  0.08600000  0.80550000  0.70510000  1.0 -0.4806332905
O  O49  1  0.19490000  0.28170000  0.09880000  1.0 -0.4631160963
O  O50  1  0.91320000  0.19490000  0.59880000  1.0 -0.4631160963
O  O51  1  0.71830000  0.91320000  0.09880000  1.0 -0.4631160963
O  O52  1  0.80510000  0.71830000  0.59880000  1.0 -0.4631160963
O  O53  1  0.08680000  0.80510000  0.09880000  1.0 -0.4631160963
O  O54  1  0.28170000  0.08680000  0.59880000  1.0 -0.4631160963
O  O55  1  0.71830000  0.80510000  0.90120000  1.0 -0.4631160963
O  O56  1  0.91320000  0.71830000  0.40120000  1.0 -0.4631160963
O  O57  1  0.19490000  0.91320000  0.90120000  1.0 -0.4631160963
O  O58  1  0.28170000  0.19490000  0.40120000  1.0 -0.4631160963
O  O59  1  0.08680000  0.28170000  0.90120000  1.0 -0.4631160963
O  O60  1  0.80510000  0.08680000  0.40120000  1.0 -0.4631160963
O  O61  1  0.80510000  0.71830000  0.90120000  1.0 -0.4631160963
O  O62  1  0.08680000  0.80510000  0.40120000  1.0 -0.4631160963
O  O63  1  0.28170000  0.08680000  0.90120000  1.0 -0.4631160963
O  O64  1  0.19490000  0.28170000  0.40120000  1.0 -0.4631160963
O  O65  1  0.91320000  0.19490000  0.90120000  1.0 -0.4631160963
O  O66  1  0.71830000  0.91320000  0.40120000  1.0 -0.4631160963
O  O67  1  0.28170000  0.19490000  0.09880000  1.0 -0.4631160963
O  O68  1  0.08680000  0.28170000  0.59880000  1.0 -0.4631160963
O  O69  1  0.80510000  0.08680000  0.09880000  1.0 -0.4631160963
O  O70  1  0.71830000  0.80510000  0.59880000  1.0 -0.4631160963
O  O71  1  0.91320000  0.71830000  0.09880000  1.0 -0.4631160963
O  O72  1  0.19490000  0.91320000  0.59880000  1.0 -0.4631160963
