# DDEC6 charges by PACMAN v1.1 (https://github.com/mtap-research/PACMAN-charge/)
data_VOBGAW_FSR_pacman
_symmetry_space_group_name_H-M   'P 1'
_cell_length_a   18.11520000
_cell_length_b   18.11520000
_cell_length_c   24.85150000
_cell_angle_alpha   90.00000000
_cell_angle_beta   90.00000000
_cell_angle_gamma   120.00000000
_symmetry_Int_Tables_number   1
_chemical_formula_structural   Gd2Zn19H54C54N72(Cl2O9)4
_chemical_formula_sum   'Gd4 Zn38 H108 C108 N144 Cl16 O72'
_cell_volume   7062.67960825
_cell_formula_units_Z   2
loop_
 _symmetry_equiv_pos_site_id
 _symmetry_equiv_pos_as_xyz
  1  'x, y, z'
loop_
 _atom_site_type_symbol
 _atom_site_label
 _atom_site_symmetry_multiplicity
 _atom_site_fract_x
 _atom_site_fract_y
 _atom_site_fract_z
 _atom_site_occupancy
 _atom_site_charge
Gd  Gd1  1  0.00000000  0.00000000  0.12464000  1.0 1.8683209125
Gd  Gd2  1  0.00000000  0.00000000  0.62464000  1.0 1.8683209125
Gd  Gd3  1  0.00000000  0.00000000  0.87536000  1.0 1.8683209125
Gd  Gd4  1  0.00000000  0.00000000  0.37536000  1.0 1.8683209125
Zn  Zn1  1  0.00000000  0.21104000  0.14349000  1.0 0.8634354427
Zn  Zn2  1  0.78896000  0.00000000  0.64349000  1.0 0.8634354427
Zn  Zn3  1  0.78896000  0.78896000  0.14349000  1.0 0.8634354427
Zn  Zn4  1  0.00000000  0.78896000  0.64349000  1.0 0.8634354427
Zn  Zn5  1  0.21104000  0.00000000  0.14349000  1.0 0.8634354427
Zn  Zn6  1  0.21104000  0.21104000  0.64349000  1.0 0.8634354427
Zn  Zn7  1  0.78896000  0.00000000  0.85651000  1.0 0.8634354427
Zn  Zn8  1  0.78896000  0.78896000  0.35651000  1.0 0.8634354427
Zn  Zn9  1  0.00000000  0.78896000  0.85651000  1.0 0.8634354427
Zn  Zn10  1  0.21104000  0.00000000  0.35651000  1.0 0.8634354427
Zn  Zn11  1  0.21104000  0.21104000  0.85651000  1.0 0.8634354427
Zn  Zn12  1  0.00000000  0.21104000  0.35651000  1.0 0.8634354427
Zn  Zn13  1  0.00000000  0.33291000  0.91416000  1.0 0.6919571562
Zn  Zn14  1  0.66709000  0.00000000  0.41416000  1.0 0.6919571562
Zn  Zn15  1  0.66709000  0.66709000  0.91416000  1.0 0.6919571562
Zn  Zn16  1  0.00000000  0.66709000  0.41416000  1.0 0.6919571562
Zn  Zn17  1  0.33291000  0.00000000  0.91416000  1.0 0.6919571562
Zn  Zn18  1  0.33291000  0.33291000  0.41416000  1.0 0.6919571562
Zn  Zn19  1  0.66709000  0.00000000  0.08584000  1.0 0.6919571562
Zn  Zn20  1  0.66709000  0.66709000  0.58584000  1.0 0.6919571562
Zn  Zn21  1  0.00000000  0.66709000  0.08584000  1.0 0.6919571562
Zn  Zn22  1  0.33291000  0.00000000  0.58584000  1.0 0.6919571562
Zn  Zn23  1  0.33291000  0.33291000  0.08584000  1.0 0.6919571562
Zn  Zn24  1  0.00000000  0.33291000  0.58584000  1.0 0.6919571562
Zn  Zn25  1  0.00000000  0.50000000  0.00000000  1.0 0.5537519061
Zn  Zn26  1  0.50000000  0.00000000  0.50000000  1.0 0.5537519061
Zn  Zn27  1  0.50000000  0.50000000  0.00000000  1.0 0.5537519061
Zn  Zn28  1  0.00000000  0.50000000  0.50000000  1.0 0.5537519061
Zn  Zn29  1  0.50000000  0.00000000  0.00000000  1.0 0.5537519061
Zn  Zn30  1  0.50000000  0.50000000  0.50000000  1.0 0.5537519061
Zn  Zn31  1  0.33333333  0.66666667  0.87244000  1.0 0.6420716647
Zn  Zn32  1  0.66666667  0.33333333  0.37244000  1.0 0.6420716647
Zn  Zn33  1  0.33333333  0.66666667  0.12756000  1.0 0.6420716647
Zn  Zn34  1  0.66666667  0.33333333  0.62756000  1.0 0.6420716647
Zn  Zn35  1  0.66666667  0.33333333  0.12756000  1.0 0.6420716647
Zn  Zn36  1  0.33333333  0.66666667  0.62756000  1.0 0.6420716647
Zn  Zn37  1  0.66666667  0.33333333  0.87244000  1.0 0.6420716647
Zn  Zn38  1  0.33333333  0.66666667  0.37244000  1.0 0.6420716647
H  H1  1  0.00000000  0.21350000  0.01850000  1.0 0.1188456519
H  H2  1  0.78650000  0.00000000  0.51850000  1.0 0.1188456519
H  H3  1  0.78650000  0.78650000  0.01850000  1.0 0.1188456519
H  H4  1  0.00000000  0.78650000  0.51850000  1.0 0.1188456519
H  H5  1  0.21350000  0.00000000  0.01850000  1.0 0.1188456519
H  H6  1  0.21350000  0.21350000  0.51850000  1.0 0.1188456519
H  H7  1  0.78650000  0.00000000  0.98150000  1.0 0.1188456519
H  H8  1  0.78650000  0.78650000  0.48150000  1.0 0.1188456519
H  H9  1  0.00000000  0.78650000  0.98150000  1.0 0.1188456519
H  H10  1  0.21350000  0.00000000  0.48150000  1.0 0.1188456519
H  H11  1  0.21350000  0.21350000  0.98150000  1.0 0.1188456519
H  H12  1  0.00000000  0.21350000  0.48150000  1.0 0.1188456519
H  H13  1  0.18120000  0.64130000  0.94800000  1.0 0.1078022573
H  H14  1  0.53990000  0.18120000  0.44800000  1.0 0.1078022573
H  H15  1  0.35870000  0.53990000  0.94800000  1.0 0.1078022573
H  H16  1  0.81880000  0.35870000  0.44800000  1.0 0.1078022573
H  H17  1  0.46010000  0.81880000  0.94800000  1.0 0.1078022573
H  H18  1  0.64130000  0.46010000  0.44800000  1.0 0.1078022573
H  H19  1  0.35870000  0.81880000  0.05200000  1.0 0.1078022573
H  H20  1  0.53990000  0.35870000  0.55200000  1.0 0.1078022573
H  H21  1  0.18120000  0.53990000  0.05200000  1.0 0.1078022573
H  H22  1  0.64130000  0.18120000  0.55200000  1.0 0.1078022573
H  H23  1  0.46010000  0.64130000  0.05200000  1.0 0.1078022573
H  H24  1  0.81880000  0.46010000  0.55200000  1.0 0.1078022573
H  H25  1  0.81880000  0.35870000  0.05200000  1.0 0.1078022573
H  H26  1  0.46010000  0.81880000  0.55200000  1.0 0.1078022573
H  H27  1  0.64130000  0.46010000  0.05200000  1.0 0.1078022573
H  H28  1  0.18120000  0.64130000  0.55200000  1.0 0.1078022573
H  H29  1  0.53990000  0.18120000  0.05200000  1.0 0.1078022573
H  H30  1  0.35870000  0.53990000  0.55200000  1.0 0.1078022573
H  H31  1  0.64130000  0.18120000  0.94800000  1.0 0.1078022573
H  H32  1  0.46010000  0.64130000  0.44800000  1.0 0.1078022573
H  H33  1  0.81880000  0.46010000  0.94800000  1.0 0.1078022573
H  H34  1  0.35870000  0.81880000  0.44800000  1.0 0.1078022573
H  H35  1  0.53990000  0.35870000  0.94800000  1.0 0.1078022573
H  H36  1  0.18120000  0.53990000  0.44800000  1.0 0.1078022573
H  H37  1  0.00000000  0.44660000  0.12610000  1.0 0.301663092
H  H38  1  0.55340000  0.00000000  0.62610000  1.0 0.301663092
H  H39  1  0.55340000  0.55340000  0.12610000  1.0 0.301663092
H  H40  1  0.00000000  0.55340000  0.62610000  1.0 0.301663092
H  H41  1  0.44660000  0.00000000  0.12610000  1.0 0.301663092
H  H42  1  0.44660000  0.44660000  0.62610000  1.0 0.301663092
H  H43  1  0.55340000  0.00000000  0.87390000  1.0 0.301663092
H  H44  1  0.55340000  0.55340000  0.37390000  1.0 0.301663092
H  H45  1  0.00000000  0.55340000  0.87390000  1.0 0.301663092
H  H46  1  0.44660000  0.00000000  0.37390000  1.0 0.301663092
H  H47  1  0.44660000  0.44660000  0.87390000  1.0 0.301663092
H  H48  1  0.00000000  0.44660000  0.37390000  1.0 0.301663092
H  H49  1  0.00000000  0.37770000  0.15930000  1.0 0.3065109455
H  H50  1  0.62230000  0.00000000  0.65930000  1.0 0.3065109455
H  H51  1  0.62230000  0.62230000  0.15930000  1.0 0.3065109455
H  H52  1  0.00000000  0.62230000  0.65930000  1.0 0.3065109455
H  H53  1  0.37770000  0.00000000  0.15930000  1.0 0.3065109455
H  H54  1  0.37770000  0.37770000  0.65930000  1.0 0.3065109455
H  H55  1  0.62230000  0.00000000  0.84070000  1.0 0.3065109455
H  H56  1  0.62230000  0.62230000  0.34070000  1.0 0.3065109455
H  H57  1  0.00000000  0.62230000  0.84070000  1.0 0.3065109455
H  H58  1  0.37770000  0.00000000  0.34070000  1.0 0.3065109455
H  H59  1  0.37770000  0.37770000  0.84070000  1.0 0.3065109455
H  H60  1  0.00000000  0.37770000  0.34070000  1.0 0.3065109455
H  H61  1  0.25330000  0.48520000  0.83780000  1.0 0.301663092
H  H62  1  0.76810000  0.25330000  0.33780000  1.0 0.301663092
H  H63  1  0.51480000  0.76810000  0.83780000  1.0 0.301663092
H  H64  1  0.74670000  0.51480000  0.33780000  1.0 0.301663092
H  H65  1  0.23190000  0.74670000  0.83780000  1.0 0.301663092
H  H66  1  0.48520000  0.23190000  0.33780000  1.0 0.301663092
H  H67  1  0.51480000  0.74670000  0.16220000  1.0 0.301663092
H  H68  1  0.76810000  0.51480000  0.66220000  1.0 0.301663092
H  H69  1  0.25330000  0.76810000  0.16220000  1.0 0.301663092
H  H70  1  0.48520000  0.25330000  0.66220000  1.0 0.301663092
H  H71  1  0.23190000  0.48520000  0.16220000  1.0 0.301663092
H  H72  1  0.74670000  0.23190000  0.66220000  1.0 0.301663092
H  H73  1  0.74670000  0.51480000  0.16220000  1.0 0.301663092
H  H74  1  0.23190000  0.74670000  0.66220000  1.0 0.301663092
H  H75  1  0.48520000  0.23190000  0.16220000  1.0 0.301663092
H  H76  1  0.25330000  0.48520000  0.66220000  1.0 0.301663092
H  H77  1  0.76810000  0.25330000  0.16220000  1.0 0.301663092
H  H78  1  0.51480000  0.76810000  0.66220000  1.0 0.301663092
H  H79  1  0.48520000  0.25330000  0.83780000  1.0 0.301663092
H  H80  1  0.23190000  0.48520000  0.33780000  1.0 0.301663092
H  H81  1  0.74670000  0.23190000  0.83780000  1.0 0.301663092
H  H82  1  0.51480000  0.74670000  0.33780000  1.0 0.301663092
H  H83  1  0.76810000  0.51480000  0.83780000  1.0 0.301663092
H  H84  1  0.25330000  0.76810000  0.33780000  1.0 0.301663092
H  H85  1  0.17380000  0.40170000  0.84740000  1.0 0.3302826661
H  H86  1  0.77210000  0.17380000  0.34740000  1.0 0.3302826661
H  H87  1  0.59830000  0.77210000  0.84740000  1.0 0.3302826661
H  H88  1  0.82620000  0.59830000  0.34740000  1.0 0.3302826661
H  H89  1  0.22790000  0.82620000  0.84740000  1.0 0.3302826661
H  H90  1  0.40170000  0.22790000  0.34740000  1.0 0.3302826661
H  H91  1  0.59830000  0.82620000  0.15260000  1.0 0.3302826661
H  H92  1  0.77210000  0.59830000  0.65260000  1.0 0.3302826661
H  H93  1  0.17380000  0.77210000  0.15260000  1.0 0.3302826661
H  H94  1  0.40170000  0.17380000  0.65260000  1.0 0.3302826661
H  H95  1  0.22790000  0.40170000  0.15260000  1.0 0.3302826661
H  H96  1  0.82620000  0.22790000  0.65260000  1.0 0.3302826661
H  H97  1  0.82620000  0.59830000  0.15260000  1.0 0.3302826661
H  H98  1  0.22790000  0.82620000  0.65260000  1.0 0.3302826661
H  H99  1  0.40170000  0.22790000  0.15260000  1.0 0.3302826661
H  H100  1  0.17380000  0.40170000  0.65260000  1.0 0.3302826661
H  H101  1  0.77210000  0.17380000  0.15260000  1.0 0.3302826661
H  H102  1  0.59830000  0.77210000  0.65260000  1.0 0.3302826661
H  H103  1  0.40170000  0.17380000  0.84740000  1.0 0.3302826661
H  H104  1  0.22790000  0.40170000  0.34740000  1.0 0.3302826661
H  H105  1  0.82620000  0.22790000  0.84740000  1.0 0.3302826661
H  H106  1  0.59830000  0.82620000  0.34740000  1.0 0.3302826661
H  H107  1  0.77210000  0.59830000  0.84740000  1.0 0.3302826661
H  H108  1  0.17380000  0.77210000  0.34740000  1.0 0.3302826661
C  C1  1  0.15640000  0.20560000  0.11090000  1.0 0.4971155752
C  C2  1  0.95080000  0.15640000  0.61090000  1.0 0.4971155752
C  C3  1  0.79440000  0.95080000  0.11090000  1.0 0.4971155752
C  C4  1  0.84360000  0.79440000  0.61090000  1.0 0.4971155752
C  C5  1  0.04920000  0.84360000  0.11090000  1.0 0.4971155752
C  C6  1  0.20560000  0.04920000  0.61090000  1.0 0.4971155752
C  C7  1  0.79440000  0.84360000  0.88910000  1.0 0.4971155752
C  C8  1  0.95080000  0.79440000  0.38910000  1.0 0.4971155752
C  C9  1  0.15640000  0.95080000  0.88910000  1.0 0.4971155752
C  C10  1  0.20560000  0.15640000  0.38910000  1.0 0.4971155752
C  C11  1  0.04920000  0.20560000  0.88910000  1.0 0.4971155752
C  C12  1  0.84360000  0.04920000  0.38910000  1.0 0.4971155752
C  C13  1  0.84360000  0.79440000  0.88910000  1.0 0.4971155752
C  C14  1  0.04920000  0.84360000  0.38910000  1.0 0.4971155752
C  C15  1  0.20560000  0.04920000  0.88910000  1.0 0.4971155752
C  C16  1  0.15640000  0.20560000  0.38910000  1.0 0.4971155752
C  C17  1  0.95080000  0.15640000  0.88910000  1.0 0.4971155752
C  C18  1  0.79440000  0.95080000  0.38910000  1.0 0.4971155752
C  C19  1  0.20560000  0.15640000  0.11090000  1.0 0.4971155752
C  C20  1  0.04920000  0.20560000  0.61090000  1.0 0.4971155752
C  C21  1  0.84360000  0.04920000  0.11090000  1.0 0.4971155752
C  C22  1  0.79440000  0.84360000  0.61090000  1.0 0.4971155752
C  C23  1  0.95080000  0.79440000  0.11090000  1.0 0.4971155752
C  C24  1  0.15640000  0.95080000  0.61090000  1.0 0.4971155752
C  C25  1  0.04910000  0.26310000  0.25000000  1.0 0.4482025905
C  C26  1  0.78600000  0.04910000  0.75000000  1.0 0.4482025905
C  C27  1  0.73690000  0.78600000  0.25000000  1.0 0.4482025905
C  C28  1  0.95090000  0.73690000  0.75000000  1.0 0.4482025905
C  C29  1  0.21400000  0.95090000  0.25000000  1.0 0.4482025905
C  C30  1  0.26310000  0.21400000  0.75000000  1.0 0.4482025905
C  C31  1  0.73690000  0.95090000  0.75000000  1.0 0.4482025905
C  C32  1  0.78600000  0.73690000  0.25000000  1.0 0.4482025905
C  C33  1  0.04910000  0.78600000  0.75000000  1.0 0.4482025905
C  C34  1  0.26310000  0.04910000  0.25000000  1.0 0.4482025905
C  C35  1  0.21400000  0.26310000  0.75000000  1.0 0.4482025905
C  C36  1  0.95090000  0.21400000  0.25000000  1.0 0.4482025905
C  C37  1  0.00000000  0.26220000  0.03100000  1.0 0.1474317018
C  C38  1  0.73780000  0.00000000  0.53100000  1.0 0.1474317018
C  C39  1  0.73780000  0.73780000  0.03100000  1.0 0.1474317018
C  C40  1  0.00000000  0.73780000  0.53100000  1.0 0.1474317018
C  C41  1  0.26220000  0.00000000  0.03100000  1.0 0.1474317018
C  C42  1  0.26220000  0.26220000  0.53100000  1.0 0.1474317018
C  C43  1  0.73780000  0.00000000  0.96900000  1.0 0.1474317018
C  C44  1  0.73780000  0.73780000  0.46900000  1.0 0.1474317018
C  C45  1  0.00000000  0.73780000  0.96900000  1.0 0.1474317018
C  C46  1  0.26220000  0.00000000  0.46900000  1.0 0.1474317018
C  C47  1  0.26220000  0.26220000  0.96900000  1.0 0.1474317018
C  C48  1  0.00000000  0.26220000  0.46900000  1.0 0.1474317018
C  C49  1  0.00000000  0.35730000  0.08230000  1.0 0.4923589085
C  C50  1  0.64270000  0.00000000  0.58230000  1.0 0.4923589085
C  C51  1  0.64270000  0.64270000  0.08230000  1.0 0.4923589085
C  C52  1  0.00000000  0.64270000  0.58230000  1.0 0.4923589085
C  C53  1  0.35730000  0.00000000  0.08230000  1.0 0.4923589085
C  C54  1  0.35730000  0.35730000  0.58230000  1.0 0.4923589085
C  C55  1  0.64270000  0.00000000  0.91770000  1.0 0.4923589085
C  C56  1  0.64270000  0.64270000  0.41770000  1.0 0.4923589085
C  C57  1  0.00000000  0.64270000  0.91770000  1.0 0.4923589085
C  C58  1  0.35730000  0.00000000  0.41770000  1.0 0.4923589085
C  C59  1  0.35730000  0.35730000  0.91770000  1.0 0.4923589085
C  C60  1  0.00000000  0.35730000  0.41770000  1.0 0.4923589085
C  C61  1  0.17480000  0.49460000  0.88490000  1.0 0.5103364789
C  C62  1  0.68020000  0.17480000  0.38490000  1.0 0.5103364789
C  C63  1  0.50540000  0.68020000  0.88490000  1.0 0.5103364789
C  C64  1  0.82520000  0.50540000  0.38490000  1.0 0.5103364789
C  C65  1  0.31980000  0.82520000  0.88490000  1.0 0.5103364789
C  C66  1  0.49460000  0.31980000  0.38490000  1.0 0.5103364789
C  C67  1  0.50540000  0.82520000  0.11510000  1.0 0.5103364789
C  C68  1  0.68020000  0.50540000  0.61510000  1.0 0.5103364789
C  C69  1  0.17480000  0.68020000  0.11510000  1.0 0.5103364789
C  C70  1  0.49460000  0.17480000  0.61510000  1.0 0.5103364789
C  C71  1  0.31980000  0.49460000  0.11510000  1.0 0.5103364789
C  C72  1  0.82520000  0.31980000  0.61510000  1.0 0.5103364789
C  C73  1  0.82520000  0.50540000  0.11510000  1.0 0.5103364789
C  C74  1  0.31980000  0.82520000  0.61510000  1.0 0.5103364789
C  C75  1  0.49460000  0.31980000  0.11510000  1.0 0.5103364789
C  C76  1  0.17480000  0.49460000  0.61510000  1.0 0.5103364789
C  C77  1  0.68020000  0.17480000  0.11510000  1.0 0.5103364789
C  C78  1  0.50540000  0.68020000  0.61510000  1.0 0.5103364789
C  C79  1  0.49460000  0.17480000  0.88490000  1.0 0.5103364789
C  C80  1  0.31980000  0.49460000  0.38490000  1.0 0.5103364789
C  C81  1  0.82520000  0.31980000  0.88490000  1.0 0.5103364789
C  C82  1  0.50540000  0.82520000  0.38490000  1.0 0.5103364789
C  C83  1  0.68020000  0.50540000  0.88490000  1.0 0.5103364789
C  C84  1  0.17480000  0.68020000  0.38490000  1.0 0.5103364789
C  C85  1  0.16710000  0.58910000  0.93220000  1.0 0.1188456519
C  C86  1  0.57800000  0.16710000  0.43220000  1.0 0.1188456519
C  C87  1  0.41090000  0.57800000  0.93220000  1.0 0.1188456519
C  C88  1  0.83290000  0.41090000  0.43220000  1.0 0.1188456519
C  C89  1  0.42200000  0.83290000  0.93220000  1.0 0.1188456519
C  C90  1  0.58910000  0.42200000  0.43220000  1.0 0.1188456519
C  C91  1  0.41090000  0.83290000  0.06780000  1.0 0.1188456519
C  C92  1  0.57800000  0.41090000  0.56780000  1.0 0.1188456519
C  C93  1  0.16710000  0.57800000  0.06780000  1.0 0.1188456519
C  C94  1  0.58910000  0.16710000  0.56780000  1.0 0.1188456519
C  C95  1  0.42200000  0.58910000  0.06780000  1.0 0.1188456519
C  C96  1  0.83290000  0.42200000  0.56780000  1.0 0.1188456519
C  C97  1  0.83290000  0.41090000  0.06780000  1.0 0.1188456519
C  C98  1  0.42200000  0.83290000  0.56780000  1.0 0.1188456519
C  C99  1  0.58910000  0.42200000  0.06780000  1.0 0.1188456519
C  C100  1  0.16710000  0.58910000  0.56780000  1.0 0.1188456519
C  C101  1  0.57800000  0.16710000  0.06780000  1.0 0.1188456519
C  C102  1  0.41090000  0.57800000  0.56780000  1.0 0.1188456519
C  C103  1  0.58910000  0.16710000  0.93220000  1.0 0.1188456519
C  C104  1  0.42200000  0.58910000  0.43220000  1.0 0.1188456519
C  C105  1  0.83290000  0.42200000  0.93220000  1.0 0.1188456519
C  C106  1  0.41090000  0.83290000  0.43220000  1.0 0.1188456519
C  C107  1  0.57800000  0.41090000  0.93220000  1.0 0.1188456519
C  C108  1  0.16710000  0.57800000  0.43220000  1.0 0.1188456519
N  N1  1  0.00000000  0.28140000  0.08330000  1.0 -0.4368647482
N  N2  1  0.71860000  0.00000000  0.58330000  1.0 -0.4368647482
N  N3  1  0.71860000  0.71860000  0.08330000  1.0 -0.4368647482
N  N4  1  0.00000000  0.71860000  0.58330000  1.0 -0.4368647482
N  N5  1  0.28140000  0.00000000  0.08330000  1.0 -0.4368647482
N  N6  1  0.28140000  0.28140000  0.58330000  1.0 -0.4368647482
N  N7  1  0.71860000  0.00000000  0.91670000  1.0 -0.4368647482
N  N8  1  0.71860000  0.71860000  0.41670000  1.0 -0.4368647482
N  N9  1  0.00000000  0.71860000  0.91670000  1.0 -0.4368647482
N  N10  1  0.28140000  0.00000000  0.41670000  1.0 -0.4368647482
N  N11  1  0.28140000  0.28140000  0.91670000  1.0 -0.4368647482
N  N12  1  0.00000000  0.28140000  0.41670000  1.0 -0.4368647482
N  N13  1  0.00000000  0.32270000  0.99840000  1.0 -0.1791796974
N  N14  1  0.67730000  0.00000000  0.49840000  1.0 -0.1791796974
N  N15  1  0.67730000  0.67730000  0.99840000  1.0 -0.1791796974
N  N16  1  0.00000000  0.67730000  0.49840000  1.0 -0.1791796974
N  N17  1  0.32270000  0.00000000  0.99840000  1.0 -0.1791796974
N  N18  1  0.32270000  0.32270000  0.49840000  1.0 -0.1791796974
N  N19  1  0.67730000  0.00000000  0.00160000  1.0 -0.1791796974
N  N20  1  0.67730000  0.67730000  0.50160000  1.0 -0.1791796974
N  N21  1  0.00000000  0.67730000  0.00160000  1.0 -0.1791796974
N  N22  1  0.32270000  0.00000000  0.50160000  1.0 -0.1791796974
N  N23  1  0.32270000  0.32270000  0.00160000  1.0 -0.1791796974
N  N24  1  0.00000000  0.32270000  0.50160000  1.0 -0.1791796974
N  N25  1  0.00000000  0.38410000  0.03250000  1.0 -0.3277290683
N  N26  1  0.61590000  0.00000000  0.53250000  1.0 -0.3277290683
N  N27  1  0.61590000  0.61590000  0.03250000  1.0 -0.3277290683
N  N28  1  0.00000000  0.61590000  0.53250000  1.0 -0.3277290683
N  N29  1  0.38410000  0.00000000  0.03250000  1.0 -0.3277290683
N  N30  1  0.38410000  0.38410000  0.53250000  1.0 -0.3277290683
N  N31  1  0.61590000  0.00000000  0.96750000  1.0 -0.3277290683
N  N32  1  0.61590000  0.61590000  0.46750000  1.0 -0.3277290683
N  N33  1  0.00000000  0.61590000  0.96750000  1.0 -0.3277290683
N  N34  1  0.38410000  0.00000000  0.46750000  1.0 -0.3277290683
N  N35  1  0.38410000  0.38410000  0.96750000  1.0 -0.3277290683
N  N36  1  0.00000000  0.38410000  0.46750000  1.0 -0.3277290683
N  N37  1  0.00000000  0.39900000  0.12820000  1.0 -0.6426202353
N  N38  1  0.60100000  0.00000000  0.62820000  1.0 -0.6426202353
N  N39  1  0.60100000  0.60100000  0.12820000  1.0 -0.6426202353
N  N40  1  0.00000000  0.60100000  0.62820000  1.0 -0.6426202353
N  N41  1  0.39900000  0.00000000  0.12820000  1.0 -0.6426202353
N  N42  1  0.39900000  0.39900000  0.62820000  1.0 -0.6426202353
N  N43  1  0.60100000  0.00000000  0.87180000  1.0 -0.6426202353
N  N44  1  0.60100000  0.60100000  0.37180000  1.0 -0.6426202353
N  N45  1  0.00000000  0.60100000  0.87180000  1.0 -0.6426202353
N  N46  1  0.39900000  0.00000000  0.37180000  1.0 -0.6426202353
N  N47  1  0.39900000  0.39900000  0.87180000  1.0 -0.6426202353
N  N48  1  0.00000000  0.39900000  0.37180000  1.0 -0.6426202353
N  N49  1  0.09760000  0.51900000  0.94270000  1.0 -0.1791796974
N  N50  1  0.57860000  0.09760000  0.44270000  1.0 -0.1791796974
N  N51  1  0.48100000  0.57860000  0.94270000  1.0 -0.1791796974
N  N52  1  0.90240000  0.48100000  0.44270000  1.0 -0.1791796974
N  N53  1  0.42140000  0.90240000  0.94270000  1.0 -0.1791796974
N  N54  1  0.51900000  0.42140000  0.44270000  1.0 -0.1791796974
N  N55  1  0.48100000  0.90240000  0.05730000  1.0 -0.1791796974
N  N56  1  0.57860000  0.48100000  0.55730000  1.0 -0.1791796974
N  N57  1  0.09760000  0.57860000  0.05730000  1.0 -0.1791796974
N  N58  1  0.51900000  0.09760000  0.55730000  1.0 -0.1791796974
N  N59  1  0.42140000  0.51900000  0.05730000  1.0 -0.1791796974
N  N60  1  0.90240000  0.42140000  0.55730000  1.0 -0.1791796974
N  N61  1  0.90240000  0.48100000  0.05730000  1.0 -0.1791796974
N  N62  1  0.42140000  0.90240000  0.55730000  1.0 -0.1791796974
N  N63  1  0.51900000  0.42140000  0.05730000  1.0 -0.1791796974
N  N64  1  0.09760000  0.51900000  0.55730000  1.0 -0.1791796974
N  N65  1  0.57860000  0.09760000  0.05730000  1.0 -0.1791796974
N  N66  1  0.48100000  0.57860000  0.55730000  1.0 -0.1791796974
N  N67  1  0.51900000  0.09760000  0.94270000  1.0 -0.1791796974
N  N68  1  0.42140000  0.51900000  0.44270000  1.0 -0.1791796974
N  N69  1  0.90240000  0.42140000  0.94270000  1.0 -0.1791796974
N  N70  1  0.48100000  0.90240000  0.44270000  1.0 -0.1791796974
N  N71  1  0.57860000  0.48100000  0.94270000  1.0 -0.1791796974
N  N72  1  0.09760000  0.57860000  0.44270000  1.0 -0.1791796974
N  N73  1  0.21790000  0.57950000  0.89580000  1.0 -0.4541731771
N  N74  1  0.63840000  0.21790000  0.39580000  1.0 -0.4541731771
N  N75  1  0.42050000  0.63840000  0.89580000  1.0 -0.4541731771
N  N76  1  0.78210000  0.42050000  0.39580000  1.0 -0.4541731771
N  N77  1  0.36160000  0.78210000  0.89580000  1.0 -0.4541731771
N  N78  1  0.57950000  0.36160000  0.39580000  1.0 -0.4541731771
N  N79  1  0.42050000  0.78210000  0.10420000  1.0 -0.4541731771
N  N80  1  0.63840000  0.42050000  0.60420000  1.0 -0.4541731771
N  N81  1  0.21790000  0.63840000  0.10420000  1.0 -0.4541731771
N  N82  1  0.57950000  0.21790000  0.60420000  1.0 -0.4541731771
N  N83  1  0.36160000  0.57950000  0.10420000  1.0 -0.4541731771
N  N84  1  0.78210000  0.36160000  0.60420000  1.0 -0.4541731771
N  N85  1  0.78210000  0.42050000  0.10420000  1.0 -0.4541731771
N  N86  1  0.36160000  0.78210000  0.60420000  1.0 -0.4541731771
N  N87  1  0.57950000  0.36160000  0.10420000  1.0 -0.4541731771
N  N88  1  0.21790000  0.57950000  0.60420000  1.0 -0.4541731771
N  N89  1  0.63840000  0.21790000  0.10420000  1.0 -0.4541731771
N  N90  1  0.42050000  0.63840000  0.60420000  1.0 -0.4541731771
N  N91  1  0.57950000  0.21790000  0.89580000  1.0 -0.4541731771
N  N92  1  0.36160000  0.57950000  0.39580000  1.0 -0.4541731771
N  N93  1  0.78210000  0.36160000  0.89580000  1.0 -0.4541731771
N  N94  1  0.42050000  0.78210000  0.39580000  1.0 -0.4541731771
N  N95  1  0.63840000  0.42050000  0.89580000  1.0 -0.4541731771
N  N96  1  0.21790000  0.63840000  0.39580000  1.0 -0.4541731771
N  N97  1  0.10050000  0.45620000  0.91310000  1.0 -0.2797887247
N  N98  1  0.64430000  0.10050000  0.41310000  1.0 -0.2797887247
N  N99  1  0.54380000  0.64430000  0.91310000  1.0 -0.2797887247
N  N100  1  0.89950000  0.54380000  0.41310000  1.0 -0.2797887247
N  N101  1  0.35570000  0.89950000  0.91310000  1.0 -0.2797887247
N  N102  1  0.45620000  0.35570000  0.41310000  1.0 -0.2797887247
N  N103  1  0.54380000  0.89950000  0.08690000  1.0 -0.2797887247
N  N104  1  0.64430000  0.54380000  0.58690000  1.0 -0.2797887247
N  N105  1  0.10050000  0.64430000  0.08690000  1.0 -0.2797887247
N  N106  1  0.45620000  0.10050000  0.58690000  1.0 -0.2797887247
N  N107  1  0.35570000  0.45620000  0.08690000  1.0 -0.2797887247
N  N108  1  0.89950000  0.35570000  0.58690000  1.0 -0.2797887247
N  N109  1  0.89950000  0.54380000  0.08690000  1.0 -0.2797887247
N  N110  1  0.35570000  0.89950000  0.58690000  1.0 -0.2797887247
N  N111  1  0.45620000  0.35570000  0.08690000  1.0 -0.2797887247
N  N112  1  0.10050000  0.45620000  0.58690000  1.0 -0.2797887247
N  N113  1  0.64430000  0.10050000  0.08690000  1.0 -0.2797887247
N  N114  1  0.54380000  0.64430000  0.58690000  1.0 -0.2797887247
N  N115  1  0.45620000  0.10050000  0.91310000  1.0 -0.2797887247
N  N116  1  0.35570000  0.45620000  0.41310000  1.0 -0.2797887247
N  N117  1  0.89950000  0.35570000  0.91310000  1.0 -0.2797887247
N  N118  1  0.54380000  0.89950000  0.41310000  1.0 -0.2797887247
N  N119  1  0.64430000  0.54380000  0.91310000  1.0 -0.2797887247
N  N120  1  0.10050000  0.64430000  0.41310000  1.0 -0.2797887247
N  N121  1  0.20410000  0.45600000  0.85300000  1.0 -0.6128360029
N  N122  1  0.74810000  0.20410000  0.35300000  1.0 -0.6128360029
N  N123  1  0.54400000  0.74810000  0.85300000  1.0 -0.6128360029
N  N124  1  0.79590000  0.54400000  0.35300000  1.0 -0.6128360029
N  N125  1  0.25190000  0.79590000  0.85300000  1.0 -0.6128360029
N  N126  1  0.45600000  0.25190000  0.35300000  1.0 -0.6128360029
N  N127  1  0.54400000  0.79590000  0.14700000  1.0 -0.6128360029
N  N128  1  0.74810000  0.54400000  0.64700000  1.0 -0.6128360029
N  N129  1  0.20410000  0.74810000  0.14700000  1.0 -0.6128360029
N  N130  1  0.45600000  0.20410000  0.64700000  1.0 -0.6128360029
N  N131  1  0.25190000  0.45600000  0.14700000  1.0 -0.6128360029
N  N132  1  0.79590000  0.25190000  0.64700000  1.0 -0.6128360029
N  N133  1  0.79590000  0.54400000  0.14700000  1.0 -0.6128360029
N  N134  1  0.25190000  0.79590000  0.64700000  1.0 -0.6128360029
N  N135  1  0.45600000  0.25190000  0.14700000  1.0 -0.6128360029
N  N136  1  0.20410000  0.45600000  0.64700000  1.0 -0.6128360029
N  N137  1  0.74810000  0.20410000  0.14700000  1.0 -0.6128360029
N  N138  1  0.54400000  0.74810000  0.64700000  1.0 -0.6128360029
N  N139  1  0.45600000  0.20410000  0.85300000  1.0 -0.6128360029
N  N140  1  0.25190000  0.45600000  0.35300000  1.0 -0.6128360029
N  N141  1  0.79590000  0.25190000  0.85300000  1.0 -0.6128360029
N  N142  1  0.54400000  0.79590000  0.35300000  1.0 -0.6128360029
N  N143  1  0.74810000  0.54400000  0.85300000  1.0 -0.6128360029
N  N144  1  0.20410000  0.74810000  0.35300000  1.0 -0.6128360029
Cl  Cl1  1  0.00000000  0.00000000  0.25000000  1.0 -0.7412603792
Cl  Cl2  1  0.00000000  0.00000000  0.75000000  1.0 -0.7412603792
Cl  Cl3  1  0.00000000  0.00000000  0.00000000  1.0 -0.7310431
Cl  Cl4  1  0.00000000  0.00000000  0.50000000  1.0 -0.7310431
Cl  Cl5  1  0.00000000  0.33690000  0.82080000  1.0 -0.5083852903
Cl  Cl6  1  0.66310000  0.00000000  0.32080000  1.0 -0.5083852903
Cl  Cl7  1  0.66310000  0.66310000  0.82080000  1.0 -0.5083852903
Cl  Cl8  1  0.00000000  0.66310000  0.32080000  1.0 -0.5083852903
Cl  Cl9  1  0.33690000  0.00000000  0.82080000  1.0 -0.5083852903
Cl  Cl10  1  0.33690000  0.33690000  0.32080000  1.0 -0.5083852903
Cl  Cl11  1  0.66310000  0.00000000  0.17920000  1.0 -0.5083852903
Cl  Cl12  1  0.66310000  0.66310000  0.67920000  1.0 -0.5083852903
Cl  Cl13  1  0.00000000  0.66310000  0.17920000  1.0 -0.5083852903
Cl  Cl14  1  0.33690000  0.00000000  0.67920000  1.0 -0.5083852903
Cl  Cl15  1  0.33690000  0.33690000  0.17920000  1.0 -0.5083852903
Cl  Cl16  1  0.00000000  0.33690000  0.67920000  1.0 -0.5083852903
O  O1  1  0.07920000  0.16270000  0.12420000  1.0 -0.5773413202
O  O2  1  0.91650000  0.07920000  0.62420000  1.0 -0.5773413202
O  O3  1  0.83730000  0.91650000  0.12420000  1.0 -0.5773413202
O  O4  1  0.92080000  0.83730000  0.62420000  1.0 -0.5773413202
O  O5  1  0.08350000  0.92080000  0.12420000  1.0 -0.5773413202
O  O6  1  0.16270000  0.08350000  0.62420000  1.0 -0.5773413202
O  O7  1  0.83730000  0.92080000  0.87580000  1.0 -0.5773413202
O  O8  1  0.91650000  0.83730000  0.37580000  1.0 -0.5773413202
O  O9  1  0.07920000  0.91650000  0.87580000  1.0 -0.5773413202
O  O10  1  0.16270000  0.07920000  0.37580000  1.0 -0.5773413202
O  O11  1  0.08350000  0.16270000  0.87580000  1.0 -0.5773413202
O  O12  1  0.92080000  0.08350000  0.37580000  1.0 -0.5773413202
O  O13  1  0.92080000  0.83730000  0.87580000  1.0 -0.5773413202
O  O14  1  0.08350000  0.92080000  0.37580000  1.0 -0.5773413202
O  O15  1  0.16270000  0.08350000  0.87580000  1.0 -0.5773413202
O  O16  1  0.07920000  0.16270000  0.37580000  1.0 -0.5773413202
O  O17  1  0.91650000  0.07920000  0.87580000  1.0 -0.5773413202
O  O18  1  0.83730000  0.91650000  0.37580000  1.0 -0.5773413202
O  O19  1  0.16270000  0.07920000  0.12420000  1.0 -0.5773413202
O  O20  1  0.08350000  0.16270000  0.62420000  1.0 -0.5773413202
O  O21  1  0.92080000  0.08350000  0.12420000  1.0 -0.5773413202
O  O22  1  0.83730000  0.92080000  0.62420000  1.0 -0.5773413202
O  O23  1  0.91650000  0.83730000  0.12420000  1.0 -0.5773413202
O  O24  1  0.07920000  0.91650000  0.62420000  1.0 -0.5773413202
O  O25  1  0.08560000  0.28090000  0.20550000  1.0 -0.4788480819
O  O26  1  0.80470000  0.08560000  0.70550000  1.0 -0.4788480819
O  O27  1  0.71910000  0.80470000  0.20550000  1.0 -0.4788480819
O  O28  1  0.91440000  0.71910000  0.70550000  1.0 -0.4788480819
O  O29  1  0.19530000  0.91440000  0.20550000  1.0 -0.4788480819
O  O30  1  0.28090000  0.19530000  0.70550000  1.0 -0.4788480819
O  O31  1  0.71910000  0.91440000  0.79450000  1.0 -0.4788480819
O  O32  1  0.80470000  0.71910000  0.29450000  1.0 -0.4788480819
O  O33  1  0.08560000  0.80470000  0.79450000  1.0 -0.4788480819
O  O34  1  0.28090000  0.08560000  0.29450000  1.0 -0.4788480819
O  O35  1  0.19530000  0.28090000  0.79450000  1.0 -0.4788480819
O  O36  1  0.91440000  0.19530000  0.29450000  1.0 -0.4788480819
O  O37  1  0.91440000  0.71910000  0.79450000  1.0 -0.4788480819
O  O38  1  0.19530000  0.91440000  0.29450000  1.0 -0.4788480819
O  O39  1  0.28090000  0.19530000  0.79450000  1.0 -0.4788480819
O  O40  1  0.08560000  0.28090000  0.29450000  1.0 -0.4788480819
O  O41  1  0.80470000  0.08560000  0.79450000  1.0 -0.4788480819
O  O42  1  0.71910000  0.80470000  0.29450000  1.0 -0.4788480819
O  O43  1  0.28090000  0.08560000  0.20550000  1.0 -0.4788480819
O  O44  1  0.19530000  0.28090000  0.70550000  1.0 -0.4788480819
O  O45  1  0.91440000  0.19530000  0.20550000  1.0 -0.4788480819
O  O46  1  0.71910000  0.91440000  0.70550000  1.0 -0.4788480819
O  O47  1  0.80470000  0.71910000  0.20550000  1.0 -0.4788480819
O  O48  1  0.08560000  0.80470000  0.70550000  1.0 -0.4788480819
O  O49  1  0.19560000  0.28200000  0.09880000  1.0 -0.4628486692
O  O50  1  0.91360000  0.19560000  0.59880000  1.0 -0.4628486692
O  O51  1  0.71800000  0.91360000  0.09880000  1.0 -0.4628486692
O  O52  1  0.80440000  0.71800000  0.59880000  1.0 -0.4628486692
O  O53  1  0.08640000  0.80440000  0.09880000  1.0 -0.4628486692
O  O54  1  0.28200000  0.08640000  0.59880000  1.0 -0.4628486692
O  O55  1  0.71800000  0.80440000  0.90120000  1.0 -0.4628486692
O  O56  1  0.91360000  0.71800000  0.40120000  1.0 -0.4628486692
O  O57  1  0.19560000  0.91360000  0.90120000  1.0 -0.4628486692
O  O58  1  0.28200000  0.19560000  0.40120000  1.0 -0.4628486692
O  O59  1  0.08640000  0.28200000  0.90120000  1.0 -0.4628486692
O  O60  1  0.80440000  0.08640000  0.40120000  1.0 -0.4628486692
O  O61  1  0.80440000  0.71800000  0.90120000  1.0 -0.4628486692
O  O62  1  0.08640000  0.80440000  0.40120000  1.0 -0.4628486692
O  O63  1  0.28200000  0.08640000  0.90120000  1.0 -0.4628486692
O  O64  1  0.19560000  0.28200000  0.40120000  1.0 -0.4628486692
O  O65  1  0.91360000  0.19560000  0.90120000  1.0 -0.4628486692
O  O66  1  0.71800000  0.91360000  0.40120000  1.0 -0.4628486692
O  O67  1  0.28200000  0.19560000  0.09880000  1.0 -0.4628486692
O  O68  1  0.08640000  0.28200000  0.59880000  1.0 -0.4628486692
O  O69  1  0.80440000  0.08640000  0.09880000  1.0 -0.4628486692
O  O70  1  0.71800000  0.80440000  0.59880000  1.0 -0.4628486692
O  O71  1  0.91360000  0.71800000  0.09880000  1.0 -0.4628486692
O  O72  1  0.19560000  0.91360000  0.59880000  1.0 -0.4628486692
