# DDEC6 charges by PACMAN v1.1 (https://github.com/mtap-research/PACMAN-charge/)
data_VOCPEK_ASR_pacman
_symmetry_space_group_name_H-M   'P 1'
_cell_length_a   18.03300000
_cell_length_b   18.03300000
_cell_length_c   24.74300000
_cell_angle_alpha   90.00000000
_cell_angle_beta   90.00000000
_cell_angle_gamma   120.00000000
_symmetry_Int_Tables_number   1
_chemical_formula_structural   Eu2Zn19H54C54N72(Cl2O9)4
_chemical_formula_sum   'Eu4 Zn38 H108 C108 N144 Cl16 O72'
_cell_volume   6968.17344558
_cell_formula_units_Z   2
loop_
 _symmetry_equiv_pos_site_id
 _symmetry_equiv_pos_as_xyz
  1  'x, y, z'
loop_
 _atom_site_type_symbol
 _atom_site_label
 _atom_site_symmetry_multiplicity
 _atom_site_fract_x
 _atom_site_fract_y
 _atom_site_fract_z
 _atom_site_occupancy
 _atom_site_charge
Eu  Eu1  1  0.00000000  0.00000000  0.12466000  1.0 1.9017267477
Eu  Eu2  1  0.00000000  0.00000000  0.62466000  1.0 1.9017267477
Eu  Eu3  1  0.00000000  0.00000000  0.87534000  1.0 1.9017267477
Eu  Eu4  1  0.00000000  0.00000000  0.37534000  1.0 1.9017267477
Zn  Zn1  1  0.00000000  0.21110000  0.14348000  1.0 0.8535219681
Zn  Zn2  1  0.78890000  0.00000000  0.64348000  1.0 0.8535219681
Zn  Zn3  1  0.78890000  0.78890000  0.14348000  1.0 0.8535219681
Zn  Zn4  1  0.00000000  0.78890000  0.64348000  1.0 0.8535219681
Zn  Zn5  1  0.21110000  0.00000000  0.14348000  1.0 0.8535219681
Zn  Zn6  1  0.21110000  0.21110000  0.64348000  1.0 0.8535219681
Zn  Zn7  1  0.78890000  0.00000000  0.85652000  1.0 0.8535219681
Zn  Zn8  1  0.78890000  0.78890000  0.35652000  1.0 0.8535219681
Zn  Zn9  1  0.00000000  0.78890000  0.85652000  1.0 0.8535219681
Zn  Zn10  1  0.21110000  0.00000000  0.35652000  1.0 0.8535219681
Zn  Zn11  1  0.21110000  0.21110000  0.85652000  1.0 0.8535219681
Zn  Zn12  1  0.00000000  0.21110000  0.35652000  1.0 0.8535219681
Zn  Zn13  1  0.00000000  0.33314000  0.91407000  1.0 0.6920873078
Zn  Zn14  1  0.66686000  0.00000000  0.41407000  1.0 0.6920873078
Zn  Zn15  1  0.66686000  0.66686000  0.91407000  1.0 0.6920873078
Zn  Zn16  1  0.00000000  0.66686000  0.41407000  1.0 0.6920873078
Zn  Zn17  1  0.33314000  0.00000000  0.91407000  1.0 0.6920873078
Zn  Zn18  1  0.33314000  0.33314000  0.41407000  1.0 0.6920873078
Zn  Zn19  1  0.66686000  0.00000000  0.08593000  1.0 0.6920873078
Zn  Zn20  1  0.66686000  0.66686000  0.58593000  1.0 0.6920873078
Zn  Zn21  1  0.00000000  0.66686000  0.08593000  1.0 0.6920873078
Zn  Zn22  1  0.33314000  0.00000000  0.58593000  1.0 0.6920873078
Zn  Zn23  1  0.33314000  0.33314000  0.08593000  1.0 0.6920873078
Zn  Zn24  1  0.00000000  0.33314000  0.58593000  1.0 0.6920873078
Zn  Zn25  1  0.00000000  0.50000000  0.00000000  1.0 0.5546342782
Zn  Zn26  1  0.50000000  0.00000000  0.50000000  1.0 0.5546342782
Zn  Zn27  1  0.50000000  0.50000000  0.00000000  1.0 0.5546342782
Zn  Zn28  1  0.00000000  0.50000000  0.50000000  1.0 0.5546342782
Zn  Zn29  1  0.50000000  0.00000000  0.00000000  1.0 0.5546342782
Zn  Zn30  1  0.50000000  0.50000000  0.50000000  1.0 0.5546342782
Zn  Zn31  1  0.33333333  0.66666667  0.87254000  1.0 0.6438646567
Zn  Zn32  1  0.66666667  0.33333333  0.37254000  1.0 0.6459902775
Zn  Zn33  1  0.33333333  0.66666667  0.12746000  1.0 0.6438646567
Zn  Zn34  1  0.66666667  0.33333333  0.62746000  1.0 0.6459902775
Zn  Zn35  1  0.66666667  0.33333333  0.12746000  1.0 0.6459902775
Zn  Zn36  1  0.33333333  0.66666667  0.62746000  1.0 0.6438646567
Zn  Zn37  1  0.66666667  0.33333333  0.87254000  1.0 0.6459902775
Zn  Zn38  1  0.33333333  0.66666667  0.37254000  1.0 0.6438646567
H  H1  1  0.00000000  0.21360000  0.01850000  1.0 0.1195851951
H  H2  1  0.78640000  0.00000000  0.51850000  1.0 0.1195851951
H  H3  1  0.78640000  0.78640000  0.01850000  1.0 0.1195851951
H  H4  1  0.00000000  0.78640000  0.51850000  1.0 0.1195851951
H  H5  1  0.21360000  0.00000000  0.01850000  1.0 0.1195851951
H  H6  1  0.21360000  0.21360000  0.51850000  1.0 0.1195851951
H  H7  1  0.78640000  0.00000000  0.98150000  1.0 0.1195851951
H  H8  1  0.78640000  0.78640000  0.48150000  1.0 0.1195851951
H  H9  1  0.00000000  0.78640000  0.98150000  1.0 0.1195851951
H  H10  1  0.21360000  0.00000000  0.48150000  1.0 0.1195851951
H  H11  1  0.21360000  0.21360000  0.98150000  1.0 0.1195851951
H  H12  1  0.00000000  0.21360000  0.48150000  1.0 0.1195851951
H  H13  1  0.17950000  0.64100000  0.94620000  1.0 0.1053986415
H  H14  1  0.53850000  0.17950000  0.44620000  1.0 0.1053986415
H  H15  1  0.35900000  0.53850000  0.94620000  1.0 0.1053986415
H  H16  1  0.82050000  0.35900000  0.44620000  1.0 0.1053986415
H  H17  1  0.46150000  0.82050000  0.94620000  1.0 0.1053986415
H  H18  1  0.64100000  0.46150000  0.44620000  1.0 0.1053986415
H  H19  1  0.35900000  0.82050000  0.05380000  1.0 0.1053986415
H  H20  1  0.53850000  0.35900000  0.55380000  1.0 0.1053986415
H  H21  1  0.17950000  0.53850000  0.05380000  1.0 0.1053986415
H  H22  1  0.64100000  0.17950000  0.55380000  1.0 0.1053986415
H  H23  1  0.46150000  0.64100000  0.05380000  1.0 0.1053986415
H  H24  1  0.82050000  0.46150000  0.55380000  1.0 0.1053986415
H  H25  1  0.82050000  0.35900000  0.05380000  1.0 0.1053986415
H  H26  1  0.46150000  0.82050000  0.55380000  1.0 0.1053986415
H  H27  1  0.64100000  0.46150000  0.05380000  1.0 0.1053986415
H  H28  1  0.17950000  0.64100000  0.55380000  1.0 0.1053986415
H  H29  1  0.53850000  0.17950000  0.05380000  1.0 0.1053986415
H  H30  1  0.35900000  0.53850000  0.55380000  1.0 0.1053986415
H  H31  1  0.64100000  0.17950000  0.94620000  1.0 0.1053986415
H  H32  1  0.46150000  0.64100000  0.44620000  1.0 0.1053986415
H  H33  1  0.82050000  0.46150000  0.94620000  1.0 0.1053986415
H  H34  1  0.35900000  0.82050000  0.44620000  1.0 0.1053986415
H  H35  1  0.53850000  0.35900000  0.94620000  1.0 0.1053986415
H  H36  1  0.17950000  0.53850000  0.44620000  1.0 0.1053986415
H  H37  1  0.00000000  0.44660000  0.12600000  1.0 0.2998777872
H  H38  1  0.55340000  0.00000000  0.62600000  1.0 0.2998777872
H  H39  1  0.55340000  0.55340000  0.12600000  1.0 0.2998777872
H  H40  1  0.00000000  0.55340000  0.62600000  1.0 0.2998777872
H  H41  1  0.44660000  0.00000000  0.12600000  1.0 0.2998777872
H  H42  1  0.44660000  0.44660000  0.62600000  1.0 0.2998777872
H  H43  1  0.55340000  0.00000000  0.87400000  1.0 0.2998777872
H  H44  1  0.55340000  0.55340000  0.37400000  1.0 0.2998777872
H  H45  1  0.00000000  0.55340000  0.87400000  1.0 0.2998777872
H  H46  1  0.44660000  0.00000000  0.37400000  1.0 0.2998777872
H  H47  1  0.44660000  0.44660000  0.87400000  1.0 0.2998777872
H  H48  1  0.00000000  0.44660000  0.37400000  1.0 0.2998777872
H  H49  1  0.00000000  0.37780000  0.15930000  1.0 0.2998777872
H  H50  1  0.62220000  0.00000000  0.65930000  1.0 0.2998777872
H  H51  1  0.62220000  0.62220000  0.15930000  1.0 0.2998777872
H  H52  1  0.00000000  0.62220000  0.65930000  1.0 0.2998777872
H  H53  1  0.37780000  0.00000000  0.15930000  1.0 0.2998777872
H  H54  1  0.37780000  0.37780000  0.65930000  1.0 0.2998777872
H  H55  1  0.62220000  0.00000000  0.84070000  1.0 0.2998777872
H  H56  1  0.62220000  0.62220000  0.34070000  1.0 0.2998777872
H  H57  1  0.00000000  0.62220000  0.84070000  1.0 0.2998777872
H  H58  1  0.37780000  0.00000000  0.34070000  1.0 0.2998777872
H  H59  1  0.37780000  0.37780000  0.84070000  1.0 0.2998777872
H  H60  1  0.00000000  0.37780000  0.34070000  1.0 0.2998777872
H  H61  1  0.17460000  0.40200000  0.84900000  1.0 0.3235679668
H  H62  1  0.77260000  0.17460000  0.34900000  1.0 0.3235679668
H  H63  1  0.59800000  0.77260000  0.84900000  1.0 0.3235679668
H  H64  1  0.82540000  0.59800000  0.34900000  1.0 0.3235679668
H  H65  1  0.22740000  0.82540000  0.84900000  1.0 0.3235679668
H  H66  1  0.40200000  0.22740000  0.34900000  1.0 0.3235679668
H  H67  1  0.59800000  0.82540000  0.15100000  1.0 0.3235679668
H  H68  1  0.77260000  0.59800000  0.65100000  1.0 0.3235679668
H  H69  1  0.17460000  0.77260000  0.15100000  1.0 0.3235679668
H  H70  1  0.40200000  0.17460000  0.65100000  1.0 0.3235679668
H  H71  1  0.22740000  0.40200000  0.15100000  1.0 0.3235679668
H  H72  1  0.82540000  0.22740000  0.65100000  1.0 0.3235679668
H  H73  1  0.82540000  0.59800000  0.15100000  1.0 0.3235679668
H  H74  1  0.22740000  0.82540000  0.65100000  1.0 0.3235679668
H  H75  1  0.40200000  0.22740000  0.15100000  1.0 0.3235679668
H  H76  1  0.17460000  0.40200000  0.65100000  1.0 0.3235679668
H  H77  1  0.77260000  0.17460000  0.15100000  1.0 0.3235679668
H  H78  1  0.59800000  0.77260000  0.65100000  1.0 0.3235679668
H  H79  1  0.40200000  0.17460000  0.84900000  1.0 0.3235679668
H  H80  1  0.22740000  0.40200000  0.34900000  1.0 0.3235679668
H  H81  1  0.82540000  0.22740000  0.84900000  1.0 0.3235679668
H  H82  1  0.59800000  0.82540000  0.34900000  1.0 0.3235679668
H  H83  1  0.77260000  0.59800000  0.84900000  1.0 0.3235679668
H  H84  1  0.17460000  0.77260000  0.34900000  1.0 0.3235679668
H  H85  1  0.25130000  0.48620000  0.83630000  1.0 0.2998777872
H  H86  1  0.76510000  0.25130000  0.33630000  1.0 0.2998777872
H  H87  1  0.51380000  0.76510000  0.83630000  1.0 0.2998777872
H  H88  1  0.74870000  0.51380000  0.33630000  1.0 0.2998777872
H  H89  1  0.23490000  0.74870000  0.83630000  1.0 0.2998777872
H  H90  1  0.48620000  0.23490000  0.33630000  1.0 0.2998777872
H  H91  1  0.51380000  0.74870000  0.16370000  1.0 0.2998777872
H  H92  1  0.76510000  0.51380000  0.66370000  1.0 0.2998777872
H  H93  1  0.25130000  0.76510000  0.16370000  1.0 0.2998777872
H  H94  1  0.48620000  0.25130000  0.66370000  1.0 0.2998777872
H  H95  1  0.23490000  0.48620000  0.16370000  1.0 0.2998777872
H  H96  1  0.74870000  0.23490000  0.66370000  1.0 0.2998777872
H  H97  1  0.74870000  0.51380000  0.16370000  1.0 0.2998777872
H  H98  1  0.23490000  0.74870000  0.66370000  1.0 0.2998777872
H  H99  1  0.48620000  0.23490000  0.16370000  1.0 0.2998777872
H  H100  1  0.25130000  0.48620000  0.66370000  1.0 0.2998777872
H  H101  1  0.76510000  0.25130000  0.16370000  1.0 0.2998777872
H  H102  1  0.51380000  0.76510000  0.66370000  1.0 0.2998777872
H  H103  1  0.48620000  0.25130000  0.83630000  1.0 0.2998777872
H  H104  1  0.23490000  0.48620000  0.33630000  1.0 0.2998777872
H  H105  1  0.74870000  0.23490000  0.83630000  1.0 0.2998777872
H  H106  1  0.51380000  0.74870000  0.33630000  1.0 0.2998777872
H  H107  1  0.76510000  0.51380000  0.83630000  1.0 0.2998777872
H  H108  1  0.25130000  0.76510000  0.33630000  1.0 0.2998777872
C  C1  1  0.15620000  0.20590000  0.11120000  1.0 0.4994937258
C  C2  1  0.95030000  0.15620000  0.61120000  1.0 0.4994937258
C  C3  1  0.79410000  0.95030000  0.11120000  1.0 0.4994937258
C  C4  1  0.84380000  0.79410000  0.61120000  1.0 0.4994937258
C  C5  1  0.04970000  0.84380000  0.11120000  1.0 0.4994937258
C  C6  1  0.20590000  0.04970000  0.61120000  1.0 0.4994937258
C  C7  1  0.79410000  0.84380000  0.88880000  1.0 0.4994937258
C  C8  1  0.95030000  0.79410000  0.38880000  1.0 0.4994937258
C  C9  1  0.15620000  0.95030000  0.88880000  1.0 0.4994937258
C  C10  1  0.20590000  0.15620000  0.38880000  1.0 0.4994937258
C  C11  1  0.04970000  0.20590000  0.88880000  1.0 0.4994937258
C  C12  1  0.84380000  0.04970000  0.38880000  1.0 0.4994937258
C  C13  1  0.84380000  0.79410000  0.88880000  1.0 0.4994937258
C  C14  1  0.04970000  0.84380000  0.38880000  1.0 0.4994937258
C  C15  1  0.20590000  0.04970000  0.88880000  1.0 0.4994937258
C  C16  1  0.15620000  0.20590000  0.38880000  1.0 0.4994937258
C  C17  1  0.95030000  0.15620000  0.88880000  1.0 0.4994937258
C  C18  1  0.79410000  0.95030000  0.38880000  1.0 0.4994937258
C  C19  1  0.20590000  0.15620000  0.11120000  1.0 0.4994937258
C  C20  1  0.04970000  0.20590000  0.61120000  1.0 0.4994937258
C  C21  1  0.84380000  0.04970000  0.11120000  1.0 0.4994937258
C  C22  1  0.79410000  0.84380000  0.61120000  1.0 0.4994937258
C  C23  1  0.95030000  0.79410000  0.11120000  1.0 0.4994937258
C  C24  1  0.15620000  0.95030000  0.61120000  1.0 0.4994937258
C  C25  1  0.04860000  0.26190000  0.25000000  1.0 0.4396993917
C  C26  1  0.78670000  0.04860000  0.75000000  1.0 0.4396993917
C  C27  1  0.73810000  0.78670000  0.25000000  1.0 0.4396993917
C  C28  1  0.95140000  0.73810000  0.75000000  1.0 0.4396993917
C  C29  1  0.21330000  0.95140000  0.25000000  1.0 0.4396993917
C  C30  1  0.26190000  0.21330000  0.75000000  1.0 0.4396993917
C  C31  1  0.73810000  0.95140000  0.75000000  1.0 0.4396993917
C  C32  1  0.78670000  0.73810000  0.25000000  1.0 0.4396993917
C  C33  1  0.04860000  0.78670000  0.75000000  1.0 0.4396993917
C  C34  1  0.26190000  0.04860000  0.25000000  1.0 0.4396993917
C  C35  1  0.21330000  0.26190000  0.75000000  1.0 0.4396993917
C  C36  1  0.95140000  0.21330000  0.25000000  1.0 0.4396993917
C  C37  1  0.00000000  0.26220000  0.03100000  1.0 0.1522963446
C  C38  1  0.73780000  0.00000000  0.53100000  1.0 0.1522963446
C  C39  1  0.73780000  0.73780000  0.03100000  1.0 0.1522963446
C  C40  1  0.00000000  0.73780000  0.53100000  1.0 0.1522963446
C  C41  1  0.26220000  0.00000000  0.03100000  1.0 0.1522963446
C  C42  1  0.26220000  0.26220000  0.53100000  1.0 0.1522963446
C  C43  1  0.73780000  0.00000000  0.96900000  1.0 0.1522963446
C  C44  1  0.73780000  0.73780000  0.46900000  1.0 0.1522963446
C  C45  1  0.00000000  0.73780000  0.96900000  1.0 0.1522963446
C  C46  1  0.26220000  0.00000000  0.46900000  1.0 0.1522963446
C  C47  1  0.26220000  0.26220000  0.96900000  1.0 0.1522963446
C  C48  1  0.00000000  0.26220000  0.46900000  1.0 0.1522963446
C  C49  1  0.00000000  0.35700000  0.08200000  1.0 0.4729999256
C  C50  1  0.64300000  0.00000000  0.58200000  1.0 0.4729999256
C  C51  1  0.64300000  0.64300000  0.08200000  1.0 0.4729999256
C  C52  1  0.00000000  0.64300000  0.58200000  1.0 0.4729999256
C  C53  1  0.35700000  0.00000000  0.08200000  1.0 0.4729999256
C  C54  1  0.35700000  0.35700000  0.58200000  1.0 0.4729999256
C  C55  1  0.64300000  0.00000000  0.91800000  1.0 0.4729999256
C  C56  1  0.64300000  0.64300000  0.41800000  1.0 0.4729999256
C  C57  1  0.00000000  0.64300000  0.91800000  1.0 0.4729999256
C  C58  1  0.35700000  0.00000000  0.41800000  1.0 0.4729999256
C  C59  1  0.35700000  0.35700000  0.91800000  1.0 0.4729999256
C  C60  1  0.00000000  0.35700000  0.41800000  1.0 0.4729999256
C  C61  1  0.17450000  0.49500000  0.88460000  1.0 0.4994937258
C  C62  1  0.67950000  0.17450000  0.38460000  1.0 0.4994937258
C  C63  1  0.50500000  0.67950000  0.88460000  1.0 0.4994937258
C  C64  1  0.82550000  0.50500000  0.38460000  1.0 0.4994937258
C  C65  1  0.32050000  0.82550000  0.88460000  1.0 0.4994937258
C  C66  1  0.49500000  0.32050000  0.38460000  1.0 0.4994937258
C  C67  1  0.50500000  0.82550000  0.11540000  1.0 0.4994937258
C  C68  1  0.67950000  0.50500000  0.61540000  1.0 0.4994937258
C  C69  1  0.17450000  0.67950000  0.11540000  1.0 0.4994937258
C  C70  1  0.49500000  0.17450000  0.61540000  1.0 0.4994937258
C  C71  1  0.32050000  0.49500000  0.11540000  1.0 0.4994937258
C  C72  1  0.82550000  0.32050000  0.61540000  1.0 0.4994937258
C  C73  1  0.82550000  0.50500000  0.11540000  1.0 0.4994937258
C  C74  1  0.32050000  0.82550000  0.61540000  1.0 0.4994937258
C  C75  1  0.49500000  0.32050000  0.11540000  1.0 0.4994937258
C  C76  1  0.17450000  0.49500000  0.61540000  1.0 0.4994937258
C  C77  1  0.67950000  0.17450000  0.11540000  1.0 0.4994937258
C  C78  1  0.50500000  0.67950000  0.61540000  1.0 0.4994937258
C  C79  1  0.49500000  0.17450000  0.88460000  1.0 0.4994937258
C  C80  1  0.32050000  0.49500000  0.38460000  1.0 0.4994937258
C  C81  1  0.82550000  0.32050000  0.88460000  1.0 0.4994937258
C  C82  1  0.50500000  0.82550000  0.38460000  1.0 0.4994937258
C  C83  1  0.67950000  0.50500000  0.88460000  1.0 0.4994937258
C  C84  1  0.17450000  0.67950000  0.38460000  1.0 0.4994937258
C  C85  1  0.16640000  0.58840000  0.93150000  1.0 0.1288878932
C  C86  1  0.57800000  0.16640000  0.43150000  1.0 0.1288878932
C  C87  1  0.41160000  0.57800000  0.93150000  1.0 0.1288878932
C  C88  1  0.83360000  0.41160000  0.43150000  1.0 0.1288878932
C  C89  1  0.42200000  0.83360000  0.93150000  1.0 0.1288878932
C  C90  1  0.58840000  0.42200000  0.43150000  1.0 0.1288878932
C  C91  1  0.41160000  0.83360000  0.06850000  1.0 0.1288878932
C  C92  1  0.57800000  0.41160000  0.56850000  1.0 0.1288878932
C  C93  1  0.16640000  0.57800000  0.06850000  1.0 0.1288878932
C  C94  1  0.58840000  0.16640000  0.56850000  1.0 0.1288878932
C  C95  1  0.42200000  0.58840000  0.06850000  1.0 0.1288878932
C  C96  1  0.83360000  0.42200000  0.56850000  1.0 0.1288878932
C  C97  1  0.83360000  0.41160000  0.06850000  1.0 0.1288878932
C  C98  1  0.42200000  0.83360000  0.56850000  1.0 0.1288878932
C  C99  1  0.58840000  0.42200000  0.06850000  1.0 0.1288878932
C  C100  1  0.16640000  0.58840000  0.56850000  1.0 0.1288878932
C  C101  1  0.57800000  0.16640000  0.06850000  1.0 0.1288878932
C  C102  1  0.41160000  0.57800000  0.56850000  1.0 0.1288878932
C  C103  1  0.58840000  0.16640000  0.93150000  1.0 0.1288878932
C  C104  1  0.42200000  0.58840000  0.43150000  1.0 0.1288878932
C  C105  1  0.83360000  0.42200000  0.93150000  1.0 0.1288878932
C  C106  1  0.41160000  0.83360000  0.43150000  1.0 0.1288878932
C  C107  1  0.57800000  0.41160000  0.93150000  1.0 0.1288878932
C  C108  1  0.16640000  0.57800000  0.43150000  1.0 0.1288878932
N  N1  1  0.00000000  0.28200000  0.08270000  1.0 -0.4199564853
N  N2  1  0.71800000  0.00000000  0.58270000  1.0 -0.4199564853
N  N3  1  0.71800000  0.71800000  0.08270000  1.0 -0.4199564853
N  N4  1  0.00000000  0.71800000  0.58270000  1.0 -0.4199564853
N  N5  1  0.28200000  0.00000000  0.08270000  1.0 -0.4199564853
N  N6  1  0.28200000  0.28200000  0.58270000  1.0 -0.4199564853
N  N7  1  0.71800000  0.00000000  0.91730000  1.0 -0.4199564853
N  N8  1  0.71800000  0.71800000  0.41730000  1.0 -0.4199564853
N  N9  1  0.00000000  0.71800000  0.91730000  1.0 -0.4199564853
N  N10  1  0.28200000  0.00000000  0.41730000  1.0 -0.4199564853
N  N11  1  0.28200000  0.28200000  0.91730000  1.0 -0.4199564853
N  N12  1  0.00000000  0.28200000  0.41730000  1.0 -0.4199564853
N  N13  1  0.00000000  0.32350000  0.99940000  1.0 -0.1694030959
N  N14  1  0.67650000  0.00000000  0.49940000  1.0 -0.1694030959
N  N15  1  0.67650000  0.67650000  0.99940000  1.0 -0.1694030959
N  N16  1  0.00000000  0.67650000  0.49940000  1.0 -0.1694030959
N  N17  1  0.32350000  0.00000000  0.99940000  1.0 -0.1694030959
N  N18  1  0.32350000  0.32350000  0.49940000  1.0 -0.1694030959
N  N19  1  0.67650000  0.00000000  0.00060000  1.0 -0.1694030959
N  N20  1  0.67650000  0.67650000  0.50060000  1.0 -0.1694030959
N  N21  1  0.00000000  0.67650000  0.00060000  1.0 -0.1694030959
N  N22  1  0.32350000  0.00000000  0.50060000  1.0 -0.1694030959
N  N23  1  0.32350000  0.32350000  0.00060000  1.0 -0.1694030959
N  N24  1  0.00000000  0.32350000  0.50060000  1.0 -0.1694030959
N  N25  1  0.00000000  0.38380000  0.03230000  1.0 -0.3004068482
N  N26  1  0.61620000  0.00000000  0.53230000  1.0 -0.3004068482
N  N27  1  0.61620000  0.61620000  0.03230000  1.0 -0.3004068482
N  N28  1  0.00000000  0.61620000  0.53230000  1.0 -0.3004068482
N  N29  1  0.38380000  0.00000000  0.03230000  1.0 -0.3004068482
N  N30  1  0.38380000  0.38380000  0.53230000  1.0 -0.3004068482
N  N31  1  0.61620000  0.00000000  0.96770000  1.0 -0.3004068482
N  N32  1  0.61620000  0.61620000  0.46770000  1.0 -0.3004068482
N  N33  1  0.00000000  0.61620000  0.96770000  1.0 -0.3004068482
N  N34  1  0.38380000  0.00000000  0.46770000  1.0 -0.3004068482
N  N35  1  0.38380000  0.38380000  0.96770000  1.0 -0.3004068482
N  N36  1  0.00000000  0.38380000  0.46770000  1.0 -0.3004068482
N  N37  1  0.00000000  0.39900000  0.12810000  1.0 -0.6436319896
N  N38  1  0.60100000  0.00000000  0.62810000  1.0 -0.6436319896
N  N39  1  0.60100000  0.60100000  0.12810000  1.0 -0.6436319896
N  N40  1  0.00000000  0.60100000  0.62810000  1.0 -0.6436319896
N  N41  1  0.39900000  0.00000000  0.12810000  1.0 -0.6436319896
N  N42  1  0.39900000  0.39900000  0.62810000  1.0 -0.6436319896
N  N43  1  0.60100000  0.00000000  0.87190000  1.0 -0.6436319896
N  N44  1  0.60100000  0.60100000  0.37190000  1.0 -0.6436319896
N  N45  1  0.00000000  0.60100000  0.87190000  1.0 -0.6436319896
N  N46  1  0.39900000  0.00000000  0.37190000  1.0 -0.6436319896
N  N47  1  0.39900000  0.39900000  0.87190000  1.0 -0.6436319896
N  N48  1  0.00000000  0.39900000  0.37190000  1.0 -0.6436319896
N  N49  1  0.09770000  0.51950000  0.94360000  1.0 -0.1865228457
N  N50  1  0.57820000  0.09770000  0.44360000  1.0 -0.1865228457
N  N51  1  0.48050000  0.57820000  0.94360000  1.0 -0.1865228457
N  N52  1  0.90230000  0.48050000  0.44360000  1.0 -0.1865228457
N  N53  1  0.42180000  0.90230000  0.94360000  1.0 -0.1865228457
N  N54  1  0.51950000  0.42180000  0.44360000  1.0 -0.1865228457
N  N55  1  0.48050000  0.90230000  0.05640000  1.0 -0.1865228457
N  N56  1  0.57820000  0.48050000  0.55640000  1.0 -0.1865228457
N  N57  1  0.09770000  0.57820000  0.05640000  1.0 -0.1865228457
N  N58  1  0.51950000  0.09770000  0.55640000  1.0 -0.1865228457
N  N59  1  0.42180000  0.51950000  0.05640000  1.0 -0.1865228457
N  N60  1  0.90230000  0.42180000  0.55640000  1.0 -0.1865228457
N  N61  1  0.90230000  0.48050000  0.05640000  1.0 -0.1865228457
N  N62  1  0.42180000  0.90230000  0.55640000  1.0 -0.1865228457
N  N63  1  0.51950000  0.42180000  0.05640000  1.0 -0.1865228457
N  N64  1  0.09770000  0.51950000  0.55640000  1.0 -0.1865228457
N  N65  1  0.57820000  0.09770000  0.05640000  1.0 -0.1865228457
N  N66  1  0.48050000  0.57820000  0.55640000  1.0 -0.1865228457
N  N67  1  0.51950000  0.09770000  0.94360000  1.0 -0.1865228457
N  N68  1  0.42180000  0.51950000  0.44360000  1.0 -0.1865228457
N  N69  1  0.90230000  0.42180000  0.94360000  1.0 -0.1865228457
N  N70  1  0.48050000  0.90230000  0.44360000  1.0 -0.1865228457
N  N71  1  0.57820000  0.48050000  0.94360000  1.0 -0.1865228457
N  N72  1  0.09770000  0.57820000  0.44360000  1.0 -0.1865228457
N  N73  1  0.21910000  0.58040000  0.89570000  1.0 -0.4624951269
N  N74  1  0.63870000  0.21910000  0.39570000  1.0 -0.4624951269
N  N75  1  0.41960000  0.63870000  0.89570000  1.0 -0.4624951269
N  N76  1  0.78090000  0.41960000  0.39570000  1.0 -0.4624951269
N  N77  1  0.36130000  0.78090000  0.89570000  1.0 -0.4624951269
N  N78  1  0.58040000  0.36130000  0.39570000  1.0 -0.4624951269
N  N79  1  0.41960000  0.78090000  0.10430000  1.0 -0.4624951269
N  N80  1  0.63870000  0.41960000  0.60430000  1.0 -0.4624951269
N  N81  1  0.21910000  0.63870000  0.10430000  1.0 -0.4624951269
N  N82  1  0.58040000  0.21910000  0.60430000  1.0 -0.4624951269
N  N83  1  0.36130000  0.58040000  0.10430000  1.0 -0.4624951269
N  N84  1  0.78090000  0.36130000  0.60430000  1.0 -0.4624951269
N  N85  1  0.78090000  0.41960000  0.10430000  1.0 -0.4624951269
N  N86  1  0.36130000  0.78090000  0.60430000  1.0 -0.4624951269
N  N87  1  0.58040000  0.36130000  0.10430000  1.0 -0.4624951269
N  N88  1  0.21910000  0.58040000  0.60430000  1.0 -0.4624951269
N  N89  1  0.63870000  0.21910000  0.10430000  1.0 -0.4624951269
N  N90  1  0.41960000  0.63870000  0.60430000  1.0 -0.4624951269
N  N91  1  0.58040000  0.21910000  0.89570000  1.0 -0.4624951269
N  N92  1  0.36130000  0.58040000  0.39570000  1.0 -0.4624951269
N  N93  1  0.78090000  0.36130000  0.89570000  1.0 -0.4624951269
N  N94  1  0.41960000  0.78090000  0.39570000  1.0 -0.4624951269
N  N95  1  0.63870000  0.41960000  0.89570000  1.0 -0.4624951269
N  N96  1  0.21910000  0.63870000  0.39570000  1.0 -0.4624951269
N  N97  1  0.10060000  0.45560000  0.91290000  1.0 -0.2906194328
N  N98  1  0.64500000  0.10060000  0.41290000  1.0 -0.2906194328
N  N99  1  0.54440000  0.64500000  0.91290000  1.0 -0.2906194328
N  N100  1  0.89940000  0.54440000  0.41290000  1.0 -0.2906194328
N  N101  1  0.35500000  0.89940000  0.91290000  1.0 -0.2906194328
N  N102  1  0.45560000  0.35500000  0.41290000  1.0 -0.2906194328
N  N103  1  0.54440000  0.89940000  0.08710000  1.0 -0.2906194328
N  N104  1  0.64500000  0.54440000  0.58710000  1.0 -0.2906194328
N  N105  1  0.10060000  0.64500000  0.08710000  1.0 -0.2906194328
N  N106  1  0.45560000  0.10060000  0.58710000  1.0 -0.2906194328
N  N107  1  0.35500000  0.45560000  0.08710000  1.0 -0.2906194328
N  N108  1  0.89940000  0.35500000  0.58710000  1.0 -0.2906194328
N  N109  1  0.89940000  0.54440000  0.08710000  1.0 -0.2906194328
N  N110  1  0.35500000  0.89940000  0.58710000  1.0 -0.2906194328
N  N111  1  0.45560000  0.35500000  0.08710000  1.0 -0.2906194328
N  N112  1  0.10060000  0.45560000  0.58710000  1.0 -0.2906194328
N  N113  1  0.64500000  0.10060000  0.08710000  1.0 -0.2906194328
N  N114  1  0.54440000  0.64500000  0.58710000  1.0 -0.2906194328
N  N115  1  0.45560000  0.10060000  0.91290000  1.0 -0.2906194328
N  N116  1  0.35500000  0.45560000  0.41290000  1.0 -0.2906194328
N  N117  1  0.89940000  0.35500000  0.91290000  1.0 -0.2906194328
N  N118  1  0.54440000  0.89940000  0.41290000  1.0 -0.2906194328
N  N119  1  0.64500000  0.54440000  0.91290000  1.0 -0.2906194328
N  N120  1  0.10060000  0.64500000  0.41290000  1.0 -0.2906194328
N  N121  1  0.20340000  0.45660000  0.85300000  1.0 -0.5972848831
N  N122  1  0.74680000  0.20340000  0.35300000  1.0 -0.5972848831
N  N123  1  0.54340000  0.74680000  0.85300000  1.0 -0.5972848831
N  N124  1  0.79660000  0.54340000  0.35300000  1.0 -0.5972848831
N  N125  1  0.25320000  0.79660000  0.85300000  1.0 -0.5972848831
N  N126  1  0.45660000  0.25320000  0.35300000  1.0 -0.5972848831
N  N127  1  0.54340000  0.79660000  0.14700000  1.0 -0.5972848831
N  N128  1  0.74680000  0.54340000  0.64700000  1.0 -0.5972848831
N  N129  1  0.20340000  0.74680000  0.14700000  1.0 -0.5972848831
N  N130  1  0.45660000  0.20340000  0.64700000  1.0 -0.5972848831
N  N131  1  0.25320000  0.45660000  0.14700000  1.0 -0.5972848831
N  N132  1  0.79660000  0.25320000  0.64700000  1.0 -0.5972848831
N  N133  1  0.79660000  0.54340000  0.14700000  1.0 -0.5972848831
N  N134  1  0.25320000  0.79660000  0.64700000  1.0 -0.5972848831
N  N135  1  0.45660000  0.25320000  0.14700000  1.0 -0.5972848831
N  N136  1  0.20340000  0.45660000  0.64700000  1.0 -0.5972848831
N  N137  1  0.74680000  0.20340000  0.14700000  1.0 -0.5972848831
N  N138  1  0.54340000  0.74680000  0.64700000  1.0 -0.5972848831
N  N139  1  0.45660000  0.20340000  0.85300000  1.0 -0.5972848831
N  N140  1  0.25320000  0.45660000  0.35300000  1.0 -0.5972848831
N  N141  1  0.79660000  0.25320000  0.85300000  1.0 -0.5972848831
N  N142  1  0.54340000  0.79660000  0.35300000  1.0 -0.5972848831
N  N143  1  0.74680000  0.54340000  0.85300000  1.0 -0.5972848831
N  N144  1  0.20340000  0.74680000  0.35300000  1.0 -0.5972848831
Cl  Cl1  1  0.00000000  0.00000000  0.25000000  1.0 -0.7640900362
Cl  Cl2  1  0.00000000  0.00000000  0.75000000  1.0 -0.7640900362
Cl  Cl3  1  0.00000000  0.00000000  0.00000000  1.0 -0.7479749668
Cl  Cl4  1  0.00000000  0.00000000  0.50000000  1.0 -0.7479749668
Cl  Cl5  1  0.00000000  0.33720000  0.81940000  1.0 -0.5283828724
Cl  Cl6  1  0.66280000  0.00000000  0.31940000  1.0 -0.5283828724
Cl  Cl7  1  0.66280000  0.66280000  0.81940000  1.0 -0.5283828724
Cl  Cl8  1  0.00000000  0.66280000  0.31940000  1.0 -0.5283828724
Cl  Cl9  1  0.33720000  0.00000000  0.81940000  1.0 -0.5283828724
Cl  Cl10  1  0.33720000  0.33720000  0.31940000  1.0 -0.5283828724
Cl  Cl11  1  0.66280000  0.00000000  0.18060000  1.0 -0.5283828724
Cl  Cl12  1  0.66280000  0.66280000  0.68060000  1.0 -0.5283828724
Cl  Cl13  1  0.00000000  0.66280000  0.18060000  1.0 -0.5283828724
Cl  Cl14  1  0.33720000  0.00000000  0.68060000  1.0 -0.5283828724
Cl  Cl15  1  0.33720000  0.33720000  0.18060000  1.0 -0.5283828724
Cl  Cl16  1  0.00000000  0.33720000  0.68060000  1.0 -0.5283828724
O  O1  1  0.07970000  0.16480000  0.12380000  1.0 -0.5700558919
O  O2  1  0.91490000  0.07970000  0.62380000  1.0 -0.5700558919
O  O3  1  0.83520000  0.91490000  0.12380000  1.0 -0.5700558919
O  O4  1  0.92030000  0.83520000  0.62380000  1.0 -0.5700558919
O  O5  1  0.08510000  0.92030000  0.12380000  1.0 -0.5700558919
O  O6  1  0.16480000  0.08510000  0.62380000  1.0 -0.5700558919
O  O7  1  0.83520000  0.92030000  0.87620000  1.0 -0.5700558919
O  O8  1  0.91490000  0.83520000  0.37620000  1.0 -0.5700558919
O  O9  1  0.07970000  0.91490000  0.87620000  1.0 -0.5700558919
O  O10  1  0.16480000  0.07970000  0.37620000  1.0 -0.5700558919
O  O11  1  0.08510000  0.16480000  0.87620000  1.0 -0.5700558919
O  O12  1  0.92030000  0.08510000  0.37620000  1.0 -0.5700558919
O  O13  1  0.92030000  0.83520000  0.87620000  1.0 -0.5700558919
O  O14  1  0.08510000  0.92030000  0.37620000  1.0 -0.5700558919
O  O15  1  0.16480000  0.08510000  0.87620000  1.0 -0.5700558919
O  O16  1  0.07970000  0.16480000  0.37620000  1.0 -0.5700558919
O  O17  1  0.91490000  0.07970000  0.87620000  1.0 -0.5700558919
O  O18  1  0.83520000  0.91490000  0.37620000  1.0 -0.5700558919
O  O19  1  0.16480000  0.07970000  0.12380000  1.0 -0.5700558919
O  O20  1  0.08510000  0.16480000  0.62380000  1.0 -0.5700558919
O  O21  1  0.92030000  0.08510000  0.12380000  1.0 -0.5700558919
O  O22  1  0.83520000  0.92030000  0.62380000  1.0 -0.5700558919
O  O23  1  0.91490000  0.83520000  0.12380000  1.0 -0.5700558919
O  O24  1  0.07970000  0.91490000  0.62380000  1.0 -0.5700558919
O  O25  1  0.08650000  0.28050000  0.20620000  1.0 -0.4659120737
O  O26  1  0.80600000  0.08650000  0.70620000  1.0 -0.4659120737
O  O27  1  0.71950000  0.80600000  0.20620000  1.0 -0.4659120737
O  O28  1  0.91350000  0.71950000  0.70620000  1.0 -0.4659120737
O  O29  1  0.19400000  0.91350000  0.20620000  1.0 -0.4659120737
O  O30  1  0.28050000  0.19400000  0.70620000  1.0 -0.4659120737
O  O31  1  0.71950000  0.91350000  0.79380000  1.0 -0.4659120737
O  O32  1  0.80600000  0.71950000  0.29380000  1.0 -0.4659120737
O  O33  1  0.08650000  0.80600000  0.79380000  1.0 -0.4659120737
O  O34  1  0.28050000  0.08650000  0.29380000  1.0 -0.4659120737
O  O35  1  0.19400000  0.28050000  0.79380000  1.0 -0.4659120737
O  O36  1  0.91350000  0.19400000  0.29380000  1.0 -0.4659120737
O  O37  1  0.91350000  0.71950000  0.79380000  1.0 -0.4659120737
O  O38  1  0.19400000  0.91350000  0.29380000  1.0 -0.4659120737
O  O39  1  0.28050000  0.19400000  0.79380000  1.0 -0.4659120737
O  O40  1  0.08650000  0.28050000  0.29380000  1.0 -0.4659120737
O  O41  1  0.80600000  0.08650000  0.79380000  1.0 -0.4659120737
O  O42  1  0.71950000  0.80600000  0.29380000  1.0 -0.4659120737
O  O43  1  0.28050000  0.08650000  0.20620000  1.0 -0.4659120737
O  O44  1  0.19400000  0.28050000  0.70620000  1.0 -0.4659120737
O  O45  1  0.91350000  0.19400000  0.20620000  1.0 -0.4659120737
O  O46  1  0.71950000  0.91350000  0.70620000  1.0 -0.4659120737
O  O47  1  0.80600000  0.71950000  0.20620000  1.0 -0.4659120737
O  O48  1  0.08650000  0.80600000  0.70620000  1.0 -0.4659120737
O  O49  1  0.19580000  0.28220000  0.09830000  1.0 -0.4624951269
O  O50  1  0.91360000  0.19580000  0.59830000  1.0 -0.4624951269
O  O51  1  0.71780000  0.91360000  0.09830000  1.0 -0.4624951269
O  O52  1  0.80420000  0.71780000  0.59830000  1.0 -0.4624951269
O  O53  1  0.08640000  0.80420000  0.09830000  1.0 -0.4624951269
O  O54  1  0.28220000  0.08640000  0.59830000  1.0 -0.4624951269
O  O55  1  0.71780000  0.80420000  0.90170000  1.0 -0.4624951269
O  O56  1  0.91360000  0.71780000  0.40170000  1.0 -0.4624951269
O  O57  1  0.19580000  0.91360000  0.90170000  1.0 -0.4624951269
O  O58  1  0.28220000  0.19580000  0.40170000  1.0 -0.4624951269
O  O59  1  0.08640000  0.28220000  0.90170000  1.0 -0.4624951269
O  O60  1  0.80420000  0.08640000  0.40170000  1.0 -0.4624951269
O  O61  1  0.80420000  0.71780000  0.90170000  1.0 -0.4624951269
O  O62  1  0.08640000  0.80420000  0.40170000  1.0 -0.4624951269
O  O63  1  0.28220000  0.08640000  0.90170000  1.0 -0.4624951269
O  O64  1  0.19580000  0.28220000  0.40170000  1.0 -0.4624951269
O  O65  1  0.91360000  0.19580000  0.90170000  1.0 -0.4624951269
O  O66  1  0.71780000  0.91360000  0.40170000  1.0 -0.4624951269
O  O67  1  0.28220000  0.19580000  0.09830000  1.0 -0.4624951269
O  O68  1  0.08640000  0.28220000  0.59830000  1.0 -0.4624951269
O  O69  1  0.80420000  0.08640000  0.09830000  1.0 -0.4624951269
O  O70  1  0.71780000  0.80420000  0.59830000  1.0 -0.4624951269
O  O71  1  0.91360000  0.71780000  0.09830000  1.0 -0.4624951269
O  O72  1  0.19580000  0.91360000  0.59830000  1.0 -0.4624951269
