# DDEC6 charges by PACMAN v1.1 (https://github.com/mtap-research/PACMAN-charge/)
data_VODSEM_FSR_pacman
_symmetry_space_group_name_H-M   'P 1'
_cell_length_a   6.72400000
_cell_length_b   14.09600000
_cell_length_c   23.98400000
_cell_angle_alpha   90.00000000
_cell_angle_beta   90.00000000
_cell_angle_gamma   90.00000000
_symmetry_Int_Tables_number   1
_chemical_formula_structural   La(CO2)5
_chemical_formula_sum   'La8 C40 O80'
_cell_volume   2273.23959194
_cell_formula_units_Z   8
loop_
 _symmetry_equiv_pos_site_id
 _symmetry_equiv_pos_as_xyz
  1  'x, y, z'
loop_
 _atom_site_type_symbol
 _atom_site_label
 _atom_site_symmetry_multiplicity
 _atom_site_fract_x
 _atom_site_fract_y
 _atom_site_fract_z
 _atom_site_occupancy
 _atom_site_charge
La  La1  1  0.11769000  0.79411000  0.36601000  1.0 1.8691181285
La  La2  1  0.61769000  0.70589000  0.13399000  1.0 1.8691181285
La  La3  1  0.38231000  0.79411000  0.63399000  1.0 1.8691181285
La  La4  1  0.88231000  0.70589000  0.86601000  1.0 1.8691181285
La  La5  1  0.88231000  0.20589000  0.63399000  1.0 1.8691181285
La  La6  1  0.38231000  0.29411000  0.86601000  1.0 1.8691181285
La  La7  1  0.61769000  0.20589000  0.36601000  1.0 1.8691181285
La  La8  1  0.11769000  0.29411000  0.13399000  1.0 1.8691181285
C  C1  1  0.97550000  0.60890000  0.26750000  1.0 0.2388141049
C  C2  1  0.47550000  0.89110000  0.23250000  1.0 0.2388141049
C  C3  1  0.52450000  0.60890000  0.73250000  1.0 0.2388141049
C  C4  1  0.02450000  0.89110000  0.76750000  1.0 0.2388141049
C  C5  1  0.02450000  0.39110000  0.73250000  1.0 0.2388141049
C  C6  1  0.52450000  0.10890000  0.76750000  1.0 0.2388141049
C  C7  1  0.47550000  0.39110000  0.26750000  1.0 0.2388141049
C  C8  1  0.97550000  0.10890000  0.23250000  1.0 0.2388141049
C  C9  1  0.94340000  0.56640000  0.21240000  1.0 0.2015873125
C  C10  1  0.44340000  0.93360000  0.28760000  1.0 0.2015873125
C  C11  1  0.55660000  0.56640000  0.78760000  1.0 0.2015873125
C  C12  1  0.05660000  0.93360000  0.71240000  1.0 0.2015873125
C  C13  1  0.05660000  0.43360000  0.78760000  1.0 0.2015873125
C  C14  1  0.55660000  0.06640000  0.71240000  1.0 0.2015873125
C  C15  1  0.44340000  0.43360000  0.21240000  1.0 0.2015873125
C  C16  1  0.94340000  0.06640000  0.28760000  1.0 0.2015873125
C  C17  1  0.98480000  0.47310000  0.23380000  1.0 0.2015873125
C  C18  1  0.48480000  0.02690000  0.26620000  1.0 0.2015873125
C  C19  1  0.51520000  0.47310000  0.76620000  1.0 0.2015873125
C  C20  1  0.01520000  0.02690000  0.73380000  1.0 0.2015873125
C  C21  1  0.01520000  0.52690000  0.76620000  1.0 0.2015873125
C  C22  1  0.51520000  0.97310000  0.73380000  1.0 0.2015873125
C  C23  1  0.48480000  0.52690000  0.23380000  1.0 0.2015873125
C  C24  1  0.98480000  0.97310000  0.26620000  1.0 0.2015873125
C  C25  1  0.01060000  0.51290000  0.29050000  1.0 0.1906330777
C  C26  1  0.51060000  0.98710000  0.20950000  1.0 0.1906330777
C  C27  1  0.48940000  0.51290000  0.70950000  1.0 0.1906330777
C  C28  1  0.98940000  0.98710000  0.79050000  1.0 0.1906330777
C  C29  1  0.98940000  0.48710000  0.70950000  1.0 0.1906330777
C  C30  1  0.48940000  0.01290000  0.79050000  1.0 0.1906330777
C  C31  1  0.51060000  0.48710000  0.29050000  1.0 0.1906330777
C  C32  1  0.01060000  0.01290000  0.20950000  1.0 0.1906330777
C  C33  1  0.14040000  0.79650000  0.50860000  1.0 0.5343518598
C  C34  1  0.64040000  0.70350000  0.99140000  1.0 0.5343518598
C  C35  1  0.35960000  0.79650000  0.49140000  1.0 0.5343518598
C  C36  1  0.85960000  0.70350000  0.00860000  1.0 0.5343518598
C  C37  1  0.85960000  0.20350000  0.49140000  1.0 0.5343518598
C  C38  1  0.35960000  0.29650000  0.00860000  1.0 0.5343518598
C  C39  1  0.64040000  0.20350000  0.50860000  1.0 0.5343518598
C  C40  1  0.14040000  0.29650000  0.99140000  1.0 0.5343518598
O  O1  1  0.97520000  0.69140000  0.28660000  1.0 -0.3888464229
O  O2  1  0.47520000  0.80860000  0.21340000  1.0 -0.3888464229
O  O3  1  0.52480000  0.69140000  0.71340000  1.0 -0.3888464229
O  O4  1  0.02480000  0.80860000  0.78660000  1.0 -0.3888464229
O  O5  1  0.02480000  0.30860000  0.71340000  1.0 -0.3888464229
O  O6  1  0.52480000  0.19140000  0.78660000  1.0 -0.3888464229
O  O7  1  0.47520000  0.30860000  0.28660000  1.0 -0.3888464229
O  O8  1  0.97520000  0.19140000  0.21340000  1.0 -0.3888464229
O  O9  1  0.89520000  0.59650000  0.16470000  1.0 -0.3842016416
O  O10  1  0.39520000  0.90350000  0.33530000  1.0 -0.3842016416
O  O11  1  0.60480000  0.59650000  0.83530000  1.0 -0.3842016416
O  O12  1  0.10480000  0.90350000  0.66470000  1.0 -0.3842016416
O  O13  1  0.10480000  0.40350000  0.83530000  1.0 -0.3842016416
O  O14  1  0.60480000  0.09650000  0.66470000  1.0 -0.3842016416
O  O15  1  0.39520000  0.40350000  0.16470000  1.0 -0.3842016416
O  O16  1  0.89520000  0.09650000  0.33530000  1.0 -0.3842016416
O  O17  1  0.99410000  0.39060000  0.21420000  1.0 -0.426778126
O  O18  1  0.49410000  0.10940000  0.28580000  1.0 -0.426778126
O  O19  1  0.50590000  0.39060000  0.78580000  1.0 -0.426778126
O  O20  1  0.00590000  0.10940000  0.71420000  1.0 -0.426778126
O  O21  1  0.00590000  0.60940000  0.78580000  1.0 -0.426778126
O  O22  1  0.50590000  0.89060000  0.71420000  1.0 -0.426778126
O  O23  1  0.49410000  0.60940000  0.21420000  1.0 -0.426778126
O  O24  1  0.99410000  0.89060000  0.28580000  1.0 -0.426778126
O  O25  1  0.04490000  0.47940000  0.33740000  1.0 -0.1628621848
O  O26  1  0.54490000  0.02060000  0.16260000  1.0 -0.1628621848
O  O27  1  0.45510000  0.47940000  0.66260000  1.0 -0.1628621848
O  O28  1  0.95510000  0.02060000  0.83740000  1.0 -0.1628621848
O  O29  1  0.95510000  0.52060000  0.66260000  1.0 -0.1628621848
O  O30  1  0.45510000  0.97940000  0.83740000  1.0 -0.1628621848
O  O31  1  0.54490000  0.52060000  0.33740000  1.0 -0.1628621848
O  O32  1  0.04490000  0.97940000  0.16260000  1.0 -0.1628621848
O  O33  1  0.01240000  0.79410000  0.47080000  1.0 -0.4919848511
O  O34  1  0.51240000  0.70590000  0.02920000  1.0 -0.4919848511
O  O35  1  0.48760000  0.79410000  0.52920000  1.0 -0.4919848511
O  O36  1  0.98760000  0.70590000  0.97080000  1.0 -0.4919848511
O  O37  1  0.98760000  0.20590000  0.52920000  1.0 -0.4919848511
O  O38  1  0.48760000  0.29410000  0.97080000  1.0 -0.4919848511
O  O39  1  0.51240000  0.20590000  0.47080000  1.0 -0.4919848511
O  O40  1  0.01240000  0.29410000  0.02920000  1.0 -0.4919848511
O  O41  1  0.10570000  0.80060000  0.56025000  1.0 -0.4919848511
O  O42  1  0.60570000  0.69940000  0.93975000  1.0 -0.4919848511
O  O43  1  0.39430000  0.80060000  0.43975000  1.0 -0.4919848511
O  O44  1  0.89430000  0.69940000  0.06025000  1.0 -0.4919848511
O  O45  1  0.89430000  0.19940000  0.43975000  1.0 -0.4919848511
O  O46  1  0.39430000  0.30060000  0.06025000  1.0 -0.4919848511
O  O47  1  0.60570000  0.19940000  0.56025000  1.0 -0.4919848511
O  O48  1  0.10570000  0.30060000  0.93975000  1.0 -0.4919848511
O  O49  1  0.41570000  0.70270000  0.31990000  1.0 -0.0124968334
O  O50  1  0.91570000  0.79730000  0.18010000  1.0 -0.0124968334
O  O51  1  0.08430000  0.70270000  0.68010000  1.0 -0.0124968334
O  O52  1  0.58430000  0.79730000  0.81990000  1.0 -0.0124968334
O  O53  1  0.58430000  0.29730000  0.68010000  1.0 -0.0124968334
O  O54  1  0.08430000  0.20270000  0.81990000  1.0 -0.0124968334
O  O55  1  0.91570000  0.29730000  0.31990000  1.0 -0.0124968334
O  O56  1  0.41570000  0.20270000  0.18010000  1.0 -0.0124968334
O  O57  1  0.11920000  0.62630000  0.40450000  1.0 -0.4720009784
O  O58  1  0.61920000  0.87370000  0.09550000  1.0 -0.4720009784
O  O59  1  0.38080000  0.62630000  0.59550000  1.0 -0.4720009784
O  O60  1  0.88080000  0.87370000  0.90450000  1.0 -0.4720009784
O  O61  1  0.88080000  0.37370000  0.59550000  1.0 -0.4720009784
O  O62  1  0.38080000  0.12630000  0.90450000  1.0 -0.4720009784
O  O63  1  0.61920000  0.37370000  0.40450000  1.0 -0.4720009784
O  O64  1  0.11920000  0.12630000  0.09550000  1.0 -0.4720009784
O  O65  1  0.74780000  0.78100000  0.37900000  1.0 -0.1879809345
O  O66  1  0.24780000  0.71900000  0.12100000  1.0 -0.1879809345
O  O67  1  0.75220000  0.78100000  0.62100000  1.0 -0.1879809345
O  O68  1  0.25220000  0.71900000  0.87900000  1.0 -0.1879809345
O  O69  1  0.25220000  0.21900000  0.62100000  1.0 -0.1879809345
O  O70  1  0.75220000  0.28100000  0.87900000  1.0 -0.1879809345
O  O71  1  0.24780000  0.21900000  0.37900000  1.0 -0.1879809345
O  O72  1  0.74780000  0.28100000  0.12100000  1.0 -0.1879809345
O  O73  1  0.03860000  0.96130000  0.40640000  1.0 -0.2169549721
O  O74  1  0.53860000  0.53870000  0.09360000  1.0 -0.2169549721
O  O75  1  0.46140000  0.96130000  0.59360000  1.0 -0.2169549721
O  O76  1  0.96140000  0.53870000  0.90640000  1.0 -0.2169549721
O  O77  1  0.96140000  0.03870000  0.59360000  1.0 -0.2169549721
O  O78  1  0.46140000  0.46130000  0.90640000  1.0 -0.2169549721
O  O79  1  0.53860000  0.03870000  0.40640000  1.0 -0.2169549721
O  O80  1  0.03860000  0.46130000  0.09360000  1.0 -0.2169549721
