# DDEC6 charges by PACMAN v1.1 (https://github.com/mtap-research/PACMAN-charge/)
data_VOFFED_ASR_pacman
_symmetry_space_group_name_H-M   'P 1'
_cell_length_a   15.94500000
_cell_length_b   16.47380000
_cell_length_c   30.80200000
_cell_angle_alpha   90.00000000
_cell_angle_beta   90.00000000
_cell_angle_gamma   90.00000000
_symmetry_Int_Tables_number   1
_chemical_formula_structural   Cu3H58C68S2(N4O7)2
_chemical_formula_sum   'Cu12 H232 C272 S8 N32 O56'
_cell_volume   8090.90737228
_cell_formula_units_Z   4
loop_
 _symmetry_equiv_pos_site_id
 _symmetry_equiv_pos_as_xyz
  1  'x, y, z'
loop_
 _atom_site_type_symbol
 _atom_site_label
 _atom_site_symmetry_multiplicity
 _atom_site_fract_x
 _atom_site_fract_y
 _atom_site_fract_z
 _atom_site_occupancy
 _atom_site_charge
Cu  Cu1  1  0.00000000  0.16274000  0.25000000  1.0 0.7643185674
Cu  Cu2  1  0.00000000  0.33726000  0.75000000  1.0 0.7643185674
Cu  Cu3  1  0.00000000  0.83726000  0.75000000  1.0 0.7643185674
Cu  Cu4  1  0.00000000  0.66274000  0.25000000  1.0 0.7643185674
Cu  Cu5  1  0.50000000  0.97636000  0.25000000  1.0 0.674122852
Cu  Cu6  1  0.50000000  0.52364000  0.75000000  1.0 0.674122852
Cu  Cu7  1  0.50000000  0.02364000  0.75000000  1.0 0.674122852
Cu  Cu8  1  0.50000000  0.47636000  0.25000000  1.0 0.674122852
Cu  Cu9  1  0.00000000  0.50000000  0.50000000  1.0 0.714348775
Cu  Cu10  1  0.00000000  0.50000000  0.00000000  1.0 0.714348775
Cu  Cu11  1  0.00000000  0.00000000  0.50000000  1.0 0.714348775
Cu  Cu12  1  0.00000000  0.00000000  0.00000000  1.0 0.714348775
H  H1  1  0.76360000  0.38670000  0.28520000  1.0 0.1277162614
H  H2  1  0.23640000  0.38670000  0.21480000  1.0 0.1277162614
H  H3  1  0.76360000  0.11330000  0.71480000  1.0 0.1277162614
H  H4  1  0.23640000  0.11330000  0.78520000  1.0 0.1277162614
H  H5  1  0.23640000  0.61330000  0.71480000  1.0 0.1277162614
H  H6  1  0.76360000  0.61330000  0.78520000  1.0 0.1277162614
H  H7  1  0.23640000  0.88670000  0.28520000  1.0 0.1277162614
H  H8  1  0.76360000  0.88670000  0.21480000  1.0 0.1277162614
H  H9  1  0.81390000  0.50960000  0.39530000  1.0 0.1378210618
H  H10  1  0.18610000  0.50960000  0.10470000  1.0 0.1378210618
H  H11  1  0.81390000  0.99040000  0.60470000  1.0 0.1378210618
H  H12  1  0.18610000  0.99040000  0.89530000  1.0 0.1378210618
H  H13  1  0.18610000  0.49040000  0.60470000  1.0 0.1378210618
H  H14  1  0.81390000  0.49040000  0.89530000  1.0 0.1378210618
H  H15  1  0.18610000  0.00960000  0.39530000  1.0 0.1378210618
H  H16  1  0.81390000  0.00960000  0.10470000  1.0 0.1378210618
H  H17  1  0.97730000  0.34010000  0.35220000  1.0 0.1277162614
H  H18  1  0.02270000  0.34010000  0.14780000  1.0 0.1277162614
H  H19  1  0.97730000  0.15990000  0.64780000  1.0 0.1277162614
H  H20  1  0.02270000  0.15990000  0.85220000  1.0 0.1277162614
H  H21  1  0.02270000  0.65990000  0.64780000  1.0 0.1277162614
H  H22  1  0.97730000  0.65990000  0.85220000  1.0 0.1277162614
H  H23  1  0.02270000  0.84010000  0.35220000  1.0 0.1277162614
H  H24  1  0.97730000  0.84010000  0.14780000  1.0 0.1277162614
H  H25  1  0.97140000  0.13400000  0.34410000  1.0 0.1185868213
H  H26  1  0.02860000  0.13400000  0.15590000  1.0 0.1185868213
H  H27  1  0.97140000  0.36600000  0.65590000  1.0 0.1185868213
H  H28  1  0.02860000  0.36600000  0.84410000  1.0 0.1185868213
H  H29  1  0.02860000  0.86600000  0.65590000  1.0 0.1185868213
H  H30  1  0.97140000  0.86600000  0.84410000  1.0 0.1185868213
H  H31  1  0.02860000  0.63400000  0.34410000  1.0 0.1185868213
H  H32  1  0.97140000  0.63400000  0.15590000  1.0 0.1185868213
H  H33  1  0.83350000  0.91700000  0.28490000  1.0 0.1581557356
H  H34  1  0.16650000  0.91700000  0.21510000  1.0 0.1581557356
H  H35  1  0.83350000  0.58300000  0.71510000  1.0 0.1581557356
H  H36  1  0.16650000  0.58300000  0.78490000  1.0 0.1581557356
H  H37  1  0.16650000  0.08300000  0.71510000  1.0 0.1581557356
H  H38  1  0.83350000  0.08300000  0.78490000  1.0 0.1581557356
H  H39  1  0.16650000  0.41700000  0.28490000  1.0 0.1581557356
H  H40  1  0.83350000  0.41700000  0.21510000  1.0 0.1581557356
H  H41  1  0.89830000  0.04850000  0.38870000  1.0 0.1277162614
H  H42  1  0.10170000  0.04850000  0.11130000  1.0 0.1277162614
H  H43  1  0.89830000  0.45150000  0.61130000  1.0 0.1277162614
H  H44  1  0.10170000  0.45150000  0.88870000  1.0 0.1277162614
H  H45  1  0.10170000  0.95150000  0.61130000  1.0 0.1277162614
H  H46  1  0.89830000  0.95150000  0.88870000  1.0 0.1277162614
H  H47  1  0.10170000  0.54850000  0.38870000  1.0 0.1277162614
H  H48  1  0.89830000  0.54850000  0.11130000  1.0 0.1277162614
H  H49  1  0.74390000  0.93620000  0.36760000  1.0 0.1117447737
H  H50  1  0.25610000  0.93620000  0.13240000  1.0 0.1117447737
H  H51  1  0.74390000  0.56380000  0.63240000  1.0 0.1117447737
H  H52  1  0.25610000  0.56380000  0.86760000  1.0 0.1117447737
H  H53  1  0.25610000  0.06380000  0.63240000  1.0 0.1117447737
H  H54  1  0.74390000  0.06380000  0.86760000  1.0 0.1117447737
H  H55  1  0.25610000  0.43620000  0.36760000  1.0 0.1117447737
H  H56  1  0.74390000  0.43620000  0.13240000  1.0 0.1117447737
H  H57  1  0.82010000  0.92970000  0.40110000  1.0 0.1185868213
H  H58  1  0.17990000  0.92970000  0.09890000  1.0 0.1185868213
H  H59  1  0.82010000  0.57030000  0.59890000  1.0 0.1185868213
H  H60  1  0.17990000  0.57030000  0.90110000  1.0 0.1185868213
H  H61  1  0.17990000  0.07030000  0.59890000  1.0 0.1185868213
H  H62  1  0.82010000  0.07030000  0.90110000  1.0 0.1185868213
H  H63  1  0.17990000  0.42970000  0.40110000  1.0 0.1185868213
H  H64  1  0.82010000  0.42970000  0.09890000  1.0 0.1185868213
H  H65  1  0.82340000  0.82080000  0.33030000  1.0 0.1117447737
H  H66  1  0.17660000  0.82080000  0.16970000  1.0 0.1117447737
H  H67  1  0.82340000  0.67920000  0.66970000  1.0 0.1117447737
H  H68  1  0.17660000  0.67920000  0.83030000  1.0 0.1117447737
H  H69  1  0.17660000  0.17920000  0.66970000  1.0 0.1117447737
H  H70  1  0.82340000  0.17920000  0.83030000  1.0 0.1117447737
H  H71  1  0.17660000  0.32080000  0.33030000  1.0 0.1117447737
H  H72  1  0.82340000  0.32080000  0.16970000  1.0 0.1117447737
H  H73  1  0.85750000  0.80620000  0.37840000  1.0 0.1117447737
H  H74  1  0.14250000  0.80620000  0.12160000  1.0 0.1117447737
H  H75  1  0.85750000  0.69380000  0.62160000  1.0 0.1117447737
H  H76  1  0.14250000  0.69380000  0.87840000  1.0 0.1117447737
H  H77  1  0.14250000  0.19380000  0.62160000  1.0 0.1117447737
H  H78  1  0.85750000  0.19380000  0.87840000  1.0 0.1117447737
H  H79  1  0.14250000  0.30620000  0.37840000  1.0 0.1117447737
H  H80  1  0.85750000  0.30620000  0.12160000  1.0 0.1117447737
H  H81  1  0.74030000  0.72190000  0.36640000  1.0 0.1277162614
H  H82  1  0.25970000  0.72190000  0.13360000  1.0 0.1277162614
H  H83  1  0.74030000  0.77810000  0.63360000  1.0 0.1277162614
H  H84  1  0.25970000  0.77810000  0.86640000  1.0 0.1277162614
H  H85  1  0.25970000  0.27810000  0.63360000  1.0 0.1277162614
H  H86  1  0.74030000  0.27810000  0.86640000  1.0 0.1277162614
H  H87  1  0.25970000  0.22190000  0.36640000  1.0 0.1277162614
H  H88  1  0.74030000  0.22190000  0.13360000  1.0 0.1277162614
H  H89  1  0.71690000  0.78700000  0.40330000  1.0 0.1117447737
H  H90  1  0.28310000  0.78700000  0.09670000  1.0 0.1117447737
H  H91  1  0.71690000  0.71300000  0.59670000  1.0 0.1117447737
H  H92  1  0.28310000  0.71300000  0.90330000  1.0 0.1117447737
H  H93  1  0.28310000  0.21300000  0.59670000  1.0 0.1117447737
H  H94  1  0.71690000  0.21300000  0.90330000  1.0 0.1117447737
H  H95  1  0.28310000  0.28700000  0.40330000  1.0 0.1117447737
H  H96  1  0.71690000  0.28700000  0.09670000  1.0 0.1117447737
H  H97  1  0.69750000  0.75840000  0.28800000  1.0 0.1581557356
H  H98  1  0.30250000  0.75840000  0.21200000  1.0 0.1581557356
H  H99  1  0.69750000  0.74160000  0.71200000  1.0 0.1581557356
H  H100  1  0.30250000  0.74160000  0.78800000  1.0 0.1581557356
H  H101  1  0.30250000  0.24160000  0.71200000  1.0 0.1581557356
H  H102  1  0.69750000  0.24160000  0.78800000  1.0 0.1581557356
H  H103  1  0.30250000  0.25840000  0.28800000  1.0 0.1581557356
H  H104  1  0.69750000  0.25840000  0.21200000  1.0 0.1581557356
H  H105  1  0.60580000  0.82640000  0.24380000  1.0 0.1117447737
H  H106  1  0.39420000  0.82640000  0.25620000  1.0 0.1117447737
H  H107  1  0.60580000  0.67360000  0.75620000  1.0 0.1117447737
H  H108  1  0.39420000  0.67360000  0.74380000  1.0 0.1117447737
H  H109  1  0.39420000  0.17360000  0.75620000  1.0 0.1117447737
H  H110  1  0.60580000  0.17360000  0.74380000  1.0 0.1117447737
H  H111  1  0.39420000  0.32640000  0.24380000  1.0 0.1117447737
H  H112  1  0.60580000  0.32640000  0.25620000  1.0 0.1117447737
H  H113  1  0.50350000  0.93610000  0.34420000  1.0 0.1277162614
H  H114  1  0.49650000  0.93610000  0.15580000  1.0 0.1277162614
H  H115  1  0.50350000  0.56390000  0.65580000  1.0 0.1277162614
H  H116  1  0.49650000  0.56390000  0.84420000  1.0 0.1277162614
H  H117  1  0.49650000  0.06390000  0.65580000  1.0 0.1277162614
H  H118  1  0.50350000  0.06390000  0.84420000  1.0 0.1277162614
H  H119  1  0.49650000  0.43610000  0.34420000  1.0 0.1277162614
H  H120  1  0.50350000  0.43610000  0.15580000  1.0 0.1277162614
H  H121  1  0.45320000  0.11930000  0.30380000  1.0 0.1185868213
H  H122  1  0.54680000  0.11930000  0.19620000  1.0 0.1185868213
H  H123  1  0.45320000  0.38070000  0.69620000  1.0 0.1185868213
H  H124  1  0.54680000  0.38070000  0.80380000  1.0 0.1185868213
H  H125  1  0.54680000  0.88070000  0.69620000  1.0 0.1185868213
H  H126  1  0.45320000  0.88070000  0.80380000  1.0 0.1185868213
H  H127  1  0.54680000  0.61930000  0.30380000  1.0 0.1185868213
H  H128  1  0.45320000  0.61930000  0.19620000  1.0 0.1185868213
H  H129  1  0.67250000  0.03130000  0.27200000  1.0 0.1185868213
H  H130  1  0.32750000  0.03130000  0.22800000  1.0 0.1185868213
H  H131  1  0.67250000  0.46870000  0.72800000  1.0 0.1185868213
H  H132  1  0.32750000  0.46870000  0.77200000  1.0 0.1185868213
H  H133  1  0.32750000  0.96870000  0.72800000  1.0 0.1185868213
H  H134  1  0.67250000  0.96870000  0.77200000  1.0 0.1185868213
H  H135  1  0.32750000  0.53130000  0.27200000  1.0 0.1185868213
H  H136  1  0.67250000  0.53130000  0.22800000  1.0 0.1185868213
H  H137  1  0.73690000  0.13460000  0.30920000  1.0 0.1378210618
H  H138  1  0.26310000  0.13460000  0.19080000  1.0 0.1378210618
H  H139  1  0.73690000  0.36540000  0.69080000  1.0 0.1378210618
H  H140  1  0.26310000  0.36540000  0.80920000  1.0 0.1378210618
H  H141  1  0.26310000  0.86540000  0.69080000  1.0 0.1378210618
H  H142  1  0.73690000  0.86540000  0.80920000  1.0 0.1378210618
H  H143  1  0.26310000  0.63460000  0.30920000  1.0 0.1378210618
H  H144  1  0.73690000  0.63460000  0.19080000  1.0 0.1378210618
H  H145  1  0.51200000  0.21650000  0.34640000  1.0 0.1490505567
H  H146  1  0.48800000  0.21650000  0.15360000  1.0 0.1490505567
H  H147  1  0.51200000  0.28350000  0.65360000  1.0 0.1490505567
H  H148  1  0.48800000  0.28350000  0.84640000  1.0 0.1490505567
H  H149  1  0.48800000  0.78350000  0.65360000  1.0 0.1490505567
H  H150  1  0.51200000  0.78350000  0.84640000  1.0 0.1490505567
H  H151  1  0.48800000  0.71650000  0.34640000  1.0 0.1490505567
H  H152  1  0.51200000  0.71650000  0.15360000  1.0 0.1490505567
H  H153  1  0.70110000  0.29000000  0.34030000  1.0 0.1378210618
H  H154  1  0.29890000  0.29000000  0.15970000  1.0 0.1378210618
H  H155  1  0.70110000  0.21000000  0.65970000  1.0 0.1378210618
H  H156  1  0.29890000  0.21000000  0.84030000  1.0 0.1378210618
H  H157  1  0.29890000  0.71000000  0.65970000  1.0 0.1378210618
H  H158  1  0.70110000  0.71000000  0.84030000  1.0 0.1378210618
H  H159  1  0.29890000  0.79000000  0.34030000  1.0 0.1378210618
H  H160  1  0.70110000  0.79000000  0.15970000  1.0 0.1378210618
H  H161  1  0.63090000  0.27840000  0.37670000  1.0 0.1378210618
H  H162  1  0.36910000  0.27840000  0.12330000  1.0 0.1378210618
H  H163  1  0.63090000  0.22160000  0.62330000  1.0 0.1378210618
H  H164  1  0.36910000  0.22160000  0.87670000  1.0 0.1378210618
H  H165  1  0.36910000  0.72160000  0.62330000  1.0 0.1378210618
H  H166  1  0.63090000  0.72160000  0.87670000  1.0 0.1378210618
H  H167  1  0.36910000  0.77840000  0.37670000  1.0 0.1378210618
H  H168  1  0.63090000  0.77840000  0.12330000  1.0 0.1378210618
H  H169  1  0.78120000  0.21740000  0.36840000  1.0 0.1185868213
H  H170  1  0.21880000  0.21740000  0.13160000  1.0 0.1185868213
H  H171  1  0.78120000  0.28260000  0.63160000  1.0 0.1185868213
H  H172  1  0.21880000  0.28260000  0.86840000  1.0 0.1185868213
H  H173  1  0.21880000  0.78260000  0.63160000  1.0 0.1185868213
H  H174  1  0.78120000  0.78260000  0.86840000  1.0 0.1185868213
H  H175  1  0.21880000  0.71740000  0.36840000  1.0 0.1185868213
H  H176  1  0.78120000  0.71740000  0.13160000  1.0 0.1185868213
H  H177  1  0.71110000  0.16700000  0.39310000  1.0 0.1117447737
H  H178  1  0.28890000  0.16700000  0.10690000  1.0 0.1117447737
H  H179  1  0.71110000  0.33300000  0.60690000  1.0 0.1117447737
H  H180  1  0.28890000  0.33300000  0.89310000  1.0 0.1117447737
H  H181  1  0.28890000  0.83300000  0.60690000  1.0 0.1117447737
H  H182  1  0.71110000  0.83300000  0.89310000  1.0 0.1117447737
H  H183  1  0.28890000  0.66700000  0.39310000  1.0 0.1117447737
H  H184  1  0.71110000  0.66700000  0.10690000  1.0 0.1117447737
H  H185  1  0.70160000  0.26770000  0.44600000  1.0 0.1185868213
H  H186  1  0.29840000  0.26770000  0.05400000  1.0 0.1185868213
H  H187  1  0.70160000  0.23230000  0.55400000  1.0 0.1185868213
H  H188  1  0.29840000  0.23230000  0.94600000  1.0 0.1185868213
H  H189  1  0.29840000  0.73230000  0.55400000  1.0 0.1185868213
H  H190  1  0.70160000  0.73230000  0.94600000  1.0 0.1185868213
H  H191  1  0.29840000  0.76770000  0.44600000  1.0 0.1185868213
H  H192  1  0.70160000  0.76770000  0.05400000  1.0 0.1185868213
H  H193  1  0.77120000  0.32030000  0.42070000  1.0 0.1277162614
H  H194  1  0.22880000  0.32030000  0.07930000  1.0 0.1277162614
H  H195  1  0.77120000  0.17970000  0.57930000  1.0 0.1277162614
H  H196  1  0.22880000  0.17970000  0.92070000  1.0 0.1277162614
H  H197  1  0.22880000  0.67970000  0.57930000  1.0 0.1277162614
H  H198  1  0.77120000  0.67970000  0.92070000  1.0 0.1277162614
H  H199  1  0.22880000  0.82030000  0.42070000  1.0 0.1277162614
H  H200  1  0.77120000  0.82030000  0.07930000  1.0 0.1277162614
H  H201  1  0.93170000  0.24810000  0.42900000  1.0 0.1666952042
H  H202  1  0.06830000  0.24810000  0.07100000  1.0 0.1666952042
H  H203  1  0.93170000  0.25190000  0.57100000  1.0 0.1666952042
H  H204  1  0.06830000  0.25190000  0.92900000  1.0 0.1666952042
H  H205  1  0.06830000  0.75190000  0.57100000  1.0 0.1666952042
H  H206  1  0.93170000  0.75190000  0.92900000  1.0 0.1666952042
H  H207  1  0.06830000  0.74810000  0.42900000  1.0 0.1666952042
H  H208  1  0.93170000  0.74810000  0.07100000  1.0 0.1666952042
H  H209  1  0.72630000  0.13180000  0.46470000  1.0 0.1378210618
H  H210  1  0.27370000  0.13180000  0.03530000  1.0 0.1378210618
H  H211  1  0.72630000  0.36820000  0.53530000  1.0 0.1378210618
H  H212  1  0.27370000  0.36820000  0.96470000  1.0 0.1378210618
H  H213  1  0.27370000  0.86820000  0.53530000  1.0 0.1378210618
H  H214  1  0.72630000  0.86820000  0.96470000  1.0 0.1378210618
H  H215  1  0.27370000  0.63180000  0.46470000  1.0 0.1378210618
H  H216  1  0.72630000  0.63180000  0.03530000  1.0 0.1378210618
H  H217  1  0.00490000  0.15620000  0.45970000  1.0 0.1277162614
H  H218  1  0.99510000  0.15620000  0.04030000  1.0 0.1277162614
H  H219  1  0.00490000  0.34380000  0.54030000  1.0 0.1277162614
H  H220  1  0.99510000  0.34380000  0.95970000  1.0 0.1277162614
H  H221  1  0.99510000  0.84380000  0.54030000  1.0 0.1277162614
H  H222  1  0.00490000  0.84380000  0.95970000  1.0 0.1277162614
H  H223  1  0.99510000  0.65620000  0.45970000  1.0 0.1277162614
H  H224  1  0.00490000  0.65620000  0.04030000  1.0 0.1277162614
H  H225  1  0.81520000  0.04000000  0.50580000  1.0 0.1185868213
H  H226  1  0.18480000  0.04000000  0.99420000  1.0 0.1185868213
H  H227  1  0.81520000  0.46000000  0.49420000  1.0 0.1185868213
H  H228  1  0.18480000  0.46000000  0.00580000  1.0 0.1185868213
H  H229  1  0.18480000  0.96000000  0.49420000  1.0 0.1185868213
H  H230  1  0.81520000  0.96000000  0.00580000  1.0 0.1185868213
H  H231  1  0.18480000  0.54000000  0.50580000  1.0 0.1185868213
H  H232  1  0.81520000  0.54000000  0.99420000  1.0 0.1185868213
C  C1  1  0.79960000  0.39680000  0.30910000  1.0 -0.1280195363
C  C2  1  0.20040000  0.39680000  0.19090000  1.0 -0.1280195363
C  C3  1  0.79960000  0.10320000  0.69090000  1.0 -0.1280195363
C  C4  1  0.20040000  0.10320000  0.80910000  1.0 -0.1280195363
C  C5  1  0.20040000  0.60320000  0.69090000  1.0 -0.1280195363
C  C6  1  0.79960000  0.60320000  0.80910000  1.0 -0.1280195363
C  C7  1  0.20040000  0.89680000  0.30910000  1.0 -0.1280195363
C  C8  1  0.79960000  0.89680000  0.19090000  1.0 -0.1280195363
C  C9  1  0.77850000  0.45480000  0.33940000  1.0 -0.0723322028
C  C10  1  0.22150000  0.45480000  0.16060000  1.0 -0.0723322028
C  C11  1  0.77850000  0.04520000  0.66060000  1.0 -0.0723322028
C  C12  1  0.22150000  0.04520000  0.83940000  1.0 -0.0723322028
C  C13  1  0.22150000  0.54520000  0.66060000  1.0 -0.0723322028
C  C14  1  0.77850000  0.54520000  0.83940000  1.0 -0.0723322028
C  C15  1  0.22150000  0.95480000  0.33940000  1.0 -0.0723322028
C  C16  1  0.77850000  0.95480000  0.16060000  1.0 -0.0723322028
C  C17  1  0.82990000  0.47020000  0.37440000  1.0 -0.1098195392
C  C18  1  0.17010000  0.47020000  0.12560000  1.0 -0.1098195392
C  C19  1  0.82990000  0.02980000  0.62560000  1.0 -0.1098195392
C  C20  1  0.17010000  0.02980000  0.87440000  1.0 -0.1098195392
C  C21  1  0.17010000  0.52980000  0.62560000  1.0 -0.1098195392
C  C22  1  0.82990000  0.52980000  0.87440000  1.0 -0.1098195392
C  C23  1  0.17010000  0.97020000  0.37440000  1.0 -0.1098195392
C  C24  1  0.82990000  0.97020000  0.12560000  1.0 -0.1098195392
C  C25  1  0.90490000  0.42860000  0.37930000  1.0 -0.027527952
C  C26  1  0.09510000  0.42860000  0.12070000  1.0 -0.027527952
C  C27  1  0.90490000  0.07140000  0.62070000  1.0 -0.027527952
C  C28  1  0.09510000  0.07140000  0.87930000  1.0 -0.027527952
C  C29  1  0.09510000  0.57140000  0.62070000  1.0 -0.027527952
C  C30  1  0.90490000  0.57140000  0.87930000  1.0 -0.027527952
C  C31  1  0.09510000  0.92860000  0.37930000  1.0 -0.027527952
C  C32  1  0.90490000  0.92860000  0.12070000  1.0 -0.027527952
C  C33  1  0.92640000  0.36940000  0.34890000  1.0 -0.1280195363
C  C34  1  0.07360000  0.36940000  0.15110000  1.0 -0.1280195363
C  C35  1  0.92640000  0.13060000  0.65110000  1.0 -0.1280195363
C  C36  1  0.07360000  0.13060000  0.84890000  1.0 -0.1280195363
C  C37  1  0.07360000  0.63060000  0.65110000  1.0 -0.1280195363
C  C38  1  0.92640000  0.63060000  0.84890000  1.0 -0.1280195363
C  C39  1  0.07360000  0.86940000  0.34890000  1.0 -0.1280195363
C  C40  1  0.92640000  0.86940000  0.15110000  1.0 -0.1280195363
C  C41  1  0.87400000  0.35280000  0.31370000  1.0 -0.0138090943
C  C42  1  0.12600000  0.35280000  0.18630000  1.0 -0.0138090943
C  C43  1  0.87400000  0.14720000  0.68630000  1.0 -0.0138090943
C  C44  1  0.12600000  0.14720000  0.81370000  1.0 -0.0138090943
C  C45  1  0.12600000  0.64720000  0.68630000  1.0 -0.0138090943
C  C46  1  0.87400000  0.64720000  0.81370000  1.0 -0.0138090943
C  C47  1  0.12600000  0.85280000  0.31370000  1.0 -0.0138090943
C  C48  1  0.87400000  0.85280000  0.18630000  1.0 -0.0138090943
C  C49  1  0.89410000  0.28670000  0.28150000  1.0 0.5398867025
C  C50  1  0.10590000  0.28670000  0.21850000  1.0 0.5398867025
C  C51  1  0.89410000  0.21330000  0.71850000  1.0 0.5398867025
C  C52  1  0.10590000  0.21330000  0.78150000  1.0 0.5398867025
C  C53  1  0.10590000  0.71330000  0.71850000  1.0 0.5398867025
C  C54  1  0.89410000  0.71330000  0.78150000  1.0 0.5398867025
C  C55  1  0.10590000  0.78670000  0.28150000  1.0 0.5398867025
C  C56  1  0.89410000  0.78670000  0.21850000  1.0 0.5398867025
C  C57  1  0.96030000  0.43890000  0.41770000  1.0 0.5398867025
C  C58  1  0.03970000  0.43890000  0.08230000  1.0 0.5398867025
C  C59  1  0.96030000  0.06110000  0.58230000  1.0 0.5398867025
C  C60  1  0.03970000  0.06110000  0.91770000  1.0 0.5398867025
C  C61  1  0.03970000  0.56110000  0.58230000  1.0 0.5398867025
C  C62  1  0.96030000  0.56110000  0.91770000  1.0 0.5398867025
C  C63  1  0.03970000  0.93890000  0.41770000  1.0 0.5398867025
C  C64  1  0.96030000  0.93890000  0.08230000  1.0 0.5398867025
C  C65  1  0.94200000  0.08970000  0.33150000  1.0 0.0588256222
C  C66  1  0.05800000  0.08970000  0.16850000  1.0 0.0588256222
C  C67  1  0.94200000  0.41030000  0.66850000  1.0 0.0588256222
C  C68  1  0.05800000  0.41030000  0.83150000  1.0 0.0588256222
C  C69  1  0.05800000  0.91030000  0.66850000  1.0 0.0588256222
C  C70  1  0.94200000  0.91030000  0.83150000  1.0 0.0588256222
C  C71  1  0.05800000  0.58970000  0.33150000  1.0 0.0588256222
C  C72  1  0.94200000  0.58970000  0.16850000  1.0 0.0588256222
C  C73  1  0.90280000  0.01540000  0.27060000  1.0 0.0588256222
C  C74  1  0.09720000  0.01540000  0.22940000  1.0 0.0588256222
C  C75  1  0.90280000  0.48460000  0.72940000  1.0 0.0588256222
C  C76  1  0.09720000  0.48460000  0.77060000  1.0 0.0588256222
C  C77  1  0.09720000  0.98460000  0.72940000  1.0 0.0588256222
C  C78  1  0.90280000  0.98460000  0.77060000  1.0 0.0588256222
C  C79  1  0.09720000  0.51540000  0.27060000  1.0 0.0588256222
C  C80  1  0.90280000  0.51540000  0.22940000  1.0 0.0588256222
C  C81  1  0.85580000  0.97280000  0.34160000  1.0 0.1945363401
C  C82  1  0.14420000  0.97280000  0.15840000  1.0 0.1945363401
C  C83  1  0.85580000  0.52720000  0.65840000  1.0 0.1945363401
C  C84  1  0.14420000  0.52720000  0.84160000  1.0 0.1945363401
C  C85  1  0.14420000  0.02720000  0.65840000  1.0 0.1945363401
C  C86  1  0.85580000  0.02720000  0.84160000  1.0 0.1945363401
C  C87  1  0.14420000  0.47280000  0.34160000  1.0 0.1945363401
C  C88  1  0.85580000  0.47280000  0.15840000  1.0 0.1945363401
C  C89  1  0.86060000  0.96260000  0.29750000  1.0 -0.211756009
C  C90  1  0.13940000  0.96260000  0.20250000  1.0 -0.211756009
C  C91  1  0.86060000  0.53740000  0.70250000  1.0 -0.211756009
C  C92  1  0.13940000  0.53740000  0.79750000  1.0 -0.211756009
C  C93  1  0.13940000  0.03740000  0.70250000  1.0 -0.211756009
C  C94  1  0.86060000  0.03740000  0.79750000  1.0 -0.211756009
C  C95  1  0.13940000  0.46260000  0.29750000  1.0 -0.211756009
C  C96  1  0.86060000  0.46260000  0.20250000  1.0 -0.211756009
C  C97  1  0.89880000  0.03870000  0.35830000  1.0 -0.211756009
C  C98  1  0.10120000  0.03870000  0.14170000  1.0 -0.211756009
C  C99  1  0.89880000  0.46130000  0.64170000  1.0 -0.211756009
C  C100  1  0.10120000  0.46130000  0.85830000  1.0 -0.211756009
C  C101  1  0.10120000  0.96130000  0.64170000  1.0 -0.211756009
C  C102  1  0.89880000  0.96130000  0.85830000  1.0 -0.211756009
C  C103  1  0.10120000  0.53870000  0.35830000  1.0 -0.211756009
C  C104  1  0.89880000  0.53870000  0.14170000  1.0 -0.211756009
C  C105  1  0.80330000  0.91980000  0.37060000  1.0 -0.246524352
C  C106  1  0.19670000  0.91980000  0.12940000  1.0 -0.246524352
C  C107  1  0.80330000  0.58020000  0.62940000  1.0 -0.246524352
C  C108  1  0.19670000  0.58020000  0.87060000  1.0 -0.246524352
C  C109  1  0.19670000  0.08020000  0.62940000  1.0 -0.246524352
C  C110  1  0.80330000  0.08020000  0.87060000  1.0 -0.246524352
C  C111  1  0.19670000  0.41980000  0.37060000  1.0 -0.246524352
C  C112  1  0.80330000  0.41980000  0.12940000  1.0 -0.246524352
C  C113  1  0.81020000  0.82850000  0.36140000  1.0 -0.1280195363
C  C114  1  0.18980000  0.82850000  0.13860000  1.0 -0.1280195363
C  C115  1  0.81020000  0.67150000  0.63860000  1.0 -0.1280195363
C  C116  1  0.18980000  0.67150000  0.86140000  1.0 -0.1280195363
C  C117  1  0.18980000  0.17150000  0.63860000  1.0 -0.1280195363
C  C118  1  0.81020000  0.17150000  0.86140000  1.0 -0.1280195363
C  C119  1  0.18980000  0.32850000  0.36140000  1.0 -0.1280195363
C  C120  1  0.81020000  0.32850000  0.13860000  1.0 -0.1280195363
C  C121  1  0.73110000  0.78040000  0.37220000  1.0 -0.2197274846
C  C122  1  0.26890000  0.78040000  0.12780000  1.0 -0.2197274846
C  C123  1  0.73110000  0.71960000  0.62780000  1.0 -0.2197274846
C  C124  1  0.26890000  0.71960000  0.87220000  1.0 -0.2197274846
C  C125  1  0.26890000  0.21960000  0.62780000  1.0 -0.2300765077
C  C126  1  0.73110000  0.21960000  0.87220000  1.0 -0.2300765077
C  C127  1  0.26890000  0.28040000  0.37220000  1.0 -0.2300765077
C  C128  1  0.73110000  0.28040000  0.12780000  1.0 -0.2300765077
C  C129  1  0.66120000  0.81160000  0.34460000  1.0 0.1490505567
C  C130  1  0.33880000  0.81160000  0.15540000  1.0 0.1490505567
C  C131  1  0.66120000  0.68840000  0.65540000  1.0 0.1490505567
C  C132  1  0.33880000  0.68840000  0.84460000  1.0 0.1490505567
C  C133  1  0.33880000  0.18840000  0.65540000  1.0 0.1490505567
C  C134  1  0.66120000  0.18840000  0.84460000  1.0 0.1490505567
C  C135  1  0.33880000  0.31160000  0.34460000  1.0 0.1490505567
C  C136  1  0.66120000  0.31160000  0.15540000  1.0 0.1490505567
C  C137  1  0.65990000  0.79690000  0.30030000  1.0 -0.1752565832
C  C138  1  0.34010000  0.79690000  0.19970000  1.0 -0.1752565832
C  C139  1  0.65990000  0.70310000  0.69970000  1.0 -0.1752565832
C  C140  1  0.34010000  0.70310000  0.80030000  1.0 -0.1752565832
C  C141  1  0.34010000  0.20310000  0.69970000  1.0 -0.1752565832
C  C142  1  0.65990000  0.20310000  0.80030000  1.0 -0.1752565832
C  C143  1  0.34010000  0.29690000  0.30030000  1.0 -0.1752565832
C  C144  1  0.65990000  0.29690000  0.19970000  1.0 -0.1752565832
C  C145  1  0.60490000  0.83750000  0.27410000  1.0 0.0498331596
C  C146  1  0.39510000  0.83750000  0.22590000  1.0 0.0498331596
C  C147  1  0.60490000  0.66250000  0.72590000  1.0 0.0498331596
C  C148  1  0.39510000  0.66250000  0.77410000  1.0 0.0498331596
C  C149  1  0.39510000  0.16250000  0.72590000  1.0 0.0498331596
C  C150  1  0.60490000  0.16250000  0.77410000  1.0 0.0498331596
C  C151  1  0.39510000  0.33750000  0.27410000  1.0 0.0498331596
C  C152  1  0.60490000  0.33750000  0.22590000  1.0 0.0498331596
C  C153  1  0.54500000  0.90100000  0.33240000  1.0 0.0588256222
C  C154  1  0.45500000  0.90100000  0.16760000  1.0 0.0588256222
C  C155  1  0.54500000  0.59900000  0.66760000  1.0 0.0588256222
C  C156  1  0.45500000  0.59900000  0.83240000  1.0 0.0588256222
C  C157  1  0.45500000  0.09900000  0.66760000  1.0 0.0588256222
C  C158  1  0.54500000  0.09900000  0.83240000  1.0 0.0588256222
C  C159  1  0.45500000  0.40100000  0.33240000  1.0 0.0588256222
C  C160  1  0.54500000  0.40100000  0.16760000  1.0 0.0588256222
C  C161  1  0.59850000  0.86060000  0.36130000  1.0 -0.1705325016
C  C162  1  0.40150000  0.86060000  0.13870000  1.0 -0.1705325016
C  C163  1  0.59850000  0.63940000  0.63870000  1.0 -0.1705325016
C  C164  1  0.40150000  0.63940000  0.86130000  1.0 -0.1705325016
C  C165  1  0.40150000  0.13940000  0.63870000  1.0 -0.1705325016
C  C166  1  0.59850000  0.13940000  0.86130000  1.0 -0.1705325016
C  C167  1  0.40150000  0.36060000  0.36130000  1.0 -0.1705325016
C  C168  1  0.59850000  0.36060000  0.13870000  1.0 -0.1705325016
C  C169  1  0.51260000  0.12080000  0.30600000  1.0 0.0804764644
C  C170  1  0.48740000  0.12080000  0.19400000  1.0 0.0804764644
C  C171  1  0.51260000  0.37920000  0.69400000  1.0 0.0804764644
C  C172  1  0.48740000  0.37920000  0.80600000  1.0 0.0804764644
C  C173  1  0.48740000  0.87920000  0.69400000  1.0 0.0804764644
C  C174  1  0.51260000  0.87920000  0.80600000  1.0 0.0804764644
C  C175  1  0.48740000  0.62080000  0.30600000  1.0 0.0804764644
C  C176  1  0.51260000  0.62080000  0.19400000  1.0 0.0804764644
C  C177  1  0.63900000  0.07030000  0.28670000  1.0 0.0804764644
C  C178  1  0.36100000  0.07030000  0.21330000  1.0 0.0804764644
C  C179  1  0.63900000  0.42970000  0.71330000  1.0 0.0804764644
C  C180  1  0.36100000  0.42970000  0.78670000  1.0 0.0804764644
C  C181  1  0.36100000  0.92970000  0.71330000  1.0 0.0804764644
C  C182  1  0.63900000  0.92970000  0.78670000  1.0 0.0804764644
C  C183  1  0.36100000  0.57030000  0.28670000  1.0 0.0804764644
C  C184  1  0.63900000  0.57030000  0.21330000  1.0 0.0804764644
C  C185  1  0.67740000  0.13140000  0.30930000  1.0 -0.1988485785
C  C186  1  0.32260000  0.13140000  0.19070000  1.0 -0.1988485785
C  C187  1  0.67740000  0.36860000  0.69070000  1.0 -0.1988485785
C  C188  1  0.32260000  0.36860000  0.80930000  1.0 -0.1988485785
C  C189  1  0.32260000  0.86860000  0.69070000  1.0 -0.1988485785
C  C190  1  0.67740000  0.86860000  0.80930000  1.0 -0.1988485785
C  C191  1  0.32260000  0.63140000  0.30930000  1.0 -0.1988485785
C  C192  1  0.67740000  0.63140000  0.19070000  1.0 -0.1988485785
C  C193  1  0.54690000  0.18040000  0.33060000  1.0 -0.1911356294
C  C194  1  0.45310000  0.18040000  0.16940000  1.0 -0.1911356294
C  C195  1  0.54690000  0.31960000  0.66940000  1.0 -0.1911356294
C  C196  1  0.45310000  0.31960000  0.83060000  1.0 -0.1911356294
C  C197  1  0.45310000  0.81960000  0.66940000  1.0 -0.1911356294
C  C198  1  0.54690000  0.81960000  0.83060000  1.0 -0.1911356294
C  C199  1  0.45310000  0.68040000  0.33060000  1.0 -0.1911356294
C  C200  1  0.54690000  0.68040000  0.16940000  1.0 -0.1911356294
C  C201  1  0.63220000  0.18810000  0.33230000  1.0 0.1581557356
C  C202  1  0.36780000  0.18810000  0.16770000  1.0 0.1581557356
C  C203  1  0.63220000  0.31190000  0.66770000  1.0 0.1581557356
C  C204  1  0.36780000  0.31190000  0.83230000  1.0 0.1581557356
C  C205  1  0.36780000  0.81190000  0.66770000  1.0 0.1581557356
C  C206  1  0.63220000  0.81190000  0.83230000  1.0 0.1581557356
C  C207  1  0.36780000  0.68810000  0.33230000  1.0 0.1581557356
C  C208  1  0.63220000  0.68810000  0.16770000  1.0 0.1581557356
C  C209  1  0.67420000  0.24960000  0.35960000  1.0 -0.211756009
C  C210  1  0.32580000  0.24960000  0.14040000  1.0 -0.211756009
C  C211  1  0.67420000  0.25040000  0.64040000  1.0 -0.211756009
C  C212  1  0.32580000  0.25040000  0.85960000  1.0 -0.211756009
C  C213  1  0.32580000  0.75040000  0.64040000  1.0 -0.211756009
C  C214  1  0.67420000  0.75040000  0.85960000  1.0 -0.211756009
C  C215  1  0.32580000  0.74960000  0.35960000  1.0 -0.211756009
C  C216  1  0.67420000  0.74960000  0.14040000  1.0 -0.211756009
C  C217  1  0.72860000  0.22270000  0.38520000  1.0 -0.1280195363
C  C218  1  0.27140000  0.22270000  0.11480000  1.0 -0.1280195363
C  C219  1  0.72860000  0.27730000  0.61480000  1.0 -0.1280195363
C  C220  1  0.27140000  0.27730000  0.88520000  1.0 -0.1280195363
C  C221  1  0.27140000  0.77730000  0.61480000  1.0 -0.1280195363
C  C222  1  0.72860000  0.77730000  0.88520000  1.0 -0.1280195363
C  C223  1  0.27140000  0.72270000  0.38520000  1.0 -0.1280195363
C  C224  1  0.72860000  0.72270000  0.11480000  1.0 -0.1280195363
C  C225  1  0.75090000  0.26460000  0.42650000  1.0 -0.2300765077
C  C226  1  0.24910000  0.26460000  0.07350000  1.0 -0.2300765077
C  C227  1  0.75090000  0.23540000  0.57350000  1.0 -0.2300765077
C  C228  1  0.24910000  0.23540000  0.92650000  1.0 -0.2300765077
C  C229  1  0.24910000  0.73540000  0.57350000  1.0 -0.2300765077
C  C230  1  0.75090000  0.73540000  0.92650000  1.0 -0.2300765077
C  C231  1  0.24910000  0.76460000  0.42650000  1.0 -0.2300765077
C  C232  1  0.75090000  0.76460000  0.07350000  1.0 -0.2300765077
C  C233  1  0.82430000  0.21010000  0.44830000  1.0 0.1490505567
C  C234  1  0.17570000  0.21010000  0.05170000  1.0 0.1490505567
C  C235  1  0.82430000  0.28990000  0.55170000  1.0 0.1490505567
C  C236  1  0.17570000  0.28990000  0.94830000  1.0 0.1490505567
C  C237  1  0.17570000  0.78990000  0.55170000  1.0 0.1490505567
C  C238  1  0.82430000  0.78990000  0.94830000  1.0 0.1490505567
C  C239  1  0.17570000  0.71010000  0.44830000  1.0 0.1490505567
C  C240  1  0.82430000  0.71010000  0.05170000  1.0 0.1490505567
C  C241  1  0.90340000  0.20700000  0.44490000  1.0 -0.1911356294
C  C242  1  0.09660000  0.20700000  0.05510000  1.0 -0.1911356294
C  C243  1  0.90340000  0.29300000  0.55510000  1.0 -0.1911356294
C  C244  1  0.09660000  0.29300000  0.94490000  1.0 -0.1911356294
C  C245  1  0.09660000  0.79300000  0.55510000  1.0 -0.1911356294
C  C246  1  0.90340000  0.79300000  0.94490000  1.0 -0.1911356294
C  C247  1  0.09660000  0.70700000  0.44490000  1.0 -0.1911356294
C  C248  1  0.90340000  0.70700000  0.05510000  1.0 -0.1911356294
C  C249  1  0.78520000  0.13980000  0.46660000  1.0 -0.2300765077
C  C250  1  0.21480000  0.13980000  0.03340000  1.0 -0.2300765077
C  C251  1  0.78520000  0.36020000  0.53340000  1.0 -0.2300765077
C  C252  1  0.21480000  0.36020000  0.96660000  1.0 -0.2300765077
C  C253  1  0.21480000  0.86020000  0.53340000  1.0 -0.2300765077
C  C254  1  0.78520000  0.86020000  0.96660000  1.0 -0.2300765077
C  C255  1  0.21480000  0.63980000  0.46660000  1.0 -0.2300765077
C  C256  1  0.78520000  0.63980000  0.03340000  1.0 -0.2300765077
C  C257  1  0.94580000  0.15040000  0.46210000  1.0 0.0498331596
C  C258  1  0.05420000  0.15040000  0.03790000  1.0 0.0498331596
C  C259  1  0.94580000  0.34960000  0.53790000  1.0 0.0498331596
C  C260  1  0.05420000  0.34960000  0.96210000  1.0 0.0498331596
C  C261  1  0.05420000  0.84960000  0.53790000  1.0 0.0498331596
C  C262  1  0.94580000  0.84960000  0.96210000  1.0 0.0498331596
C  C263  1  0.05420000  0.65040000  0.46210000  1.0 0.0498331596
C  C264  1  0.94580000  0.65040000  0.03790000  1.0 0.0498331596
C  C265  1  0.83840000  0.08140000  0.48800000  1.0 0.0588256222
C  C266  1  0.16160000  0.08140000  0.01200000  1.0 0.0588256222
C  C267  1  0.83840000  0.41860000  0.51200000  1.0 0.0588256222
C  C268  1  0.16160000  0.41860000  0.98800000  1.0 0.0588256222
C  C269  1  0.16160000  0.91860000  0.51200000  1.0 0.0588256222
C  C270  1  0.83840000  0.91860000  0.98800000  1.0 0.0588256222
C  C271  1  0.16160000  0.58140000  0.48800000  1.0 0.0588256222
C  C272  1  0.83840000  0.58140000  0.01200000  1.0 0.0588256222
S  S1  1  0.68268000  0.51054000  0.33263000  1.0 1.1458487671
S  S2  1  0.31732000  0.51054000  0.16737000  1.0 1.1458487671
S  S3  1  0.68268000  0.98946000  0.66737000  1.0 1.1458487671
S  S4  1  0.31732000  0.98946000  0.83263000  1.0 1.1458487671
S  S5  1  0.31732000  0.48946000  0.66737000  1.0 1.1458487671
S  S6  1  0.68268000  0.48946000  0.83263000  1.0 1.1458487671
S  S7  1  0.31732000  0.01054000  0.33263000  1.0 1.1458487671
S  S8  1  0.68268000  0.01054000  0.16737000  1.0 1.1449307023
N  N1  1  0.55530000  0.06430000  0.28470000  1.0 -0.211756009
N  N2  1  0.44470000  0.06430000  0.21530000  1.0 -0.211756009
N  N3  1  0.55530000  0.43570000  0.71530000  1.0 -0.211756009
N  N4  1  0.44470000  0.43570000  0.78470000  1.0 -0.211756009
N  N5  1  0.44470000  0.93570000  0.71530000  1.0 -0.211756009
N  N6  1  0.55530000  0.93570000  0.78470000  1.0 -0.211756009
N  N7  1  0.44470000  0.56430000  0.28470000  1.0 -0.211756009
N  N8  1  0.55530000  0.56430000  0.21530000  1.0 -0.211756009
N  N9  1  0.54900000  0.89310000  0.28920000  1.0 -0.2300765077
N  N10  1  0.45100000  0.89310000  0.21080000  1.0 -0.2300765077
N  N11  1  0.54900000  0.60690000  0.71080000  1.0 -0.2300765077
N  N12  1  0.45100000  0.60690000  0.78920000  1.0 -0.2300765077
N  N13  1  0.45100000  0.10690000  0.71080000  1.0 -0.2300765077
N  N14  1  0.54900000  0.10690000  0.78920000  1.0 -0.2300765077
N  N15  1  0.45100000  0.39310000  0.28920000  1.0 -0.2300765077
N  N16  1  0.54900000  0.39310000  0.21080000  1.0 -0.2300765077
N  N17  1  0.94500000  0.08020000  0.28776000  1.0 -0.1988485785
N  N18  1  0.05500000  0.08020000  0.21224000  1.0 -0.1988485785
N  N19  1  0.94500000  0.41980000  0.71224000  1.0 -0.1988485785
N  N20  1  0.05500000  0.41980000  0.78776000  1.0 -0.1988485785
N  N21  1  0.05500000  0.91980000  0.71224000  1.0 -0.1988485785
N  N22  1  0.94500000  0.91980000  0.78776000  1.0 -0.1988485785
N  N23  1  0.05500000  0.58020000  0.28776000  1.0 -0.1988485785
N  N24  1  0.94500000  0.58020000  0.21224000  1.0 -0.1988485785
N  N25  1  0.92130000  0.08720000  0.48210000  1.0 -0.2197274846
N  N26  1  0.07870000  0.08720000  0.01790000  1.0 -0.2197274846
N  N27  1  0.92130000  0.41280000  0.51790000  1.0 -0.2197274846
N  N28  1  0.07870000  0.41280000  0.98210000  1.0 -0.2197274846
N  N29  1  0.07870000  0.91280000  0.51790000  1.0 -0.2197274846
N  N30  1  0.92130000  0.91280000  0.98210000  1.0 -0.2197274846
N  N31  1  0.07870000  0.58720000  0.48210000  1.0 -0.2197274846
N  N32  1  0.92130000  0.58720000  0.01790000  1.0 -0.2197274846
O  O1  1  0.96190000  0.24780000  0.28887000  1.0 -0.5447044851
O  O2  1  0.03810000  0.24780000  0.21113000  1.0 -0.5447044851
O  O3  1  0.96190000  0.25220000  0.71113000  1.0 -0.5447044851
O  O4  1  0.03810000  0.25220000  0.78887000  1.0 -0.5447044851
O  O5  1  0.03810000  0.75220000  0.71113000  1.0 -0.5447044851
O  O6  1  0.96190000  0.75220000  0.78887000  1.0 -0.5447044851
O  O7  1  0.03810000  0.74780000  0.28887000  1.0 -0.5447044851
O  O8  1  0.96190000  0.74780000  0.21113000  1.0 -0.5447044851
O  O9  1  0.84500000  0.27420000  0.25092000  1.0 -0.5592989878
O  O10  1  0.15500000  0.27420000  0.24908000  1.0 -0.5592989878
O  O11  1  0.84500000  0.22580000  0.74908000  1.0 -0.5592989878
O  O12  1  0.15500000  0.22580000  0.75092000  1.0 -0.5592989878
O  O13  1  0.15500000  0.72580000  0.74908000  1.0 -0.5592989878
O  O14  1  0.84500000  0.72580000  0.75092000  1.0 -0.5592989878
O  O15  1  0.15500000  0.77420000  0.25092000  1.0 -0.5592989878
O  O16  1  0.84500000  0.77420000  0.24908000  1.0 -0.5592989878
O  O17  1  0.01520000  0.38750000  0.42533000  1.0 -0.5592989878
O  O18  1  0.98480000  0.38750000  0.07467000  1.0 -0.5592989878
O  O19  1  0.01520000  0.11250000  0.57467000  1.0 -0.5592989878
O  O20  1  0.98480000  0.11250000  0.92533000  1.0 -0.5592989878
O  O21  1  0.98480000  0.61250000  0.57467000  1.0 -0.5592989878
O  O22  1  0.01520000  0.61250000  0.92533000  1.0 -0.5592989878
O  O23  1  0.98480000  0.88750000  0.42533000  1.0 -0.5592989878
O  O24  1  0.01520000  0.88750000  0.07467000  1.0 -0.5592989878
O  O25  1  0.94570000  0.50050000  0.44179000  1.0 -0.5534131781
O  O26  1  0.05430000  0.50050000  0.05821000  1.0 -0.5534131781
O  O27  1  0.94570000  0.99950000  0.55821000  1.0 -0.5534131781
O  O28  1  0.05430000  0.99950000  0.94179000  1.0 -0.5534131781
O  O29  1  0.05430000  0.49950000  0.55821000  1.0 -0.5534131781
O  O30  1  0.94570000  0.49950000  0.94179000  1.0 -0.5534131781
O  O31  1  0.05430000  0.00050000  0.44179000  1.0 -0.5534131781
O  O32  1  0.94570000  0.00050000  0.05821000  1.0 -0.5534131781
O  O33  1  0.64420000  0.51310000  0.37482000  1.0 -0.5997265832
O  O34  1  0.35580000  0.51310000  0.12518000  1.0 -0.5997265832
O  O35  1  0.64420000  0.98690000  0.62518000  1.0 -0.5997265832
O  O36  1  0.35580000  0.98690000  0.87482000  1.0 -0.5997265832
O  O37  1  0.35580000  0.48690000  0.62518000  1.0 -0.5997265832
O  O38  1  0.64420000  0.48690000  0.87482000  1.0 -0.5997265832
O  O39  1  0.35580000  0.01310000  0.37482000  1.0 -0.5997265832
O  O40  1  0.64420000  0.01310000  0.12518000  1.0 -0.5997265832
O  O41  1  0.63240000  0.46570000  0.30156000  1.0 -0.6584695683
O  O42  1  0.36760000  0.46570000  0.19844000  1.0 -0.6584695683
O  O43  1  0.63240000  0.03430000  0.69844000  1.0 -0.6584695683
O  O44  1  0.36760000  0.03430000  0.80156000  1.0 -0.6584695683
O  O45  1  0.36760000  0.53430000  0.69844000  1.0 -0.6584695683
O  O46  1  0.63240000  0.53430000  0.80156000  1.0 -0.6584695683
O  O47  1  0.36760000  0.96570000  0.30156000  1.0 -0.6584695683
O  O48  1  0.63240000  0.96570000  0.19844000  1.0 -0.6584695683
O  O49  1  0.70810000  0.58970000  0.31670000  1.0 -0.5997265832
O  O50  1  0.29190000  0.58970000  0.18330000  1.0 -0.5997265832
O  O51  1  0.70810000  0.91030000  0.68330000  1.0 -0.5997265832
O  O52  1  0.29190000  0.91030000  0.81670000  1.0 -0.5997265832
O  O53  1  0.29190000  0.41030000  0.68330000  1.0 -0.5997265832
O  O54  1  0.70810000  0.41030000  0.81670000  1.0 -0.5997265832
O  O55  1  0.29190000  0.08970000  0.31670000  1.0 -0.5997265832
O  O56  1  0.70810000  0.08970000  0.18330000  1.0 -0.5997265832
