# DDEC6 charges by PACMAN v1.1 (https://github.com/mtap-research/PACMAN-charge/)
data_VOKLIS01_FSR_pacman
_symmetry_space_group_name_H-M   'P 1'
_cell_length_a   10.95550000
_cell_length_b   14.43970000
_cell_length_c   14.71730000
_cell_angle_alpha   85.06200000
_cell_angle_beta   69.98300000
_cell_angle_gamma   78.37800000
_symmetry_Int_Tables_number   1
_chemical_formula_structural   FeH8PtC14SeN6O
_chemical_formula_sum   'Fe4 H32 Pt4 C56 Se4 N24 O4'
_cell_volume   2142.32716497
_cell_formula_units_Z   4
loop_
 _symmetry_equiv_pos_site_id
 _symmetry_equiv_pos_as_xyz
  1  'x, y, z'
loop_
 _atom_site_type_symbol
 _atom_site_label
 _atom_site_symmetry_multiplicity
 _atom_site_fract_x
 _atom_site_fract_y
 _atom_site_fract_z
 _atom_site_occupancy
 _atom_site_charge
Fe  Fe1  1  0.46691000  0.74943000  0.49468000  1.0 0.601463508
Fe  Fe2  1  0.53309000  0.25057000  0.50532000  1.0 0.601463508
Fe  Fe3  1  0.89094000  0.75094000  0.98346000  1.0 0.9813050145
Fe  Fe4  1  0.10906000  0.24906000  0.01654000  1.0 0.9888751024
H  H1  1  0.31430000  0.93190000  0.44810000  1.0 0.1311599164
H  H2  1  0.68570000  0.06810000  0.55190000  1.0 0.1311599164
H  H3  1  0.12830000  0.98900000  0.40490000  1.0 0.14068385
H  H4  1  0.87170000  0.01100000  0.59510000  1.0 0.14068385
H  H5  1  0.08150000  0.71760000  0.40080000  1.0 0.14068385
H  H6  1  0.91850000  0.28240000  0.59920000  1.0 0.14068385
H  H7  1  0.26790000  0.66790000  0.44540000  1.0 0.1212822054
H  H8  1  0.73210000  0.33210000  0.55460000  1.0 0.1212822054
H  H9  1  0.04950000  0.90920000  0.15460000  1.0 0.1635823735
H  H10  1  0.95050000  0.09080000  0.84540000  1.0 0.1635823735
H  H11  1  0.11220000  0.02850000  0.04050000  1.0 0.1311599164
H  H12  1  0.88780000  0.97150000  0.95950000  1.0 0.1311599164
H  H13  1  0.98690000  0.22060000  0.24140000  1.0 0.1212822054
H  H14  1  0.01310000  0.77940000  0.75860000  1.0 0.1212822054
H  H15  1  0.92050000  0.10900000  0.36220000  1.0 0.14068385
H  H16  1  0.07950000  0.89100000  0.63780000  1.0 0.14068385
H  H17  1  0.61670000  0.56890000  0.55290000  1.0 0.1311599164
H  H18  1  0.38330000  0.43110000  0.44710000  1.0 0.1311599164
H  H19  1  0.80060000  0.51720000  0.59840000  1.0 0.14068385
H  H20  1  0.19940000  0.48280000  0.40160000  1.0 0.14068385
H  H21  1  0.85450000  0.78880000  0.57990000  1.0 0.14068385
H  H22  1  0.14550000  0.21120000  0.42010000  1.0 0.14068385
H  H23  1  0.66980000  0.83360000  0.53300000  1.0 0.1212822054
H  H24  1  0.33020000  0.16640000  0.46700000  1.0 0.1212822054
H  H25  1  0.10530000  0.40550000  0.61950000  1.0 0.1311599164
H  H26  1  0.89470000  0.59450000  0.38050000  1.0 0.1311599164
H  H27  1  0.05810000  0.28200000  0.73250000  1.0 0.0992473566
H  H28  1  0.94190000  0.71800000  0.26750000  1.0 0.0992473566
H  H29  1  0.78140000  0.45230000  0.92250000  1.0 0.1311599164
H  H30  1  0.21860000  0.54770000  0.07750000  1.0 0.1311599164
H  H31  1  0.82440000  0.58390000  0.81800000  1.0 0.1635823735
H  H32  1  0.17560000  0.41610000  0.18200000  1.0 0.1635823735
Pt  Pt1  1  0.73316000  0.49263000  0.25384000  1.0 0.0895175387
Pt  Pt2  1  0.26684000  0.50737000  0.74616000  1.0 0.0992473566
Pt  Pt3  1  0.66506000  0.99674000  0.25277000  1.0 0.109461045
Pt  Pt4  1  0.33494000  0.00326000  0.74723000  1.0 0.109461045
C  C1  1  0.26600000  0.88790000  0.43890000  1.0 0.0992473566
C  C2  1  0.73400000  0.11210000  0.56110000  1.0 0.0992473566
C  C3  1  0.15490000  0.92280000  0.41250000  1.0 -0.1777288311
C  C4  1  0.84510000  0.07720000  0.58750000  1.0 -0.1777288311
C  C5  1  0.08280000  0.86000000  0.39710000  1.0 0.0725982123
C  C6  1  0.91720000  0.14000000  0.60290000  1.0 0.0725982123
C  C7  1  0.12760000  0.76300000  0.41030000  1.0 -0.18809757
C  C8  1  0.87240000  0.23700000  0.58970000  1.0 -0.18809757
C  C9  1  0.23920000  0.73370000  0.43710000  1.0 0.0793119161
C  C10  1  0.76080000  0.26630000  0.56290000  1.0 0.0793119161
C  C11  1  0.97970000  0.99700000  0.27210000  1.0 0.0633015857
C  C12  1  0.02030000  0.00300000  0.72790000  1.0 0.0633015857
C  C13  1  0.03660000  0.97250000  0.17410000  1.0 -0.1777288311
C  C14  1  0.96340000  0.02750000  0.82590000  1.0 -0.1730032003
C  C15  1  0.07330000  0.04460000  0.10680000  1.0 0.1311599164
C  C16  1  0.92670000  0.95540000  0.89320000  1.0 0.1311599164
C  C17  1  0.00040000  0.15660000  0.22370000  1.0 0.1212822054
C  C18  1  0.99960000  0.84340000  0.77630000  1.0 0.1212822054
C  C19  1  0.96040000  0.09040000  0.29660000  1.0 -0.18809757
C  C20  1  0.03960000  0.90960000  0.70340000  1.0 -0.18809757
C  C21  1  0.66650000  0.61400000  0.55740000  1.0 0.0895175387
C  C22  1  0.33350000  0.38600000  0.44260000  1.0 0.0895175387
C  C23  1  0.77610000  0.58240000  0.58450000  1.0 -0.1777288311
C  C24  1  0.22390000  0.41760000  0.41550000  1.0 -0.1777288311
C  C25  1  0.85090000  0.64700000  0.59120000  1.0 0.0725982123
C  C26  1  0.14910000  0.35300000  0.40880000  1.0 0.0725982123
C  C27  1  0.80790000  0.74240000  0.57330000  1.0 -0.1777288311
C  C28  1  0.19210000  0.25760000  0.42670000  1.0 -0.1777288311
C  C29  1  0.69700000  0.76860000  0.54600000  1.0 0.0895175387
C  C30  1  0.30300000  0.23140000  0.45400000  1.0 0.0895175387
C  C31  1  0.96580000  0.50610000  0.70690000  1.0 0.0517317952
C  C32  1  0.03420000  0.49390000  0.29310000  1.0 0.0517317952
C  C33  1  0.03850000  0.41680000  0.68090000  1.0 -0.2177753336
C  C34  1  0.96150000  0.58320000  0.31910000  1.0 -0.2177753336
C  C35  1  0.00910000  0.34400000  0.74910000  1.0 0.0895175387
C  C36  1  0.99090000  0.65600000  0.25090000  1.0 0.0895175387
C  C37  1  0.84790000  0.44330000  0.86080000  1.0 0.109461045
C  C38  1  0.15210000  0.55670000  0.13920000  1.0 0.109461045
C  C39  1  0.87130000  0.52210000  0.79840000  1.0 -0.1429141498
C  C40  1  0.12870000  0.47790000  0.20160000  1.0 -0.1429141498
C  C41  1  0.60590000  0.59240000  0.34310000  1.0 0.0517317952
C  C42  1  0.39410000  0.40760000  0.65690000  1.0 0.0517317952
C  C43  1  0.67130000  0.39280000  0.35320000  1.0 0.029459896
C  C44  1  0.32870000  0.60720000  0.64680000  1.0 0.029459896
C  C45  1  0.87000000  0.39790000  0.16500000  1.0 0.0793119161
C  C46  1  0.13000000  0.60210000  0.83500000  1.0 0.0725982123
C  C47  1  0.79280000  0.59060000  0.15150000  1.0 0.1212822054
C  C48  1  0.20720000  0.40940000  0.84850000  1.0 0.1212822054
C  C49  1  0.71460000  0.90510000  0.14670000  1.0 0.1212822054
C  C50  1  0.28540000  0.09490000  0.85330000  1.0 0.1311599164
C  C51  1  0.71960000  0.09690000  0.15260000  1.0 0.0153675351
C  C52  1  0.28040000  0.90310000  0.84740000  1.0 0.0110493593
C  C53  1  0.62060000  0.09230000  0.35490000  1.0 0.0517317952
C  C54  1  0.37940000  0.90770000  0.64510000  1.0 0.0517317952
C  C55  1  0.60240000  0.89570000  0.34820000  1.0 0.029459896
C  C56  1  0.39760000  0.10430000  0.65180000  1.0 0.029459896
Se  Se1  1  0.92290000  0.89968000  0.36722000  1.0 0.0110493593
Se  Se2  1  0.07710000  0.10032000  0.63278000  1.0 0.0110493593
Se  Se3  1  0.01123000  0.61252000  0.62202000  1.0 0.029459896
Se  Se4  1  0.98877000  0.38748000  0.37798000  1.0 0.029459896
N  N1  1  0.30930000  0.79510000  0.45210000  1.0 -0.1250583715
N  N2  1  0.69070000  0.20490000  0.54790000  1.0 -0.1250583715
N  N3  1  0.05710000  0.13550000  0.12970000  1.0 -0.2375846691
N  N4  1  0.94290000  0.86450000  0.87030000  1.0 -0.2375846691
N  N5  1  0.62500000  0.70580000  0.53680000  1.0 -0.1174508816
N  N6  1  0.37500000  0.29420000  0.46320000  1.0 -0.1174508816
N  N7  1  0.91610000  0.35630000  0.83610000  1.0 -0.0748860649
N  N8  1  0.08390000  0.64370000  0.16390000  1.0 -0.0748860649
N  N9  1  0.54020000  0.65000000  0.39830000  1.0 -0.2993428058
N  N10  1  0.45980000  0.35000000  0.60170000  1.0 -0.2993428058
N  N11  1  0.62740000  0.33820000  0.41060000  1.0 -0.2993428058
N  N12  1  0.37260000  0.66180000  0.58940000  1.0 -0.305422414
N  N13  1  0.95360000  0.34700000  0.11400000  1.0 -0.3707516379
N  N14  1  0.04640000  0.65300000  0.88600000  1.0 -0.3707516379
N  N15  1  0.83050000  0.64340000  0.09110000  1.0 -0.3872771746
N  N16  1  0.16950000  0.35660000  0.90890000  1.0 -0.3872771746
N  N17  1  0.75050000  0.85440000  0.08330000  1.0 -0.4001907594
N  N18  1  0.24950000  0.14560000  0.91670000  1.0 -0.4001907594
N  N19  1  0.74940000  0.15380000  0.09360000  1.0 -0.2846019751
N  N20  1  0.25060000  0.84620000  0.90640000  1.0 -0.2904551711
N  N21  1  0.59500000  0.15140000  0.41030000  1.0 -0.2904551711
N  N22  1  0.40500000  0.84860000  0.58970000  1.0 -0.2904551711
N  N23  1  0.55900000  0.83750000  0.40120000  1.0 -0.2993428058
N  N24  1  0.44100000  0.16250000  0.59880000  1.0 -0.2993428058
O  O1  1  0.74300000  0.73000000  0.92710000  1.0 -0.5785444266
O  O2  1  0.25700000  0.27000000  0.07290000  1.0 -0.5932229048
O  O3  1  0.03230000  0.78240000  0.03870000  1.0 -0.3187805003
O  O4  1  0.96770000  0.21760000  0.96130000  1.0 -0.3314326293
