# DDEC6 charges by PACMAN v1.1 (https://github.com/mtap-research/PACMAN-charge/)
data_VOKLIS_ion_pacman
_symmetry_space_group_name_H-M   'P 1'
_cell_length_a   11.31270000
_cell_length_b   14.68700000
_cell_length_c   14.76600000
_cell_angle_alpha   85.88100000
_cell_angle_beta   79.81100000
_cell_angle_gamma   70.30000000
_symmetry_Int_Tables_number   1
_chemical_formula_structural   Fe2H21Pt2C30Se2(N4O)3
_chemical_formula_sum   'Fe4 H42 Pt4 C60 Se4 N24 O6'
_cell_volume   2273.14821432
_cell_formula_units_Z   2
loop_
 _symmetry_equiv_pos_site_id
 _symmetry_equiv_pos_as_xyz
  1  'x, y, z'
loop_
 _atom_site_type_symbol
 _atom_site_label
 _atom_site_symmetry_multiplicity
 _atom_site_fract_x
 _atom_site_fract_y
 _atom_site_fract_z
 _atom_site_occupancy
 _atom_site_charge
Fe  Fe1  1  0.54180000  0.50671000  0.25200000  1.0 0.7858828588
Fe  Fe2  1  0.45820000  0.49329000  0.74800000  1.0 0.7833125873
Fe  Fe3  1  0.10576000  0.02126000  0.25236000  1.0 0.9495742006
Fe  Fe4  1  0.89424000  0.97874000  0.74764000  1.0 0.9495742006
H  H1  1  0.68960000  0.56520000  0.06810000  1.0 0.1191182344
H  H2  1  0.31040000  0.43480000  0.93190000  1.0 0.1191182344
H  H3  1  0.86980000  0.60730000  0.01080000  1.0 0.1471960255
H  H4  1  0.13020000  0.39270000  0.98920000  1.0 0.1471960255
H  H5  1  0.94160000  0.59560000  0.26960000  1.0 0.1394530701
H  H6  1  0.05840000  0.40440000  0.73040000  1.0 0.1394530701
H  H7  1  0.76180000  0.55190000  0.31980000  1.0 0.1090475264
H  H8  1  0.23820000  0.44810000  0.68020000  1.0 0.1090475264
H  H9  1  0.95150000  0.84580000  0.08050000  1.0 0.1611082538
H  H10  1  0.04850000  0.15420000  0.91950000  1.0 0.1611082538
H  H11  1  0.88890000  0.95720000  0.96440000  1.0 0.1294062006
H  H12  1  0.11110000  0.04280000  0.03560000  1.0 0.1294062006
H  H13  1  0.02500000  0.75390000  0.77820000  1.0 0.1090475264
H  H14  1  0.97500000  0.24610000  0.22180000  1.0 0.1090475264
H  H15  1  0.08860000  0.63720000  0.89050000  1.0 0.1394530701
H  H16  1  0.91140000  0.36280000  0.10950000  1.0 0.1394530701
H  H17  1  0.38940000  0.44050000  0.43370000  1.0 0.1294062006
H  H18  1  0.61060000  0.55950000  0.56630000  1.0 0.1294062006
H  H19  1  0.21020000  0.39770000  0.48650000  1.0 0.1471960255
H  H20  1  0.78980000  0.60230000  0.51350000  1.0 0.1471960255
H  H21  1  0.14780000  0.41830000  0.22220000  1.0 0.1394530701
H  H22  1  0.85220000  0.58170000  0.77780000  1.0 0.1394530701
H  H23  1  0.32530000  0.46150000  0.17950000  1.0 0.1191182344
H  H24  1  0.67470000  0.53850000  0.82050000  1.0 0.1191182344
H  H25  1  0.89460000  0.38270000  0.59140000  1.0 0.1294062006
H  H26  1  0.10540000  0.61730000  0.40860000  1.0 0.1294062006
H  H27  1  0.92200000  0.27050000  0.71160000  1.0 0.0995514335
H  H28  1  0.07800000  0.72950000  0.28840000  1.0 0.1090475264
H  H29  1  0.20530000  0.08370000  0.55750000  1.0 0.1294062006
H  H30  1  0.79470000  0.91630000  0.44250000  1.0 0.1294062006
H  H31  1  0.17970000  0.18780000  0.43090000  1.0 0.1611082538
H  H32  1  0.82030000  0.81220000  0.56910000  1.0 0.1611082538
H  H33  1  0.45260000  0.19760000  0.67100000  1.0 0.0890707879
H  H34  1  0.54200000  0.15890000  0.74650000  1.0 0.1090475264
H  H35  1  0.39300000  0.13330000  0.84650000  1.0 0.1394530701
H  H36  1  0.30460000  0.21390000  0.78780000  1.0 0.1090475264
H  H37  1  0.32970000  0.10310000  0.77130000  1.0 0.1611082538
H  H38  1  0.54740000  0.80240000  0.32900000  1.0 0.0890707879
H  H39  1  0.45800000  0.84110000  0.25350000  1.0 0.1090475264
H  H40  1  0.60700000  0.86670000  0.15350000  1.0 0.1394530701
H  H41  1  0.69540000  0.78610000  0.21220000  1.0 0.1090475264
H  H42  1  0.67030000  0.89690000  0.22870000  1.0 0.1611082538
Pt  Pt1  1  0.25720000  0.75276000  0.50498000  1.0 0.1394530701
Pt  Pt2  1  0.74280000  0.24724000  0.49502000  1.0 0.1294062006
Pt  Pt3  1  0.33002000  0.75755000  0.00565000  1.0 0.1471960255
Pt  Pt4  1  0.66998000  0.24245000  0.99435000  1.0 0.1471960255
C  C1  1  0.74150000  0.57080000  0.10920000  1.0 0.0995514335
C  C2  1  0.25850000  0.42920000  0.89080000  1.0 0.0995514335
C  C3  1  0.84940000  0.59660000  0.07430000  1.0 -0.1678973974
C  C4  1  0.15060000  0.40340000  0.92570000  1.0 -0.1678973974
C  C5  1  0.92670000  0.60640000  0.13510000  1.0 0.0693943037
C  C6  1  0.07330000  0.39360000  0.86490000  1.0 0.0693943037
C  C7  1  0.89230000  0.58950000  0.22680000  1.0 -0.1799727471
C  C8  1  0.10770000  0.41050000  0.77320000  1.0 -0.1799727471
C  C9  1  0.78370000  0.56340000  0.25660000  1.0 0.0995514335
C  C10  1  0.21630000  0.43660000  0.74340000  1.0 0.0995514335
C  C11  1  0.02250000  0.72940000  0.99900000  1.0 0.060364521
C  C12  1  0.97750000  0.27060000  0.00100000  1.0 0.060364521
C  C13  1  0.96580000  0.82510000  0.01960000  1.0 -0.1620433198
C  C14  1  0.03420000  0.17490000  0.98040000  1.0 -0.1620433198
C  C15  1  0.92950000  0.89180000  0.94900000  1.0 0.1191182344
C  C16  1  0.07050000  0.10820000  0.05100000  1.0 0.1191182344
C  C17  1  0.00870000  0.77300000  0.83990000  1.0 0.1090475264
C  C18  1  0.99130000  0.22700000  0.16010000  1.0 0.1090475264
C  C19  1  0.04690000  0.70230000  0.90700000  1.0 -0.1892910765
C  C20  1  0.95310000  0.29770000  0.09300000  1.0 -0.1892910765
C  C21  1  0.33880000  0.43690000  0.39090000  1.0 0.1090475264
C  C22  1  0.66120000  0.56310000  0.60910000  1.0 0.1090475264
C  C23  1  0.23140000  0.41090000  0.42370000  1.0 -0.1892910765
C  C24  1  0.76860000  0.58910000  0.57630000  1.0 -0.1892910765
C  C25  1  0.15600000  0.40480000  0.36030000  1.0 0.060364521
C  C26  1  0.84400000  0.59520000  0.63970000  1.0 0.060364521
C  C27  1  0.19490000  0.42340000  0.26700000  1.0 -0.1892910765
C  C28  1  0.80510000  0.57660000  0.73300000  1.0 -0.1892910765
C  C29  1  0.30140000  0.44890000  0.24210000  1.0 0.0995514335
C  C30  1  0.69860000  0.55110000  0.75790000  1.0 0.0995514335
C  C31  1  0.03410000  0.29960000  0.50050000  1.0 0.0392976061
C  C32  1  0.96590000  0.70040000  0.49950000  1.0 0.0392976061
C  C33  1  0.95920000  0.32230000  0.58280000  1.0 -0.2107876481
C  C34  1  0.04080000  0.67770000  0.41720000  1.0 -0.2107876481
C  C35  1  0.97820000  0.25510000  0.65560000  1.0 0.0890707879
C  C36  1  0.02180000  0.74490000  0.34440000  1.0 0.0890707879
C  C37  1  0.14340000  0.14550000  0.56450000  1.0 0.0799625065
C  C38  1  0.85660000  0.85450000  0.43550000  1.0 0.0799625065
C  C39  1  0.12880000  0.20690000  0.48840000  1.0 -0.1546046452
C  C40  1  0.87120000  0.79310000  0.51160000  1.0 -0.1546046452
C  C41  1  0.39020000  0.66780000  0.41120000  1.0 0.052668702
C  C42  1  0.60980000  0.33220000  0.58880000  1.0 0.052668702
C  C43  1  0.31330000  0.65160000  0.60150000  1.0 0.060364521
C  C44  1  0.68670000  0.34840000  0.39850000  1.0 0.060364521
C  C45  1  0.11980000  0.83640000  0.59790000  1.0 0.0799625065
C  C46  1  0.88020000  0.16360000  0.40210000  1.0 0.0799625065
C  C47  1  0.20130000  0.85600000  0.41010000  1.0 0.0995514335
C  C48  1  0.79870000  0.14400000  0.58990000  1.0 0.0995514335
C  C49  1  0.27670000  0.86100000  0.09900000  1.0 0.0890707879
C  C50  1  0.72330000  0.13900000  0.90100000  1.0 0.0890707879
C  C51  1  0.26710000  0.85820000  0.91150000  1.0 0.0197896131
C  C52  1  0.73290000  0.14180000  0.08850000  1.0 0.0197896131
C  C53  1  0.37430000  0.65600000  0.91080000  1.0 0.0799625065
C  C54  1  0.62570000  0.34400000  0.08920000  1.0 0.0799625065
C  C55  1  0.39690000  0.66060000  0.10060000  1.0 0.0392976061
C  C56  1  0.60310000  0.33940000  0.89940000  1.0 0.0392976061
C  C57  1  0.47800000  0.14640000  0.71700000  1.0 0.0197896131
C  C58  1  0.36690000  0.14940000  0.78650000  1.0 -0.3658711554
C  C59  1  0.52200000  0.85360000  0.28300000  1.0 0.0197896131
C  C60  1  0.63310000  0.85060000  0.21350000  1.0 -0.3658711554
Se  Se1  1  0.08101000  0.63685000  0.09421000  1.0 -0.0075857237
Se  Se2  1  0.91899000  0.36315000  0.90579000  1.0 -0.0075857237
Se  Se3  1  0.99917000  0.37894000  0.39289000  1.0 0.0197896131
Se  Se4  1  0.00083000  0.62106000  0.60711000  1.0 0.0197896131
N  N1  1  0.70940000  0.55390000  0.19920000  1.0 -0.2107876481
N  N2  1  0.29060000  0.44610000  0.80080000  1.0 -0.2107876481
N  N3  1  0.94930000  0.86740000  0.85950000  1.0 -0.2471640871
N  N4  1  0.05070000  0.13260000  0.14050000  1.0 -0.2471640871
N  N5  1  0.37520000  0.45720000  0.30210000  1.0 -0.2189826312
N  N6  1  0.62480000  0.54280000  0.69790000  1.0 -0.2189826312
N  N7  1  0.07140000  0.17120000  0.64920000  1.0 -0.1398975419
N  N8  1  0.92860000  0.82880000  0.35080000  1.0 -0.1398975419
N  N9  1  0.46370000  0.61560000  0.35810000  1.0 -0.3535089584
N  N10  1  0.53630000  0.38440000  0.64190000  1.0 -0.3535089584
N  N11  1  0.35280000  0.59380000  0.65420000  1.0 -0.3624736236
N  N12  1  0.64720000  0.40620000  0.34580000  1.0 -0.3624736236
N  N13  1  0.04020000  0.88350000  0.65080000  1.0 -0.3823771046
N  N14  1  0.95980000  0.11650000  0.34920000  1.0 -0.3823771046
N  N15  1  0.16680000  0.91560000  0.35750000  1.0 -0.3658711554
N  N16  1  0.83320000  0.08440000  0.64250000  1.0 -0.3658711554
N  N17  1  0.24040000  0.92290000  0.15120000  1.0 -0.3823771046
N  N18  1  0.75960000  0.07710000  0.84880000  1.0 -0.3823771046
N  N19  1  0.23380000  0.91810000  0.85790000  1.0 -0.2991503394
N  N20  1  0.76620000  0.08190000  0.14210000  1.0 -0.2991503394
N  N21  1  0.39920000  0.59920000  0.85400000  1.0 -0.3535089584
N  N22  1  0.60080000  0.40080000  0.14600000  1.0 -0.3535089584
N  N23  1  0.43740000  0.60640000  0.15750000  1.0 -0.3624736236
N  N24  1  0.56260000  0.39360000  0.84250000  1.0 -0.3624736236
O  O1  1  0.24700000  0.08090000  0.27440000  1.0 -0.3998649137
O  O2  1  0.75300000  0.91910000  0.72560000  1.0 -0.3998649137
O  O3  1  0.97020000  0.96240000  0.22140000  1.0 -0.2991503394
O  O4  1  0.02980000  0.03760000  0.77860000  1.0 -0.2935415821
O  O5  1  0.53790000  0.04700000  0.66820000  1.0 -0.1398975419
O  O6  1  0.46210000  0.95300000  0.33180000  1.0 -0.1398975419
