# DDEC6 charges by PACMAN v1.1 (https://github.com/mtap-research/PACMAN-charge/)
data_VONCIM_ASR_pacman
_symmetry_space_group_name_H-M   'P 1'
_cell_length_a   5.16550000
_cell_length_b   19.39700000
_cell_length_c   27.62000000
_cell_angle_alpha   90.00000000
_cell_angle_beta   90.00000000
_cell_angle_gamma   90.00000000
_symmetry_Int_Tables_number   1
_chemical_formula_structural   Zn3P4H14(CO2)6
_chemical_formula_sum   'Zn12 P16 H56 C24 O48'
_cell_volume   2767.39152067
_cell_formula_units_Z   4
loop_
 _symmetry_equiv_pos_site_id
 _symmetry_equiv_pos_as_xyz
  1  'x, y, z'
loop_
 _atom_site_type_symbol
 _atom_site_label
 _atom_site_symmetry_multiplicity
 _atom_site_fract_x
 _atom_site_fract_y
 _atom_site_fract_z
 _atom_site_occupancy
 _atom_site_charge
Zn  Zn1  1  0.77962000  0.29616000  0.70202000  1.0 1.0669632772
Zn  Zn2  1  0.77962000  0.70384000  0.29798000  1.0 1.0669632772
Zn  Zn3  1  0.22038000  0.20384000  0.20202000  1.0 1.0669632772
Zn  Zn4  1  0.22038000  0.79616000  0.79798000  1.0 1.0669632772
Zn  Zn5  1  0.22038000  0.20384000  0.79798000  1.0 1.0669632772
Zn  Zn6  1  0.22038000  0.79616000  0.20202000  1.0 1.0669632772
Zn  Zn7  1  0.77962000  0.29616000  0.29798000  1.0 1.0669632772
Zn  Zn8  1  0.77962000  0.70384000  0.70202000  1.0 1.0669632772
Zn  Zn9  1  0.20559000  0.20009000  0.00000000  1.0 1.1525935003
Zn  Zn10  1  0.20559000  0.79991000  0.00000000  1.0 1.1525935003
Zn  Zn11  1  0.79441000  0.29991000  0.50000000  1.0 1.1525935003
Zn  Zn12  1  0.79441000  0.70009000  0.50000000  1.0 1.1525935003
P  P1  1  0.73535000  0.14665000  0.74933000  1.0 1.3319032261
P  P2  1  0.73535000  0.85335000  0.25067000  1.0 1.3319032261
P  P3  1  0.26465000  0.35335000  0.24933000  1.0 1.3319032261
P  P4  1  0.26465000  0.64665000  0.75067000  1.0 1.3319032261
P  P5  1  0.26465000  0.35335000  0.75067000  1.0 1.3319032261
P  P6  1  0.26465000  0.64665000  0.24933000  1.0 1.3319032261
P  P7  1  0.73535000  0.14665000  0.25067000  1.0 1.3319032261
P  P8  1  0.73535000  0.85335000  0.74933000  1.0 1.3319032261
P  P9  1  0.44069000  0.14472000  0.89546000  1.0 1.3230166057
P  P10  1  0.44069000  0.85528000  0.10454000  1.0 1.3230166057
P  P11  1  0.55931000  0.35528000  0.39546000  1.0 1.3230166057
P  P12  1  0.55931000  0.64472000  0.60454000  1.0 1.3230166057
P  P13  1  0.55931000  0.35528000  0.60454000  1.0 1.3230166057
P  P14  1  0.55931000  0.64472000  0.39546000  1.0 1.3230166057
P  P15  1  0.44069000  0.14472000  0.10454000  1.0 1.3230166057
P  P16  1  0.44069000  0.85528000  0.89546000  1.0 1.3230166057
H  H1  1  0.73390000  0.06180000  0.69120000  1.0 0.1402604276
H  H2  1  0.73390000  0.93820000  0.30880000  1.0 0.1402604276
H  H3  1  0.26610000  0.43820000  0.19120000  1.0 0.1402604276
H  H4  1  0.26610000  0.56180000  0.80880000  1.0 0.1402604276
H  H5  1  0.26610000  0.43820000  0.80880000  1.0 0.1402604276
H  H6  1  0.26610000  0.56180000  0.19120000  1.0 0.1402604276
H  H7  1  0.73390000  0.06180000  0.30880000  1.0 0.1402604276
H  H8  1  0.73390000  0.93820000  0.69120000  1.0 0.1402604276
H  H9  1  0.00540000  0.06320000  0.71860000  1.0 0.148526221
H  H10  1  0.00540000  0.93680000  0.28140000  1.0 0.148526221
H  H11  1  0.99460000  0.43680000  0.21860000  1.0 0.148526221
H  H12  1  0.99460000  0.56320000  0.78140000  1.0 0.148526221
H  H13  1  0.99460000  0.43680000  0.78140000  1.0 0.148526221
H  H14  1  0.99460000  0.56320000  0.21860000  1.0 0.148526221
H  H15  1  0.00540000  0.06320000  0.28140000  1.0 0.148526221
H  H16  1  0.00540000  0.93680000  0.71860000  1.0 0.148526221
H  H17  1  0.82510000  0.00000000  0.78390000  1.0 0.1008301148
H  H18  1  0.82510000  0.00000000  0.21610000  1.0 0.1008301148
H  H19  1  0.17490000  0.50000000  0.28390000  1.0 0.1008301148
H  H20  1  0.17490000  0.50000000  0.71610000  1.0 0.1008301148
H  H21  1  0.54850000  0.00000000  0.75750000  1.0 0.1008301148
H  H22  1  0.54850000  0.00000000  0.24250000  1.0 0.1008301148
H  H23  1  0.45150000  0.50000000  0.25750000  1.0 0.1008301148
H  H24  1  0.45150000  0.50000000  0.74250000  1.0 0.1008301148
H  H25  1  0.12820000  0.06310000  0.87970000  1.0 0.148526221
H  H26  1  0.12820000  0.93690000  0.12030000  1.0 0.148526221
H  H27  1  0.87180000  0.43690000  0.37970000  1.0 0.148526221
H  H28  1  0.87180000  0.56310000  0.62030000  1.0 0.148526221
H  H29  1  0.87180000  0.43690000  0.62030000  1.0 0.148526221
H  H30  1  0.87180000  0.56310000  0.37970000  1.0 0.148526221
H  H31  1  0.12820000  0.06310000  0.12030000  1.0 0.148526221
H  H32  1  0.12820000  0.93690000  0.87970000  1.0 0.148526221
H  H33  1  0.34300000  0.06250000  0.83820000  1.0 0.1402604276
H  H34  1  0.34300000  0.93750000  0.16180000  1.0 0.1402604276
H  H35  1  0.65700000  0.43750000  0.33820000  1.0 0.1402604276
H  H36  1  0.65700000  0.56250000  0.66180000  1.0 0.1402604276
H  H37  1  0.65700000  0.43750000  0.66180000  1.0 0.1402604276
H  H38  1  0.65700000  0.56250000  0.33820000  1.0 0.1402604276
H  H39  1  0.34300000  0.06250000  0.16180000  1.0 0.1402604276
H  H40  1  0.34300000  0.93750000  0.83820000  1.0 0.1402604276
H  H41  1  0.77080000  0.14550000  0.85650000  1.0 0.3806019904
H  H42  1  0.77080000  0.85450000  0.14350000  1.0 0.3806019904
H  H43  1  0.22920000  0.35450000  0.35650000  1.0 0.3806019904
H  H44  1  0.22920000  0.64550000  0.64350000  1.0 0.3806019904
H  H45  1  0.22920000  0.35450000  0.64350000  1.0 0.3806019904
H  H46  1  0.22920000  0.64550000  0.35650000  1.0 0.3806019904
H  H47  1  0.77080000  0.14550000  0.14350000  1.0 0.3806019904
H  H48  1  0.77080000  0.85450000  0.85650000  1.0 0.3806019904
H  H49  1  0.40860000  0.00000000  0.93140000  1.0 0.1096366415
H  H50  1  0.40860000  0.00000000  0.06860000  1.0 0.1096366415
H  H51  1  0.59140000  0.50000000  0.43140000  1.0 0.1096366415
H  H52  1  0.59140000  0.50000000  0.56860000  1.0 0.1096366415
H  H53  1  0.62680000  0.00000000  0.89010000  1.0 0.1008301148
H  H54  1  0.62680000  0.00000000  0.10990000  1.0 0.1008301148
H  H55  1  0.37320000  0.50000000  0.39010000  1.0 0.1008301148
H  H56  1  0.37320000  0.50000000  0.60990000  1.0 0.1008301148
C  C1  1  0.81560000  0.06456000  0.72354000  1.0 -0.457220622
C  C2  1  0.81560000  0.93544000  0.27646000  1.0 -0.457220622
C  C3  1  0.18440000  0.43544000  0.22354000  1.0 -0.457220622
C  C4  1  0.18440000  0.56456000  0.77646000  1.0 -0.457220622
C  C5  1  0.18440000  0.43544000  0.77646000  1.0 -0.457220622
C  C6  1  0.18440000  0.56456000  0.22354000  1.0 -0.457220622
C  C7  1  0.81560000  0.06456000  0.27646000  1.0 -0.457220622
C  C8  1  0.81560000  0.93544000  0.72354000  1.0 -0.457220622
C  C9  1  0.73790000  0.00000000  0.75202000  1.0 -0.0739733973
C  C10  1  0.73790000  0.00000000  0.24798000  1.0 -0.0739733973
C  C11  1  0.26210000  0.50000000  0.25202000  1.0 -0.0739733973
C  C12  1  0.26210000  0.50000000  0.74798000  1.0 -0.0739733973
C  C13  1  0.31700000  0.06431000  0.87368000  1.0 -0.5094265124
C  C14  1  0.31700000  0.93569000  0.12632000  1.0 -0.5094265124
C  C15  1  0.68300000  0.43569000  0.37368000  1.0 -0.5094265124
C  C16  1  0.68300000  0.56431000  0.62632000  1.0 -0.5094265124
C  C17  1  0.68300000  0.43569000  0.62632000  1.0 -0.5094265124
C  C18  1  0.68300000  0.56431000  0.37368000  1.0 -0.5094265124
C  C19  1  0.31700000  0.06431000  0.12632000  1.0 -0.5094265124
C  C20  1  0.31700000  0.93569000  0.87368000  1.0 -0.5094265124
C  C21  1  0.43770000  0.00000000  0.89597000  1.0 -0.0352678677
C  C22  1  0.43770000  0.00000000  0.10403000  1.0 -0.0346365763
C  C23  1  0.56230000  0.50000000  0.39597000  1.0 -0.0352678677
C  C24  1  0.56230000  0.50000000  0.60403000  1.0 -0.0346365763
O  O1  1  0.68080000  0.29718000  0.63369000  1.0 -0.7607705077
O  O2  1  0.68080000  0.70282000  0.36631000  1.0 -0.7607705077
O  O3  1  0.31920000  0.20282000  0.13369000  1.0 -0.7607705077
O  O4  1  0.31920000  0.79718000  0.86631000  1.0 -0.7607705077
O  O5  1  0.31920000  0.20282000  0.86631000  1.0 -0.7607705077
O  O6  1  0.31920000  0.79718000  0.13369000  1.0 -0.7607705077
O  O7  1  0.68080000  0.29718000  0.36631000  1.0 -0.7607705077
O  O8  1  0.68080000  0.70282000  0.63369000  1.0 -0.7607705077
O  O9  1  0.55380000  0.35109000  0.74164000  1.0 -0.7831283963
O  O10  1  0.55380000  0.64891000  0.25836000  1.0 -0.7831283963
O  O11  1  0.44620000  0.14891000  0.24164000  1.0 -0.7855924299
O  O12  1  0.44620000  0.85109000  0.75836000  1.0 -0.7831283963
O  O13  1  0.44620000  0.14891000  0.75836000  1.0 -0.7831283963
O  O14  1  0.44620000  0.85109000  0.24164000  1.0 -0.7855924299
O  O15  1  0.55380000  0.35109000  0.25836000  1.0 -0.7831283963
O  O16  1  0.55380000  0.64891000  0.74164000  1.0 -0.7831283963
O  O17  1  0.11360000  0.34469000  0.70275000  1.0 -0.7831283963
O  O18  1  0.11360000  0.65531000  0.29725000  1.0 -0.7744609049
O  O19  1  0.88640000  0.15531000  0.20275000  1.0 -0.7744609049
O  O20  1  0.88640000  0.84469000  0.79725000  1.0 -0.7744609049
O  O21  1  0.88640000  0.15531000  0.79725000  1.0 -0.7744609049
O  O22  1  0.88640000  0.84469000  0.20275000  1.0 -0.7744609049
O  O23  1  0.11360000  0.34469000  0.29725000  1.0 -0.7744609049
O  O24  1  0.11360000  0.65531000  0.70275000  1.0 -0.7831283963
O  O25  1  0.83140000  0.19919000  0.71234000  1.0 -0.7831283963
O  O26  1  0.83140000  0.80081000  0.28766000  1.0 -0.7831283963
O  O27  1  0.16860000  0.30081000  0.21234000  1.0 -0.7831283963
O  O28  1  0.16860000  0.69919000  0.78766000  1.0 -0.7831283963
O  O29  1  0.16860000  0.30081000  0.78766000  1.0 -0.7831283963
O  O30  1  0.16860000  0.69919000  0.21234000  1.0 -0.7831283963
O  O31  1  0.83140000  0.19919000  0.28766000  1.0 -0.7831283963
O  O32  1  0.83140000  0.80081000  0.71234000  1.0 -0.7831283963
O  O33  1  0.41000000  0.15074000  0.94915000  1.0 -0.7607705077
O  O34  1  0.41000000  0.84926000  0.05085000  1.0 -0.7607705077
O  O35  1  0.59000000  0.34926000  0.44915000  1.0 -0.7607705077
O  O36  1  0.59000000  0.65074000  0.55085000  1.0 -0.7607705077
O  O37  1  0.59000000  0.34926000  0.55085000  1.0 -0.7607705077
O  O38  1  0.59000000  0.65074000  0.44915000  1.0 -0.7607705077
O  O39  1  0.41000000  0.15074000  0.05085000  1.0 -0.7607705077
O  O40  1  0.41000000  0.84926000  0.94915000  1.0 -0.7607705077
O  O41  1  0.74160000  0.14318000  0.88635000  1.0 -0.5762671014
O  O42  1  0.74160000  0.85682000  0.11365000  1.0 -0.5762671014
O  O43  1  0.25840000  0.35682000  0.38635000  1.0 -0.5762671014
O  O44  1  0.25840000  0.64318000  0.61365000  1.0 -0.5762671014
O  O45  1  0.25840000  0.35682000  0.61365000  1.0 -0.5762671014
O  O46  1  0.25840000  0.64318000  0.38635000  1.0 -0.5762671014
O  O47  1  0.74160000  0.14318000  0.11365000  1.0 -0.5762671014
O  O48  1  0.74160000  0.85682000  0.88635000  1.0 -0.5762671014
