# DDEC6 charges by PACMAN v1.1 (https://github.com/mtap-research/PACMAN-charge/)
data_VONRUN_ASR_pacman
_symmetry_space_group_name_H-M   'P 1'
_cell_length_a   6.94730000
_cell_length_b   21.94790000
_cell_length_c   23.18670000
_cell_angle_alpha   90.00000000
_cell_angle_beta   90.00000000
_cell_angle_gamma   90.00000000
_symmetry_Int_Tables_number   1
_chemical_formula_structural   NdH5C12(NO4)3
_chemical_formula_sum   'Nd8 H40 C96 N24 O96'
_cell_volume   3535.47661356
_cell_formula_units_Z   8
loop_
 _symmetry_equiv_pos_site_id
 _symmetry_equiv_pos_as_xyz
  1  'x, y, z'
loop_
 _atom_site_type_symbol
 _atom_site_label
 _atom_site_symmetry_multiplicity
 _atom_site_fract_x
 _atom_site_fract_y
 _atom_site_fract_z
 _atom_site_occupancy
 _atom_site_charge
Nd  Nd1  1  0.57770000  0.23194000  0.05004000  1.0 2.0548835696
Nd  Nd2  1  0.92230000  0.76806000  0.55004000  1.0 2.0552020968
Nd  Nd3  1  0.07770000  0.26806000  0.94996000  1.0 2.0548835696
Nd  Nd4  1  0.42230000  0.73194000  0.44996000  1.0 2.0548835696
Nd  Nd5  1  0.42230000  0.76806000  0.94996000  1.0 2.0552020968
Nd  Nd6  1  0.07770000  0.23194000  0.44996000  1.0 2.0548835696
Nd  Nd7  1  0.92230000  0.73194000  0.05004000  1.0 2.0548835696
Nd  Nd8  1  0.57770000  0.26806000  0.55004000  1.0 2.0548835696
H  H1  1  0.57150000  0.15920000  0.73730000  1.0 0.1108886526
H  H2  1  0.92850000  0.84080000  0.23730000  1.0 0.1108886526
H  H3  1  0.07150000  0.34080000  0.26270000  1.0 0.1108886526
H  H4  1  0.42850000  0.65920000  0.76270000  1.0 0.1108886526
H  H5  1  0.42850000  0.84080000  0.26270000  1.0 0.1108886526
H  H6  1  0.07150000  0.15920000  0.76270000  1.0 0.1108886526
H  H7  1  0.92850000  0.65920000  0.73730000  1.0 0.1108886526
H  H8  1  0.57150000  0.34080000  0.23730000  1.0 0.1108886526
H  H9  1  0.58050000  0.33010000  0.85530000  1.0 0.1402413147
H  H10  1  0.91950000  0.66990000  0.35530000  1.0 0.1402413147
H  H11  1  0.08050000  0.16990000  0.14470000  1.0 0.1402413147
H  H12  1  0.41950000  0.83010000  0.64470000  1.0 0.1402413147
H  H13  1  0.41950000  0.66990000  0.14470000  1.0 0.1402413147
H  H14  1  0.08050000  0.33010000  0.64470000  1.0 0.1402413147
H  H15  1  0.91950000  0.83010000  0.85530000  1.0 0.1402413147
H  H16  1  0.58050000  0.16990000  0.35530000  1.0 0.1402413147
H  H17  1  0.58260000  0.33980000  0.75530000  1.0 0.132009646
H  H18  1  0.91740000  0.66020000  0.25530000  1.0 0.132009646
H  H19  1  0.08260000  0.16020000  0.24470000  1.0 0.132009646
H  H20  1  0.41740000  0.83980000  0.74470000  1.0 0.132009646
H  H21  1  0.41740000  0.66020000  0.24470000  1.0 0.132009646
H  H22  1  0.08260000  0.33980000  0.74470000  1.0 0.132009646
H  H23  1  0.91740000  0.83980000  0.75530000  1.0 0.132009646
H  H24  1  0.58260000  0.16020000  0.25530000  1.0 0.132009646
H  H25  1  0.62100000  0.43740000  0.07070000  1.0 0.2124750708
H  H26  1  0.87900000  0.56260000  0.57070000  1.0 0.2124750708
H  H27  1  0.12100000  0.06260000  0.92930000  1.0 0.2124750708
H  H28  1  0.37900000  0.93740000  0.42930000  1.0 0.2124750708
H  H29  1  0.37900000  0.56260000  0.92930000  1.0 0.2124750708
H  H30  1  0.12100000  0.43740000  0.42930000  1.0 0.2124750708
H  H31  1  0.87900000  0.93740000  0.07070000  1.0 0.2124750708
H  H32  1  0.62100000  0.06260000  0.57070000  1.0 0.2124750708
H  H33  1  0.32130000  0.45930000  0.92570000  1.0 0.1402413147
H  H34  1  0.17870000  0.54070000  0.42570000  1.0 0.1402413147
H  H35  1  0.82130000  0.04070000  0.07430000  1.0 0.1402413147
H  H36  1  0.67870000  0.95930000  0.57430000  1.0 0.1402413147
H  H37  1  0.67870000  0.54070000  0.07430000  1.0 0.1402413147
H  H38  1  0.82130000  0.45930000  0.57430000  1.0 0.1402413147
H  H39  1  0.17870000  0.95930000  0.92570000  1.0 0.1402413147
H  H40  1  0.32130000  0.04070000  0.42570000  1.0 0.1402413147
C  C1  1  0.57890000  0.25760000  0.67230000  1.0 0.5592455716
C  C2  1  0.92110000  0.74240000  0.17230000  1.0 0.5592455716
C  C3  1  0.07890000  0.24240000  0.32770000  1.0 0.5592455716
C  C4  1  0.42110000  0.75760000  0.82770000  1.0 0.5592455716
C  C5  1  0.42110000  0.74240000  0.32770000  1.0 0.5592455716
C  C6  1  0.07890000  0.25760000  0.82770000  1.0 0.5592455716
C  C7  1  0.92110000  0.75760000  0.67230000  1.0 0.5592455716
C  C8  1  0.57890000  0.24240000  0.17230000  1.0 0.5592455716
C  C9  1  0.57690000  0.25110000  0.73730000  1.0 0.0027578418
C  C10  1  0.92310000  0.74890000  0.23730000  1.0 0.0027578418
C  C11  1  0.07690000  0.24890000  0.26270000  1.0 0.0027578418
C  C12  1  0.42310000  0.75110000  0.76270000  1.0 0.0027578418
C  C13  1  0.42310000  0.74890000  0.26270000  1.0 0.0027578418
C  C14  1  0.07690000  0.25110000  0.76270000  1.0 0.0027578418
C  C15  1  0.92310000  0.75110000  0.73730000  1.0 0.0027578418
C  C16  1  0.57690000  0.24890000  0.23730000  1.0 0.0027578418
C  C17  1  0.57350000  0.19350000  0.76080000  1.0 -0.2808267324
C  C18  1  0.92650000  0.80650000  0.26080000  1.0 -0.2808267324
C  C19  1  0.07350000  0.30650000  0.23920000  1.0 -0.2808267324
C  C20  1  0.42650000  0.69350000  0.73920000  1.0 -0.2808267324
C  C21  1  0.42650000  0.80650000  0.23920000  1.0 -0.2808267324
C  C22  1  0.07350000  0.19350000  0.73920000  1.0 -0.2808267324
C  C23  1  0.92650000  0.69350000  0.76080000  1.0 -0.2808267324
C  C24  1  0.57350000  0.30650000  0.26080000  1.0 -0.2808267324
C  C25  1  0.57320000  0.18780000  0.81980000  1.0 0.0681764931
C  C26  1  0.92680000  0.81220000  0.31980000  1.0 0.0681764931
C  C27  1  0.07320000  0.31220000  0.18020000  1.0 0.0681764931
C  C28  1  0.42680000  0.68780000  0.68020000  1.0 0.0681764931
C  C29  1  0.42680000  0.81220000  0.18020000  1.0 0.0681764931
C  C30  1  0.07320000  0.18780000  0.68020000  1.0 0.0681764931
C  C31  1  0.92680000  0.68780000  0.81980000  1.0 0.0681764931
C  C32  1  0.57320000  0.31220000  0.31980000  1.0 0.0681764931
C  C33  1  0.57600000  0.23670000  0.85700000  1.0 -0.1173246427
C  C34  1  0.92400000  0.76330000  0.35700000  1.0 -0.1173246427
C  C35  1  0.07600000  0.26330000  0.14300000  1.0 -0.1173246427
C  C36  1  0.42400000  0.73670000  0.64300000  1.0 -0.1173246427
C  C37  1  0.42400000  0.76330000  0.14300000  1.0 -0.1173246427
C  C38  1  0.07600000  0.23670000  0.64300000  1.0 -0.1173246427
C  C39  1  0.92400000  0.73670000  0.85700000  1.0 -0.1173246427
C  C40  1  0.57600000  0.26330000  0.35700000  1.0 -0.1173246427
C  C41  1  0.57910000  0.29560000  0.83210000  1.0 -0.08914418
C  C42  1  0.92090000  0.70440000  0.33210000  1.0 -0.08914418
C  C43  1  0.07910000  0.20440000  0.16790000  1.0 -0.08914418
C  C44  1  0.42090000  0.79560000  0.66790000  1.0 -0.08914418
C  C45  1  0.42090000  0.70440000  0.16790000  1.0 -0.08914418
C  C46  1  0.07910000  0.29560000  0.66790000  1.0 -0.08914418
C  C47  1  0.92090000  0.79560000  0.83210000  1.0 -0.08914418
C  C48  1  0.57910000  0.20440000  0.33210000  1.0 -0.08914418
C  C49  1  0.57990000  0.30130000  0.77190000  1.0 -0.0970574402
C  C50  1  0.92010000  0.69870000  0.27190000  1.0 -0.0970574402
C  C51  1  0.07990000  0.19870000  0.22810000  1.0 -0.0970574402
C  C52  1  0.42010000  0.80130000  0.72810000  1.0 -0.0970574402
C  C53  1  0.42010000  0.69870000  0.22810000  1.0 -0.0970574402
C  C54  1  0.07990000  0.30130000  0.72810000  1.0 -0.0970574402
C  C55  1  0.92010000  0.80130000  0.77190000  1.0 -0.0970574402
C  C56  1  0.57990000  0.19870000  0.27190000  1.0 -0.0970574402
C  C57  1  0.57430000  0.23350000  0.92071000  1.0 0.5271350742
C  C58  1  0.92570000  0.76650000  0.42071000  1.0 0.5271350742
C  C59  1  0.07430000  0.26650000  0.07929000  1.0 0.5271350742
C  C60  1  0.42570000  0.73350000  0.57929000  1.0 0.5271350742
C  C61  1  0.42570000  0.76650000  0.07929000  1.0 0.5271350742
C  C62  1  0.07430000  0.23350000  0.57929000  1.0 0.5271350742
C  C63  1  0.92570000  0.73350000  0.92071000  1.0 0.5271350742
C  C64  1  0.57430000  0.26650000  0.42071000  1.0 0.5271350742
C  C65  1  0.42930000  0.36990000  0.99340000  1.0 0.6328995303
C  C66  1  0.07070000  0.63010000  0.49340000  1.0 0.6328995303
C  C67  1  0.92930000  0.13010000  0.00660000  1.0 0.6328995303
C  C68  1  0.57070000  0.86990000  0.50660000  1.0 0.6328995303
C  C69  1  0.57070000  0.63010000  0.00660000  1.0 0.6328995303
C  C70  1  0.92930000  0.36990000  0.50660000  1.0 0.6328995303
C  C71  1  0.07070000  0.86990000  0.99340000  1.0 0.6328995303
C  C72  1  0.42930000  0.13010000  0.49340000  1.0 0.6328995303
C  C73  1  0.46370000  0.43740000  0.99790000  1.0 -0.0161649474
C  C74  1  0.03630000  0.56260000  0.49790000  1.0 -0.0161649474
C  C75  1  0.96370000  0.06260000  0.00210000  1.0 -0.0161649474
C  C76  1  0.53630000  0.93740000  0.50210000  1.0 -0.0161649474
C  C77  1  0.53630000  0.56260000  0.00210000  1.0 -0.0161649474
C  C78  1  0.96370000  0.43740000  0.50210000  1.0 -0.0161649474
C  C79  1  0.03630000  0.93740000  0.99790000  1.0 -0.0161649474
C  C80  1  0.46370000  0.06260000  0.49790000  1.0 -0.0161649474
C  C81  1  0.57070000  0.46250000  0.04170000  1.0 -0.0381458885
C  C82  1  0.92930000  0.53750000  0.54170000  1.0 -0.0381458885
C  C83  1  0.07070000  0.03750000  0.95830000  1.0 -0.0381458885
C  C84  1  0.42930000  0.96250000  0.45830000  1.0 -0.0381458885
C  C85  1  0.42930000  0.53750000  0.95830000  1.0 -0.0381458885
C  C86  1  0.07070000  0.46250000  0.45830000  1.0 -0.0381458885
C  C87  1  0.92930000  0.96250000  0.04170000  1.0 -0.0381458885
C  C88  1  0.57070000  0.03750000  0.54170000  1.0 -0.0381458885
C  C89  1  0.39340000  0.47530000  0.95590000  1.0 -0.1530565991
C  C90  1  0.10660000  0.52470000  0.45590000  1.0 -0.1530565991
C  C91  1  0.89340000  0.02470000  0.04410000  1.0 -0.1530565991
C  C92  1  0.60660000  0.97530000  0.54410000  1.0 -0.1530565991
C  C93  1  0.60660000  0.52470000  0.04410000  1.0 -0.1530565991
C  C94  1  0.89340000  0.47530000  0.54410000  1.0 -0.1530565991
C  C95  1  0.10660000  0.97530000  0.95590000  1.0 -0.1530565991
C  C96  1  0.39340000  0.02470000  0.45590000  1.0 -0.1530565991
N  N1  1  0.52550000  0.12600000  0.84440000  1.0 0.3297383488
N  N2  1  0.97450000  0.87400000  0.34440000  1.0 0.3297383488
N  N3  1  0.02550000  0.37400000  0.15560000  1.0 0.3297383488
N  N4  1  0.47450000  0.62600000  0.65560000  1.0 0.3297383488
N  N5  1  0.47450000  0.87400000  0.15560000  1.0 0.3297383488
N  N6  1  0.02550000  0.12600000  0.65560000  1.0 0.3297383488
N  N7  1  0.97450000  0.62600000  0.84440000  1.0 0.3297383488
N  N8  1  0.52550000  0.37400000  0.34440000  1.0 0.3297383488
N  N9  1  0.63020000  0.12620000  0.84320000  1.0 0.3297383488
N  N10  1  0.86980000  0.87380000  0.34320000  1.0 0.3297383488
N  N11  1  0.13020000  0.37380000  0.15680000  1.0 0.3297383488
N  N12  1  0.36980000  0.62620000  0.65680000  1.0 0.3297383488
N  N13  1  0.36980000  0.87380000  0.15680000  1.0 0.3297383488
N  N14  1  0.13020000  0.12620000  0.65680000  1.0 0.3297383488
N  N15  1  0.86980000  0.62620000  0.84320000  1.0 0.3297383488
N  N16  1  0.63020000  0.37380000  0.34320000  1.0 0.3297383488
N  N17  1  0.62000000  0.42950000  0.09910000  1.0 0.2826518566
N  N18  1  0.88000000  0.57050000  0.59910000  1.0 0.2826518566
N  N19  1  0.12000000  0.07050000  0.90090000  1.0 0.2826518566
N  N20  1  0.38000000  0.92950000  0.40090000  1.0 0.2826518566
N  N21  1  0.38000000  0.57050000  0.90090000  1.0 0.2826518566
N  N22  1  0.12000000  0.42950000  0.40090000  1.0 0.2826518566
N  N23  1  0.88000000  0.92950000  0.09910000  1.0 0.2826518566
N  N24  1  0.62000000  0.07050000  0.59910000  1.0 0.2826518566
O  O1  1  0.59180000  0.30994000  0.64948000  1.0 -0.6346576809
O  O2  1  0.90820000  0.69006000  0.14948000  1.0 -0.6346576809
O  O3  1  0.09180000  0.19006000  0.35052000  1.0 -0.6346576809
O  O4  1  0.40820000  0.80994000  0.85052000  1.0 -0.6346576809
O  O5  1  0.40820000  0.69006000  0.35052000  1.0 -0.6346576809
O  O6  1  0.09180000  0.30994000  0.85052000  1.0 -0.6346576809
O  O7  1  0.90820000  0.80994000  0.64948000  1.0 -0.6346576809
O  O8  1  0.59180000  0.19006000  0.14948000  1.0 -0.6346576809
O  O9  1  0.56660000  0.21100000  0.64111000  1.0 -0.6378474533
O  O10  1  0.93340000  0.78900000  0.14111000  1.0 -0.6378474533
O  O11  1  0.06660000  0.28900000  0.35889000  1.0 -0.6378474533
O  O12  1  0.43340000  0.71100000  0.85889000  1.0 -0.6378474533
O  O13  1  0.43340000  0.78900000  0.35889000  1.0 -0.6378474533
O  O14  1  0.06660000  0.21100000  0.85889000  1.0 -0.6378474533
O  O15  1  0.93340000  0.71100000  0.64111000  1.0 -0.6378474533
O  O16  1  0.56660000  0.28900000  0.14111000  1.0 -0.6378474533
O  O17  1  0.56190000  0.11710000  0.89480000  1.0 0.0148607512
O  O18  1  0.93810000  0.88290000  0.39480000  1.0 0.0148607512
O  O19  1  0.06190000  0.38290000  0.10520000  1.0 0.0148607512
O  O20  1  0.43810000  0.61710000  0.60520000  1.0 0.0148607512
O  O21  1  0.43810000  0.88290000  0.10520000  1.0 0.0148607512
O  O22  1  0.06190000  0.11710000  0.60520000  1.0 0.0148607512
O  O23  1  0.93810000  0.61710000  0.89480000  1.0 0.0148607512
O  O24  1  0.56190000  0.38290000  0.39480000  1.0 0.0148607512
O  O25  1  0.45660000  0.08570000  0.81390000  1.0 -0.08914418
O  O26  1  0.04340000  0.91430000  0.31390000  1.0 -0.08914418
O  O27  1  0.95660000  0.41430000  0.18610000  1.0 -0.08914418
O  O28  1  0.54340000  0.58570000  0.68610000  1.0 -0.08914418
O  O29  1  0.54340000  0.91430000  0.18610000  1.0 -0.08914418
O  O30  1  0.95660000  0.08570000  0.68610000  1.0 -0.08914418
O  O31  1  0.04340000  0.58570000  0.81390000  1.0 -0.08914418
O  O32  1  0.45660000  0.41430000  0.31390000  1.0 -0.08914418
O  O33  1  0.41550000  0.22670000  0.94669000  1.0 -0.6868110447
O  O34  1  0.08450000  0.77330000  0.44669000  1.0 -0.6868110447
O  O35  1  0.91550000  0.27330000  0.05331000  1.0 -0.6868110447
O  O36  1  0.58450000  0.72670000  0.55331000  1.0 -0.6868110447
O  O37  1  0.58450000  0.77330000  0.05331000  1.0 -0.6868110447
O  O38  1  0.91550000  0.22670000  0.55331000  1.0 -0.6868110447
O  O39  1  0.08450000  0.72670000  0.94669000  1.0 -0.6868110447
O  O40  1  0.41550000  0.27330000  0.44669000  1.0 -0.6868110447
O  O41  1  0.72570000  0.24156000  0.94754000  1.0 -0.6633810102
O  O42  1  0.77430000  0.75844000  0.44754000  1.0 -0.6633810102
O  O43  1  0.22570000  0.25844000  0.05246000  1.0 -0.6633810102
O  O44  1  0.27430000  0.74156000  0.55246000  1.0 -0.6633810102
O  O45  1  0.27430000  0.75844000  0.05246000  1.0 -0.6633810102
O  O46  1  0.22570000  0.24156000  0.55246000  1.0 -0.6633810102
O  O47  1  0.77430000  0.74156000  0.94754000  1.0 -0.6633810102
O  O48  1  0.72570000  0.25844000  0.44754000  1.0 -0.6633810102
O  O49  1  0.29380000  0.35226000  0.96260000  1.0 -0.6531343161
O  O50  1  0.20620000  0.64774000  0.46260000  1.0 -0.6531343161
O  O51  1  0.79380000  0.14774000  0.03740000  1.0 -0.6531343161
O  O52  1  0.70620000  0.85226000  0.53740000  1.0 -0.6531343161
O  O53  1  0.70620000  0.64774000  0.03740000  1.0 -0.6531343161
O  O54  1  0.79380000  0.35226000  0.53740000  1.0 -0.6531343161
O  O55  1  0.20620000  0.85226000  0.96260000  1.0 -0.6531343161
O  O56  1  0.29380000  0.14774000  0.46260000  1.0 -0.6531343161
O  O57  1  0.54690000  0.33601000  0.02047000  1.0 -0.6656234711
O  O58  1  0.95310000  0.66399000  0.52047000  1.0 -0.6656234711
O  O59  1  0.04690000  0.16399000  0.97953000  1.0 -0.6656234711
O  O60  1  0.45310000  0.83601000  0.47953000  1.0 -0.6656234711
O  O61  1  0.45310000  0.66399000  0.97953000  1.0 -0.6656234711
O  O62  1  0.04690000  0.33601000  0.47953000  1.0 -0.6656234711
O  O63  1  0.95310000  0.83601000  0.02047000  1.0 -0.6656234711
O  O64  1  0.54690000  0.16399000  0.52047000  1.0 -0.6656234711
O  O65  1  0.65520000  0.12070000  0.89510000  1.0 0.0219338519
O  O66  1  0.84480000  0.87930000  0.39510000  1.0 0.0219338519
O  O67  1  0.15520000  0.37930000  0.10490000  1.0 0.0219338519
O  O68  1  0.34480000  0.62070000  0.60490000  1.0 0.0219338519
O  O69  1  0.34480000  0.87930000  0.10490000  1.0 0.0219338519
O  O70  1  0.15520000  0.12070000  0.60490000  1.0 0.0219338519
O  O71  1  0.84480000  0.62070000  0.89510000  1.0 0.0219338519
O  O72  1  0.65520000  0.37930000  0.39510000  1.0 0.0219338519
O  O73  1  0.63110000  0.08230000  0.81020000  1.0 -0.0970574402
O  O74  1  0.86890000  0.91770000  0.31020000  1.0 -0.0970574402
O  O75  1  0.13110000  0.41770000  0.18980000  1.0 -0.0970574402
O  O76  1  0.36890000  0.58230000  0.68980000  1.0 -0.0970574402
O  O77  1  0.36890000  0.91770000  0.18980000  1.0 -0.0970574402
O  O78  1  0.13110000  0.08230000  0.68980000  1.0 -0.0970574402
O  O79  1  0.86890000  0.58230000  0.81020000  1.0 -0.0970574402
O  O80  1  0.63110000  0.41770000  0.31020000  1.0 -0.0970574402
O  O81  1  0.50100000  0.41940000  0.13330000  1.0 -0.3299754038
O  O82  1  0.99900000  0.58060000  0.63330000  1.0 -0.3299754038
O  O83  1  0.00100000  0.08060000  0.86670000  1.0 -0.3299754038
O  O84  1  0.49900000  0.91940000  0.36670000  1.0 -0.3299754038
O  O85  1  0.49900000  0.58060000  0.86670000  1.0 -0.3299754038
O  O86  1  0.00100000  0.41940000  0.36670000  1.0 -0.3299754038
O  O87  1  0.99900000  0.91940000  0.13330000  1.0 -0.3299754038
O  O88  1  0.50100000  0.08060000  0.63330000  1.0 -0.3299754038
O  O89  1  0.78300000  0.41890000  0.10350000  1.0 -0.3106044381
O  O90  1  0.71700000  0.58110000  0.60350000  1.0 -0.3106044381
O  O91  1  0.28300000  0.08110000  0.89650000  1.0 -0.3106044381
O  O92  1  0.21700000  0.91890000  0.39650000  1.0 -0.3106044381
O  O93  1  0.21700000  0.58110000  0.89650000  1.0 -0.3106044381
O  O94  1  0.28300000  0.41890000  0.39650000  1.0 -0.3106044381
O  O95  1  0.71700000  0.91890000  0.10350000  1.0 -0.3106044381
O  O96  1  0.78300000  0.08110000  0.60350000  1.0 -0.3106044381
