# DDEC6 charges by PACMAN v1.1 (https://github.com/mtap-research/PACMAN-charge/)
data_VOQWUV_ion_pacman
_symmetry_space_group_name_H-M   'P 1'
_cell_length_a   18.22400000
_cell_length_b   18.23900000
_cell_length_c   20.80800000
_cell_angle_alpha   85.94200000
_cell_angle_beta   83.55800000
_cell_angle_gamma   63.39800000
_symmetry_Int_Tables_number   1
_chemical_formula_structural   Cd3H88C130(N12O7)2
_chemical_formula_sum   'Cd6 H176 C260 N48 O28'
_cell_volume   6143.46156308
_cell_formula_units_Z   2
loop_
 _symmetry_equiv_pos_site_id
 _symmetry_equiv_pos_as_xyz
  1  'x, y, z'
loop_
 _atom_site_type_symbol
 _atom_site_label
 _atom_site_symmetry_multiplicity
 _atom_site_fract_x
 _atom_site_fract_y
 _atom_site_fract_z
 _atom_site_occupancy
 _atom_site_charge
Cd  Cd1  1  0.42341000  0.17257000  0.71522000  1.0 0.8493115116
Cd  Cd2  1  0.57659000  0.82743000  0.28478000  1.0 0.8493115116
Cd  Cd3  1  0.61851000  0.58806000  0.72310000  1.0 0.8402185549
Cd  Cd4  1  0.38149000  0.41194000  0.27690000  1.0 0.8402185549
Cd  Cd5  1  0.97308000  0.21422000  0.25908000  1.0 0.8493115116
Cd  Cd6  1  0.02692000  0.78578000  0.74092000  1.0 0.8493115116
H  H1  1  0.71190000  0.97000000  0.73140000  1.0 0.1401121379
H  H2  1  0.28810000  0.03000000  0.26860000  1.0 0.1401121379
H  H3  1  0.80620000  0.72980000  0.69370000  1.0 0.1202472279
H  H4  1  0.19380000  0.27020000  0.30630000  1.0 0.1202472279
H  H5  1  0.56150000  0.87260000  0.70100000  1.0 0.1202472279
H  H6  1  0.43850000  0.12740000  0.29900000  1.0 0.1202472279
H  H7  1  0.48550000  0.41230000  0.74620000  1.0 0.1202472279
H  H8  1  0.51450000  0.58770000  0.25380000  1.0 0.1202472279
H  H9  1  0.31800000  0.64900000  0.73900000  1.0 0.1202472279
H  H10  1  0.68200000  0.35100000  0.26100000  1.0 0.1202472279
H  H11  1  0.24760000  0.46970000  0.73520000  1.0 0.1202472279
H  H12  1  0.75240000  0.53030000  0.26480000  1.0 0.1202472279
H  H13  1  0.24890000  0.30420000  0.66340000  1.0 0.1202472279
H  H14  1  0.75110000  0.69580000  0.33660000  1.0 0.1202472279
H  H15  1  0.36080000  0.01430000  0.68990000  1.0 0.1489022364
H  H16  1  0.63920000  0.98570000  0.31010000  1.0 0.1489022364
H  H17  1  0.28220000  0.94710000  0.68240000  1.0 0.1202472279
H  H18  1  0.71780000  0.05290000  0.31760000  1.0 0.1202472279
H  H19  1  0.14550000  0.01810000  0.65900000  1.0 0.1096651938
H  H20  1  0.85450000  0.98190000  0.34100000  1.0 0.1096651938
H  H21  1  0.08670000  0.15870000  0.63950000  1.0 0.1202472279
H  H22  1  0.91330000  0.84130000  0.36050000  1.0 0.1202472279
H  H23  1  0.02070000  0.28580000  0.68570000  1.0 0.1308551242
H  H24  1  0.97930000  0.71420000  0.31430000  1.0 0.1308551242
H  H25  1  0.91150000  0.51120000  0.60460000  1.0 0.1401121379
H  H26  1  0.08850000  0.48880000  0.39540000  1.0 0.1401121379
H  H27  1  0.15720000  0.38590000  0.58510000  1.0 0.1401121379
H  H28  1  0.84280000  0.61410000  0.41490000  1.0 0.1401121379
H  H29  1  0.81460000  0.52700000  0.69010000  1.0 0.1202472279
H  H30  1  0.18540000  0.47300000  0.30990000  1.0 0.1202472279
H  H31  1  0.66920000  0.36820000  0.74850000  1.0 0.1401121379
H  H32  1  0.33080000  0.63180000  0.25150000  1.0 0.1401121379
H  H33  1  0.72970000  0.23000000  0.73040000  1.0 0.1202472279
H  H34  1  0.27030000  0.77000000  0.26960000  1.0 0.1202472279
H  H35  1  0.86060000  0.16490000  0.67840000  1.0 0.1202472279
H  H36  1  0.13940000  0.83510000  0.32160000  1.0 0.1202472279
H  H37  1  0.93870000  0.23490000  0.64970000  1.0 0.1202472279
H  H38  1  0.06130000  0.76510000  0.35030000  1.0 0.1202472279
H  H39  1  0.16580000  0.48470000  0.53760000  1.0 0.0995198348
H  H40  1  0.83420000  0.51530000  0.46240000  1.0 0.0995198348
H  H41  1  0.01630000  0.76220000  0.48330000  1.0 0.1202472279
H  H42  1  0.98370000  0.23780000  0.51670000  1.0 0.1202472279
H  H43  1  0.87500000  0.83000000  0.50110000  1.0 0.1202472279
H  H44  1  0.12500000  0.17000000  0.49890000  1.0 0.1202472279
H  H45  1  0.80120000  0.76250000  0.55080000  1.0 0.1202472279
H  H46  1  0.19880000  0.23750000  0.44920000  1.0 0.1202472279
H  H47  1  0.86770000  0.62370000  0.57990000  1.0 0.1308551242
H  H48  1  0.13230000  0.37630000  0.42010000  1.0 0.1308551242
H  H49  1  0.54200000  0.25610000  0.64350000  1.0 0.1202472279
H  H50  1  0.45800000  0.74390000  0.35650000  1.0 0.1202472279
H  H51  1  0.42250000  0.09940000  0.56190000  1.0 0.1401121379
H  H52  1  0.57750000  0.90060000  0.43810000  1.0 0.1401121379
H  H53  1  0.44400000  0.07120000  0.45180000  1.0 0.1202472279
H  H54  1  0.55600000  0.92880000  0.54820000  1.0 0.1202472279
H  H55  1  0.52220000  0.11720000  0.38130000  1.0 0.1202472279
H  H56  1  0.47780000  0.88280000  0.61870000  1.0 0.1202472279
H  H57  1  0.58360000  0.19280000  0.41710000  1.0 0.1401121379
H  H58  1  0.41640000  0.80720000  0.58290000  1.0 0.1401121379
H  H59  1  0.70660000  0.16750000  0.47960000  1.0 0.1489022364
H  H60  1  0.29340000  0.83250000  0.52040000  1.0 0.1489022364
H  H61  1  0.77220000  0.35000000  0.48540000  1.0 0.1489022364
H  H62  1  0.22780000  0.65000000  0.51460000  1.0 0.1489022364
H  H63  1  0.54980000  0.37830000  0.56620000  1.0 0.1489022364
H  H64  1  0.45020000  0.62170000  0.43380000  1.0 0.1489022364
H  H65  1  0.84350000  0.29230000  0.38330000  1.0 0.1202472279
H  H66  1  0.15650000  0.70770000  0.61670000  1.0 0.1202472279
H  H67  1  0.04400000  0.01710000  0.34630000  1.0 0.1401121379
H  H68  1  0.95600000  0.98290000  0.65370000  1.0 0.1401121379
H  H69  1  0.03520000  0.90910000  0.40750000  1.0 0.1096651938
H  H70  1  0.96480000  0.09090000  0.59250000  1.0 0.1096651938
H  H71  1  0.93010000  0.93340000  0.48790000  1.0 0.1096651938
H  H72  1  0.06990000  0.06660000  0.51210000  1.0 0.1096651938
H  H73  1  0.82750000  0.06430000  0.50980000  1.0 0.1401121379
H  H74  1  0.17250000  0.93570000  0.49020000  1.0 0.1401121379
H  H75  1  0.66260000  0.72970000  0.15140000  1.0 0.1308551242
H  H76  1  0.33740000  0.27030000  0.84860000  1.0 0.1308551242
H  H77  1  0.57500000  0.00770000  0.20450000  1.0 0.1401121379
H  H78  1  0.42500000  0.99230000  0.79550000  1.0 0.1401121379
H  H79  1  0.59720000  0.09800000  0.12810000  1.0 0.1202472279
H  H80  1  0.40280000  0.90200000  0.87190000  1.0 0.1202472279
H  H81  1  0.66380000  0.04900000  0.02460000  1.0 0.1202472279
H  H82  1  0.33620000  0.95100000  0.97540000  1.0 0.1202472279
H  H83  1  0.70860000  0.91900000  0.99770000  1.0 0.1401121379
H  H84  1  0.29140000  0.08100000  0.00230000  1.0 0.1401121379
H  H85  1  0.60710000  0.45240000  0.64290000  1.0 0.1202472279
H  H86  1  0.39290000  0.54760000  0.35710000  1.0 0.1202472279
H  H87  1  0.63430000  0.69030000  0.56220000  1.0 0.1401121379
H  H88  1  0.36570000  0.30970000  0.43780000  1.0 0.1401121379
H  H89  1  0.67060000  0.70390000  0.45320000  1.0 0.1096651938
H  H90  1  0.32940000  0.29610000  0.54680000  1.0 0.1096651938
H  H91  1  0.69220000  0.60410000  0.38180000  1.0 0.1096651938
H  H92  1  0.30780000  0.39590000  0.61820000  1.0 0.1096651938
H  H93  1  0.67930000  0.48560000  0.41570000  1.0 0.1401121379
H  H94  1  0.32070000  0.51440000  0.58430000  1.0 0.1401121379
H  H95  1  0.68910000  0.67520000  0.81990000  1.0 0.1202472279
H  H96  1  0.31090000  0.32480000  0.18010000  1.0 0.1202472279
H  H97  1  0.58210000  0.48060000  0.86150000  1.0 0.1401121379
H  H98  1  0.41790000  0.51940000  0.13850000  1.0 0.1401121379
H  H99  1  0.57630000  0.42660000  0.96750000  1.0 0.1202472279
H  H100  1  0.42370000  0.57340000  0.03250000  1.0 0.1202472279
H  H101  1  0.61810000  0.46780000  0.04910000  1.0 0.1202472279
H  H102  1  0.38190000  0.53220000  0.95090000  1.0 0.1202472279
H  H103  1  0.66830000  0.56180000  0.03520000  1.0 0.1401121379
H  H104  1  0.33170000  0.43820000  0.96480000  1.0 0.1401121379
H  H105  1  0.63780000  0.71780000  0.02010000  1.0 0.1594295256
H  H106  1  0.36220000  0.28220000  0.97990000  1.0 0.1594295256
H  H107  1  0.83080000  0.77050000  0.01970000  1.0 0.1489022364
H  H108  1  0.16920000  0.22950000  0.98030000  1.0 0.1489022364
H  H109  1  0.82170000  0.63870000  0.87540000  1.0 0.1594295256
H  H110  1  0.17830000  0.36130000  0.12460000  1.0 0.1594295256
H  H111  1  0.08940000  0.02090000  0.20940000  1.0 0.1308551242
H  H112  1  0.91060000  0.97910000  0.79060000  1.0 0.1308551242
H  H113  1  0.80080000  0.19430000  0.22730000  1.0 0.1401121379
H  H114  1  0.19920000  0.80570000  0.77270000  1.0 0.1401121379
H  H115  1  0.71260000  0.15180000  0.18660000  1.0 0.1202472279
H  H116  1  0.28740000  0.84820000  0.81340000  1.0 0.1202472279
H  H117  1  0.76180000  0.02390000  0.14360000  1.0 0.1096651938
H  H118  1  0.23820000  0.97610000  0.85640000  1.0 0.1096651938
H  H119  1  0.89950000  0.93860000  0.13050000  1.0 0.1308551242
H  H120  1  0.10050000  0.06140000  0.86950000  1.0 0.1308551242
H  H121  1  0.00420000  0.84110000  0.19340000  1.0 0.1401121379
H  H122  1  0.99580000  0.15890000  0.80660000  1.0 0.1401121379
H  H123  1  0.21060000  0.69280000  0.08750000  1.0 0.1401121379
H  H124  1  0.78940000  0.30720000  0.91250000  1.0 0.1401121379
H  H125  1  0.16230000  0.92660000  0.11060000  1.0 0.1401121379
H  H126  1  0.83770000  0.07340000  0.88940000  1.0 0.1401121379
H  H127  1  0.19480000  0.59080000  0.15450000  1.0 0.1096651938
H  H128  1  0.80520000  0.40920000  0.84550000  1.0 0.1096651938
H  H129  1  0.96260000  0.53600000  0.19760000  1.0 0.1401121379
H  H130  1  0.03740000  0.46400000  0.80240000  1.0 0.1401121379
H  H131  1  0.82870000  0.64170000  0.20100000  1.0 0.1202472279
H  H132  1  0.17130000  0.35830000  0.79900000  1.0 0.1202472279
H  H133  1  0.80600000  0.77470000  0.18110000  1.0 0.1096651938
H  H134  1  0.19400000  0.22530000  0.81890000  1.0 0.1096651938
H  H135  1  0.91350000  0.81010000  0.15780000  1.0 0.1202472279
H  H136  1  0.08650000  0.18990000  0.84220000  1.0 0.1202472279
H  H137  1  0.32690000  0.83790000  0.11790000  1.0 0.1202472279
H  H138  1  0.67310000  0.16210000  0.88210000  1.0 0.1202472279
H  H139  1  0.48190000  0.72280000  0.92160000  1.0 0.1308551242
H  H140  1  0.51810000  0.27720000  0.07840000  1.0 0.1308551242
H  H141  1  0.43050000  0.67410000  0.85120000  1.0 0.1308551242
H  H142  1  0.56950000  0.32590000  0.14880000  1.0 0.1308551242
H  H143  1  0.30160000  0.68410000  0.86910000  1.0 0.1202472279
H  H144  1  0.69840000  0.31590000  0.13090000  1.0 0.1202472279
H  H145  1  0.22110000  0.73110000  0.96560000  1.0 0.1308551242
H  H146  1  0.77890000  0.26890000  0.03440000  1.0 0.1308551242
H  H147  1  0.87580000  0.76350000  0.82930000  1.0 0.1202472279
H  H148  1  0.12420000  0.23650000  0.17070000  1.0 0.1202472279
H  H149  1  0.15690000  0.67110000  0.86630000  1.0 0.1401121379
H  H150  1  0.84310000  0.32890000  0.13370000  1.0 0.1401121379
H  H151  1  0.20420000  0.60140000  0.96080000  1.0 0.1096651938
H  H152  1  0.79580000  0.39860000  0.03920000  1.0 0.1096651938
H  H153  1  0.12110000  0.56880000  0.03560000  1.0 0.1096651938
H  H154  1  0.87890000  0.43120000  0.96440000  1.0 0.1096651938
H  H155  1  0.98290000  0.61300000  0.02390000  1.0 0.1308551242
H  H156  1  0.01710000  0.38700000  0.97610000  1.0 0.1308551242
H  H157  1  0.03240000  0.08860000  0.08320000  1.0 0.0995198348
H  H158  1  0.07180000  0.03690000  0.02140000  1.0 0.0995198348
H  H159  1  0.15720000  0.06290000  0.06240000  1.0 0.1096651938
H  H160  1  0.13950000  0.10640000  0.99430000  1.0 0.1202472279
H  H161  1  0.10040000  0.15740000  0.05720000  1.0 0.1308551242
H  H162  1  0.96760000  0.91140000  0.91680000  1.0 0.0995198348
H  H163  1  0.92820000  0.96310000  0.97860000  1.0 0.0995198348
H  H164  1  0.84280000  0.93710000  0.93760000  1.0 0.1096651938
H  H165  1  0.86050000  0.89360000  0.00570000  1.0 0.1202472279
H  H166  1  0.89960000  0.84260000  0.94280000  1.0 0.1308551242
H  H167  1  0.32950000  0.02670000  0.40930000  1.0 0.0782880854
H  H168  1  0.23400000  0.06240000  0.42500000  1.0 0.0782880854
H  H169  1  0.29150000  0.08510000  0.50800000  1.0 0.1096651938
H  H170  1  0.25210000  0.02610000  0.53170000  1.0 0.1202472279
H  H171  1  0.34770000  0.99080000  0.51590000  1.0 0.1202472279
H  H172  1  0.67050000  0.97330000  0.59070000  1.0 0.0782880854
H  H173  1  0.76600000  0.93760000  0.57500000  1.0 0.0782880854
H  H174  1  0.70850000  0.91490000  0.49200000  1.0 0.1096651938
H  H175  1  0.74790000  0.97390000  0.46830000  1.0 0.1202472279
H  H176  1  0.65230000  0.00920000  0.48410000  1.0 0.1202472279
C  C1  1  0.55410000  0.01720000  0.71790000  1.0 0.5379144956
C  C2  1  0.44590000  0.98280000  0.28210000  1.0 0.5379144956
C  C3  1  0.62550000  0.93470000  0.71480000  1.0 -0.0304610729
C  C4  1  0.37450000  0.06530000  0.28520000  1.0 -0.0304610729
C  C5  1  0.70470000  0.92490000  0.72150000  1.0 -0.100250705
C  C6  1  0.29530000  0.07510000  0.27850000  1.0 -0.100250705
C  C7  1  0.77290000  0.84960000  0.71360000  1.0 -0.0304610729
C  C8  1  0.22710000  0.15040000  0.28640000  1.0 -0.0304610729
C  C9  1  0.85740000  0.84050000  0.71900000  1.0 0.5379144956
C  C10  1  0.14260000  0.15950000  0.28100000  1.0 0.5379144956
C  C11  1  0.76110000  0.78060000  0.70070000  1.0 -0.1403956212
C  C12  1  0.23890000  0.21940000  0.29930000  1.0 -0.1403956212
C  C13  1  0.68160000  0.78950000  0.69870000  1.0 -0.0448244701
C  C14  1  0.31840000  0.21050000  0.30130000  1.0 -0.0448244701
C  C15  1  0.67000000  0.71530000  0.69120000  1.0 0.5319418718
C  C16  1  0.33000000  0.28470000  0.30880000  1.0 0.5319418718
C  C17  1  0.61430000  0.86690000  0.70430000  1.0 -0.119320499
C  C18  1  0.38570000  0.13310000  0.29570000  1.0 -0.119320499
C  C19  1  0.39110000  0.33770000  0.73990000  1.0 0.5379144956
C  C20  1  0.60890000  0.66230000  0.26010000  1.0 0.5379144956
C  C21  1  0.37060000  0.42650000  0.74080000  1.0 -0.0304610729
C  C22  1  0.62940000  0.57350000  0.25920000  1.0 -0.0304610729
C  C23  1  0.43130000  0.45160000  0.74330000  1.0 -0.119320499
C  C24  1  0.56870000  0.54840000  0.25670000  1.0 -0.119320499
C  C25  1  0.41320000  0.53410000  0.74170000  1.0 -0.0304610729
C  C26  1  0.58680000  0.46590000  0.25830000  1.0 -0.0304610729
C  C27  1  0.48020000  0.55980000  0.74090000  1.0 0.5379144956
C  C28  1  0.51980000  0.44020000  0.25910000  1.0 0.5379144956
C  C29  1  0.33100000  0.59350000  0.73920000  1.0 -0.1286101642
C  C30  1  0.66900000  0.40650000  0.26080000  1.0 -0.1286101642
C  C31  1  0.26940000  0.56890000  0.73720000  1.0 -0.0304610729
C  C32  1  0.73060000  0.43110000  0.26280000  1.0 -0.0304610729
C  C33  1  0.18250000  0.63370000  0.73330000  1.0 0.5379144956
C  C34  1  0.81750000  0.36630000  0.26670000  1.0 0.5379144956
C  C35  1  0.28900000  0.48590000  0.73740000  1.0 -0.119320499
C  C36  1  0.71100000  0.51410000  0.26260000  1.0 -0.119320499
C  C37  1  0.24380000  0.25580000  0.66330000  1.0 0.1401121379
C  C38  1  0.75620000  0.74420000  0.33670000  1.0 0.1401121379
C  C39  1  0.27050000  0.12750000  0.67170000  1.0 0.1401121379
C  C40  1  0.72950000  0.87250000  0.32830000  1.0 0.1401121379
C  C41  1  0.30610000  0.04310000  0.68070000  1.0 -0.1403956212
C  C42  1  0.69390000  0.95690000  0.31930000  1.0 -0.1403956212
C  C43  1  0.25930000  0.00370000  0.67590000  1.0 -0.100250705
C  C44  1  0.74070000  0.99630000  0.32410000  1.0 -0.100250705
C  C45  1  0.17640000  0.04670000  0.66120000  1.0 -0.0891323484
C  C46  1  0.82360000  0.95330000  0.33880000  1.0 -0.0891323484
C  C47  1  0.14080000  0.13040000  0.65030000  1.0 -0.1805016141
C  C48  1  0.85920000  0.86960000  0.34970000  1.0 -0.1805016141
C  C49  1  0.18870000  0.17070000  0.65590000  1.0 0.0906808783
C  C50  1  0.81130000  0.82930000  0.34410000  1.0 0.0906808783
C  C51  1  0.10070000  0.32490000  0.63670000  1.0 0.211417405
C  C52  1  0.89930000  0.67510000  0.36330000  1.0 0.211417405
C  C53  1  0.02470000  0.32870000  0.66120000  1.0 -0.2675836996
C  C54  1  0.97530000  0.67130000  0.33880000  1.0 -0.2675836996
C  C55  1  0.95550000  0.39990000  0.64730000  1.0 0.211417405
C  C56  1  0.04450000  0.60010000  0.35270000  1.0 0.211417405
C  C57  1  0.95960000  0.46500000  0.61340000  1.0 -0.2588803014
C  C58  1  0.04040000  0.53500000  0.38660000  1.0 -0.2588803014
C  C59  1  0.03570000  0.46190000  0.59210000  1.0 0.211417405
C  C60  1  0.96430000  0.53810000  0.40790000  1.0 0.211417405
C  C61  1  0.10600000  0.39020000  0.60190000  1.0 -0.2804396193
C  C62  1  0.89400000  0.60980000  0.39810000  1.0 -0.2804396193
C  C63  1  0.81200000  0.47710000  0.69250000  1.0 0.1489022364
C  C64  1  0.18800000  0.52290000  0.30750000  1.0 0.1489022364
C  C65  1  0.76890000  0.38610000  0.71060000  1.0 0.1308551242
C  C66  1  0.23110000  0.61390000  0.28940000  1.0 0.1308551242
C  C67  1  0.72270000  0.34210000  0.72910000  1.0 -0.1698870603
C  C68  1  0.27730000  0.65790000  0.27090000  1.0 -0.1698870603
C  C69  1  0.75880000  0.26020000  0.71760000  1.0 -0.100250705
C  C70  1  0.24120000  0.73980000  0.28240000  1.0 -0.100250705
C  C71  1  0.83870000  0.22040000  0.68700000  1.0 -0.100250705
C  C72  1  0.16130000  0.77960000  0.31300000  1.0 -0.100250705
C  C73  1  0.88540000  0.26150000  0.66960000  1.0 -0.1889074336
C  C74  1  0.11460000  0.73850000  0.33040000  1.0 -0.1889074336
C  C75  1  0.84950000  0.34520000  0.68280000  1.0 0.0906808783
C  C76  1  0.15050000  0.65480000  0.31720000  1.0 0.0906808783
C  C77  1  0.11530000  0.53070000  0.53520000  1.0 0.1401121379
C  C78  1  0.88470000  0.46930000  0.46480000  1.0 0.1401121379
C  C79  1  0.02560000  0.65350000  0.51830000  1.0 0.1401121379
C  C80  1  0.97440000  0.34650000  0.48170000  1.0 0.1401121379
C  C81  1  0.98650000  0.73470000  0.50190000  1.0 -0.160319982
C  C82  1  0.01350000  0.26530000  0.49810000  1.0 -0.160319982
C  C83  1  0.90270000  0.77500000  0.51320000  1.0 -0.119320499
C  C84  1  0.09730000  0.22500000  0.48680000  1.0 -0.119320499
C  C85  1  0.85810000  0.73390000  0.54290000  1.0 -0.0776139277
C  C86  1  0.14190000  0.26610000  0.45710000  1.0 -0.0776139277
C  C87  1  0.89740000  0.65110000  0.56070000  1.0 -0.1805016141
C  C88  1  0.10260000  0.34890000  0.43930000  1.0 -0.1805016141
C  C89  1  0.98170000  0.61140000  0.54880000  1.0 0.0906808783
C  C90  1  0.01830000  0.38860000  0.45120000  1.0 0.0906808783
C  C91  1  0.53290000  0.23140000  0.60960000  1.0 0.1594295256
C  C92  1  0.46710000  0.76860000  0.39040000  1.0 0.1594295256
C  C93  1  0.49100000  0.16350000  0.55480000  1.0 0.1489022364
C  C94  1  0.50900000  0.83650000  0.44520000  1.0 0.1489022364
C  C95  1  0.45420000  0.11780000  0.53360000  1.0 -0.160319982
C  C96  1  0.54580000  0.88220000  0.46640000  1.0 -0.160319982
C  C97  1  0.46750000  0.10140000  0.46770000  1.0 -0.100250705
C  C98  1  0.53250000  0.89860000  0.53230000  1.0 -0.100250705
C  C99  1  0.51510000  0.12920000  0.42490000  1.0 -0.0891323484
C  C100  1  0.48490000  0.87080000  0.57510000  1.0 -0.0891323484
C  C101  1  0.55210000  0.17410000  0.44550000  1.0 -0.1698870603
C  C102  1  0.44790000  0.82590000  0.55450000  1.0 -0.1698870603
C  C103  1  0.53930000  0.18950000  0.51080000  1.0 0.0995198348
C  C104  1  0.46070000  0.81050000  0.48920000  1.0 0.0995198348
C  C105  1  0.62100000  0.26620000  0.52810000  1.0 0.2188420702
C  C106  1  0.37900000  0.73380000  0.47190000  1.0 0.2188420702
C  C107  1  0.69460000  0.21970000  0.49260000  1.0 -0.2484788041
C  C108  1  0.30540000  0.78030000  0.50740000  1.0 -0.2484788041
C  C109  1  0.75070000  0.25220000  0.47640000  1.0 0.211417405
C  C110  1  0.24930000  0.74780000  0.52360000  1.0 0.211417405
C  C111  1  0.73360000  0.32960000  0.49500000  1.0 -0.2675836996
C  C112  1  0.26640000  0.67040000  0.50500000  1.0 -0.2675836996
C  C113  1  0.65840000  0.37650000  0.52810000  1.0 0.211417405
C  C114  1  0.34160000  0.62350000  0.47190000  1.0 0.211417405
C  C115  1  0.60080000  0.34600000  0.54460000  1.0 -0.2804396193
C  C116  1  0.39920000  0.65400000  0.45540000  1.0 -0.2804396193
C  C117  1  0.86370000  0.23640000  0.39280000  1.0 0.1401121379
C  C118  1  0.13630000  0.76360000  0.60720000  1.0 0.1401121379
C  C119  1  0.93940000  0.10620000  0.39020000  1.0 0.1489022364
C  C120  1  0.06060000  0.89380000  0.60980000  1.0 0.1489022364
C  C121  1  0.00080000  0.02680000  0.37820000  1.0 -0.160319982
C  C122  1  0.99920000  0.97320000  0.62180000  1.0 -0.160319982
C  C123  1  0.99560000  0.96270000  0.41510000  1.0 -0.119320499
C  C124  1  0.00440000  0.03730000  0.58490000  1.0 -0.119320499
C  C125  1  0.93140000  0.97770000  0.46360000  1.0 -0.100250705
C  C126  1  0.06860000  0.02230000  0.53640000  1.0 -0.100250705
C  C127  1  0.86990000  0.05500000  0.47730000  1.0 -0.1698870603
C  C128  1  0.13010000  0.94500000  0.52270000  1.0 -0.1698870603
C  C129  1  0.87560000  0.11850000  0.43880000  1.0 0.0906808783
C  C130  1  0.12440000  0.88150000  0.56120000  1.0 0.0906808783
C  C131  1  0.65960000  0.78120000  0.14050000  1.0 0.1401121379
C  C132  1  0.34040000  0.21880000  0.85950000  1.0 0.1401121379
C  C133  1  0.63160000  0.91000000  0.14580000  1.0 0.1401121379
C  C134  1  0.36840000  0.09000000  0.85420000  1.0 0.1401121379
C  C135  1  0.60210000  0.99020000  0.16390000  1.0 -0.1534240609
C  C136  1  0.39790000  0.00980000  0.83610000  1.0 -0.1534240609
C  C137  1  0.61480000  0.04340000  0.11840000  1.0 -0.1127969514
C  C138  1  0.38520000  0.95660000  0.88160000  1.0 -0.119320499
C  C139  1  0.65600000  0.01260000  0.05510000  1.0 -0.0891323484
C  C140  1  0.34400000  0.98740000  0.94490000  1.0 -0.0891323484
C  C141  1  0.68290000  0.93550000  0.03890000  1.0 -0.1889074336
C  C142  1  0.31710000  0.06450000  0.96110000  1.0 -0.1889074336
C  C143  1  0.67280000  0.87660000  0.08440000  1.0 0.1202472279
C  C144  1  0.32720000  0.12340000  0.91560000  1.0 0.1202472279
C  C145  1  0.61890000  0.48260000  0.60900000  1.0 0.1401121379
C  C146  1  0.38110000  0.51740000  0.39100000  1.0 0.1401121379
C  C147  1  0.63800000  0.57800000  0.55460000  1.0 0.1489022364
C  C148  1  0.36200000  0.42200000  0.44540000  1.0 0.1489022364
C  C149  1  0.64410000  0.64940000  0.53350000  1.0 -0.1403956212
C  C150  1  0.35590000  0.35060000  0.46650000  1.0 -0.1403956212
C  C151  1  0.66510000  0.65720000  0.46850000  1.0 -0.1286101642
C  C152  1  0.33490000  0.34280000  0.53150000  1.0 -0.1286101642
C  C153  1  0.67840000  0.59650000  0.42530000  1.0 -0.100250705
C  C154  1  0.32160000  0.40350000  0.57470000  1.0 -0.100250705
C  C155  1  0.67180000  0.52540000  0.44470000  1.0 -0.1805016141
C  C156  1  0.32820000  0.47460000  0.55530000  1.0 -0.1805016141
C  C157  1  0.65340000  0.51790000  0.50980000  1.0 0.0906808783
C  C158  1  0.34660000  0.48210000  0.49020000  1.0 0.0906808783
C  C159  1  0.67400000  0.64180000  0.84850000  1.0 0.1489022364
C  C160  1  0.32600000  0.35820000  0.15150000  1.0 0.1489022364
C  C161  1  0.63130000  0.55480000  0.88660000  1.0 0.1401121379
C  C162  1  0.36870000  0.44520000  0.11340000  1.0 0.1401121379
C  C163  1  0.59980000  0.49710000  0.89560000  1.0 -0.160319982
C  C164  1  0.40020000  0.50290000  0.10440000  1.0 -0.160319982
C  C165  1  0.59640000  0.46540000  0.95930000  1.0 -0.100250705
C  C166  1  0.40360000  0.53460000  0.04070000  1.0 -0.100250705
C  C167  1  0.62150000  0.49020000  0.00800000  1.0 -0.0891323484
C  C168  1  0.37850000  0.50980000  0.99200000  1.0 -0.0891323484
C  C169  1  0.65150000  0.54570000  0.00040000  1.0 -0.1698870603
C  C170  1  0.34850000  0.45430000  0.99960000  1.0 -0.1698870603
C  C171  1  0.65620000  0.57810000  0.93890000  1.0 0.0782880854
C  C172  1  0.34380000  0.42190000  0.06110000  1.0 0.0782880854
C  C173  1  0.72450000  0.67200000  0.94370000  1.0 0.211417405
C  C174  1  0.27550000  0.32800000  0.05630000  1.0 0.211417405
C  C175  1  0.68780000  0.71440000  0.00080000  1.0 -0.2675836996
C  C176  1  0.31220000  0.28560000  0.99920000  1.0 -0.2675836996
C  C177  1  0.72880000  0.75110000  0.02740000  1.0 0.211417405
C  C178  1  0.27120000  0.24890000  0.97260000  1.0 0.211417405
C  C179  1  0.80400000  0.74590000  0.00050000  1.0 -0.2588803014
C  C180  1  0.19600000  0.25410000  0.99950000  1.0 -0.2588803014
C  C181  1  0.83810000  0.70280000  0.94370000  1.0 0.211417405
C  C182  1  0.16190000  0.29720000  0.05630000  1.0 0.211417405
C  C183  1  0.79890000  0.66620000  0.91400000  1.0 -0.2675836996
C  C184  1  0.20110000  0.33380000  0.08600000  1.0 -0.2675836996
C  C185  1  0.03570000  0.03110000  0.20370000  1.0 0.1308551242
C  C186  1  0.96430000  0.96890000  0.79630000  1.0 0.1308551242
C  C187  1  0.90410000  0.09060000  0.20230000  1.0 0.1401121379
C  C188  1  0.09590000  0.90940000  0.79770000  1.0 0.1401121379
C  C189  1  0.82090000  0.14350000  0.20820000  1.0 -0.1534240609
C  C190  1  0.17910000  0.85650000  0.79180000  1.0 -0.1534240609
C  C191  1  0.76890000  0.11720000  0.18450000  1.0 -0.100250705
C  C192  1  0.23110000  0.88280000  0.81550000  1.0 -0.100250705
C  C193  1  0.79900000  0.04010000  0.15740000  1.0 -0.0891323484
C  C194  1  0.20100000  0.95990000  0.84260000  1.0 -0.100250705
C  C195  1  0.87980000  0.98850000  0.15070000  1.0 -0.1698870603
C  C196  1  0.12020000  0.01150000  0.84930000  1.0 -0.1698870603
C  C197  1  0.93260000  0.01330000  0.17550000  1.0 0.0995198348
C  C198  1  0.06740000  0.98670000  0.82450000  1.0 0.0995198348
C  C199  1  0.07350000  0.89550000  0.15540000  1.0 0.211417405
C  C200  1  0.92650000  0.10450000  0.84460000  1.0 0.211417405
C  C201  1  0.05240000  0.83270000  0.16780000  1.0 -0.2675836996
C  C202  1  0.94760000  0.16730000  0.83220000  1.0 -0.2675836996
C  C203  1  0.10300000  0.75630000  0.14240000  1.0 0.2269483019
C  C204  1  0.89700000  0.24370000  0.85760000  1.0 0.2269483019
C  C205  1  0.17660000  0.74360000  0.10550000  1.0 -0.2588803014
C  C206  1  0.82340000  0.25640000  0.89450000  1.0 -0.2588803014
C  C207  1  0.19780000  0.80680000  0.09610000  1.0 0.211417405
C  C208  1  0.80220000  0.19320000  0.90390000  1.0 0.211417405
C  C209  1  0.14780000  0.88380000  0.11890000  1.0 -0.2675836996
C  C210  1  0.85220000  0.11620000  0.88110000  1.0 -0.2675836996
C  C211  1  0.13800000  0.60910000  0.16010000  1.0 0.1308551242
C  C212  1  0.86200000  0.39090000  0.83990000  1.0 0.1308551242
C  C213  1  0.01850000  0.61100000  0.17690000  1.0 0.1308551242
C  C214  1  0.98150000  0.38900000  0.82310000  1.0 0.1308551242
C  C215  1  0.95320000  0.59030000  0.19010000  1.0 -0.160319982
C  C216  1  0.04680000  0.40970000  0.80990000  1.0 -0.160319982
C  C217  1  0.87340000  0.65360000  0.19180000  1.0 -0.119320499
C  C218  1  0.12660000  0.34640000  0.80820000  1.0 -0.119320499
C  C219  1  0.86000000  0.73380000  0.17980000  1.0 -0.119320499
C  C220  1  0.14000000  0.26620000  0.82020000  1.0 -0.119320499
C  C221  1  0.92360000  0.75570000  0.16610000  1.0 -0.1889074336
C  C222  1  0.07640000  0.24430000  0.83390000  1.0 -0.1889074336
C  C223  1  0.00400000  0.69240000  0.16540000  1.0 0.0782880854
C  C224  1  0.99600000  0.30760000  0.83460000  1.0 0.0782880854
C  C225  1  0.33380000  0.81050000  0.08000000  1.0 0.1308551242
C  C226  1  0.66620000  0.18950000  0.92000000  1.0 0.1308551242
C  C227  1  0.38210000  0.75540000  0.98820000  1.0 0.1096651938
C  C228  1  0.61790000  0.24460000  0.01180000  1.0 0.1096651938
C  C229  1  0.43010000  0.72420000  0.93050000  1.0 -0.1534240609
C  C230  1  0.56990000  0.27580000  0.06950000  1.0 -0.1534240609
C  C231  1  0.39900000  0.69710000  0.88940000  1.0 -0.0891323484
C  C232  1  0.60100000  0.30290000  0.11060000  1.0 -0.0891323484
C  C233  1  0.32170000  0.70160000  0.90090000  1.0 -0.100250705
C  C234  1  0.67830000  0.29840000  0.09910000  1.0 -0.100250705
C  C235  1  0.27250000  0.73080000  0.95720000  1.0 -0.1698870603
C  C236  1  0.72750000  0.26920000  0.04280000  1.0 -0.1698870603
C  C237  1  0.30500000  0.75910000  0.99950000  1.0 0.0635686774
C  C238  1  0.69500000  0.24090000  0.00050000  1.0 0.0635686774
C  C239  1  0.91950000  0.73690000  0.85490000  1.0 0.1401121379
C  C240  1  0.08050000  0.26310000  0.14510000  1.0 0.1401121379
C  C241  1  0.03920000  0.68780000  0.88870000  1.0 0.1594295256
C  C242  1  0.96080000  0.31220000  0.11130000  1.0 0.1594295256
C  C243  1  0.12170000  0.66070000  0.89740000  1.0 -0.1403956212
C  C244  1  0.87830000  0.33930000  0.10260000  1.0 -0.1403956212
C  C245  1  0.14950000  0.61830000  0.95330000  1.0 -0.1127969514
C  C246  1  0.85050000  0.38170000  0.04670000  1.0 -0.1127969514
C  C247  1  0.09870000  0.59960000  0.99910000  1.0 -0.100250705
C  C248  1  0.90130000  0.40040000  0.00090000  1.0 -0.0891323484
C  C249  1  0.01710000  0.62470000  0.99270000  1.0 -0.1698870603
C  C250  1  0.98290000  0.37530000  0.00730000  1.0 -0.1698870603
C  C251  1  0.98870000  0.66890000  0.93620000  1.0 0.0995198348
C  C252  1  0.01130000  0.33110000  0.06380000  1.0 0.0995198348
C  C253  1  0.05210000  0.09140000  0.03830000  1.0 0.0906808783
C  C254  1  0.11660000  0.10550000  0.03800000  1.0 -0.4089999537
C  C255  1  0.94790000  0.90860000  0.96170000  1.0 0.0906808783
C  C256  1  0.88340000  0.89450000  0.96200000  1.0 -0.4089999537
C  C257  1  0.28650000  0.01990000  0.43700000  1.0 0.0655406077
C  C258  1  0.29520000  0.03140000  0.50390000  1.0 -0.4214912246
C  C259  1  0.71350000  0.98010000  0.56300000  1.0 0.0655406077
C  C260  1  0.70480000  0.96860000  0.49610000  1.0 -0.4214912246
N  N1  1  0.30370000  0.18350000  0.67600000  1.0 -0.3496018838
N  N2  1  0.69630000  0.81650000  0.32400000  1.0 -0.3496018838
N  N3  1  0.17380000  0.25350000  0.64990000  1.0 -0.0675880353
N  N4  1  0.82620000  0.74650000  0.35010000  1.0 -0.0675880353
N  N5  1  0.74590000  0.46930000  0.71630000  1.0 -0.3496018838
N  N6  1  0.25410000  0.53070000  0.28370000  1.0 -0.3496018838
N  N7  1  0.87610000  0.40600000  0.67170000  1.0 -0.0599644172
N  N8  1  0.12390000  0.59400000  0.32830000  1.0 -0.0599644172
N  N9  1  0.10930000  0.60100000  0.50960000  1.0 -0.3662275638
N  N10  1  0.89070000  0.39900000  0.49040000  1.0 -0.3662275638
N  N11  1  0.04260000  0.53010000  0.55800000  1.0 -0.0675880353
N  N12  1  0.95740000  0.46990000  0.44200000  1.0 -0.0675880353
N  N13  1  0.48780000  0.19020000  0.61760000  1.0 -0.3496018838
N  N14  1  0.51220000  0.80980000  0.38240000  1.0 -0.3496018838
N  N15  1  0.56440000  0.23410000  0.54820000  1.0 -0.0599644172
N  N16  1  0.43560000  0.76590000  0.45180000  1.0 -0.0599644172
N  N17  1  0.93020000  0.18080000  0.36230000  1.0 -0.3315754275
N  N18  1  0.06980000  0.81920000  0.63770000  1.0 -0.3315754275
N  N19  1  0.82680000  0.20450000  0.44010000  1.0 -0.0599644172
N  N20  1  0.17320000  0.79550000  0.55990000  1.0 -0.0599644172
N  N21  1  0.62530000  0.84230000  0.18060000  1.0 -0.3235828023
N  N22  1  0.37470000  0.15770000  0.81940000  1.0 -0.3235828023
N  N23  1  0.69040000  0.79790000  0.08220000  1.0 -0.0599644172
N  N24  1  0.30960000  0.20210000  0.91780000  1.0 -0.0599644172
N  N25  1  0.61640000  0.55450000  0.61620000  1.0 -0.3235828023
N  N26  1  0.38360000  0.44550000  0.38380000  1.0 -0.3235828023
N  N27  1  0.64030000  0.45680000  0.54700000  1.0 -0.0675880353
N  N28  1  0.35970000  0.54320000  0.45300000  1.0 -0.0675880353
N  N29  1  0.64130000  0.59700000  0.83110000  1.0 -0.3235828023
N  N30  1  0.35870000  0.40300000  0.16890000  1.0 -0.3235828023
N  N31  1  0.68410000  0.63530000  0.91230000  1.0 -0.0599644172
N  N32  1  0.31590000  0.36470000  0.08770000  1.0 -0.0599644172
N  N33  1  0.97210000  0.10010000  0.21950000  1.0 -0.3420628797
N  N34  1  0.02790000  0.89990000  0.78050000  1.0 -0.3420628797
N  N35  1  0.01730000  0.97550000  0.17840000  1.0 -0.0675880353
N  N36  1  0.98270000  0.02450000  0.82160000  1.0 -0.0675880353
N  N37  1  0.10360000  0.55950000  0.17430000  1.0 -0.3662275638
N  N38  1  0.89640000  0.44050000  0.82570000  1.0 -0.3662275638
N  N39  1  0.08290000  0.69040000  0.15430000  1.0 -0.0675880353
N  N40  1  0.91710000  0.30960000  0.84570000  1.0 -0.0675880353
N  N41  1  0.40090000  0.78520000  0.04250000  1.0 -0.3496018838
N  N42  1  0.59910000  0.21480000  0.95750000  1.0 -0.3496018838
N  N43  1  0.27370000  0.79460000  0.06090000  1.0 -0.0675880353
N  N44  1  0.72630000  0.20540000  0.93910000  1.0 -0.0675880353
N  N45  1  0.99480000  0.73050000  0.83790000  1.0 -0.3315754275
N  N46  1  0.00520000  0.26950000  0.16210000  1.0 -0.3315754275
N  N47  1  0.91260000  0.70110000  0.91260000  1.0 -0.0675880353
N  N48  1  0.08740000  0.29890000  0.08740000  1.0 -0.0675880353
O  O1  1  0.49010000  0.02840000  0.69300000  1.0 -0.5678188394
O  O2  1  0.50990000  0.97160000  0.30700000  1.0 -0.5678188394
O  O3  1  0.55800000  0.07510000  0.74630000  1.0 -0.5347219001
O  O4  1  0.44200000  0.92490000  0.25370000  1.0 -0.5347219001
O  O5  1  0.86440000  0.89990000  0.73970000  1.0 -0.5950204323
O  O6  1  0.13560000  0.10010000  0.26030000  1.0 -0.5941541384
O  O7  1  0.91910000  0.77330000  0.70570000  1.0 -0.5402646254
O  O8  1  0.08090000  0.22670000  0.29430000  1.0 -0.5402646254
O  O9  1  0.72630000  0.65120000  0.67000000  1.0 -0.5602049421
O  O10  1  0.27370000  0.34880000  0.33000000  1.0 -0.5602049421
O  O11  1  0.59780000  0.71980000  0.71140000  1.0 -0.5602049421
O  O12  1  0.40220000  0.28020000  0.28860000  1.0 -0.5602049421
O  O13  1  0.46300000  0.28430000  0.74830000  1.0 -0.5602049421
O  O14  1  0.53700000  0.71570000  0.25170000  1.0 -0.5602049421
O  O15  1  0.33530000  0.31840000  0.72820000  1.0 -0.580435593
O  O16  1  0.66470000  0.68160000  0.27180000  1.0 -0.580435593
O  O17  1  0.55330000  0.50300000  0.74720000  1.0 -0.580435593
O  O18  1  0.44670000  0.49700000  0.25280000  1.0 -0.580435593
O  O19  1  0.46580000  0.63340000  0.73420000  1.0 -0.5402646254
O  O20  1  0.53420000  0.36660000  0.26580000  1.0 -0.5402646254
O  O21  1  0.16300000  0.70520000  0.74960000  1.0 -0.5518512916
O  O22  1  0.83700000  0.29480000  0.25040000  1.0 -0.5518512916
O  O23  1  0.13170000  0.61630000  0.71060000  1.0 -0.5518512916
O  O24  1  0.86830000  0.38370000  0.28940000  1.0 -0.5518512916
O  O25  1  0.98870000  0.13870000  0.00840000  1.0 -0.4789823334
O  O26  1  0.01130000  0.86130000  0.99160000  1.0 -0.4789823334
O  O27  1  0.29080000  0.94030000  0.42520000  1.0 -0.5130404423
O  O28  1  0.70920000  0.05970000  0.57480000  1.0 -0.5130404423
