# DDEC6 charges by PACMAN v1.1 (https://github.com/mtap-research/PACMAN-charge/)
data_VORFOA_ASR_pacman
_symmetry_space_group_name_H-M   'P 1'
_cell_length_a   19.75730000
_cell_length_b   19.75730000
_cell_length_c   48.95800000
_cell_angle_alpha   90.00000000
_cell_angle_beta   90.00000000
_cell_angle_gamma   90.00000000
_symmetry_Int_Tables_number   1
_chemical_formula_structural   In3H36C54N24ClO13
_chemical_formula_sum   'In12 H144 C216 N96 Cl4 O52'
_cell_volume   19110.79952327
_cell_formula_units_Z   4
loop_
 _symmetry_equiv_pos_site_id
 _symmetry_equiv_pos_as_xyz
  1  'x, y, z'
loop_
 _atom_site_type_symbol
 _atom_site_label
 _atom_site_symmetry_multiplicity
 _atom_site_fract_x
 _atom_site_fract_y
 _atom_site_fract_z
 _atom_site_occupancy
 _atom_site_charge
In  In1  1  0.92943000  0.96388000  0.46549000  1.0 1.4878316912
In  In2  1  0.07057000  0.03612000  0.96549000  1.0 1.4878316912
In  In3  1  0.53612000  0.42943000  0.71549000  1.0 1.4878316912
In  In4  1  0.46388000  0.57057000  0.21549000  1.0 1.4878316912
In  In5  1  0.57057000  0.46388000  0.78451000  1.0 1.4878316912
In  In6  1  0.42943000  0.53612000  0.28451000  1.0 1.4878316912
In  In7  1  0.96388000  0.92943000  0.53451000  1.0 1.4878316912
In  In8  1  0.03612000  0.07057000  0.03451000  1.0 1.4878316912
In  In9  1  0.55736000  0.44264000  0.25000000  1.0 1.4678581003
In  In10  1  0.44264000  0.55736000  0.75000000  1.0 1.4678581003
In  In11  1  0.05736000  0.05736000  0.50000000  1.0 1.4678581003
In  In12  1  0.94264000  0.94264000  0.00000000  1.0 1.4678581003
H  H1  1  0.92158000  0.51890000  0.48071000  1.0 0.1197777728
H  H2  1  0.75878000  0.61820000  0.39908000  1.0 0.1281410583
H  H3  1  0.80462000  0.34370000  0.39706000  1.0 0.1197777728
H  H4  1  0.93352000  0.76300000  0.44273000  1.0 0.1197777728
H  H5  1  0.93287000  0.65517000  0.42803000  1.0 0.0810536788
H  H6  1  0.96613000  0.59002000  0.50490000  1.0 0.0919768099
H  H7  1  0.97742000  0.69872000  0.51838000  1.0 0.1040752105
H  H8  1  0.57960000  0.61561000  0.34658000  1.0 0.1040752105
H  H9  1  0.65770000  0.63516000  0.38096000  1.0 0.0919768099
H  H10  1  0.76502000  0.47383000  0.35401000  1.0 0.0631438959
H  H11  1  0.69056000  0.45529000  0.32033000  1.0 0.1197777728
H  H12  1  0.87251000  0.13997000  0.41779000  1.0 0.1040752105
H  H13  1  0.81081000  0.23497000  0.40097000  1.0 0.0919768099
H  H14  1  0.94318000  0.34559000  0.44677000  1.0 0.0678684366
H  H15  1  0.97620000  0.25327000  0.46795000  1.0 0.1197777728
H  H16  1  0.96369000  0.50992000  0.46590000  1.0 0.1281410583
H  H17  1  0.79319000  0.62163000  0.38121000  1.0 0.1197777728
H  H18  1  0.85917000  0.34466000  0.38549000  1.0 0.1093024475
H  H19  1  0.07842000  0.48110000  0.98071000  1.0 0.1197777728
H  H20  1  0.24122000  0.38180000  0.89908000  1.0 0.1281410583
H  H21  1  0.19538000  0.65630000  0.89706000  1.0 0.1197777728
H  H22  1  0.06648000  0.23700000  0.94273000  1.0 0.1197777728
H  H23  1  0.06713000  0.34483000  0.92803000  1.0 0.0810536788
H  H24  1  0.03387000  0.40998000  0.00490000  1.0 0.0919768099
H  H25  1  0.02258000  0.30128000  0.01838000  1.0 0.1093024475
H  H26  1  0.42040000  0.38439000  0.84658000  1.0 0.1040752105
H  H27  1  0.34230000  0.36484000  0.88096000  1.0 0.0919768099
H  H28  1  0.23498000  0.52617000  0.85401000  1.0 0.0631438959
H  H29  1  0.30944000  0.54471000  0.82033000  1.0 0.1197777728
H  H30  1  0.12749000  0.86003000  0.91779000  1.0 0.1040752105
H  H31  1  0.18919000  0.76503000  0.90097000  1.0 0.0919768099
H  H32  1  0.05682000  0.65441000  0.94677000  1.0 0.0678684366
H  H33  1  0.02380000  0.74673000  0.96795000  1.0 0.1197777728
H  H34  1  0.03631000  0.49008000  0.96590000  1.0 0.1281410583
H  H35  1  0.20681000  0.37837000  0.88121000  1.0 0.1197777728
H  H36  1  0.14083000  0.65534000  0.88549000  1.0 0.1093024475
H  H37  1  0.98110000  0.42158000  0.73071000  1.0 0.1197777728
H  H38  1  0.88180000  0.25878000  0.64908000  1.0 0.1281410583
H  H39  1  0.15630000  0.30462000  0.64706000  1.0 0.1197777728
H  H40  1  0.73700000  0.43352000  0.69273000  1.0 0.1197777728
H  H41  1  0.84483000  0.43287000  0.67803000  1.0 0.0810536788
H  H42  1  0.90998000  0.46613000  0.75490000  1.0 0.0919768099
H  H43  1  0.80128000  0.47742000  0.76838000  1.0 0.1093024475
H  H44  1  0.88439000  0.07960000  0.59658000  1.0 0.1040752105
H  H45  1  0.86484000  0.15770000  0.63096000  1.0 0.0919768099
H  H46  1  0.02617000  0.26502000  0.60401000  1.0 0.0631438959
H  H47  1  0.04471000  0.19056000  0.57033000  1.0 0.1197777728
H  H48  1  0.36003000  0.37251000  0.66779000  1.0 0.1040752105
H  H49  1  0.26503000  0.31081000  0.65097000  1.0 0.0919768099
H  H50  1  0.15441000  0.44318000  0.69677000  1.0 0.0678684366
H  H51  1  0.24673000  0.47620000  0.71795000  1.0 0.1197777728
H  H52  1  0.99008000  0.46369000  0.71590000  1.0 0.1281410583
H  H53  1  0.87837000  0.29319000  0.63121000  1.0 0.1197777728
H  H54  1  0.15534000  0.35917000  0.63549000  1.0 0.1093024475
H  H55  1  0.01890000  0.57842000  0.23071000  1.0 0.1197777728
H  H56  1  0.11820000  0.74122000  0.14908000  1.0 0.1281410583
H  H57  1  0.84370000  0.69538000  0.14706000  1.0 0.1197777728
H  H58  1  0.26300000  0.56648000  0.19273000  1.0 0.1197777728
H  H59  1  0.15517000  0.56713000  0.17803000  1.0 0.0810536788
H  H60  1  0.09002000  0.53387000  0.25490000  1.0 0.0919768099
H  H61  1  0.19872000  0.52258000  0.26838000  1.0 0.1093024475
H  H62  1  0.11561000  0.92040000  0.09658000  1.0 0.1040752105
H  H63  1  0.13516000  0.84230000  0.13096000  1.0 0.0919768099
H  H64  1  0.97383000  0.73498000  0.10401000  1.0 0.0631438959
H  H65  1  0.95529000  0.80944000  0.07033000  1.0 0.1197777728
H  H66  1  0.63997000  0.62749000  0.16779000  1.0 0.1040752105
H  H67  1  0.73497000  0.68919000  0.15097000  1.0 0.0919768099
H  H68  1  0.84559000  0.55682000  0.19677000  1.0 0.0678684366
H  H69  1  0.75327000  0.52380000  0.21795000  1.0 0.1197777728
H  H70  1  0.00992000  0.53631000  0.21590000  1.0 0.1281410583
H  H71  1  0.12163000  0.70681000  0.13121000  1.0 0.1197777728
H  H72  1  0.84466000  0.64083000  0.13549000  1.0 0.1093024475
H  H73  1  0.57842000  0.01890000  0.76929000  1.0 0.1197777728
H  H74  1  0.74122000  0.11820000  0.85092000  1.0 0.1281410583
H  H75  1  0.69538000  0.84370000  0.85294000  1.0 0.1197777728
H  H76  1  0.56648000  0.26300000  0.80727000  1.0 0.1197777728
H  H77  1  0.56713000  0.15517000  0.82197000  1.0 0.0810536788
H  H78  1  0.53387000  0.09002000  0.74510000  1.0 0.0919768099
H  H79  1  0.52258000  0.19872000  0.73162000  1.0 0.1093024475
H  H80  1  0.92040000  0.11561000  0.90342000  1.0 0.1040752105
H  H81  1  0.84230000  0.13516000  0.86904000  1.0 0.0919768099
H  H82  1  0.73498000  0.97383000  0.89599000  1.0 0.0631438959
H  H83  1  0.80944000  0.95529000  0.92967000  1.0 0.1197777728
H  H84  1  0.62749000  0.63997000  0.83221000  1.0 0.1040752105
H  H85  1  0.68919000  0.73497000  0.84903000  1.0 0.0919768099
H  H86  1  0.55682000  0.84559000  0.80323000  1.0 0.0678684366
H  H87  1  0.52380000  0.75327000  0.78205000  1.0 0.1197777728
H  H88  1  0.53631000  0.00992000  0.78410000  1.0 0.1281410583
H  H89  1  0.70681000  0.12163000  0.86879000  1.0 0.1197777728
H  H90  1  0.64083000  0.84466000  0.86451000  1.0 0.1093024475
H  H91  1  0.42158000  0.98110000  0.26929000  1.0 0.1197777728
H  H92  1  0.25878000  0.88180000  0.35092000  1.0 0.1281410583
H  H93  1  0.30462000  0.15630000  0.35294000  1.0 0.1197777728
H  H94  1  0.43352000  0.73700000  0.30727000  1.0 0.1197777728
H  H95  1  0.43287000  0.84483000  0.32197000  1.0 0.0810536788
H  H96  1  0.46613000  0.90998000  0.24510000  1.0 0.0919768099
H  H97  1  0.47742000  0.80128000  0.23162000  1.0 0.1040752105
H  H98  1  0.07960000  0.88439000  0.40342000  1.0 0.1040752105
H  H99  1  0.15770000  0.86484000  0.36904000  1.0 0.0919768099
H  H100  1  0.26502000  0.02617000  0.39599000  1.0 0.0631438959
H  H101  1  0.19056000  0.04471000  0.42967000  1.0 0.1197777728
H  H102  1  0.37251000  0.36003000  0.33221000  1.0 0.1040752105
H  H103  1  0.31081000  0.26503000  0.34903000  1.0 0.0919768099
H  H104  1  0.44318000  0.15441000  0.30323000  1.0 0.0678684366
H  H105  1  0.47620000  0.24673000  0.28205000  1.0 0.1197777728
H  H106  1  0.46369000  0.99008000  0.28410000  1.0 0.1281410583
H  H107  1  0.29319000  0.87837000  0.36879000  1.0 0.1197777728
H  H108  1  0.35917000  0.15534000  0.36451000  1.0 0.1093024475
H  H109  1  0.51890000  0.92158000  0.51929000  1.0 0.1197777728
H  H110  1  0.61820000  0.75878000  0.60092000  1.0 0.1281410583
H  H111  1  0.34370000  0.80462000  0.60294000  1.0 0.1197777728
H  H112  1  0.76300000  0.93352000  0.55727000  1.0 0.1197777728
H  H113  1  0.65517000  0.93287000  0.57197000  1.0 0.0810536788
H  H114  1  0.59002000  0.96613000  0.49510000  1.0 0.0919768099
H  H115  1  0.69872000  0.97742000  0.48162000  1.0 0.1040752105
H  H116  1  0.61561000  0.57960000  0.65342000  1.0 0.1040752105
H  H117  1  0.63516000  0.65770000  0.61904000  1.0 0.0919768099
H  H118  1  0.47383000  0.76502000  0.64599000  1.0 0.0631438959
H  H119  1  0.45529000  0.69056000  0.67967000  1.0 0.1197777728
H  H120  1  0.13997000  0.87251000  0.58221000  1.0 0.1040752105
H  H121  1  0.23497000  0.81081000  0.59903000  1.0 0.0919768099
H  H122  1  0.34559000  0.94318000  0.55323000  1.0 0.0678684366
H  H123  1  0.25327000  0.97620000  0.53205000  1.0 0.1197777728
H  H124  1  0.50992000  0.96369000  0.53410000  1.0 0.1281410583
H  H125  1  0.62163000  0.79319000  0.61879000  1.0 0.1197777728
H  H126  1  0.34466000  0.85917000  0.61451000  1.0 0.1093024475
H  H127  1  0.48110000  0.07842000  0.01929000  1.0 0.1197777728
H  H128  1  0.38180000  0.24122000  0.10092000  1.0 0.1281410583
H  H129  1  0.65630000  0.19538000  0.10294000  1.0 0.1197777728
H  H130  1  0.23700000  0.06648000  0.05727000  1.0 0.1197777728
H  H131  1  0.34483000  0.06713000  0.07197000  1.0 0.0810536788
H  H132  1  0.40998000  0.03387000  0.99510000  1.0 0.0919768099
H  H133  1  0.30128000  0.02258000  0.98162000  1.0 0.1093024475
H  H134  1  0.38439000  0.42040000  0.15342000  1.0 0.1040752105
H  H135  1  0.36484000  0.34230000  0.11904000  1.0 0.0919768099
H  H136  1  0.52617000  0.23498000  0.14599000  1.0 0.0631438959
H  H137  1  0.54471000  0.30944000  0.17967000  1.0 0.1197777728
H  H138  1  0.86003000  0.12749000  0.08221000  1.0 0.1040752105
H  H139  1  0.76503000  0.18919000  0.09903000  1.0 0.0919768099
H  H140  1  0.65441000  0.05682000  0.05323000  1.0 0.0678684366
H  H141  1  0.74673000  0.02380000  0.03205000  1.0 0.1197777728
H  H142  1  0.49008000  0.03631000  0.03410000  1.0 0.1281410583
H  H143  1  0.37837000  0.20681000  0.11879000  1.0 0.1197777728
H  H144  1  0.65534000  0.14083000  0.11451000  1.0 0.1093024475
C  C1  1  0.95170000  0.81540000  0.49193000  1.0 0.5994661208
C  C2  1  0.95090000  0.74090000  0.48354000  1.0 -0.029305766
C  C3  1  0.93940000  0.72760000  0.45501000  1.0 -0.1208628228
C  C4  1  0.93730000  0.66390000  0.44661000  1.0 -0.220381196
C  C5  1  0.94160000  0.61000000  0.46455000  1.0 0.1401366471
C  C6  1  0.95880000  0.62500000  0.49252000  1.0 -0.2122319366
C  C7  1  0.96420000  0.68940000  0.50054000  1.0 -0.077695109
C  C8  1  0.57570000  0.51930000  0.30723000  1.0 0.5820541474
C  C9  1  0.62620000  0.53320000  0.32900000  1.0 -0.029305766
C  C10  1  0.61740000  0.58780000  0.34808000  1.0 -0.0997959499
C  C11  1  0.66370000  0.60000000  0.36855000  1.0 -0.2122319366
C  C12  1  0.72070000  0.55710000  0.36992000  1.0 0.1654737982
C  C13  1  0.72820000  0.50270000  0.35203000  1.0 -0.2122319366
C  C14  1  0.68380000  0.49130000  0.33225000  1.0 -0.0997959499
C  C15  1  0.94800000  0.12040000  0.45963000  1.0 0.5994661208
C  C16  1  0.92270000  0.18360000  0.44626000  1.0 -0.0385185331
C  C17  1  0.88090000  0.18220000  0.42547000  1.0 -0.0907080961
C  C18  1  0.84650000  0.23900000  0.41322000  1.0 -0.2276730097
C  C19  1  0.87410000  0.30250000  0.42222000  1.0 0.1603995031
C  C20  1  0.92410000  0.30430000  0.44192000  1.0 -0.220381196
C  C21  1  0.94500000  0.24930000  0.45380000  1.0 -0.0997959499
C  C22  1  0.87550000  0.51490000  0.44490000  1.0 0.2003160091
C  C23  1  0.79860000  0.52970000  0.40870000  1.0 0.2003160091
C  C24  1  0.83920000  0.42110000  0.41890000  1.0 0.2090384788
C  C25  1  0.89920000  0.51950000  0.43500000  1.0 0.2003160091
C  C26  1  0.82220000  0.53550000  0.39880000  1.0 0.2090384788
C  C27  1  0.86400000  0.42610000  0.40870000  1.0 0.2090384788
C  C28  1  0.04830000  0.18460000  0.99193000  1.0 0.5994661208
C  C29  1  0.04910000  0.25910000  0.98354000  1.0 -0.029305766
C  C30  1  0.06060000  0.27240000  0.95501000  1.0 -0.1208628228
C  C31  1  0.06270000  0.33610000  0.94661000  1.0 -0.220381196
C  C32  1  0.05840000  0.39000000  0.96455000  1.0 0.1281410583
C  C33  1  0.04120000  0.37500000  0.99252000  1.0 -0.2122319366
C  C34  1  0.03580000  0.31060000  0.00054000  1.0 -0.077695109
C  C35  1  0.42430000  0.48070000  0.80723000  1.0 0.5820541474
C  C36  1  0.37380000  0.46680000  0.82900000  1.0 -0.029305766
C  C37  1  0.38260000  0.41220000  0.84808000  1.0 -0.0997959499
C  C38  1  0.33630000  0.40000000  0.86855000  1.0 -0.2122319366
C  C39  1  0.27930000  0.44290000  0.86992000  1.0 0.1603995031
C  C40  1  0.27180000  0.49730000  0.85203000  1.0 -0.2122319366
C  C41  1  0.31620000  0.50870000  0.83225000  1.0 -0.0997959499
C  C42  1  0.05200000  0.87960000  0.95963000  1.0 0.5994661208
C  C43  1  0.07730000  0.81640000  0.94626000  1.0 -0.0385185331
C  C44  1  0.11910000  0.81780000  0.92547000  1.0 -0.0907080961
C  C45  1  0.15350000  0.76100000  0.91322000  1.0 -0.2276730097
C  C46  1  0.12590000  0.69750000  0.92222000  1.0 0.1544722337
C  C47  1  0.07590000  0.69570000  0.94192000  1.0 -0.220381196
C  C48  1  0.05500000  0.75070000  0.95380000  1.0 -0.0997959499
C  C49  1  0.12450000  0.48510000  0.94490000  1.0 0.2090384788
C  C50  1  0.20140000  0.47030000  0.90870000  1.0 0.2003160091
C  C51  1  0.16080000  0.57890000  0.91890000  1.0 0.2003160091
C  C52  1  0.10080000  0.48050000  0.93500000  1.0 0.2003160091
C  C53  1  0.17780000  0.46450000  0.89880000  1.0 0.2090384788
C  C54  1  0.13600000  0.57390000  0.90870000  1.0 0.2090384788
C  C55  1  0.68460000  0.45170000  0.74193000  1.0 0.5994661208
C  C56  1  0.75910000  0.45090000  0.73354000  1.0 -0.029305766
C  C57  1  0.77240000  0.43940000  0.70501000  1.0 -0.1208628228
C  C58  1  0.83610000  0.43730000  0.69661000  1.0 -0.220381196
C  C59  1  0.89000000  0.44160000  0.71455000  1.0 0.1401366471
C  C60  1  0.87500000  0.45880000  0.74252000  1.0 -0.2122319366
C  C61  1  0.81060000  0.46420000  0.75054000  1.0 -0.077695109
C  C62  1  0.98070000  0.07570000  0.55723000  1.0 0.5820541474
C  C63  1  0.96680000  0.12620000  0.57900000  1.0 -0.029305766
C  C64  1  0.91220000  0.11740000  0.59808000  1.0 -0.0997959499
C  C65  1  0.90000000  0.16370000  0.61855000  1.0 -0.2122319366
C  C66  1  0.94290000  0.22070000  0.61992000  1.0 0.1603995031
C  C67  1  0.99730000  0.22820000  0.60203000  1.0 -0.2122319366
C  C68  1  0.00870000  0.18380000  0.58225000  1.0 -0.0997959499
C  C69  1  0.37960000  0.44800000  0.70963000  1.0 0.5994661208
C  C70  1  0.31640000  0.42270000  0.69626000  1.0 -0.0385185331
C  C71  1  0.31780000  0.38090000  0.67547000  1.0 -0.0907080961
C  C72  1  0.26100000  0.34650000  0.66322000  1.0 -0.2276730097
C  C73  1  0.19750000  0.37410000  0.67222000  1.0 0.1544722337
C  C74  1  0.19570000  0.42410000  0.69192000  1.0 -0.220381196
C  C75  1  0.25070000  0.44500000  0.70380000  1.0 -0.0997959499
C  C76  1  0.98510000  0.37550000  0.69490000  1.0 0.2090384788
C  C77  1  0.97030000  0.29860000  0.65870000  1.0 0.2003160091
C  C78  1  0.07890000  0.33920000  0.66890000  1.0 0.2090384788
C  C79  1  0.98050000  0.39920000  0.68500000  1.0 0.2003160091
C  C80  1  0.96450000  0.32220000  0.64880000  1.0 0.2090384788
C  C81  1  0.07390000  0.36400000  0.65870000  1.0 0.2090384788
C  C82  1  0.31540000  0.54830000  0.24193000  1.0 0.5994661208
C  C83  1  0.24090000  0.54910000  0.23354000  1.0 -0.029305766
C  C84  1  0.22760000  0.56060000  0.20501000  1.0 -0.1208628228
C  C85  1  0.16390000  0.56270000  0.19661000  1.0 -0.2276730097
C  C86  1  0.11000000  0.55840000  0.21455000  1.0 0.1401366471
C  C87  1  0.12500000  0.54120000  0.24252000  1.0 -0.2122319366
C  C88  1  0.18940000  0.53580000  0.25054000  1.0 -0.077695109
C  C89  1  0.01930000  0.92430000  0.05723000  1.0 0.5820541474
C  C90  1  0.03320000  0.87380000  0.07900000  1.0 -0.029305766
C  C91  1  0.08780000  0.88260000  0.09808000  1.0 -0.0997959499
C  C92  1  0.10000000  0.83630000  0.11855000  1.0 -0.2122319366
C  C93  1  0.05710000  0.77930000  0.11992000  1.0 0.1603995031
C  C94  1  0.00270000  0.77180000  0.10203000  1.0 -0.2122319366
C  C95  1  0.99130000  0.81620000  0.08225000  1.0 -0.0997959499
C  C96  1  0.62040000  0.55200000  0.20963000  1.0 0.5994661208
C  C97  1  0.68360000  0.57730000  0.19626000  1.0 -0.0385185331
C  C98  1  0.68220000  0.61910000  0.17547000  1.0 -0.0907080961
C  C99  1  0.73900000  0.65350000  0.16322000  1.0 -0.2276730097
C  C100  1  0.80250000  0.62590000  0.17222000  1.0 0.1603995031
C  C101  1  0.80430000  0.57590000  0.19192000  1.0 -0.220381196
C  C102  1  0.74930000  0.55500000  0.20380000  1.0 -0.0997959499
C  C103  1  0.01490000  0.62450000  0.19490000  1.0 0.2090384788
C  C104  1  0.02970000  0.70140000  0.15870000  1.0 0.2003160091
C  C105  1  0.92110000  0.66080000  0.16890000  1.0 0.2090384788
C  C106  1  0.01950000  0.60080000  0.18500000  1.0 0.2003160091
C  C107  1  0.03550000  0.67780000  0.14880000  1.0 0.2090384788
C  C108  1  0.92610000  0.63600000  0.15870000  1.0 0.2090384788
C  C109  1  0.54830000  0.31540000  0.75807000  1.0 0.5994661208
C  C110  1  0.54910000  0.24090000  0.76646000  1.0 -0.029305766
C  C111  1  0.56060000  0.22760000  0.79499000  1.0 -0.1208628228
C  C112  1  0.56270000  0.16390000  0.80339000  1.0 -0.220381196
C  C113  1  0.55840000  0.11000000  0.78545000  1.0 0.1401366471
C  C114  1  0.54120000  0.12500000  0.75748000  1.0 -0.2122319366
C  C115  1  0.53580000  0.18940000  0.74946000  1.0 -0.077695109
C  C116  1  0.92430000  0.01930000  0.94277000  1.0 0.5820541474
C  C117  1  0.87380000  0.03320000  0.92100000  1.0 -0.029305766
C  C118  1  0.88260000  0.08780000  0.90192000  1.0 -0.0997959499
C  C119  1  0.83630000  0.10000000  0.88145000  1.0 -0.2122319366
C  C120  1  0.77930000  0.05710000  0.88008000  1.0 0.1603995031
C  C121  1  0.77180000  0.00270000  0.89797000  1.0 -0.2122319366
C  C122  1  0.81620000  0.99130000  0.91775000  1.0 -0.0997959499
C  C123  1  0.55200000  0.62040000  0.79037000  1.0 0.5994661208
C  C124  1  0.57730000  0.68360000  0.80374000  1.0 -0.0385185331
C  C125  1  0.61910000  0.68220000  0.82453000  1.0 -0.0907080961
C  C126  1  0.65350000  0.73900000  0.83678000  1.0 -0.2276730097
C  C127  1  0.62590000  0.80250000  0.82778000  1.0 0.1544722337
C  C128  1  0.57590000  0.80430000  0.80808000  1.0 -0.220381196
C  C129  1  0.55500000  0.74930000  0.79620000  1.0 -0.0997959499
C  C130  1  0.62450000  0.01490000  0.80510000  1.0 0.2090384788
C  C131  1  0.70140000  0.02970000  0.84130000  1.0 0.2003160091
C  C132  1  0.66080000  0.92110000  0.83110000  1.0 0.2090384788
C  C133  1  0.60080000  0.01950000  0.81500000  1.0 0.2003160091
C  C134  1  0.67780000  0.03550000  0.85120000  1.0 0.2090384788
C  C135  1  0.63600000  0.92610000  0.84130000  1.0 0.2090384788
C  C136  1  0.45170000  0.68460000  0.25807000  1.0 0.5994661208
C  C137  1  0.45090000  0.75910000  0.26646000  1.0 -0.029305766
C  C138  1  0.43940000  0.77240000  0.29499000  1.0 -0.1208628228
C  C139  1  0.43730000  0.83610000  0.30339000  1.0 -0.220381196
C  C140  1  0.44160000  0.89000000  0.28545000  1.0 0.1401366471
C  C141  1  0.45880000  0.87500000  0.25748000  1.0 -0.2122319366
C  C142  1  0.46420000  0.81060000  0.24946000  1.0 -0.077695109
C  C143  1  0.07570000  0.98070000  0.44277000  1.0 0.5820541474
C  C144  1  0.12620000  0.96680000  0.42100000  1.0 -0.029305766
C  C145  1  0.11740000  0.91220000  0.40192000  1.0 -0.0997959499
C  C146  1  0.16370000  0.90000000  0.38145000  1.0 -0.2122319366
C  C147  1  0.22070000  0.94290000  0.38008000  1.0 0.1603995031
C  C148  1  0.22820000  0.99730000  0.39797000  1.0 -0.2122319366
C  C149  1  0.18380000  0.00870000  0.41775000  1.0 -0.0997959499
C  C150  1  0.44800000  0.37960000  0.29037000  1.0 0.5994661208
C  C151  1  0.42270000  0.31640000  0.30374000  1.0 -0.0385185331
C  C152  1  0.38090000  0.31780000  0.32453000  1.0 -0.0907080961
C  C153  1  0.34650000  0.26100000  0.33678000  1.0 -0.2276730097
C  C154  1  0.37410000  0.19750000  0.32778000  1.0 0.1544722337
C  C155  1  0.42410000  0.19570000  0.30808000  1.0 -0.220381196
C  C156  1  0.44500000  0.25070000  0.29620000  1.0 -0.0997959499
C  C157  1  0.37550000  0.98510000  0.30510000  1.0 0.2090384788
C  C158  1  0.29860000  0.97030000  0.34130000  1.0 0.2003160091
C  C159  1  0.33920000  0.07890000  0.33110000  1.0 0.2090384788
C  C160  1  0.39920000  0.98050000  0.31500000  1.0 0.2003160091
C  C161  1  0.32220000  0.96450000  0.35120000  1.0 0.2090384788
C  C162  1  0.36400000  0.07390000  0.34130000  1.0 0.2090384788
C  C163  1  0.81540000  0.95170000  0.50807000  1.0 0.5994661208
C  C164  1  0.74090000  0.95090000  0.51646000  1.0 -0.029305766
C  C165  1  0.72760000  0.93940000  0.54499000  1.0 -0.1208628228
C  C166  1  0.66390000  0.93730000  0.55339000  1.0 -0.220381196
C  C167  1  0.61000000  0.94160000  0.53545000  1.0 0.1401366471
C  C168  1  0.62500000  0.95880000  0.50748000  1.0 -0.2122319366
C  C169  1  0.68940000  0.96420000  0.49946000  1.0 -0.077695109
C  C170  1  0.51930000  0.57570000  0.69277000  1.0 0.5820541474
C  C171  1  0.53320000  0.62620000  0.67100000  1.0 -0.029305766
C  C172  1  0.58780000  0.61740000  0.65192000  1.0 -0.0997959499
C  C173  1  0.60000000  0.66370000  0.63145000  1.0 -0.2122319366
C  C174  1  0.55710000  0.72070000  0.63008000  1.0 0.1603995031
C  C175  1  0.50270000  0.72820000  0.64797000  1.0 -0.2122319366
C  C176  1  0.49130000  0.68380000  0.66775000  1.0 -0.0997959499
C  C177  1  0.12040000  0.94800000  0.54037000  1.0 0.5994661208
C  C178  1  0.18360000  0.92270000  0.55374000  1.0 -0.0385185331
C  C179  1  0.18220000  0.88090000  0.57453000  1.0 -0.0907080961
C  C180  1  0.23900000  0.84650000  0.58678000  1.0 -0.2276730097
C  C181  1  0.30250000  0.87410000  0.57778000  1.0 0.1603995031
C  C182  1  0.30430000  0.92410000  0.55808000  1.0 -0.220381196
C  C183  1  0.24930000  0.94500000  0.54620000  1.0 -0.0997959499
C  C184  1  0.51490000  0.87550000  0.55510000  1.0 0.2003160091
C  C185  1  0.52970000  0.79860000  0.59130000  1.0 0.2003160091
C  C186  1  0.42110000  0.83920000  0.58110000  1.0 0.2003160091
C  C187  1  0.51950000  0.89920000  0.56500000  1.0 0.2003160091
C  C188  1  0.53550000  0.82220000  0.60120000  1.0 0.2090384788
C  C189  1  0.42610000  0.86400000  0.59130000  1.0 0.2090384788
C  C190  1  0.18460000  0.04830000  0.00807000  1.0 0.5994661208
C  C191  1  0.25910000  0.04910000  0.01646000  1.0 -0.0246660854
C  C192  1  0.27240000  0.06060000  0.04499000  1.0 -0.1208628228
C  C193  1  0.33610000  0.06270000  0.05339000  1.0 -0.220381196
C  C194  1  0.39000000  0.05840000  0.03545000  1.0 0.1401366471
C  C195  1  0.37500000  0.04120000  0.00748000  1.0 -0.2122319366
C  C196  1  0.31060000  0.03580000  0.99946000  1.0 -0.077695109
C  C197  1  0.48070000  0.42430000  0.19277000  1.0 0.5820541474
C  C198  1  0.46680000  0.37380000  0.17100000  1.0 -0.029305766
C  C199  1  0.41220000  0.38260000  0.15192000  1.0 -0.0997959499
C  C200  1  0.40000000  0.33630000  0.13145000  1.0 -0.2122319366
C  C201  1  0.44290000  0.27930000  0.13008000  1.0 0.1603995031
C  C202  1  0.49730000  0.27180000  0.14797000  1.0 -0.2122319366
C  C203  1  0.50870000  0.31620000  0.16775000  1.0 -0.0997959499
C  C204  1  0.87960000  0.05200000  0.04037000  1.0 0.5994661208
C  C205  1  0.81640000  0.07730000  0.05374000  1.0 -0.0385185331
C  C206  1  0.81780000  0.11910000  0.07453000  1.0 -0.0907080961
C  C207  1  0.76100000  0.15350000  0.08678000  1.0 -0.2276730097
C  C208  1  0.69750000  0.12590000  0.07778000  1.0 0.1603995031
C  C209  1  0.69570000  0.07590000  0.05808000  1.0 -0.220381196
C  C210  1  0.75070000  0.05500000  0.04620000  1.0 -0.0997959499
C  C211  1  0.48510000  0.12450000  0.05510000  1.0 0.2090384788
C  C212  1  0.47030000  0.20140000  0.09130000  1.0 0.2003160091
C  C213  1  0.57890000  0.16080000  0.08110000  1.0 0.2003160091
C  C214  1  0.48050000  0.10080000  0.06500000  1.0 0.2003160091
C  C215  1  0.46450000  0.17780000  0.10120000  1.0 0.2090384788
C  C216  1  0.57390000  0.13600000  0.09130000  1.0 0.2090384788
N  N1  1  0.91420000  0.54270000  0.46630000  1.0 -0.0997959499
N  N2  1  0.75960000  0.57670000  0.39384000  1.0 -0.1208628228
N  N3  1  0.83280000  0.35390000  0.40980000  1.0 -0.1106178015
N  N4  1  0.87750000  0.44680000  0.43990000  1.0 -0.0997959499
N  N5  1  0.83610000  0.55690000  0.42940000  1.0 -0.1208628228
N  N6  1  0.79970000  0.46270000  0.40330000  1.0 -0.1358128495
N  N7  1  0.94010000  0.53920000  0.45710000  1.0 -0.1106178015
N  N8  1  0.78120000  0.58000000  0.38300000  1.0 -0.0907080961
N  N9  1  0.86470000  0.35610000  0.40230000  1.0 -0.0907080961
N  N10  1  0.90220000  0.45140000  0.42990000  1.0 -0.1208628228
N  N11  1  0.85960000  0.56180000  0.41970000  1.0 -0.1106178015
N  N12  1  0.82440000  0.46810000  0.39330000  1.0 -0.0997959499
N  N13  1  0.08580000  0.45730000  0.96630000  1.0 -0.0997959499
N  N14  1  0.24040000  0.42330000  0.89384000  1.0 -0.1208628228
N  N15  1  0.16720000  0.64610000  0.90980000  1.0 -0.1106178015
N  N16  1  0.12250000  0.55320000  0.93990000  1.0 -0.0997959499
N  N17  1  0.16390000  0.44310000  0.92940000  1.0 -0.1276924219
N  N18  1  0.20030000  0.53730000  0.90330000  1.0 -0.1276924219
N  N19  1  0.05990000  0.46080000  0.95710000  1.0 -0.1208628228
N  N20  1  0.21880000  0.42000000  0.88300000  1.0 -0.0907080961
N  N21  1  0.13530000  0.64390000  0.90230000  1.0 -0.0907080961
N  N22  1  0.09780000  0.54860000  0.92990000  1.0 -0.1208628228
N  N23  1  0.14040000  0.43820000  0.91970000  1.0 -0.1106178015
N  N24  1  0.17560000  0.53190000  0.89330000  1.0 -0.0997959499
N  N25  1  0.95730000  0.41420000  0.71630000  1.0 -0.0997959499
N  N26  1  0.92330000  0.25960000  0.64384000  1.0 -0.1208628228
N  N27  1  0.14610000  0.33280000  0.65980000  1.0 -0.1208628228
N  N28  1  0.05320000  0.37750000  0.68990000  1.0 -0.1106178015
N  N29  1  0.94310000  0.33610000  0.67940000  1.0 -0.1208628228
N  N30  1  0.03730000  0.29970000  0.65330000  1.0 -0.1358128495
N  N31  1  0.96080000  0.44010000  0.70710000  1.0 -0.1106178015
N  N32  1  0.92000000  0.28120000  0.63300000  1.0 -0.0907080961
N  N33  1  0.14390000  0.36470000  0.65230000  1.0 -0.0907080961
N  N34  1  0.04860000  0.40220000  0.67990000  1.0 -0.1276924219
N  N35  1  0.93820000  0.35960000  0.66970000  1.0 -0.1106178015
N  N36  1  0.03190000  0.32440000  0.64330000  1.0 -0.1106178015
N  N37  1  0.04270000  0.58580000  0.21630000  1.0 -0.0907080961
N  N38  1  0.07670000  0.74040000  0.14384000  1.0 -0.1208628228
N  N39  1  0.85390000  0.66720000  0.15980000  1.0 -0.1106178015
N  N40  1  0.94680000  0.62250000  0.18990000  1.0 -0.0997959499
N  N41  1  0.05690000  0.66390000  0.17940000  1.0 -0.1208628228
N  N42  1  0.96270000  0.70030000  0.15330000  1.0 -0.1358128495
N  N43  1  0.03920000  0.55990000  0.20710000  1.0 -0.1208628228
N  N44  1  0.08000000  0.71880000  0.13300000  1.0 -0.0907080961
N  N45  1  0.85610000  0.63530000  0.15230000  1.0 -0.0907080961
N  N46  1  0.95140000  0.59780000  0.17990000  1.0 -0.1276924219
N  N47  1  0.06180000  0.64040000  0.16970000  1.0 -0.1106178015
N  N48  1  0.96810000  0.67560000  0.14330000  1.0 -0.1106178015
N  N49  1  0.58580000  0.04270000  0.78370000  1.0 -0.0907080961
N  N50  1  0.74040000  0.07670000  0.85616000  1.0 -0.1208628228
N  N51  1  0.66720000  0.85390000  0.84020000  1.0 -0.1106178015
N  N52  1  0.62250000  0.94680000  0.81010000  1.0 -0.0997959499
N  N53  1  0.66390000  0.05690000  0.82060000  1.0 -0.1208628228
N  N54  1  0.70030000  0.96270000  0.84670000  1.0 -0.1276924219
N  N55  1  0.55990000  0.03920000  0.79290000  1.0 -0.1208628228
N  N56  1  0.71880000  0.08000000  0.86700000  1.0 -0.0907080961
N  N57  1  0.63530000  0.85610000  0.84770000  1.0 -0.0907080961
N  N58  1  0.59780000  0.95140000  0.82010000  1.0 -0.1276924219
N  N59  1  0.64040000  0.06180000  0.83030000  1.0 -0.1106178015
N  N60  1  0.67560000  0.96810000  0.85670000  1.0 -0.1106178015
N  N61  1  0.41420000  0.95730000  0.28370000  1.0 -0.0997959499
N  N62  1  0.25960000  0.92330000  0.35616000  1.0 -0.1208628228
N  N63  1  0.33280000  0.14610000  0.34020000  1.0 -0.1208628228
N  N64  1  0.37750000  0.05320000  0.31010000  1.0 -0.1106178015
N  N65  1  0.33610000  0.94310000  0.32060000  1.0 -0.1208628228
N  N66  1  0.29970000  0.03730000  0.34670000  1.0 -0.1358128495
N  N67  1  0.44010000  0.96080000  0.29290000  1.0 -0.1106178015
N  N68  1  0.28120000  0.92000000  0.36700000  1.0 -0.0907080961
N  N69  1  0.36470000  0.14390000  0.34770000  1.0 -0.0907080961
N  N70  1  0.40220000  0.04860000  0.32010000  1.0 -0.1276924219
N  N71  1  0.35960000  0.93820000  0.33030000  1.0 -0.1106178015
N  N72  1  0.32440000  0.03190000  0.35670000  1.0 -0.1106178015
N  N73  1  0.54270000  0.91420000  0.53370000  1.0 -0.0997959499
N  N74  1  0.57670000  0.75960000  0.60616000  1.0 -0.1208628228
N  N75  1  0.35390000  0.83280000  0.59020000  1.0 -0.1106178015
N  N76  1  0.44680000  0.87750000  0.56010000  1.0 -0.0997959499
N  N77  1  0.55690000  0.83610000  0.57060000  1.0 -0.1208628228
N  N78  1  0.46270000  0.79970000  0.59670000  1.0 -0.1358128495
N  N79  1  0.53920000  0.94010000  0.54290000  1.0 -0.1106178015
N  N80  1  0.58000000  0.78120000  0.61700000  1.0 -0.0907080961
N  N81  1  0.35610000  0.86470000  0.59770000  1.0 -0.0907080961
N  N82  1  0.45140000  0.90220000  0.57010000  1.0 -0.1208628228
N  N83  1  0.56180000  0.85960000  0.58030000  1.0 -0.1106178015
N  N84  1  0.46810000  0.82440000  0.60670000  1.0 -0.0997959499
N  N85  1  0.45730000  0.08580000  0.03370000  1.0 -0.0997959499
N  N86  1  0.42330000  0.24040000  0.10616000  1.0 -0.1208628228
N  N87  1  0.64610000  0.16720000  0.09020000  1.0 -0.1106178015
N  N88  1  0.55320000  0.12250000  0.06010000  1.0 -0.0997959499
N  N89  1  0.44310000  0.16390000  0.07060000  1.0 -0.1276924219
N  N90  1  0.53730000  0.20030000  0.09670000  1.0 -0.1358128495
N  N91  1  0.46080000  0.05990000  0.04290000  1.0 -0.1208628228
N  N92  1  0.42000000  0.21880000  0.11700000  1.0 -0.0907080961
N  N93  1  0.64390000  0.13530000  0.09770000  1.0 -0.0907080961
N  N94  1  0.54860000  0.09780000  0.07010000  1.0 -0.1208628228
N  N95  1  0.43820000  0.14040000  0.08030000  1.0 -0.1106178015
N  N96  1  0.53190000  0.17560000  0.10670000  1.0 -0.1106178015
Cl  Cl1  1  0.64324000  0.35676000  0.25000000  1.0 -0.5439524012
Cl  Cl2  1  0.35676000  0.64324000  0.75000000  1.0 -0.5439524012
Cl  Cl3  1  0.14324000  0.14324000  0.50000000  1.0 -0.5439524012
Cl  Cl4  1  0.85676000  0.85676000  0.00000000  1.0 -0.5488331342
O  O1  1  0.97199000  0.82980000  0.51513000  1.0 -0.5694019851
O  O2  1  0.92748000  0.85570000  0.47460000  1.0 -0.5904998463
O  O3  1  0.59097000  0.47527000  0.29100000  1.0 -0.5488331342
O  O4  1  0.52006000  0.55359000  0.30832000  1.0 -0.6022303459
O  O5  1  0.98717000  0.12888000  0.47951000  1.0 -0.5694019851
O  O6  1  0.92470000  0.06666000  0.45179000  1.0 -0.5694019851
O  O7  1  0.02801000  0.17020000  0.01513000  1.0 -0.5694019851
O  O8  1  0.07252000  0.14430000  0.97460000  1.0 -0.5904998463
O  O9  1  0.40903000  0.52473000  0.79100000  1.0 -0.5488331342
O  O10  1  0.47994000  0.44641000  0.80832000  1.0 -0.6022303459
O  O11  1  0.01283000  0.87112000  0.97951000  1.0 -0.5694019851
O  O12  1  0.07530000  0.93334000  0.95179000  1.0 -0.5694019851
O  O13  1  0.67020000  0.47199000  0.76513000  1.0 -0.5694019851
O  O14  1  0.64430000  0.42748000  0.72460000  1.0 -0.5904998463
O  O15  1  0.02473000  0.09097000  0.54100000  1.0 -0.5488331342
O  O16  1  0.94641000  0.02006000  0.55832000  1.0 -0.6022303459
O  O17  1  0.37112000  0.48717000  0.72951000  1.0 -0.5694019851
O  O18  1  0.43334000  0.42470000  0.70179000  1.0 -0.564583635
O  O19  1  0.32980000  0.52801000  0.26513000  1.0 -0.5694019851
O  O20  1  0.35570000  0.57252000  0.22460000  1.0 -0.5904998463
O  O21  1  0.97527000  0.90903000  0.04100000  1.0 -0.5488331342
O  O22  1  0.05359000  0.97994000  0.05832000  1.0 -0.6022303459
O  O23  1  0.62888000  0.51283000  0.22951000  1.0 -0.5694019851
O  O24  1  0.56666000  0.57530000  0.20179000  1.0 -0.5694019851
O  O25  1  0.52801000  0.32980000  0.73487000  1.0 -0.5694019851
O  O26  1  0.57252000  0.35570000  0.77540000  1.0 -0.5904998463
O  O27  1  0.90903000  0.97527000  0.95900000  1.0 -0.5488331342
O  O28  1  0.97994000  0.05359000  0.94168000  1.0 -0.6022303459
O  O29  1  0.51283000  0.62888000  0.77049000  1.0 -0.5694019851
O  O30  1  0.57530000  0.56666000  0.79821000  1.0 -0.5694019851
O  O31  1  0.47199000  0.67020000  0.23487000  1.0 -0.5694019851
O  O32  1  0.42748000  0.64430000  0.27540000  1.0 -0.5904998463
O  O33  1  0.09097000  0.02473000  0.45900000  1.0 -0.5488331342
O  O34  1  0.02006000  0.94641000  0.44168000  1.0 -0.6022303459
O  O35  1  0.48717000  0.37112000  0.27049000  1.0 -0.5694019851
O  O36  1  0.42470000  0.43334000  0.29821000  1.0 -0.564583635
O  O37  1  0.82980000  0.97199000  0.48487000  1.0 -0.5694019851
O  O38  1  0.85570000  0.92748000  0.52540000  1.0 -0.5904998463
O  O39  1  0.47527000  0.59097000  0.70900000  1.0 -0.5488331342
O  O40  1  0.55359000  0.52006000  0.69168000  1.0 -0.6022303459
O  O41  1  0.12888000  0.98717000  0.52049000  1.0 -0.5694019851
O  O42  1  0.06666000  0.92470000  0.54821000  1.0 -0.5694019851
O  O43  1  0.17020000  0.02801000  0.98487000  1.0 -0.5694019851
O  O44  1  0.14430000  0.07252000  0.02540000  1.0 -0.5904998463
O  O45  1  0.52473000  0.40903000  0.20900000  1.0 -0.5488331342
O  O46  1  0.44641000  0.47994000  0.19168000  1.0 -0.6022303459
O  O47  1  0.87112000  0.01283000  0.02049000  1.0 -0.5694019851
O  O48  1  0.93334000  0.07530000  0.04821000  1.0 -0.5694019851
O  O49  1  0.98521000  0.98521000  0.50000000  1.0 -1.0736502167
O  O50  1  0.01479000  0.01479000  0.00000000  1.0 -1.0754478928
O  O51  1  0.51479000  0.48521000  0.75000000  1.0 -1.0754478928
O  O52  1  0.48521000  0.51479000  0.25000000  1.0 -1.0754478928
