# DDEC6 charges by PACMAN v1.1 (https://github.com/mtap-research/PACMAN-charge/)
data_VORHER_ASR_pacman
_symmetry_space_group_name_H-M   'P 1'
_cell_length_a   25.65770000
_cell_length_b   25.65770000
_cell_length_c   25.65770000
_cell_angle_alpha   109.47100000
_cell_angle_beta   109.47100000
_cell_angle_gamma   109.47100000
_symmetry_Int_Tables_number   1
_chemical_formula_structural   Cu2H17C27(NO6)2
_chemical_formula_sum   'Cu24 H204 C324 N24 O144'
_cell_volume   13002.73841119
_cell_formula_units_Z   12
loop_
 _symmetry_equiv_pos_site_id
 _symmetry_equiv_pos_as_xyz
  1  'x, y, z'
loop_
 _atom_site_type_symbol
 _atom_site_label
 _atom_site_symmetry_multiplicity
 _atom_site_fract_x
 _atom_site_fract_y
 _atom_site_fract_z
 _atom_site_occupancy
 _atom_site_charge
Cu  Cu1  1  0.35688000  0.43612000  0.43612000  1.0 0.8433796103
Cu  Cu2  1  0.00000000  0.43612000  0.07924000  1.0 0.8433796103
Cu  Cu3  1  0.64312000  0.07924000  0.07924000  1.0 0.8433796103
Cu  Cu4  1  0.00000000  0.07924000  0.43612000  1.0 0.8433796103
Cu  Cu5  1  0.00000000  0.56388000  0.92076000  1.0 0.8433796103
Cu  Cu6  1  0.35688000  0.92076000  0.92076000  1.0 0.8433796103
Cu  Cu7  1  0.00000000  0.92076000  0.56388000  1.0 0.8433796103
Cu  Cu8  1  0.64312000  0.56388000  0.56388000  1.0 0.8433796103
Cu  Cu9  1  0.26440000  0.32962000  0.32962000  1.0 0.8877703856
Cu  Cu10  1  0.00000000  0.32962000  0.06522000  1.0 0.8877703856
Cu  Cu11  1  0.73560000  0.06522000  0.06522000  1.0 0.8877703856
Cu  Cu12  1  0.00000000  0.06522000  0.32962000  1.0 0.8877703856
Cu  Cu13  1  0.00000000  0.67038000  0.93478000  1.0 0.8877703856
Cu  Cu14  1  0.26440000  0.93478000  0.93478000  1.0 0.8877703856
Cu  Cu15  1  0.00000000  0.93478000  0.67038000  1.0 0.8877703856
Cu  Cu16  1  0.73560000  0.67038000  0.67038000  1.0 0.8877703856
Cu  Cu17  1  0.35308000  0.00000000  0.35308000  1.0 0.8825633387
Cu  Cu18  1  0.35308000  0.35308000  0.00000000  1.0 0.8825633387
Cu  Cu19  1  0.64692000  0.00000000  0.64692000  1.0 0.8825633387
Cu  Cu20  1  0.64692000  0.64692000  0.00000000  1.0 0.8825633387
Cu  Cu21  1  0.26384000  0.00000000  0.26384000  1.0 0.8575900654
Cu  Cu22  1  0.26384000  0.26384000  0.00000000  1.0 0.8575900654
Cu  Cu23  1  0.73616000  0.00000000  0.73616000  1.0 0.8575900654
Cu  Cu24  1  0.73616000  0.73616000  0.00000000  1.0 0.8575900654
H  H1  1  0.21090000  0.38580000  0.64810000  1.0 0.1402190948
H  H2  1  0.26230000  0.64810000  0.43720000  1.0 0.1402190948
H  H3  1  0.78910000  0.43720000  0.17490000  1.0 0.1402190948
H  H4  1  0.73770000  0.17490000  0.38580000  1.0 0.1402190948
H  H5  1  0.26230000  0.61420000  0.82510000  1.0 0.1402190948
H  H6  1  0.21090000  0.82510000  0.56280000  1.0 0.1402190948
H  H7  1  0.73770000  0.56280000  0.35190000  1.0 0.1402190948
H  H8  1  0.78910000  0.35190000  0.61420000  1.0 0.1402190948
H  H9  1  0.78910000  0.61420000  0.35190000  1.0 0.1402190948
H  H10  1  0.73770000  0.35190000  0.56280000  1.0 0.1402190948
H  H11  1  0.21090000  0.56280000  0.82510000  1.0 0.1402190948
H  H12  1  0.26230000  0.82510000  0.61420000  1.0 0.1402190948
H  H13  1  0.73770000  0.38580000  0.17490000  1.0 0.1402190948
H  H14  1  0.78910000  0.17490000  0.43720000  1.0 0.1402190948
H  H15  1  0.26230000  0.43720000  0.64810000  1.0 0.1402190948
H  H16  1  0.21090000  0.64810000  0.38580000  1.0 0.1402190948
H  H17  1  0.33240000  0.20110000  0.35130000  1.0 0.1402190948
H  H18  1  0.15020000  0.35130000  0.01890000  1.0 0.1402190948
H  H19  1  0.66760000  0.01890000  0.86870000  1.0 0.1402190948
H  H20  1  0.84980000  0.86870000  0.20110000  1.0 0.1402190948
H  H21  1  0.15020000  0.79890000  0.13130000  1.0 0.1402190948
H  H22  1  0.33240000  0.13130000  0.98110000  1.0 0.1402190948
H  H23  1  0.84980000  0.98110000  0.64870000  1.0 0.1402190948
H  H24  1  0.66760000  0.64870000  0.79890000  1.0 0.1402190948
H  H25  1  0.66760000  0.79890000  0.64870000  1.0 0.1402190948
H  H26  1  0.84980000  0.64870000  0.98110000  1.0 0.1402190948
H  H27  1  0.33240000  0.98110000  0.13130000  1.0 0.1402190948
H  H28  1  0.15020000  0.13130000  0.79890000  1.0 0.1402190948
H  H29  1  0.84980000  0.20110000  0.86870000  1.0 0.1402190948
H  H30  1  0.66760000  0.86870000  0.01890000  1.0 0.1402190948
H  H31  1  0.15020000  0.01890000  0.35130000  1.0 0.1402190948
H  H32  1  0.33240000  0.35130000  0.20110000  1.0 0.1402190948
H  H33  1  0.47560000  0.36580000  0.50980000  1.0 0.1402190948
H  H34  1  0.14400000  0.50980000  0.03420000  1.0 0.1402190948
H  H35  1  0.52440000  0.03420000  0.89020000  1.0 0.1402190948
H  H36  1  0.85600000  0.89020000  0.36580000  1.0 0.1402190948
H  H37  1  0.14400000  0.63420000  0.10980000  1.0 0.1402190948
H  H38  1  0.47560000  0.10980000  0.96580000  1.0 0.1402190948
H  H39  1  0.85600000  0.96580000  0.49020000  1.0 0.1402190948
H  H40  1  0.52440000  0.49020000  0.63420000  1.0 0.1402190948
H  H41  1  0.52440000  0.63420000  0.49020000  1.0 0.1402190948
H  H42  1  0.85600000  0.49020000  0.96580000  1.0 0.1402190948
H  H43  1  0.47560000  0.96580000  0.10980000  1.0 0.1402190948
H  H44  1  0.14400000  0.10980000  0.63420000  1.0 0.1402190948
H  H45  1  0.85600000  0.36580000  0.89020000  1.0 0.1402190948
H  H46  1  0.52440000  0.89020000  0.03420000  1.0 0.1402190948
H  H47  1  0.14400000  0.03420000  0.50980000  1.0 0.1402190948
H  H48  1  0.47560000  0.50980000  0.36580000  1.0 0.1402190948
H  H49  1  0.63390000  0.45620000  0.68870000  1.0 0.1203853395
H  H50  1  0.23250000  0.68870000  0.05480000  1.0 0.1203853395
H  H51  1  0.36610000  0.05480000  0.82230000  1.0 0.1203853395
H  H52  1  0.76750000  0.82230000  0.45620000  1.0 0.1203853395
H  H53  1  0.23250000  0.54380000  0.17770000  1.0 0.1203853395
H  H54  1  0.63390000  0.17770000  0.94520000  1.0 0.1203853395
H  H55  1  0.76750000  0.94520000  0.31130000  1.0 0.1203853395
H  H56  1  0.36610000  0.31130000  0.54380000  1.0 0.1203853395
H  H57  1  0.36610000  0.54380000  0.31130000  1.0 0.1203853395
H  H58  1  0.76750000  0.31130000  0.94520000  1.0 0.1203853395
H  H59  1  0.63390000  0.94520000  0.17770000  1.0 0.1203853395
H  H60  1  0.23250000  0.17770000  0.54380000  1.0 0.1203853395
H  H61  1  0.76750000  0.45620000  0.82230000  1.0 0.1203853395
H  H62  1  0.36610000  0.82230000  0.05480000  1.0 0.1203853395
H  H63  1  0.23250000  0.05480000  0.68870000  1.0 0.1203853395
H  H64  1  0.63390000  0.68870000  0.45620000  1.0 0.1203853395
H  H65  1  0.64110000  0.29890000  0.65780000  1.0 0.1402190948
H  H66  1  0.35890000  0.65780000  0.01670000  1.0 0.1402190948
H  H67  1  0.35890000  0.01670000  0.65780000  1.0 0.1402190948
H  H68  1  0.64110000  0.65780000  0.29890000  1.0 0.1402190948
H  H69  1  0.35890000  0.70110000  0.34220000  1.0 0.1402190948
H  H70  1  0.64110000  0.34220000  0.98330000  1.0 0.1402190948
H  H71  1  0.64110000  0.98330000  0.34220000  1.0 0.1402190948
H  H72  1  0.35890000  0.34220000  0.70110000  1.0 0.1402190948
H  H73  1  0.28230000  0.41640000  0.56250000  1.0 0.1402190948
H  H74  1  0.14610000  0.56250000  0.28020000  1.0 0.1402190948
H  H75  1  0.71770000  0.28020000  0.13410000  1.0 0.1402190948
H  H76  1  0.85390000  0.13410000  0.41640000  1.0 0.1402190948
H  H77  1  0.14610000  0.58360000  0.86590000  1.0 0.1402190948
H  H78  1  0.28230000  0.86590000  0.71980000  1.0 0.1402190948
H  H79  1  0.85390000  0.71980000  0.43750000  1.0 0.1402190948
H  H80  1  0.71770000  0.43750000  0.58360000  1.0 0.1402190948
H  H81  1  0.71770000  0.58360000  0.43750000  1.0 0.1402190948
H  H82  1  0.85390000  0.43750000  0.71980000  1.0 0.1402190948
H  H83  1  0.28230000  0.71980000  0.86590000  1.0 0.1402190948
H  H84  1  0.14610000  0.86590000  0.58360000  1.0 0.1402190948
H  H85  1  0.85390000  0.41640000  0.13410000  1.0 0.1402190948
H  H86  1  0.71770000  0.13410000  0.28020000  1.0 0.1402190948
H  H87  1  0.14610000  0.28020000  0.56250000  1.0 0.1402190948
H  H88  1  0.28230000  0.56250000  0.41640000  1.0 0.1402190948
H  H89  1  0.15300000  0.24890000  0.40190000  1.0 0.1402190948
H  H90  1  0.15300000  0.40190000  0.24890000  1.0 0.1402190948
H  H91  1  0.84700000  0.24890000  0.09590000  1.0 0.1402190948
H  H92  1  0.84700000  0.09590000  0.24890000  1.0 0.1402190948
H  H93  1  0.15300000  0.75110000  0.90410000  1.0 0.1402190948
H  H94  1  0.15300000  0.90410000  0.75110000  1.0 0.1402190948
H  H95  1  0.84700000  0.75110000  0.59810000  1.0 0.1402190948
H  H96  1  0.84700000  0.59810000  0.75110000  1.0 0.1402190948
H  H97  1  0.34740000  0.43220000  0.77960000  1.0 0.1958045485
H  H98  1  0.34740000  0.77960000  0.43220000  1.0 0.1958045485
H  H99  1  0.65260000  0.43220000  0.08480000  1.0 0.1932049888
H  H100  1  0.65260000  0.08480000  0.43220000  1.0 0.1932049888
H  H101  1  0.34740000  0.56780000  0.91520000  1.0 0.1958045485
H  H102  1  0.34740000  0.91520000  0.56780000  1.0 0.1958045485
H  H103  1  0.65260000  0.56780000  0.22040000  1.0 0.1932049888
H  H104  1  0.65260000  0.22040000  0.56780000  1.0 0.1932049888
H  H105  1  0.47700000  0.20250000  0.47870000  1.0 0.1798584639
H  H106  1  0.27620000  0.47870000  0.00170000  1.0 0.1798584639
H  H107  1  0.52300000  0.00170000  0.72550000  1.0 0.1798584639
H  H108  1  0.72380000  0.72550000  0.20250000  1.0 0.1798584639
H  H109  1  0.27620000  0.79750000  0.27450000  1.0 0.1798584639
H  H110  1  0.47700000  0.27450000  0.99830000  1.0 0.1798584639
H  H111  1  0.72380000  0.99830000  0.52130000  1.0 0.1798584639
H  H112  1  0.52300000  0.52130000  0.79750000  1.0 0.1798584639
H  H113  1  0.52300000  0.79750000  0.52130000  1.0 0.1798584639
H  H114  1  0.72380000  0.52130000  0.99830000  1.0 0.1798584639
H  H115  1  0.47700000  0.99830000  0.27450000  1.0 0.1798584639
H  H116  1  0.27620000  0.27450000  0.79750000  1.0 0.1798584639
H  H117  1  0.72380000  0.20250000  0.72550000  1.0 0.1798584639
H  H118  1  0.52300000  0.72550000  0.00170000  1.0 0.1798584639
H  H119  1  0.27620000  0.00170000  0.47870000  1.0 0.1798584639
H  H120  1  0.47700000  0.47870000  0.20250000  1.0 0.1798584639
H  H121  1  0.22980000  0.50000000  0.72980000  1.0 0.1126524444
H  H122  1  0.22980000  0.72980000  0.50000000  1.0 0.1126524444
H  H123  1  0.77020000  0.50000000  0.27020000  1.0 0.1126524444
H  H124  1  0.77020000  0.27020000  0.50000000  1.0 0.1126524444
H  H125  1  0.71100000  0.55380000  0.78180000  1.0 0.0715547136
H  H126  1  0.22800000  0.78180000  0.07080000  1.0 0.0715547136
H  H127  1  0.28900000  0.07080000  0.84280000  1.0 0.0715547136
H  H128  1  0.77200000  0.84280000  0.55380000  1.0 0.0715547136
H  H129  1  0.22800000  0.44620000  0.15720000  1.0 0.0715547136
H  H130  1  0.71100000  0.15720000  0.92920000  1.0 0.0715547136
H  H131  1  0.77200000  0.92920000  0.21820000  1.0 0.0715547136
H  H132  1  0.28900000  0.21820000  0.44620000  1.0 0.0715547136
H  H133  1  0.28900000  0.44620000  0.21820000  1.0 0.0715547136
H  H134  1  0.77200000  0.21820000  0.92920000  1.0 0.0715547136
H  H135  1  0.71100000  0.92920000  0.15720000  1.0 0.0715547136
H  H136  1  0.22800000  0.15720000  0.44620000  1.0 0.0715547136
H  H137  1  0.77200000  0.55380000  0.84280000  1.0 0.0715547136
H  H138  1  0.28900000  0.84280000  0.07080000  1.0 0.0715547136
H  H139  1  0.22800000  0.07080000  0.78180000  1.0 0.0715547136
H  H140  1  0.71100000  0.78180000  0.55380000  1.0 0.0715547136
H  H141  1  0.77890000  0.56200000  0.81550000  1.0 0.0786243779
H  H142  1  0.25350000  0.81550000  0.03660000  1.0 0.0786243779
H  H143  1  0.22110000  0.03660000  0.78310000  1.0 0.0786243779
H  H144  1  0.74650000  0.78310000  0.56200000  1.0 0.0786243779
H  H145  1  0.25350000  0.43800000  0.21690000  1.0 0.0786243779
H  H146  1  0.77890000  0.21690000  0.96340000  1.0 0.0786243779
H  H147  1  0.74650000  0.96340000  0.18450000  1.0 0.0786243779
H  H148  1  0.22110000  0.18450000  0.43800000  1.0 0.0786243779
H  H149  1  0.22110000  0.43800000  0.18450000  1.0 0.0786243779
H  H150  1  0.74650000  0.18450000  0.96340000  1.0 0.0786243779
H  H151  1  0.77890000  0.96340000  0.21690000  1.0 0.0786243779
H  H152  1  0.25350000  0.21690000  0.43800000  1.0 0.0786243779
H  H153  1  0.74650000  0.56200000  0.78310000  1.0 0.0786243779
H  H154  1  0.22110000  0.78310000  0.03660000  1.0 0.0786243779
H  H155  1  0.25350000  0.03660000  0.81550000  1.0 0.0786243779
H  H156  1  0.77890000  0.81550000  0.56200000  1.0 0.0786243779
H  H157  1  0.73210000  0.54470000  0.84140000  1.0 0.0786243779
H  H158  1  0.29670000  0.84140000  0.10930000  1.0 0.0786243779
H  H159  1  0.26790000  0.10930000  0.81260000  1.0 0.0786243779
H  H160  1  0.70330000  0.81260000  0.54470000  1.0 0.0786243779
H  H161  1  0.29670000  0.45530000  0.18740000  1.0 0.0786243779
H  H162  1  0.73210000  0.18740000  0.89070000  1.0 0.0786243779
H  H163  1  0.70330000  0.89070000  0.15860000  1.0 0.0786243779
H  H164  1  0.26790000  0.15860000  0.45530000  1.0 0.0786243779
H  H165  1  0.26790000  0.45530000  0.15860000  1.0 0.0786243779
H  H166  1  0.70330000  0.15860000  0.89070000  1.0 0.0786243779
H  H167  1  0.73210000  0.89070000  0.18740000  1.0 0.0786243779
H  H168  1  0.29670000  0.18740000  0.45530000  1.0 0.0786243779
H  H169  1  0.70330000  0.54470000  0.81260000  1.0 0.0786243779
H  H170  1  0.26790000  0.81260000  0.10930000  1.0 0.0786243779
H  H171  1  0.29670000  0.10930000  0.84140000  1.0 0.0786243779
H  H172  1  0.73210000  0.84140000  0.54470000  1.0 0.0786243779
H  H173  1  0.41650000  0.52980000  0.94770000  1.0 0.0786243779
H  H174  1  0.41790000  0.94770000  0.53120000  1.0 0.0786243779
H  H175  1  0.58350000  0.53120000  0.11330000  1.0 0.0786243779
H  H176  1  0.58210000  0.11330000  0.52980000  1.0 0.0786243779
H  H177  1  0.41790000  0.47020000  0.88670000  1.0 0.0786243779
H  H178  1  0.41650000  0.88670000  0.46880000  1.0 0.0786243779
H  H179  1  0.58210000  0.46880000  0.05230000  1.0 0.0786243779
H  H180  1  0.58350000  0.05230000  0.47020000  1.0 0.0786243779
H  H181  1  0.58350000  0.47020000  0.05230000  1.0 0.0786243779
H  H182  1  0.58210000  0.05230000  0.46880000  1.0 0.0786243779
H  H183  1  0.41650000  0.46880000  0.88670000  1.0 0.0786243779
H  H184  1  0.41790000  0.88670000  0.47020000  1.0 0.0786243779
H  H185  1  0.58210000  0.52980000  0.11330000  1.0 0.0786243779
H  H186  1  0.58350000  0.11330000  0.53120000  1.0 0.0786243779
H  H187  1  0.41790000  0.53120000  0.94770000  1.0 0.0786243779
H  H188  1  0.41650000  0.94770000  0.52980000  1.0 0.0786243779
H  H189  1  0.44400000  0.51210000  0.90250000  1.0 -0.0195402808
H  H190  1  0.39040000  0.90250000  0.45850000  1.0 -0.0195402808
H  H191  1  0.55600000  0.45850000  0.06810000  1.0 -0.0195402808
H  H192  1  0.60960000  0.06810000  0.51210000  1.0 -0.0195402808
H  H193  1  0.39040000  0.48790000  0.93190000  1.0 -0.0195402808
H  H194  1  0.44400000  0.93190000  0.54150000  1.0 -0.0195402808
H  H195  1  0.60960000  0.54150000  0.09750000  1.0 -0.0195402808
H  H196  1  0.55600000  0.09750000  0.48790000  1.0 -0.0195402808
H  H197  1  0.55600000  0.48790000  0.09750000  1.0 -0.0195402808
H  H198  1  0.60960000  0.09750000  0.54150000  1.0 -0.0195402808
H  H199  1  0.44400000  0.54150000  0.93190000  1.0 -0.0195402808
H  H200  1  0.39040000  0.93190000  0.48790000  1.0 -0.0195402808
H  H201  1  0.60960000  0.51210000  0.06810000  1.0 -0.0195402808
H  H202  1  0.55600000  0.06810000  0.45850000  1.0 -0.0195402808
H  H203  1  0.39040000  0.45850000  0.90250000  1.0 -0.0195402808
H  H204  1  0.44400000  0.90250000  0.51210000  1.0 -0.0195402808
C  C1  1  0.36740000  0.11910000  0.36890000  1.0 0.5697596567
C  C2  1  0.24980000  0.36890000  0.00150000  1.0 0.5697596567
C  C3  1  0.63260000  0.00150000  0.75170000  1.0 0.5697596567
C  C4  1  0.75020000  0.75170000  0.11910000  1.0 0.5697596567
C  C5  1  0.24980000  0.88090000  0.24830000  1.0 0.5697596567
C  C6  1  0.36740000  0.24830000  0.99850000  1.0 0.5697596567
C  C7  1  0.75020000  0.99850000  0.63110000  1.0 0.5697596567
C  C8  1  0.63260000  0.63110000  0.88090000  1.0 0.5697596567
C  C9  1  0.63260000  0.88090000  0.63110000  1.0 0.5697596567
C  C10  1  0.75020000  0.63110000  0.99850000  1.0 0.5697596567
C  C11  1  0.36740000  0.99850000  0.24830000  1.0 0.5697596567
C  C12  1  0.24980000  0.24830000  0.88090000  1.0 0.5697596567
C  C13  1  0.75020000  0.11910000  0.75170000  1.0 0.5697596567
C  C14  1  0.63260000  0.75170000  0.00150000  1.0 0.5697596567
C  C15  1  0.24980000  0.00150000  0.36890000  1.0 0.5697596567
C  C16  1  0.36740000  0.36890000  0.11910000  1.0 0.5697596567
C  C17  1  0.40170000  0.19160000  0.40770000  1.0 -0.0097973177
C  C18  1  0.21610000  0.40770000  0.00600000  1.0 -0.0097973177
C  C19  1  0.59830000  0.00600000  0.78990000  1.0 -0.0097973177
C  C20  1  0.78390000  0.78990000  0.19160000  1.0 -0.0097973177
C  C21  1  0.21610000  0.80840000  0.21010000  1.0 -0.0097973177
C  C22  1  0.40170000  0.21010000  0.99400000  1.0 -0.0097973177
C  C23  1  0.78390000  0.99400000  0.59230000  1.0 -0.0097973177
C  C24  1  0.59830000  0.59230000  0.80840000  1.0 -0.0097973177
C  C25  1  0.59830000  0.80840000  0.59230000  1.0 -0.0097973177
C  C26  1  0.78390000  0.59230000  0.99400000  1.0 -0.0097973177
C  C27  1  0.40170000  0.99400000  0.21010000  1.0 -0.0097973177
C  C28  1  0.21610000  0.21010000  0.80840000  1.0 -0.0097973177
C  C29  1  0.78390000  0.19160000  0.78990000  1.0 -0.0097973177
C  C30  1  0.59830000  0.78990000  0.00600000  1.0 -0.0097973177
C  C31  1  0.21610000  0.00600000  0.40770000  1.0 -0.0097973177
C  C32  1  0.40170000  0.40770000  0.19160000  1.0 -0.0097973177
C  C33  1  0.37110000  0.22340000  0.38910000  1.0 -0.1082609544
C  C34  1  0.16570000  0.38910000  0.01800000  1.0 -0.1082609544
C  C35  1  0.62890000  0.01800000  0.85230000  1.0 -0.1082609544
C  C36  1  0.83430000  0.85230000  0.22340000  1.0 -0.1082609544
C  C37  1  0.16570000  0.77660000  0.14770000  1.0 -0.1082609544
C  C38  1  0.37110000  0.14770000  0.98200000  1.0 -0.1082609544
C  C39  1  0.83430000  0.98200000  0.61090000  1.0 -0.1082609544
C  C40  1  0.62890000  0.61090000  0.77660000  1.0 -0.1082609544
C  C41  1  0.62890000  0.77660000  0.61090000  1.0 -0.1082609544
C  C42  1  0.83430000  0.61090000  0.98200000  1.0 -0.1082609544
C  C43  1  0.37110000  0.98200000  0.14770000  1.0 -0.1082609544
C  C44  1  0.16570000  0.14770000  0.77660000  1.0 -0.1082609544
C  C45  1  0.83430000  0.22340000  0.85230000  1.0 -0.1082609544
C  C46  1  0.62890000  0.85230000  0.01800000  1.0 -0.1082609544
C  C47  1  0.16570000  0.01800000  0.38910000  1.0 -0.1082609544
C  C48  1  0.37110000  0.38910000  0.22340000  1.0 -0.1082609544
C  C49  1  0.40000000  0.28940000  0.42840000  1.0 -0.0097973177
C  C50  1  0.13900000  0.42840000  0.02840000  1.0 -0.0097973177
C  C51  1  0.60000000  0.02840000  0.88940000  1.0 -0.0097973177
C  C52  1  0.86100000  0.88940000  0.28940000  1.0 -0.0097973177
C  C53  1  0.13900000  0.71060000  0.11060000  1.0 -0.0097973177
C  C54  1  0.40000000  0.11060000  0.97160000  1.0 -0.0097973177
C  C55  1  0.86100000  0.97160000  0.57160000  1.0 -0.0097973177
C  C56  1  0.60000000  0.57160000  0.71060000  1.0 -0.0097973177
C  C57  1  0.60000000  0.71060000  0.57160000  1.0 -0.0097973177
C  C58  1  0.86100000  0.57160000  0.97160000  1.0 -0.0097973177
C  C59  1  0.40000000  0.97160000  0.11060000  1.0 -0.0097973177
C  C60  1  0.13900000  0.11060000  0.71060000  1.0 -0.0097973177
C  C61  1  0.86100000  0.28940000  0.88940000  1.0 -0.0097973177
C  C62  1  0.60000000  0.88940000  0.02840000  1.0 -0.0097973177
C  C63  1  0.13900000  0.02840000  0.42840000  1.0 -0.0097973177
C  C64  1  0.40000000  0.42840000  0.28940000  1.0 -0.0097973177
C  C65  1  0.45680000  0.32200000  0.48440000  1.0 -0.1688515674
C  C66  1  0.16240000  0.48440000  0.02760000  1.0 -0.1688515674
C  C67  1  0.54320000  0.02760000  0.86520000  1.0 -0.1688515674
C  C68  1  0.83760000  0.86520000  0.32200000  1.0 -0.1688515674
C  C69  1  0.16240000  0.67800000  0.13480000  1.0 -0.1688515674
C  C70  1  0.45680000  0.13480000  0.97240000  1.0 -0.1688515674
C  C71  1  0.83760000  0.97240000  0.51560000  1.0 -0.1688515674
C  C72  1  0.54320000  0.51560000  0.67800000  1.0 -0.1688515674
C  C73  1  0.54320000  0.67800000  0.51560000  1.0 -0.1688515674
C  C74  1  0.83760000  0.51560000  0.97240000  1.0 -0.1688515674
C  C75  1  0.45680000  0.97240000  0.13480000  1.0 -0.1688515674
C  C76  1  0.16240000  0.13480000  0.67800000  1.0 -0.1688515674
C  C77  1  0.83760000  0.32200000  0.86520000  1.0 -0.1688515674
C  C78  1  0.54320000  0.86520000  0.02760000  1.0 -0.1688515674
C  C79  1  0.16240000  0.02760000  0.48440000  1.0 -0.1688515674
C  C80  1  0.45680000  0.48440000  0.32200000  1.0 -0.1688515674
C  C81  1  0.48620000  0.29000000  0.50320000  1.0 0.1203853395
C  C82  1  0.21320000  0.50320000  0.01700000  1.0 0.1203853395
C  C83  1  0.51380000  0.01700000  0.80380000  1.0 0.1203853395
C  C84  1  0.78680000  0.80380000  0.29000000  1.0 0.1203853395
C  C85  1  0.21320000  0.71000000  0.19620000  1.0 0.1203853395
C  C86  1  0.48620000  0.19620000  0.98300000  1.0 0.1203853395
C  C87  1  0.78680000  0.98300000  0.49680000  1.0 0.1203853395
C  C88  1  0.51380000  0.49680000  0.71000000  1.0 0.1203853395
C  C89  1  0.51380000  0.71000000  0.49680000  1.0 0.1203853395
C  C90  1  0.78680000  0.49680000  0.98300000  1.0 0.1203853395
C  C91  1  0.48620000  0.98300000  0.19620000  1.0 0.1203853395
C  C92  1  0.21320000  0.19620000  0.71000000  1.0 0.1203853395
C  C93  1  0.78680000  0.29000000  0.80380000  1.0 0.1203853395
C  C94  1  0.51380000  0.80380000  0.01700000  1.0 0.1203853395
C  C95  1  0.21320000  0.01700000  0.50320000  1.0 0.1203853395
C  C96  1  0.48620000  0.50320000  0.29000000  1.0 0.1203853395
C  C97  1  0.58660000  0.32010000  0.59330000  1.0 0.2374766227
C  C98  1  0.27320000  0.59330000  0.00670000  1.0 0.2374766227
C  C99  1  0.41340000  0.00670000  0.73350000  1.0 0.2374766227
C  C100  1  0.72680000  0.73350000  0.32010000  1.0 0.2374766227
C  C101  1  0.27320000  0.67990000  0.26650000  1.0 0.2374766227
C  C102  1  0.58660000  0.26650000  0.99330000  1.0 0.2374766227
C  C103  1  0.72680000  0.99330000  0.40670000  1.0 0.2374766227
C  C104  1  0.41340000  0.40670000  0.67990000  1.0 0.2374766227
C  C105  1  0.41340000  0.67990000  0.40670000  1.0 0.2374766227
C  C106  1  0.72680000  0.40670000  0.99330000  1.0 0.2374766227
C  C107  1  0.58660000  0.99330000  0.26650000  1.0 0.2374766227
C  C108  1  0.27320000  0.26650000  0.67990000  1.0 0.2374766227
C  C109  1  0.72680000  0.32010000  0.73350000  1.0 0.2374766227
C  C110  1  0.41340000  0.73350000  0.00670000  1.0 0.2374766227
C  C111  1  0.27320000  0.00670000  0.59330000  1.0 0.2374766227
C  C112  1  0.58660000  0.59330000  0.32010000  1.0 0.2374766227
C  C113  1  0.65530000  0.43630000  0.70260000  1.0 -0.2252133926
C  C114  1  0.26630000  0.70260000  0.04730000  1.0 -0.2252133926
C  C115  1  0.34470000  0.04730000  0.78100000  1.0 -0.2252133926
C  C116  1  0.73370000  0.78100000  0.43630000  1.0 -0.2252133926
C  C117  1  0.26630000  0.56370000  0.21900000  1.0 -0.2252133926
C  C118  1  0.65530000  0.21900000  0.95270000  1.0 -0.2252133926
C  C119  1  0.73370000  0.95270000  0.29740000  1.0 -0.2252133926
C  C120  1  0.34470000  0.29740000  0.56370000  1.0 -0.2252133926
C  C121  1  0.34470000  0.56370000  0.29740000  1.0 -0.2252133926
C  C122  1  0.73370000  0.29740000  0.95270000  1.0 -0.2252133926
C  C123  1  0.65530000  0.95270000  0.21900000  1.0 -0.2252133926
C  C124  1  0.26630000  0.21900000  0.56370000  1.0 -0.2252133926
C  C125  1  0.73370000  0.43630000  0.78100000  1.0 -0.2252133926
C  C126  1  0.34470000  0.78100000  0.04730000  1.0 -0.2252133926
C  C127  1  0.26630000  0.04730000  0.70260000  1.0 -0.2252133926
C  C128  1  0.65530000  0.70260000  0.43630000  1.0 -0.2252133926
C  C129  1  0.63270000  0.37160000  0.66330000  1.0 0.0132652289
C  C130  1  0.29170000  0.66330000  0.03060000  1.0 0.0132652289
C  C131  1  0.36730000  0.03060000  0.73890000  1.0 0.0132652289
C  C132  1  0.70830000  0.73890000  0.37160000  1.0 0.0132652289
C  C133  1  0.29170000  0.62840000  0.26110000  1.0 0.0132652289
C  C134  1  0.63270000  0.26110000  0.96940000  1.0 0.0132652289
C  C135  1  0.70830000  0.96940000  0.33670000  1.0 0.0132652289
C  C136  1  0.36730000  0.33670000  0.62840000  1.0 0.0132652289
C  C137  1  0.36730000  0.62840000  0.33670000  1.0 0.0132652289
C  C138  1  0.70830000  0.33670000  0.96940000  1.0 0.0132652289
C  C139  1  0.63270000  0.96940000  0.26110000  1.0 0.0132652289
C  C140  1  0.29170000  0.26110000  0.62840000  1.0 0.0132652289
C  C141  1  0.70830000  0.37160000  0.73890000  1.0 0.0132652289
C  C142  1  0.36730000  0.73890000  0.03060000  1.0 0.0132652289
C  C143  1  0.29170000  0.03060000  0.66330000  1.0 0.0132652289
C  C144  1  0.63270000  0.66330000  0.37160000  1.0 0.0132652289
C  C145  1  0.65870000  0.34250000  0.68380000  1.0 -0.1688515674
C  C146  1  0.34130000  0.68380000  0.02510000  1.0 -0.1688515674
C  C147  1  0.34130000  0.02510000  0.68380000  1.0 -0.1688515674
C  C148  1  0.65870000  0.68380000  0.34250000  1.0 -0.1688515674
C  C149  1  0.34130000  0.65750000  0.31620000  1.0 -0.1688515674
C  C150  1  0.65870000  0.31620000  0.97490000  1.0 -0.1688515674
C  C151  1  0.65870000  0.97490000  0.31620000  1.0 -0.1688515674
C  C152  1  0.34130000  0.31620000  0.65750000  1.0 -0.1688515674
C  C153  1  0.70880000  0.47010000  0.76130000  1.0 0.0715547136
C  C154  1  0.29120000  0.76130000  0.05250000  1.0 0.0715547136
C  C155  1  0.29120000  0.05250000  0.76130000  1.0 0.0715547136
C  C156  1  0.70880000  0.76130000  0.47010000  1.0 0.0715547136
C  C157  1  0.29120000  0.52990000  0.23870000  1.0 0.0715547136
C  C158  1  0.70880000  0.23870000  0.94750000  1.0 0.0715547136
C  C159  1  0.70880000  0.94750000  0.23870000  1.0 0.0715547136
C  C160  1  0.29120000  0.23870000  0.52990000  1.0 0.0715547136
C  C161  1  0.73490000  0.53860000  0.80370000  1.0 -0.2642986715
C  C162  1  0.26510000  0.80370000  0.06880000  1.0 -0.2642986715
C  C163  1  0.26510000  0.06880000  0.80370000  1.0 -0.2642986715
C  C164  1  0.73490000  0.80370000  0.53860000  1.0 -0.2659106394
C  C165  1  0.26510000  0.46140000  0.19630000  1.0 -0.2642986715
C  C166  1  0.73490000  0.19630000  0.93120000  1.0 -0.2642986715
C  C167  1  0.73490000  0.93120000  0.19630000  1.0 -0.2659106394
C  C168  1  0.26510000  0.19630000  0.46140000  1.0 -0.2642986715
C  C169  1  0.36670000  0.32380000  0.40990000  1.0 0.5697596567
C  C170  1  0.08610000  0.40990000  0.04320000  1.0 0.5697596567
C  C171  1  0.63330000  0.04320000  0.95710000  1.0 0.5697596567
C  C172  1  0.91390000  0.95710000  0.32380000  1.0 0.5697596567
C  C173  1  0.08610000  0.67620000  0.04290000  1.0 0.5697596567
C  C174  1  0.36670000  0.04290000  0.95680000  1.0 0.5697596567
C  C175  1  0.91390000  0.95680000  0.59010000  1.0 0.5697596567
C  C176  1  0.63330000  0.59010000  0.67620000  1.0 0.5697596567
C  C177  1  0.63330000  0.67620000  0.59010000  1.0 0.5697596567
C  C178  1  0.91390000  0.59010000  0.95680000  1.0 0.5697596567
C  C179  1  0.36670000  0.95680000  0.04290000  1.0 0.5697596567
C  C180  1  0.08610000  0.04290000  0.67620000  1.0 0.5697596567
C  C181  1  0.91390000  0.32380000  0.95710000  1.0 0.5697596567
C  C182  1  0.63330000  0.95710000  0.04320000  1.0 0.5697596567
C  C183  1  0.08610000  0.04320000  0.40990000  1.0 0.5697596567
C  C184  1  0.36670000  0.40990000  0.32380000  1.0 0.5697596567
C  C185  1  0.25540000  0.35450000  0.44210000  1.0 0.5765825669
C  C186  1  0.08760000  0.44210000  0.18670000  1.0 0.5765825669
C  C187  1  0.74460000  0.18670000  0.09910000  1.0 0.5765825669
C  C188  1  0.91240000  0.09910000  0.35450000  1.0 0.5765825669
C  C189  1  0.08760000  0.64550000  0.90090000  1.0 0.5765825669
C  C190  1  0.25540000  0.90090000  0.81330000  1.0 0.5765825669
C  C191  1  0.91240000  0.81330000  0.55790000  1.0 0.5765825669
C  C192  1  0.74460000  0.55790000  0.64550000  1.0 0.5765825669
C  C193  1  0.74460000  0.64550000  0.55790000  1.0 0.5765825669
C  C194  1  0.91240000  0.55790000  0.81330000  1.0 0.5765825669
C  C195  1  0.25540000  0.81330000  0.90090000  1.0 0.5765825669
C  C196  1  0.08760000  0.90090000  0.64550000  1.0 0.5765825669
C  C197  1  0.91240000  0.35450000  0.09910000  1.0 0.5765825669
C  C198  1  0.74460000  0.09910000  0.18670000  1.0 0.5765825669
C  C199  1  0.08760000  0.18670000  0.44210000  1.0 0.5765825669
C  C200  1  0.25540000  0.44210000  0.35450000  1.0 0.5765825669
C  C201  1  0.22270000  0.33450000  0.47640000  1.0 -0.0097973177
C  C202  1  0.14190000  0.47640000  0.25370000  1.0 -0.0097973177
C  C203  1  0.77730000  0.25370000  0.11180000  1.0 -0.0097973177
C  C204  1  0.85810000  0.11180000  0.33450000  1.0 -0.0097973177
C  C205  1  0.14190000  0.66550000  0.88820000  1.0 -0.0097973177
C  C206  1  0.22270000  0.88820000  0.74630000  1.0 -0.0097973177
C  C207  1  0.85810000  0.74630000  0.52360000  1.0 -0.0097973177
C  C208  1  0.77730000  0.52360000  0.66550000  1.0 -0.0097973177
C  C209  1  0.77730000  0.66550000  0.52360000  1.0 -0.0097973177
C  C210  1  0.85810000  0.52360000  0.74630000  1.0 -0.0097973177
C  C211  1  0.22270000  0.74630000  0.88820000  1.0 -0.0097973177
C  C212  1  0.14190000  0.88820000  0.66550000  1.0 -0.0097973177
C  C213  1  0.85810000  0.33450000  0.11180000  1.0 -0.0097973177
C  C214  1  0.77730000  0.11180000  0.25370000  1.0 -0.0097973177
C  C215  1  0.14190000  0.25370000  0.47640000  1.0 -0.0097973177
C  C216  1  0.22270000  0.47640000  0.33450000  1.0 -0.0097973177
C  C217  1  0.24690000  0.37580000  0.54090000  1.0 -0.177159902
C  C218  1  0.16510000  0.54090000  0.29400000  1.0 -0.177159902
C  C219  1  0.75310000  0.29400000  0.12890000  1.0 -0.177159902
C  C220  1  0.83490000  0.12890000  0.37580000  1.0 -0.177159902
C  C221  1  0.16510000  0.62420000  0.87110000  1.0 -0.177159902
C  C222  1  0.24690000  0.87110000  0.70600000  1.0 -0.177159902
C  C223  1  0.83490000  0.70600000  0.45910000  1.0 -0.177159902
C  C224  1  0.75310000  0.45910000  0.62420000  1.0 -0.177159902
C  C225  1  0.75310000  0.62420000  0.45910000  1.0 -0.177159902
C  C226  1  0.83490000  0.45910000  0.70600000  1.0 -0.177159902
C  C227  1  0.24690000  0.70600000  0.87110000  1.0 -0.177159902
C  C228  1  0.16510000  0.87110000  0.62420000  1.0 -0.177159902
C  C229  1  0.83490000  0.37580000  0.12890000  1.0 -0.177159902
C  C230  1  0.75310000  0.12890000  0.29400000  1.0 -0.177159902
C  C231  1  0.16510000  0.29400000  0.54090000  1.0 -0.177159902
C  C232  1  0.24690000  0.54090000  0.37580000  1.0 -0.177159902
C  C233  1  0.17000000  0.27520000  0.44520000  1.0 -0.1082609544
C  C234  1  0.17000000  0.44520000  0.27520000  1.0 -0.1082609544
C  C235  1  0.83000000  0.27520000  0.10520000  1.0 -0.1082609544
C  C236  1  0.83000000  0.10520000  0.27520000  1.0 -0.1082609544
C  C237  1  0.17000000  0.72480000  0.89480000  1.0 -0.1082609544
C  C238  1  0.17000000  0.89480000  0.72480000  1.0 -0.1082609544
C  C239  1  0.83000000  0.72480000  0.55480000  1.0 -0.1082609544
C  C240  1  0.83000000  0.55480000  0.72480000  1.0 -0.1082609544
C  C241  1  0.21730000  0.35520000  0.57250000  1.0 0.1488830979
C  C242  1  0.21730000  0.57250000  0.35520000  1.0 0.1488830979
C  C243  1  0.78270000  0.35520000  0.13790000  1.0 0.1488830979
C  C244  1  0.78270000  0.13790000  0.35520000  1.0 0.1488830979
C  C245  1  0.21730000  0.64480000  0.86210000  1.0 0.1488830979
C  C246  1  0.21730000  0.86210000  0.64480000  1.0 0.1488830979
C  C247  1  0.78270000  0.64480000  0.42750000  1.0 0.1488830979
C  C248  1  0.78270000  0.42750000  0.64480000  1.0 0.1488830979
C  C249  1  0.33210000  0.45960000  0.79170000  1.0 -0.1187892897
C  C250  1  0.33210000  0.79170000  0.45960000  1.0 -0.1187892897
C  C251  1  0.66790000  0.45960000  0.12750000  1.0 -0.1082609544
C  C252  1  0.66790000  0.12750000  0.45960000  1.0 -0.1082609544
C  C253  1  0.33210000  0.54040000  0.87250000  1.0 -0.1187892897
C  C254  1  0.33210000  0.87250000  0.54040000  1.0 -0.1187892897
C  C255  1  0.66790000  0.54040000  0.20830000  1.0 -0.1082609544
C  C256  1  0.66790000  0.20830000  0.54040000  1.0 -0.1187892897
C  C257  1  0.28560000  0.45960000  0.74520000  1.0 -0.0097973177
C  C258  1  0.28560000  0.74520000  0.45960000  1.0 -0.0097973177
C  C259  1  0.71440000  0.45960000  0.17400000  1.0 -0.0097973177
C  C260  1  0.71440000  0.17400000  0.45960000  1.0 -0.0097973177
C  C261  1  0.28560000  0.54040000  0.82600000  1.0 -0.0097973177
C  C262  1  0.28560000  0.82600000  0.54040000  1.0 -0.0097973177
C  C263  1  0.71440000  0.54040000  0.25480000  1.0 -0.0097973177
C  C264  1  0.71440000  0.25480000  0.54040000  1.0 -0.0097973177
C  C265  1  0.45810000  0.22430000  0.46540000  1.0 -0.1082609544
C  C266  1  0.24110000  0.46540000  0.00730000  1.0 -0.1082609544
C  C267  1  0.54190000  0.00730000  0.76620000  1.0 -0.1082609544
C  C268  1  0.75890000  0.76620000  0.22430000  1.0 -0.1082609544
C  C269  1  0.24110000  0.77570000  0.23380000  1.0 -0.1082609544
C  C270  1  0.45810000  0.23380000  0.99270000  1.0 -0.1082609544
C  C271  1  0.75890000  0.99270000  0.53460000  1.0 -0.1082609544
C  C272  1  0.54190000  0.53460000  0.77570000  1.0 -0.1082609544
C  C273  1  0.54190000  0.77570000  0.53460000  1.0 -0.1082609544
C  C274  1  0.75890000  0.53460000  0.99270000  1.0 -0.1082609544
C  C275  1  0.45810000  0.99270000  0.23380000  1.0 -0.1082609544
C  C276  1  0.24110000  0.23380000  0.77570000  1.0 -0.1082609544
C  C277  1  0.75890000  0.22430000  0.76620000  1.0 -0.1082609544
C  C278  1  0.54190000  0.76620000  0.00730000  1.0 -0.1082609544
C  C279  1  0.24110000  0.00730000  0.46540000  1.0 -0.1082609544
C  C280  1  0.45810000  0.46540000  0.22430000  1.0 -0.1082609544
C  C281  1  0.26120000  0.50000000  0.76120000  1.0 -0.1263484349
C  C282  1  0.26120000  0.76120000  0.50000000  1.0 -0.1263484349
C  C283  1  0.73880000  0.50000000  0.23880000  1.0 -0.1187892897
C  C284  1  0.73880000  0.23880000  0.50000000  1.0 -0.1187892897
C  C285  1  0.29620000  0.44440000  0.68820000  1.0 0.2316949843
C  C286  1  0.24380000  0.68820000  0.39200000  1.0 0.2316949843
C  C287  1  0.70380000  0.39200000  0.14820000  1.0 0.2316949843
C  C288  1  0.75620000  0.14820000  0.44440000  1.0 0.2316949843
C  C289  1  0.24380000  0.55560000  0.85180000  1.0 0.2316949843
C  C290  1  0.29620000  0.85180000  0.60800000  1.0 0.2316949843
C  C291  1  0.75620000  0.60800000  0.31180000  1.0 0.2316949843
C  C292  1  0.70380000  0.31180000  0.55560000  1.0 0.2316949843
C  C293  1  0.70380000  0.55560000  0.31180000  1.0 0.2316949843
C  C294  1  0.75620000  0.31180000  0.60800000  1.0 0.2316949843
C  C295  1  0.29620000  0.60800000  0.85180000  1.0 0.2316949843
C  C296  1  0.24380000  0.85180000  0.55560000  1.0 0.2316949843
C  C297  1  0.75620000  0.44440000  0.14820000  1.0 0.2316949843
C  C298  1  0.70380000  0.14820000  0.39200000  1.0 0.2316949843
C  C299  1  0.24380000  0.39200000  0.68820000  1.0 0.2316949843
C  C300  1  0.29620000  0.68820000  0.44440000  1.0 0.2316949843
C  C301  1  0.40640000  0.50000000  0.90640000  1.0 -0.282140552
C  C302  1  0.40640000  0.90640000  0.50000000  1.0 -0.282140552
C  C303  1  0.59360000  0.50000000  0.09360000  1.0 -0.282140552
C  C304  1  0.59360000  0.09360000  0.50000000  1.0 -0.282140552
C  C305  1  0.35700000  0.50000000  0.85700000  1.0 0.0418351638
C  C306  1  0.35700000  0.85700000  0.50000000  1.0 0.0418351638
C  C307  1  0.64300000  0.50000000  0.14300000  1.0 0.0418351638
C  C308  1  0.64300000  0.14300000  0.50000000  1.0 0.0418351638
C  C309  1  0.56050000  0.35730000  0.60740000  1.0 0.2316949843
C  C310  1  0.25010000  0.60740000  0.04690000  1.0 0.2316949843
C  C311  1  0.43950000  0.04690000  0.79680000  1.0 0.2316949843
C  C312  1  0.74990000  0.79680000  0.35730000  1.0 0.2316949843
C  C313  1  0.25010000  0.64270000  0.20320000  1.0 0.2316949843
C  C314  1  0.56050000  0.20320000  0.95310000  1.0 0.2316949843
C  C315  1  0.74990000  0.95310000  0.39260000  1.0 0.2316949843
C  C316  1  0.43950000  0.39260000  0.64270000  1.0 0.2316949843
C  C317  1  0.43950000  0.64270000  0.39260000  1.0 0.2316949843
C  C318  1  0.74990000  0.39260000  0.95310000  1.0 0.2316949843
C  C319  1  0.56050000  0.95310000  0.20320000  1.0 0.2316949843
C  C320  1  0.25010000  0.20320000  0.64270000  1.0 0.2316949843
C  C321  1  0.74990000  0.35730000  0.79680000  1.0 0.2316949843
C  C322  1  0.43950000  0.79680000  0.04690000  1.0 0.2316949843
C  C323  1  0.25010000  0.04690000  0.60740000  1.0 0.2316949843
C  C324  1  0.56050000  0.60740000  0.35730000  1.0 0.2316949843
N  N1  1  0.54490000  0.32400000  0.56150000  1.0 -0.0394780197
N  N2  1  0.23750000  0.56150000  0.01660000  1.0 -0.0394780197
N  N3  1  0.45510000  0.01660000  0.77910000  1.0 -0.0394780197
N  N4  1  0.76250000  0.77910000  0.32400000  1.0 -0.0394780197
N  N5  1  0.23750000  0.67600000  0.22090000  1.0 -0.0394780197
N  N6  1  0.54490000  0.22090000  0.98340000  1.0 -0.0394780197
N  N7  1  0.76250000  0.98340000  0.43850000  1.0 -0.0394780197
N  N8  1  0.45510000  0.43850000  0.67600000  1.0 -0.0394780197
N  N9  1  0.45510000  0.67600000  0.43850000  1.0 -0.0394780197
N  N10  1  0.76250000  0.43850000  0.98340000  1.0 -0.0394780197
N  N11  1  0.54490000  0.98340000  0.22090000  1.0 -0.0394780197
N  N12  1  0.23750000  0.22090000  0.67600000  1.0 -0.0394780197
N  N13  1  0.76250000  0.32400000  0.77910000  1.0 -0.0394780197
N  N14  1  0.45510000  0.77910000  0.01660000  1.0 -0.0394780197
N  N15  1  0.23750000  0.01660000  0.56150000  1.0 -0.0394780197
N  N16  1  0.54490000  0.56150000  0.32400000  1.0 -0.0394780197
N  N17  1  0.24160000  0.39610000  0.63770000  1.0 -0.1688515674
N  N18  1  0.24160000  0.63770000  0.39610000  1.0 -0.1688515674
N  N19  1  0.75840000  0.39610000  0.15450000  1.0 -0.1688515674
N  N20  1  0.75840000  0.15450000  0.39610000  1.0 -0.1688515674
N  N21  1  0.24160000  0.60390000  0.84550000  1.0 -0.1688515674
N  N22  1  0.24160000  0.84550000  0.60390000  1.0 -0.1688515674
N  N23  1  0.75840000  0.60390000  0.36230000  1.0 -0.1688515674
N  N24  1  0.75840000  0.36230000  0.60390000  1.0 -0.1688515674
O  O1  1  0.34110000  0.45700000  0.67630000  1.0 -0.4088557203
O  O2  1  0.21930000  0.67630000  0.33520000  1.0 -0.4088557203
O  O3  1  0.65890000  0.33520000  0.11590000  1.0 -0.4088557203
O  O4  1  0.78070000  0.11590000  0.45700000  1.0 -0.4088557203
O  O5  1  0.21930000  0.54300000  0.88410000  1.0 -0.4088557203
O  O6  1  0.34110000  0.88410000  0.66480000  1.0 -0.4088557203
O  O7  1  0.78070000  0.66480000  0.32370000  1.0 -0.4088557203
O  O8  1  0.65890000  0.32370000  0.54300000  1.0 -0.4088557203
O  O9  1  0.65890000  0.54300000  0.32370000  1.0 -0.4088557203
O  O10  1  0.78070000  0.32370000  0.66480000  1.0 -0.4088557203
O  O11  1  0.34110000  0.66480000  0.88410000  1.0 -0.4088557203
O  O12  1  0.21930000  0.88410000  0.54300000  1.0 -0.4088557203
O  O13  1  0.78070000  0.45700000  0.11590000  1.0 -0.4088557203
O  O14  1  0.65890000  0.11590000  0.33520000  1.0 -0.4088557203
O  O15  1  0.21930000  0.33520000  0.67630000  1.0 -0.4088557203
O  O16  1  0.34110000  0.67630000  0.45700000  1.0 -0.4088557203
O  O17  1  0.31750000  0.09330000  0.31700000  1.0 -0.5282827842
O  O18  1  0.22370000  0.31700000  0.99950000  1.0 -0.5282827842
O  O19  1  0.68250000  0.99950000  0.77580000  1.0 -0.5282827842
O  O20  1  0.77630000  0.77580000  0.09330000  1.0 -0.5282827842
O  O21  1  0.22370000  0.90670000  0.22420000  1.0 -0.5282827842
O  O22  1  0.31750000  0.22420000  0.00050000  1.0 -0.5282827842
O  O23  1  0.77630000  0.00050000  0.68300000  1.0 -0.5282827842
O  O24  1  0.68250000  0.68300000  0.90670000  1.0 -0.5282827842
O  O25  1  0.68250000  0.90670000  0.68300000  1.0 -0.5282827842
O  O26  1  0.77630000  0.68300000  0.00050000  1.0 -0.5282827842
O  O27  1  0.31750000  0.00050000  0.22420000  1.0 -0.5282827842
O  O28  1  0.22370000  0.22420000  0.90670000  1.0 -0.5282827842
O  O29  1  0.77630000  0.09330000  0.77580000  1.0 -0.5282827842
O  O30  1  0.68250000  0.77580000  0.99950000  1.0 -0.5282827842
O  O31  1  0.22370000  0.99950000  0.31700000  1.0 -0.5282827842
O  O32  1  0.31750000  0.31700000  0.09330000  1.0 -0.5282827842
O  O33  1  0.39280000  0.09200000  0.39240000  1.0 -0.5282827842
O  O34  1  0.30040000  0.39240000  0.99960000  1.0 -0.5282827842
O  O35  1  0.60720000  0.99960000  0.69920000  1.0 -0.5282827842
O  O36  1  0.69960000  0.69920000  0.09200000  1.0 -0.5282827842
O  O37  1  0.30040000  0.90800000  0.30080000  1.0 -0.5282827842
O  O38  1  0.39280000  0.30080000  0.00040000  1.0 -0.5282827842
O  O39  1  0.69960000  0.00040000  0.60760000  1.0 -0.5282827842
O  O40  1  0.60720000  0.60760000  0.90800000  1.0 -0.5282827842
O  O41  1  0.60720000  0.90800000  0.60760000  1.0 -0.5282827842
O  O42  1  0.69960000  0.60760000  0.00040000  1.0 -0.5282827842
O  O43  1  0.39280000  0.00040000  0.30080000  1.0 -0.5282827842
O  O44  1  0.30040000  0.30080000  0.90800000  1.0 -0.5282827842
O  O45  1  0.69960000  0.09200000  0.69920000  1.0 -0.5282827842
O  O46  1  0.60720000  0.69920000  0.99960000  1.0 -0.5282827842
O  O47  1  0.30040000  0.99960000  0.39240000  1.0 -0.5282827842
O  O48  1  0.39280000  0.39240000  0.09200000  1.0 -0.5282827842
O  O49  1  0.39290000  0.38180000  0.44730000  1.0 -0.5060275485
O  O50  1  0.06550000  0.44730000  0.05440000  1.0 -0.5060275485
O  O51  1  0.60710000  0.05440000  0.98890000  1.0 -0.5060275485
O  O52  1  0.93450000  0.98890000  0.38180000  1.0 -0.5060275485
O  O53  1  0.06550000  0.61820000  0.01110000  1.0 -0.5060275485
O  O54  1  0.39290000  0.01110000  0.94560000  1.0 -0.5060275485
O  O55  1  0.93450000  0.94560000  0.55270000  1.0 -0.5060275485
O  O56  1  0.60710000  0.55270000  0.61820000  1.0 -0.5060275485
O  O57  1  0.60710000  0.61820000  0.55270000  1.0 -0.5060275485
O  O58  1  0.93450000  0.55270000  0.94560000  1.0 -0.5060275485
O  O59  1  0.39290000  0.94560000  0.01110000  1.0 -0.5060275485
O  O60  1  0.06550000  0.01110000  0.61820000  1.0 -0.5060275485
O  O61  1  0.93450000  0.38180000  0.98890000  1.0 -0.5060275485
O  O62  1  0.60710000  0.98890000  0.05440000  1.0 -0.5060275485
O  O63  1  0.06550000  0.05440000  0.44730000  1.0 -0.5060275485
O  O64  1  0.39290000  0.44730000  0.38180000  1.0 -0.5060275485
O  O65  1  0.31430000  0.29150000  0.35680000  1.0 -0.5282827842
O  O66  1  0.06530000  0.35680000  0.04250000  1.0 -0.5282827842
O  O67  1  0.68570000  0.04250000  0.97720000  1.0 -0.5282827842
O  O68  1  0.93470000  0.97720000  0.29150000  1.0 -0.5282827842
O  O69  1  0.06530000  0.70850000  0.02280000  1.0 -0.5282827842
O  O70  1  0.31430000  0.02280000  0.95750000  1.0 -0.5282827842
O  O71  1  0.93470000  0.95750000  0.64320000  1.0 -0.5282827842
O  O72  1  0.68570000  0.64320000  0.70850000  1.0 -0.5282827842
O  O73  1  0.68570000  0.70850000  0.64320000  1.0 -0.5282827842
O  O74  1  0.93470000  0.64320000  0.95750000  1.0 -0.5282827842
O  O75  1  0.31430000  0.95750000  0.02280000  1.0 -0.5282827842
O  O76  1  0.06530000  0.02280000  0.70850000  1.0 -0.5282827842
O  O77  1  0.93470000  0.29150000  0.97720000  1.0 -0.5282827842
O  O78  1  0.68570000  0.97720000  0.04250000  1.0 -0.5282827842
O  O79  1  0.06530000  0.04250000  0.35680000  1.0 -0.5282827842
O  O80  1  0.31430000  0.35680000  0.29150000  1.0 -0.5282827842
O  O81  1  0.30750000  0.40870000  0.47500000  1.0 -0.5186714688
O  O82  1  0.06630000  0.47500000  0.16750000  1.0 -0.5186714688
O  O83  1  0.69250000  0.16750000  0.10120000  1.0 -0.5186714688
O  O84  1  0.93370000  0.10120000  0.40870000  1.0 -0.5186714688
O  O85  1  0.06630000  0.59130000  0.89880000  1.0 -0.5186714688
O  O86  1  0.30750000  0.89880000  0.83250000  1.0 -0.5186714688
O  O87  1  0.93370000  0.83250000  0.52500000  1.0 -0.5186714688
O  O88  1  0.69250000  0.52500000  0.59130000  1.0 -0.5186714688
O  O89  1  0.69250000  0.59130000  0.52500000  1.0 -0.5186714688
O  O90  1  0.93370000  0.52500000  0.83250000  1.0 -0.5186714688
O  O91  1  0.30750000  0.83250000  0.89880000  1.0 -0.5186714688
O  O92  1  0.06630000  0.89880000  0.59130000  1.0 -0.5186714688
O  O93  1  0.93370000  0.40870000  0.10120000  1.0 -0.5186714688
O  O94  1  0.69250000  0.10120000  0.16750000  1.0 -0.5186714688
O  O95  1  0.06630000  0.16750000  0.47500000  1.0 -0.5186714688
O  O96  1  0.30750000  0.47500000  0.40870000  1.0 -0.5186714688
O  O97  1  0.22880000  0.31670000  0.38330000  1.0 -0.5186714688
O  O98  1  0.06660000  0.38330000  0.15450000  1.0 -0.5186714688
O  O99  1  0.77120000  0.15450000  0.08790000  1.0 -0.5186714688
O  O100  1  0.93340000  0.08790000  0.31670000  1.0 -0.5186714688
O  O101  1  0.06660000  0.68330000  0.91210000  1.0 -0.5186714688
O  O102  1  0.22880000  0.91210000  0.84550000  1.0 -0.5186714688
O  O103  1  0.93340000  0.84550000  0.61670000  1.0 -0.5186714688
O  O104  1  0.77120000  0.61670000  0.68330000  1.0 -0.5186714688
O  O105  1  0.77120000  0.68330000  0.61670000  1.0 -0.5186714688
O  O106  1  0.93340000  0.61670000  0.84550000  1.0 -0.5186714688
O  O107  1  0.22880000  0.84550000  0.91210000  1.0 -0.5186714688
O  O108  1  0.06660000  0.91210000  0.68330000  1.0 -0.5186714688
O  O109  1  0.93340000  0.31670000  0.08790000  1.0 -0.5186714688
O  O110  1  0.77120000  0.08790000  0.15450000  1.0 -0.5186714688
O  O111  1  0.06660000  0.15450000  0.38330000  1.0 -0.5186714688
O  O112  1  0.22880000  0.38330000  0.31670000  1.0 -0.5186714688
O  O113  1  0.58940000  0.27480000  0.56180000  1.0 -0.2973910206
O  O114  1  0.28700000  0.56180000  0.97240000  1.0 -0.2973910206
O  O115  1  0.41060000  0.97240000  0.68540000  1.0 -0.2973910206
O  O116  1  0.71300000  0.68540000  0.27480000  1.0 -0.2973910206
O  O117  1  0.28700000  0.72520000  0.31460000  1.0 -0.2973910206
O  O118  1  0.58940000  0.31460000  0.02760000  1.0 -0.2973910206
O  O119  1  0.71300000  0.02760000  0.43820000  1.0 -0.2973910206
O  O120  1  0.41060000  0.43820000  0.72520000  1.0 -0.2973910206
O  O121  1  0.41060000  0.72520000  0.43820000  1.0 -0.2973910206
O  O122  1  0.71300000  0.43820000  0.02760000  1.0 -0.2973910206
O  O123  1  0.58940000  0.02760000  0.31460000  1.0 -0.2973910206
O  O124  1  0.28700000  0.31460000  0.72520000  1.0 -0.2973910206
O  O125  1  0.71300000  0.27480000  0.68540000  1.0 -0.2973910206
O  O126  1  0.41060000  0.68540000  0.97240000  1.0 -0.2973910206
O  O127  1  0.28700000  0.97240000  0.56180000  1.0 -0.2973910206
O  O128  1  0.58940000  0.56180000  0.27480000  1.0 -0.2973910206
O  O129  1  0.52190000  0.37220000  0.61710000  1.0 -0.177159902
O  O130  1  0.24490000  0.61710000  0.09520000  1.0 -0.177159902
O  O131  1  0.47810000  0.09520000  0.85030000  1.0 -0.177159902
O  O132  1  0.75510000  0.85030000  0.37220000  1.0 -0.177159902
O  O133  1  0.24490000  0.62780000  0.14970000  1.0 -0.177159902
O  O134  1  0.52190000  0.14970000  0.90480000  1.0 -0.177159902
O  O135  1  0.75510000  0.90480000  0.38290000  1.0 -0.177159902
O  O136  1  0.47810000  0.38290000  0.62780000  1.0 -0.177159902
O  O137  1  0.47810000  0.62780000  0.38290000  1.0 -0.177159902
O  O138  1  0.75510000  0.38290000  0.90480000  1.0 -0.177159902
O  O139  1  0.52190000  0.90480000  0.14970000  1.0 -0.177159902
O  O140  1  0.24490000  0.14970000  0.62780000  1.0 -0.177159902
O  O141  1  0.75510000  0.37220000  0.85030000  1.0 -0.177159902
O  O142  1  0.47810000  0.85030000  0.09520000  1.0 -0.177159902
O  O143  1  0.24490000  0.09520000  0.61710000  1.0 -0.1688515674
O  O144  1  0.52190000  0.61710000  0.37220000  1.0 -0.177159902
