# DDEC6 charges by PACMAN v1.1 (https://github.com/mtap-research/PACMAN-charge/)
data_VOSTUU_ASR_pacman
_symmetry_space_group_name_H-M   'P 1'
_cell_length_a   11.75530000
_cell_length_b   20.76770000
_cell_length_c   28.50900000
_cell_angle_alpha   90.00000000
_cell_angle_beta   90.00000000
_cell_angle_gamma   90.00000000
_symmetry_Int_Tables_number   1
_chemical_formula_structural   CoH40(C28N3)2
_chemical_formula_sum   'Co4 H160 C224 N24'
_cell_volume   6959.91767348
_cell_formula_units_Z   4
loop_
 _symmetry_equiv_pos_site_id
 _symmetry_equiv_pos_as_xyz
  1  'x, y, z'
loop_
 _atom_site_type_symbol
 _atom_site_label
 _atom_site_symmetry_multiplicity
 _atom_site_fract_x
 _atom_site_fract_y
 _atom_site_fract_z
 _atom_site_occupancy
 _atom_site_charge
Co  Co1  1  0.25461000  0.15193000  0.25000000  1.0 0.2033925541
Co  Co2  1  0.24539000  0.15193000  0.75000000  1.0 0.2033925541
Co  Co3  1  0.74539000  0.84807000  0.75000000  1.0 0.2033925541
Co  Co4  1  0.75461000  0.84807000  0.25000000  1.0 0.2033925541
H  H1  1  0.25550000  0.28180000  0.31020000  1.0 0.0999944553
H  H2  1  0.24450000  0.28180000  0.68980000  1.0 0.0999944553
H  H3  1  0.25550000  0.28180000  0.18980000  1.0 0.0999944553
H  H4  1  0.24450000  0.28180000  0.81020000  1.0 0.0999944553
H  H5  1  0.37170000  0.33500000  0.36330000  1.0 0.1270346344
H  H6  1  0.12830000  0.33500000  0.63670000  1.0 0.1270346344
H  H7  1  0.37170000  0.33500000  0.13670000  1.0 0.1270346344
H  H8  1  0.12830000  0.33500000  0.86330000  1.0 0.1270346344
H  H9  1  0.58430000  0.18300000  0.36400000  1.0 0.1270346344
H  H10  1  0.91570000  0.18300000  0.63600000  1.0 0.1270346344
H  H11  1  0.58430000  0.18300000  0.13600000  1.0 0.1270346344
H  H12  1  0.91570000  0.18300000  0.86400000  1.0 0.1270346344
H  H13  1  0.46870000  0.13040000  0.31090000  1.0 0.0999944553
H  H14  1  0.03130000  0.13040000  0.68910000  1.0 0.0999944553
H  H15  1  0.46870000  0.13040000  0.18910000  1.0 0.0999944553
H  H16  1  0.03130000  0.13040000  0.81090000  1.0 0.0999944553
H  H17  1  0.55750000  0.23710000  0.45570000  1.0 0.1191960674
H  H18  1  0.94250000  0.23710000  0.54430000  1.0 0.1191960674
H  H19  1  0.55750000  0.23710000  0.04430000  1.0 0.1191960674
H  H20  1  0.94250000  0.23710000  0.95570000  1.0 0.1191960674
H  H21  1  0.66350000  0.29670000  0.50850000  1.0 0.1191960674
H  H22  1  0.83650000  0.29670000  0.49150000  1.0 0.1104682292
H  H23  1  0.66350000  0.29670000  0.99150000  1.0 0.1191960674
H  H24  1  0.83650000  0.29670000  0.00850000  1.0 0.1191960674
H  H25  1  0.68500000  0.44110000  0.41440000  1.0 0.1270346344
H  H26  1  0.81500000  0.44110000  0.58560000  1.0 0.1270346344
H  H27  1  0.68500000  0.44110000  0.08560000  1.0 0.1270346344
H  H28  1  0.81500000  0.44110000  0.91440000  1.0 0.1270346344
H  H29  1  0.58140000  0.38070000  0.36140000  1.0 0.1191960674
H  H30  1  0.91860000  0.38070000  0.63860000  1.0 0.1191960674
H  H31  1  0.58140000  0.38070000  0.13860000  1.0 0.1191960674
H  H32  1  0.91860000  0.38070000  0.86140000  1.0 0.1191960674
H  H33  1  0.90450000  0.49360000  0.46940000  1.0 0.1191960674
H  H34  1  0.59550000  0.49360000  0.53060000  1.0 0.1191960674
H  H35  1  0.90450000  0.49360000  0.03060000  1.0 0.1191960674
H  H36  1  0.59550000  0.49360000  0.96940000  1.0 0.1191960674
H  H37  1  0.90800000  0.60540000  0.47330000  1.0 0.1104682292
H  H38  1  0.59200000  0.60540000  0.52670000  1.0 0.1104682292
H  H39  1  0.90800000  0.60540000  0.02670000  1.0 0.1104682292
H  H40  1  0.59200000  0.60540000  0.97330000  1.0 0.1104682292
H  H41  1  0.71610000  0.69940000  0.56900000  1.0 0.0999944553
H  H42  1  0.78390000  0.69940000  0.43100000  1.0 0.0999944553
H  H43  1  0.71610000  0.69940000  0.93100000  1.0 0.0999944553
H  H44  1  0.78390000  0.69940000  0.06900000  1.0 0.0999944553
H  H45  1  0.71430000  0.81120000  0.56880000  1.0 0.1191960674
H  H46  1  0.78570000  0.81120000  0.43120000  1.0 0.1191960674
H  H47  1  0.71430000  0.81120000  0.93120000  1.0 0.1191960674
H  H48  1  0.78570000  0.81120000  0.06880000  1.0 0.1191960674
H  H49  1  0.70690000  0.99580000  0.44860000  1.0 0.1104682292
H  H50  1  0.79310000  0.99580000  0.55140000  1.0 0.1104682292
H  H51  1  0.70690000  0.99580000  0.05140000  1.0 0.1104682292
H  H52  1  0.79310000  0.99580000  0.94860000  1.0 0.1104682292
H  H53  1  0.82120000  0.04990000  0.39670000  1.0 0.0999944553
H  H54  1  0.67880000  0.04990000  0.60330000  1.0 0.0999944553
H  H55  1  0.82120000  0.04990000  0.10330000  1.0 0.0999944553
H  H56  1  0.67880000  0.04990000  0.89670000  1.0 0.0999944553
H  H57  1  0.07530000  0.92580000  0.41980000  1.0 0.0999944553
H  H58  1  0.42470000  0.92580000  0.58020000  1.0 0.0999944553
H  H59  1  0.07530000  0.92580000  0.08020000  1.0 0.0999944553
H  H60  1  0.42470000  0.92580000  0.91980000  1.0 0.0999944553
H  H61  1  0.96040000  0.86960000  0.47190000  1.0 0.1191960674
H  H62  1  0.53960000  0.86960000  0.52810000  1.0 0.1191960674
H  H63  1  0.96040000  0.86960000  0.02810000  1.0 0.1191960674
H  H64  1  0.53960000  0.86960000  0.97190000  1.0 0.1191960674
H  H65  1  0.03930000  0.15980000  0.30680000  1.0 0.0999944553
H  H66  1  0.46070000  0.15980000  0.69320000  1.0 0.0999944553
H  H67  1  0.03930000  0.15980000  0.19320000  1.0 0.0999944553
H  H68  1  0.46070000  0.15980000  0.80680000  1.0 0.0999944553
H  H69  1  0.93690000  0.10490000  0.36400000  1.0 0.1191960674
H  H70  1  0.56310000  0.10490000  0.63600000  1.0 0.1191960674
H  H71  1  0.93690000  0.10490000  0.13600000  1.0 0.1191960674
H  H72  1  0.56310000  0.10490000  0.86400000  1.0 0.1191960674
H  H73  1  0.15850000  0.96260000  0.36380000  1.0 0.1104682292
H  H74  1  0.34150000  0.96260000  0.63620000  1.0 0.1104682292
H  H75  1  0.15850000  0.96260000  0.13620000  1.0 0.1104682292
H  H76  1  0.34150000  0.96260000  0.86380000  1.0 0.1104682292
H  H77  1  0.26970000  0.01580000  0.30910000  1.0 0.0999944553
H  H78  1  0.23030000  0.01580000  0.69090000  1.0 0.0999944553
H  H79  1  0.26970000  0.01580000  0.19090000  1.0 0.0999944553
H  H80  1  0.23030000  0.01580000  0.80910000  1.0 0.0999944553
H  H81  1  0.74450000  0.71820000  0.81020000  1.0 0.0999944553
H  H82  1  0.75550000  0.71820000  0.18980000  1.0 0.0999944553
H  H83  1  0.74450000  0.71820000  0.68980000  1.0 0.0999944553
H  H84  1  0.75550000  0.71820000  0.31020000  1.0 0.0999944553
H  H85  1  0.62830000  0.66500000  0.86330000  1.0 0.1270346344
H  H86  1  0.87170000  0.66500000  0.13670000  1.0 0.1270346344
H  H87  1  0.62830000  0.66500000  0.63670000  1.0 0.1270346344
H  H88  1  0.87170000  0.66500000  0.36330000  1.0 0.1270346344
H  H89  1  0.41570000  0.81700000  0.86400000  1.0 0.1270346344
H  H90  1  0.08430000  0.81700000  0.13600000  1.0 0.1270346344
H  H91  1  0.41570000  0.81700000  0.63600000  1.0 0.1270346344
H  H92  1  0.08430000  0.81700000  0.36400000  1.0 0.1270346344
H  H93  1  0.53130000  0.86960000  0.81090000  1.0 0.0999944553
H  H94  1  0.96870000  0.86960000  0.18910000  1.0 0.0999944553
H  H95  1  0.53130000  0.86960000  0.68910000  1.0 0.0999944553
H  H96  1  0.96870000  0.86960000  0.31090000  1.0 0.0999944553
H  H97  1  0.44250000  0.76290000  0.95570000  1.0 0.1191960674
H  H98  1  0.05750000  0.76290000  0.04430000  1.0 0.1191960674
H  H99  1  0.44250000  0.76290000  0.54430000  1.0 0.1191960674
H  H100  1  0.05750000  0.76290000  0.45570000  1.0 0.1191960674
H  H101  1  0.33650000  0.70330000  0.00850000  1.0 0.1191960674
H  H102  1  0.16350000  0.70330000  0.99150000  1.0 0.1191960674
H  H103  1  0.33650000  0.70330000  0.49150000  1.0 0.1104682292
H  H104  1  0.16350000  0.70330000  0.50850000  1.0 0.1191960674
H  H105  1  0.31500000  0.55890000  0.91440000  1.0 0.1270346344
H  H106  1  0.18500000  0.55890000  0.08560000  1.0 0.1270346344
H  H107  1  0.31500000  0.55890000  0.58560000  1.0 0.1270346344
H  H108  1  0.18500000  0.55890000  0.41440000  1.0 0.1270346344
H  H109  1  0.41860000  0.61930000  0.86140000  1.0 0.1191960674
H  H110  1  0.08140000  0.61930000  0.13860000  1.0 0.1191960674
H  H111  1  0.41860000  0.61930000  0.63860000  1.0 0.1191960674
H  H112  1  0.08140000  0.61930000  0.36140000  1.0 0.1191960674
H  H113  1  0.09550000  0.50640000  0.96940000  1.0 0.1191960674
H  H114  1  0.40450000  0.50640000  0.03060000  1.0 0.1191960674
H  H115  1  0.09550000  0.50640000  0.53060000  1.0 0.1191960674
H  H116  1  0.40450000  0.50640000  0.46940000  1.0 0.1191960674
H  H117  1  0.09200000  0.39460000  0.97330000  1.0 0.1104682292
H  H118  1  0.40800000  0.39460000  0.02670000  1.0 0.1104682292
H  H119  1  0.09200000  0.39460000  0.52670000  1.0 0.1104682292
H  H120  1  0.40800000  0.39460000  0.47330000  1.0 0.1104682292
H  H121  1  0.28390000  0.30060000  0.06900000  1.0 0.0999944553
H  H122  1  0.21610000  0.30060000  0.93100000  1.0 0.0999944553
H  H123  1  0.28390000  0.30060000  0.43100000  1.0 0.0999944553
H  H124  1  0.21610000  0.30060000  0.56900000  1.0 0.0999944553
H  H125  1  0.28570000  0.18880000  0.06880000  1.0 0.1191960674
H  H126  1  0.21430000  0.18880000  0.93120000  1.0 0.1191960674
H  H127  1  0.28570000  0.18880000  0.43120000  1.0 0.1191960674
H  H128  1  0.21430000  0.18880000  0.56880000  1.0 0.1191960674
H  H129  1  0.29310000  0.00420000  0.94860000  1.0 0.1104682292
H  H130  1  0.20690000  0.00420000  0.05140000  1.0 0.1104682292
H  H131  1  0.29310000  0.00420000  0.55140000  1.0 0.1104682292
H  H132  1  0.20690000  0.00420000  0.44860000  1.0 0.1104682292
H  H133  1  0.17880000  0.95010000  0.89670000  1.0 0.0999944553
H  H134  1  0.32120000  0.95010000  0.10330000  1.0 0.0999944553
H  H135  1  0.17880000  0.95010000  0.60330000  1.0 0.0999944553
H  H136  1  0.32120000  0.95010000  0.39670000  1.0 0.0999944553
H  H137  1  0.92470000  0.07420000  0.91980000  1.0 0.0999944553
H  H138  1  0.57530000  0.07420000  0.08020000  1.0 0.0999944553
H  H139  1  0.92470000  0.07420000  0.58020000  1.0 0.0999944553
H  H140  1  0.57530000  0.07420000  0.41980000  1.0 0.0999944553
H  H141  1  0.03960000  0.13040000  0.97190000  1.0 0.1191960674
H  H142  1  0.46040000  0.13040000  0.02810000  1.0 0.1191960674
H  H143  1  0.03960000  0.13040000  0.52810000  1.0 0.1191960674
H  H144  1  0.46040000  0.13040000  0.47190000  1.0 0.1191960674
H  H145  1  0.96070000  0.84020000  0.80680000  1.0 0.0999944553
H  H146  1  0.53930000  0.84020000  0.19320000  1.0 0.0999944553
H  H147  1  0.96070000  0.84020000  0.69320000  1.0 0.0999944553
H  H148  1  0.53930000  0.84020000  0.30680000  1.0 0.0999944553
H  H149  1  0.06310000  0.89510000  0.86400000  1.0 0.1191960674
H  H150  1  0.43690000  0.89510000  0.13600000  1.0 0.1191960674
H  H151  1  0.06310000  0.89510000  0.63600000  1.0 0.1191960674
H  H152  1  0.43690000  0.89510000  0.36400000  1.0 0.1191960674
H  H153  1  0.84150000  0.03740000  0.86380000  1.0 0.1104682292
H  H154  1  0.65850000  0.03740000  0.13620000  1.0 0.1104682292
H  H155  1  0.84150000  0.03740000  0.63620000  1.0 0.1104682292
H  H156  1  0.65850000  0.03740000  0.36380000  1.0 0.1104682292
H  H157  1  0.73030000  0.98420000  0.80910000  1.0 0.0999944553
H  H158  1  0.76970000  0.98420000  0.19090000  1.0 0.0999944553
H  H159  1  0.73030000  0.98420000  0.69090000  1.0 0.0999944553
H  H160  1  0.76970000  0.98420000  0.30910000  1.0 0.0999944553
C  C1  1  0.32165000  0.26223000  0.32101000  1.0 0.0589968328
C  C2  1  0.17835000  0.26223000  0.67899000  1.0 0.0589968328
C  C3  1  0.32165000  0.26223000  0.17899000  1.0 0.0589968328
C  C4  1  0.17835000  0.26223000  0.82101000  1.0 0.0589968328
C  C5  1  0.39097000  0.29403000  0.35276000  1.0 -0.2007919085
C  C6  1  0.10903000  0.29403000  0.64724000  1.0 -0.2007919085
C  C7  1  0.39097000  0.29403000  0.14724000  1.0 -0.2007919085
C  C8  1  0.10903000  0.29403000  0.85276000  1.0 -0.2007919085
C  C9  1  0.48977000  0.26421000  0.36881000  1.0 0.1104682292
C  C10  1  0.01023000  0.26421000  0.63119000  1.0 0.1104682292
C  C11  1  0.48977000  0.26421000  0.13119000  1.0 0.1104682292
C  C12  1  0.01023000  0.26421000  0.86881000  1.0 0.1104682292
C  C13  1  0.51846000  0.20281000  0.35312000  1.0 -0.2067319008
C  C14  1  0.98154000  0.20281000  0.64688000  1.0 -0.2067319008
C  C15  1  0.51846000  0.20281000  0.14688000  1.0 -0.2067319008
C  C16  1  0.98154000  0.20281000  0.85312000  1.0 -0.2067319008
C  C17  1  0.44942000  0.17137000  0.32142000  1.0 0.052781393
C  C18  1  0.05058000  0.17137000  0.67858000  1.0 0.052781393
C  C19  1  0.44942000  0.17137000  0.17858000  1.0 0.052781393
C  C20  1  0.05058000  0.17137000  0.82142000  1.0 0.052781393
C  C21  1  0.55825000  0.30324000  0.40351000  1.0 0.0381361181
C  C22  1  0.94175000  0.30324000  0.59649000  1.0 0.0381361181
C  C23  1  0.55825000  0.30324000  0.09649000  1.0 0.0381361181
C  C24  1  0.94175000  0.30324000  0.90351000  1.0 0.0381361181
C  C25  1  0.58329000  0.27789000  0.44750000  1.0 -0.1378860455
C  C26  1  0.91671000  0.27789000  0.55250000  1.0 -0.1378860455
C  C27  1  0.58329000  0.27789000  0.05250000  1.0 -0.1378860455
C  C28  1  0.91671000  0.27789000  0.94750000  1.0 -0.1378860455
C  C29  1  0.64659000  0.31348000  0.47903000  1.0 -0.2007919085
C  C30  1  0.85341000  0.31348000  0.52097000  1.0 -0.2007919085
C  C31  1  0.64659000  0.31348000  0.02097000  1.0 -0.2007919085
C  C32  1  0.85341000  0.31348000  0.97903000  1.0 -0.2007919085
C  C33  1  0.68521000  0.37478000  0.46659000  1.0 0.1789447732
C  C34  1  0.81479000  0.37478000  0.53341000  1.0 0.1789447732
C  C35  1  0.68521000  0.37478000  0.03341000  1.0 0.1789447732
C  C36  1  0.81479000  0.37478000  0.96659000  1.0 0.1789447732
C  C37  1  0.65987000  0.40009000  0.42255000  1.0 -0.1812597178
C  C38  1  0.84013000  0.40009000  0.57745000  1.0 -0.1812597178
C  C39  1  0.65987000  0.40009000  0.07745000  1.0 -0.1812597178
C  C40  1  0.84013000  0.40009000  0.92255000  1.0 -0.1812597178
C  C41  1  0.59739000  0.36423000  0.39104000  1.0 -0.1378860455
C  C42  1  0.90261000  0.36423000  0.60896000  1.0 -0.1378860455
C  C43  1  0.59739000  0.36423000  0.10896000  1.0 -0.1378860455
C  C44  1  0.90261000  0.36423000  0.89104000  1.0 -0.1378860455
C  C45  1  0.75000000  0.48255000  0.50000000  1.0 0.171232123
C  C46  1  0.75000000  0.48255000  0.00000000  1.0 0.171232123
C  C47  1  0.84326000  0.51592000  0.48213000  1.0 -0.1903776197
C  C48  1  0.65674000  0.51592000  0.51787000  1.0 -0.1903776197
C  C49  1  0.84326000  0.51592000  0.01787000  1.0 -0.1903776197
C  C50  1  0.65674000  0.51592000  0.98213000  1.0 -0.1903776197
C  C51  1  0.84411000  0.58296000  0.48347000  1.0 -0.1378860455
C  C52  1  0.65589000  0.58296000  0.51653000  1.0 -0.1378860455
C  C53  1  0.84411000  0.58296000  0.01653000  1.0 -0.1378860455
C  C54  1  0.65589000  0.58296000  0.98347000  1.0 -0.1378860455
C  C55  1  0.75000000  0.61655000  0.50000000  1.0 0.052781393
C  C56  1  0.75000000  0.61655000  0.00000000  1.0 0.052781393
C  C57  1  0.75000000  0.68830000  0.50000000  1.0 0.0589968328
C  C58  1  0.75000000  0.68830000  0.00000000  1.0 0.0589968328
C  C59  1  0.72947000  0.72183000  0.54129000  1.0 -0.1378860455
C  C60  1  0.77053000  0.72183000  0.45871000  1.0 -0.1378860455
C  C61  1  0.72947000  0.72183000  0.95871000  1.0 -0.1378860455
C  C62  1  0.77053000  0.72183000  0.04129000  1.0 -0.1378860455
C  C63  1  0.72890000  0.78873000  0.54137000  1.0 -0.1903776197
C  C64  1  0.77110000  0.78873000  0.45863000  1.0 -0.1903776197
C  C65  1  0.72890000  0.78873000  0.95863000  1.0 -0.1903776197
C  C66  1  0.77110000  0.78873000  0.04137000  1.0 -0.1903776197
C  C67  1  0.75000000  0.82244000  0.50000000  1.0 0.1789447732
C  C68  1  0.75000000  0.82244000  0.00000000  1.0 0.1789447732
C  C69  1  0.82252000  0.92672000  0.46536000  1.0 0.1789447732
C  C70  1  0.67748000  0.92672000  0.53464000  1.0 0.1789447732
C  C71  1  0.82252000  0.92672000  0.03464000  1.0 0.1789447732
C  C72  1  0.67748000  0.92672000  0.96536000  1.0 0.1789447732
C  C73  1  0.78055000  0.98153000  0.44280000  1.0 -0.1749104447
C  C74  1  0.71945000  0.98153000  0.55720000  1.0 -0.1749104447
C  C75  1  0.78055000  0.98153000  0.05720000  1.0 -0.1749104447
C  C76  1  0.71945000  0.98153000  0.94280000  1.0 -0.1749104447
C  C77  1  0.84937000  0.01382000  0.41206000  1.0 -0.1500817519
C  C78  1  0.65063000  0.01382000  0.58794000  1.0 -0.1500817519
C  C79  1  0.84937000  0.01382000  0.08794000  1.0 -0.1500817519
C  C80  1  0.65063000  0.01382000  0.91206000  1.0 -0.1500817519
C  C81  1  0.95993000  0.99416000  0.40327000  1.0 0.052781393
C  C82  1  0.54007000  0.99416000  0.59673000  1.0 0.052781393
C  C83  1  0.95993000  0.99416000  0.09673000  1.0 0.052781393
C  C84  1  0.54007000  0.99416000  0.90327000  1.0 0.052781393
C  C85  1  0.00143000  0.93976000  0.42563000  1.0 -0.1500817519
C  C86  1  0.49857000  0.93976000  0.57437000  1.0 -0.1500817519
C  C87  1  0.00143000  0.93976000  0.07437000  1.0 -0.1500817519
C  C88  1  0.49857000  0.93976000  0.92563000  1.0 -0.1500817519
C  C89  1  0.93255000  0.90602000  0.45682000  1.0 -0.1812597178
C  C90  1  0.56745000  0.90602000  0.54318000  1.0 -0.1903776197
C  C91  1  0.93255000  0.90602000  0.04318000  1.0 -0.1812597178
C  C92  1  0.56745000  0.90602000  0.95682000  1.0 -0.1903776197
C  C93  1  0.06495000  0.12044000  0.31830000  1.0 0.0589968328
C  C94  1  0.43505000  0.12044000  0.68170000  1.0 0.0589968328
C  C95  1  0.06495000  0.12044000  0.18170000  1.0 0.0589968328
C  C96  1  0.43505000  0.12044000  0.81830000  1.0 0.0589968328
C  C97  1  0.00352000  0.08666000  0.35246000  1.0 -0.2007919085
C  C98  1  0.49648000  0.08666000  0.64754000  1.0 -0.2007919085
C  C99  1  0.00352000  0.08666000  0.14754000  1.0 -0.2007919085
C  C100  1  0.49648000  0.08666000  0.85246000  1.0 -0.2007919085
C  C101  1  0.03665000  0.02828000  0.36965000  1.0 0.0925839208
C  C102  1  0.46335000  0.02828000  0.63035000  1.0 0.0925839208
C  C103  1  0.03665000  0.02828000  0.13035000  1.0 0.0925839208
C  C104  1  0.46335000  0.02828000  0.86965000  1.0 0.0925839208
C  C105  1  0.13504000  0.00261000  0.35272000  1.0 -0.2067319008
C  C106  1  0.36496000  0.00261000  0.64728000  1.0 -0.2067319008
C  C107  1  0.13504000  0.00261000  0.14728000  1.0 -0.2067319008
C  C108  1  0.36496000  0.00261000  0.85272000  1.0 -0.2067319008
C  C109  1  0.20194000  0.03401000  0.31950000  1.0 0.0589968328
C  C110  1  0.29806000  0.03401000  0.68050000  1.0 0.0589968328
C  C111  1  0.20194000  0.03401000  0.18050000  1.0 0.0589968328
C  C112  1  0.29806000  0.03401000  0.81950000  1.0 0.0589968328
C  C113  1  0.67835000  0.73777000  0.82101000  1.0 0.0589968328
C  C114  1  0.82165000  0.73777000  0.17899000  1.0 0.0589968328
C  C115  1  0.67835000  0.73777000  0.67899000  1.0 0.0589968328
C  C116  1  0.82165000  0.73777000  0.32101000  1.0 0.0589968328
C  C117  1  0.60903000  0.70597000  0.85276000  1.0 -0.2007919085
C  C118  1  0.89097000  0.70597000  0.14724000  1.0 -0.2067319008
C  C119  1  0.60903000  0.70597000  0.64724000  1.0 -0.2007919085
C  C120  1  0.89097000  0.70597000  0.35276000  1.0 -0.2007919085
C  C121  1  0.51023000  0.73579000  0.86881000  1.0 0.1104682292
C  C122  1  0.98977000  0.73579000  0.13119000  1.0 0.1104682292
C  C123  1  0.51023000  0.73579000  0.63119000  1.0 0.1104682292
C  C124  1  0.98977000  0.73579000  0.36881000  1.0 0.1104682292
C  C125  1  0.48154000  0.79719000  0.85312000  1.0 -0.2067319008
C  C126  1  0.01846000  0.79719000  0.14688000  1.0 -0.2067319008
C  C127  1  0.48154000  0.79719000  0.64688000  1.0 -0.2067319008
C  C128  1  0.01846000  0.79719000  0.35312000  1.0 -0.2067319008
C  C129  1  0.55058000  0.82863000  0.82142000  1.0 0.052781393
C  C130  1  0.94942000  0.82863000  0.17858000  1.0 0.052781393
C  C131  1  0.55058000  0.82863000  0.67858000  1.0 0.052781393
C  C132  1  0.94942000  0.82863000  0.32142000  1.0 0.052781393
C  C133  1  0.44175000  0.69676000  0.90351000  1.0 0.0381361181
C  C134  1  0.05825000  0.69676000  0.09649000  1.0 0.0381361181
C  C135  1  0.44175000  0.69676000  0.59649000  1.0 0.0381361181
C  C136  1  0.05825000  0.69676000  0.40351000  1.0 0.0381361181
C  C137  1  0.41671000  0.72211000  0.94750000  1.0 -0.1378860455
C  C138  1  0.08329000  0.72211000  0.05250000  1.0 -0.1378860455
C  C139  1  0.41671000  0.72211000  0.55250000  1.0 -0.1378860455
C  C140  1  0.08329000  0.72211000  0.44750000  1.0 -0.1378860455
C  C141  1  0.35341000  0.68652000  0.97903000  1.0 -0.2007919085
C  C142  1  0.14659000  0.68652000  0.02097000  1.0 -0.2007919085
C  C143  1  0.35341000  0.68652000  0.52097000  1.0 -0.2007919085
C  C144  1  0.14659000  0.68652000  0.47903000  1.0 -0.2007919085
C  C145  1  0.31479000  0.62522000  0.96659000  1.0 0.1789447732
C  C146  1  0.18521000  0.62522000  0.03341000  1.0 0.1789447732
C  C147  1  0.31479000  0.62522000  0.53341000  1.0 0.1789447732
C  C148  1  0.18521000  0.62522000  0.46659000  1.0 0.1789447732
C  C149  1  0.34013000  0.59991000  0.92255000  1.0 -0.1812597178
C  C150  1  0.15987000  0.59991000  0.07745000  1.0 -0.1812597178
C  C151  1  0.34013000  0.59991000  0.57745000  1.0 -0.1812597178
C  C152  1  0.15987000  0.59991000  0.42255000  1.0 -0.1812597178
C  C153  1  0.40261000  0.63577000  0.89104000  1.0 -0.1378860455
C  C154  1  0.09739000  0.63577000  0.10896000  1.0 -0.1378860455
C  C155  1  0.40261000  0.63577000  0.60896000  1.0 -0.1378860455
C  C156  1  0.09739000  0.63577000  0.39104000  1.0 -0.1378860455
C  C157  1  0.25000000  0.51745000  0.00000000  1.0 0.171232123
C  C158  1  0.25000000  0.51745000  0.50000000  1.0 0.171232123
C  C159  1  0.15674000  0.48408000  0.98213000  1.0 -0.1903776197
C  C160  1  0.34326000  0.48408000  0.01787000  1.0 -0.1903776197
C  C161  1  0.15674000  0.48408000  0.51787000  1.0 -0.1903776197
C  C162  1  0.34326000  0.48408000  0.48213000  1.0 -0.1903776197
C  C163  1  0.15589000  0.41704000  0.98347000  1.0 -0.1378860455
C  C164  1  0.34411000  0.41704000  0.01653000  1.0 -0.1378860455
C  C165  1  0.15589000  0.41704000  0.51653000  1.0 -0.1378860455
C  C166  1  0.34411000  0.41704000  0.48347000  1.0 -0.1378860455
C  C167  1  0.25000000  0.38345000  0.00000000  1.0 0.052781393
C  C168  1  0.25000000  0.38345000  0.50000000  1.0 0.052781393
C  C169  1  0.25000000  0.31170000  0.00000000  1.0 0.0589968328
C  C170  1  0.25000000  0.31170000  0.50000000  1.0 0.0589968328
C  C171  1  0.27053000  0.27817000  0.04129000  1.0 -0.1378860455
C  C172  1  0.22947000  0.27817000  0.95871000  1.0 -0.1378860455
C  C173  1  0.27053000  0.27817000  0.45871000  1.0 -0.1378860455
C  C174  1  0.22947000  0.27817000  0.54129000  1.0 -0.1378860455
C  C175  1  0.27110000  0.21127000  0.04137000  1.0 -0.1903776197
C  C176  1  0.22890000  0.21127000  0.95863000  1.0 -0.1903776197
C  C177  1  0.27110000  0.21127000  0.45863000  1.0 -0.1903776197
C  C178  1  0.22890000  0.21127000  0.54137000  1.0 -0.1903776197
C  C179  1  0.25000000  0.17756000  0.00000000  1.0 0.1789447732
C  C180  1  0.25000000  0.17756000  0.50000000  1.0 0.1789447732
C  C181  1  0.17748000  0.07328000  0.96536000  1.0 0.1789447732
C  C182  1  0.32252000  0.07328000  0.03464000  1.0 0.1789447732
C  C183  1  0.17748000  0.07328000  0.53464000  1.0 0.1789447732
C  C184  1  0.32252000  0.07328000  0.46536000  1.0 0.1789447732
C  C185  1  0.21945000  0.01847000  0.94280000  1.0 -0.1749104447
C  C186  1  0.28055000  0.01847000  0.05720000  1.0 -0.1749104447
C  C187  1  0.21945000  0.01847000  0.55720000  1.0 -0.1749104447
C  C188  1  0.28055000  0.01847000  0.44280000  1.0 -0.1749104447
C  C189  1  0.15063000  0.98618000  0.91206000  1.0 -0.1500817519
C  C190  1  0.34937000  0.98618000  0.08794000  1.0 -0.1500817519
C  C191  1  0.15063000  0.98618000  0.58794000  1.0 -0.1500817519
C  C192  1  0.34937000  0.98618000  0.41206000  1.0 -0.1500817519
C  C193  1  0.04007000  0.00584000  0.90327000  1.0 0.052781393
C  C194  1  0.45993000  0.00584000  0.09673000  1.0 0.052781393
C  C195  1  0.04007000  0.00584000  0.59673000  1.0 0.052781393
C  C196  1  0.45993000  0.00584000  0.40327000  1.0 0.052781393
C  C197  1  0.99857000  0.06024000  0.92563000  1.0 -0.1500817519
C  C198  1  0.50143000  0.06024000  0.07437000  1.0 -0.1500817519
C  C199  1  0.99857000  0.06024000  0.57437000  1.0 -0.1500817519
C  C200  1  0.50143000  0.06024000  0.42563000  1.0 -0.1500817519
C  C201  1  0.06745000  0.09398000  0.95682000  1.0 -0.1903776197
C  C202  1  0.43255000  0.09398000  0.04318000  1.0 -0.1903776197
C  C203  1  0.06745000  0.09398000  0.54318000  1.0 -0.1903776197
C  C204  1  0.43255000  0.09398000  0.45682000  1.0 -0.1903776197
C  C205  1  0.93505000  0.87956000  0.81830000  1.0 0.0589968328
C  C206  1  0.56495000  0.87956000  0.18170000  1.0 0.0589968328
C  C207  1  0.93505000  0.87956000  0.68170000  1.0 0.0589968328
C  C208  1  0.56495000  0.87956000  0.31830000  1.0 0.0589968328
C  C209  1  0.99648000  0.91334000  0.85246000  1.0 -0.2007919085
C  C210  1  0.50352000  0.91334000  0.14754000  1.0 -0.2007919085
C  C211  1  0.99648000  0.91334000  0.64754000  1.0 -0.2007919085
C  C212  1  0.50352000  0.91334000  0.35246000  1.0 -0.2007919085
C  C213  1  0.96335000  0.97172000  0.86965000  1.0 0.0925839208
C  C214  1  0.53665000  0.97172000  0.13035000  1.0 0.0925839208
C  C215  1  0.96335000  0.97172000  0.63035000  1.0 0.0925839208
C  C216  1  0.53665000  0.97172000  0.36965000  1.0 0.0925839208
C  C217  1  0.86496000  0.99739000  0.85272000  1.0 -0.2067319008
C  C218  1  0.63504000  0.99739000  0.14728000  1.0 -0.2067319008
C  C219  1  0.86496000  0.99739000  0.64728000  1.0 -0.2067319008
C  C220  1  0.63504000  0.99739000  0.35272000  1.0 -0.2067319008
C  C221  1  0.79806000  0.96599000  0.81950000  1.0 0.0589968328
C  C222  1  0.70194000  0.96599000  0.18050000  1.0 0.0589968328
C  C223  1  0.79806000  0.96599000  0.68050000  1.0 0.0589968328
C  C224  1  0.70194000  0.96599000  0.31950000  1.0 0.0589968328
N  N1  1  0.35097000  0.20106000  0.30530000  1.0 -0.240881253
N  N2  1  0.14903000  0.20106000  0.69470000  1.0 -0.240881253
N  N3  1  0.35097000  0.20106000  0.19470000  1.0 -0.240881253
N  N4  1  0.14903000  0.20106000  0.80530000  1.0 -0.240881253
N  N5  1  0.75000000  0.41127000  0.50000000  1.0 -0.1903776197
N  N6  1  0.75000000  0.41127000  0.00000000  1.0 -0.1903776197
N  N7  1  0.75000000  0.89169000  0.50000000  1.0 -0.2223191448
N  N8  1  0.75000000  0.89169000  0.00000000  1.0 -0.2067319008
N  N9  1  0.16564000  0.09313000  0.30210000  1.0 -0.2223191448
N  N10  1  0.33436000  0.09313000  0.69790000  1.0 -0.2223191448
N  N11  1  0.16564000  0.09313000  0.19790000  1.0 -0.2223191448
N  N12  1  0.33436000  0.09313000  0.80210000  1.0 -0.2223191448
N  N13  1  0.64903000  0.79894000  0.80530000  1.0 -0.240881253
N  N14  1  0.85097000  0.79894000  0.19470000  1.0 -0.240881253
N  N15  1  0.64903000  0.79894000  0.69470000  1.0 -0.240881253
N  N16  1  0.85097000  0.79894000  0.30530000  1.0 -0.240881253
N  N17  1  0.25000000  0.58873000  0.00000000  1.0 -0.1903776197
N  N18  1  0.25000000  0.58873000  0.50000000  1.0 -0.1903776197
N  N19  1  0.25000000  0.10831000  0.00000000  1.0 -0.2067319008
N  N20  1  0.25000000  0.10831000  0.50000000  1.0 -0.2223191448
N  N21  1  0.83436000  0.90687000  0.80210000  1.0 -0.2223191448
N  N22  1  0.66564000  0.90687000  0.19790000  1.0 -0.2223191448
N  N23  1  0.83436000  0.90687000  0.69790000  1.0 -0.2223191448
N  N24  1  0.66564000  0.90687000  0.30210000  1.0 -0.2223191448
