# DDEC6 charges by PACMAN v1.1 (https://github.com/mtap-research/PACMAN-charge/)
data_VOXTOT_ASR_pacman
_symmetry_space_group_name_H-M   'P 1'
_cell_length_a   28.73040000
_cell_length_b   28.73040000
_cell_length_c   28.73040000
_cell_angle_alpha   109.47100000
_cell_angle_beta   109.47100000
_cell_angle_gamma   109.47100000
_symmetry_Int_Tables_number   1
_chemical_formula_structural   CuH26(C6O)8
_chemical_formula_sum   'Cu12 H312 C576 O96'
_cell_volume   18256.04402522
_cell_formula_units_Z   12
loop_
 _symmetry_equiv_pos_site_id
 _symmetry_equiv_pos_as_xyz
  1  'x, y, z'
loop_
 _atom_site_type_symbol
 _atom_site_label
 _atom_site_symmetry_multiplicity
 _atom_site_fract_x
 _atom_site_fract_y
 _atom_site_fract_z
 _atom_site_occupancy
 _atom_site_charge
Cu  Cu1  1  0.50000000  0.71013000  0.21013000  1.0 0.4901456507
Cu  Cu2  1  0.50000000  0.28987000  0.78987000  1.0 0.4901456507
Cu  Cu3  1  0.21013000  0.50000000  0.71013000  1.0 0.4901456507
Cu  Cu4  1  0.78987000  0.50000000  0.28987000  1.0 0.4901456507
Cu  Cu5  1  0.71013000  0.21013000  0.50000000  1.0 0.4901456507
Cu  Cu6  1  0.28987000  0.78987000  0.50000000  1.0 0.4954583996
Cu  Cu7  1  0.50000000  0.78987000  0.28987000  1.0 0.4901456507
Cu  Cu8  1  0.50000000  0.21013000  0.71013000  1.0 0.4901456507
Cu  Cu9  1  0.28987000  0.50000000  0.78987000  1.0 0.4901456507
Cu  Cu10  1  0.71013000  0.50000000  0.21013000  1.0 0.4901456507
Cu  Cu11  1  0.78987000  0.28987000  0.50000000  1.0 0.4901456507
Cu  Cu12  1  0.21013000  0.71013000  0.50000000  1.0 0.4901456507
H  H1  1  0.48560000  0.43750000  0.38570000  1.0 0.111370182
H  H2  1  0.05180000  0.09990000  0.61430000  1.0 0.111370182
H  H3  1  0.94820000  0.56250000  0.04810000  1.0 0.111370182
H  H4  1  0.51440000  0.90010000  0.95190000  1.0 0.111370182
H  H5  1  0.38570000  0.48560000  0.43750000  1.0 0.111370182
H  H6  1  0.61430000  0.05180000  0.09990000  1.0 0.111370182
H  H7  1  0.04810000  0.94820000  0.56250000  1.0 0.111370182
H  H8  1  0.95190000  0.51440000  0.90010000  1.0 0.111370182
H  H9  1  0.43750000  0.38570000  0.48560000  1.0 0.111370182
H  H10  1  0.09990000  0.61430000  0.05180000  1.0 0.111370182
H  H11  1  0.56250000  0.04810000  0.94820000  1.0 0.111370182
H  H12  1  0.90010000  0.95190000  0.51440000  1.0 0.111370182
H  H13  1  0.51440000  0.56250000  0.61430000  1.0 0.111370182
H  H14  1  0.94820000  0.90010000  0.38570000  1.0 0.111370182
H  H15  1  0.05180000  0.43750000  0.95190000  1.0 0.111370182
H  H16  1  0.48560000  0.09990000  0.04810000  1.0 0.111370182
H  H17  1  0.61430000  0.51440000  0.56250000  1.0 0.111370182
H  H18  1  0.38570000  0.94820000  0.90010000  1.0 0.111370182
H  H19  1  0.95190000  0.05180000  0.43750000  1.0 0.111370182
H  H20  1  0.04810000  0.48560000  0.09990000  1.0 0.111370182
H  H21  1  0.56250000  0.61430000  0.51440000  1.0 0.111370182
H  H22  1  0.90010000  0.38570000  0.94820000  1.0 0.111370182
H  H23  1  0.43750000  0.95190000  0.05180000  1.0 0.111370182
H  H24  1  0.09990000  0.04810000  0.48560000  1.0 0.111370182
H  H25  1  0.46650000  0.70690000  0.38500000  1.0 0.1003439241
H  H26  1  0.32190000  0.08150000  0.61500000  1.0 0.1003439241
H  H27  1  0.67810000  0.29310000  0.75960000  1.0 0.1003439241
H  H28  1  0.53350000  0.91850000  0.24040000  1.0 0.1003439241
H  H29  1  0.38500000  0.46650000  0.70690000  1.0 0.1003439241
H  H30  1  0.61500000  0.32190000  0.08150000  1.0 0.1003439241
H  H31  1  0.75960000  0.67810000  0.29310000  1.0 0.1003439241
H  H32  1  0.24040000  0.53350000  0.91850000  1.0 0.1003439241
H  H33  1  0.70690000  0.38500000  0.46650000  1.0 0.1003439241
H  H34  1  0.08150000  0.61500000  0.32190000  1.0 0.1003439241
H  H35  1  0.29310000  0.75960000  0.67810000  1.0 0.1003439241
H  H36  1  0.91850000  0.24040000  0.53350000  1.0 0.1003439241
H  H37  1  0.53350000  0.29310000  0.61500000  1.0 0.1003439241
H  H38  1  0.67810000  0.91850000  0.38500000  1.0 0.1003439241
H  H39  1  0.32190000  0.70690000  0.24040000  1.0 0.1003439241
H  H40  1  0.46650000  0.08150000  0.75960000  1.0 0.1003439241
H  H41  1  0.61500000  0.53350000  0.29310000  1.0 0.1003439241
H  H42  1  0.38500000  0.67810000  0.91850000  1.0 0.1003439241
H  H43  1  0.24040000  0.32190000  0.70690000  1.0 0.1003439241
H  H44  1  0.75960000  0.46650000  0.08150000  1.0 0.1003439241
H  H45  1  0.29310000  0.61500000  0.53350000  1.0 0.1003439241
H  H46  1  0.91850000  0.38500000  0.67810000  1.0 0.1003439241
H  H47  1  0.70690000  0.24040000  0.32190000  1.0 0.1003439241
H  H48  1  0.08150000  0.75960000  0.46650000  1.0 0.1003439241
H  H49  1  0.45550000  0.65280000  0.42870000  1.0 0.1003439241
H  H50  1  0.22410000  0.02680000  0.57130000  1.0 0.1003439241
H  H51  1  0.77590000  0.34720000  0.80270000  1.0 0.1003439241
H  H52  1  0.54450000  0.97320000  0.19730000  1.0 0.1003439241
H  H53  1  0.42870000  0.45550000  0.65280000  1.0 0.1003439241
H  H54  1  0.57130000  0.22410000  0.02680000  1.0 0.1003439241
H  H55  1  0.80270000  0.77590000  0.34720000  1.0 0.1003439241
H  H56  1  0.19730000  0.54450000  0.97320000  1.0 0.1003439241
H  H57  1  0.65280000  0.42870000  0.45550000  1.0 0.1003439241
H  H58  1  0.02680000  0.57130000  0.22410000  1.0 0.1003439241
H  H59  1  0.34720000  0.80270000  0.77590000  1.0 0.1003439241
H  H60  1  0.97320000  0.19730000  0.54450000  1.0 0.1003439241
H  H61  1  0.54450000  0.34720000  0.57130000  1.0 0.1003439241
H  H62  1  0.77590000  0.97320000  0.42870000  1.0 0.1003439241
H  H63  1  0.22410000  0.65280000  0.19730000  1.0 0.1003439241
H  H64  1  0.45550000  0.02680000  0.80270000  1.0 0.1003439241
H  H65  1  0.57130000  0.54450000  0.34720000  1.0 0.1003439241
H  H66  1  0.42870000  0.77590000  0.97320000  1.0 0.1003439241
H  H67  1  0.19730000  0.22410000  0.65280000  1.0 0.1003439241
H  H68  1  0.80270000  0.45550000  0.02680000  1.0 0.1003439241
H  H69  1  0.34720000  0.57130000  0.54450000  1.0 0.1003439241
H  H70  1  0.97320000  0.42870000  0.77590000  1.0 0.1003439241
H  H71  1  0.65280000  0.19730000  0.22410000  1.0 0.1003439241
H  H72  1  0.02680000  0.80270000  0.45550000  1.0 0.1003439241
H  H73  1  0.43970000  0.56200000  0.42810000  1.0 0.1194458324
H  H74  1  0.13390000  0.01160000  0.57190000  1.0 0.1194458324
H  H75  1  0.86610000  0.43800000  0.87770000  1.0 0.1194458324
H  H76  1  0.56030000  0.98840000  0.12230000  1.0 0.1194458324
H  H77  1  0.42810000  0.43970000  0.56200000  1.0 0.1194458324
H  H78  1  0.57190000  0.13390000  0.01160000  1.0 0.1194458324
H  H79  1  0.87770000  0.86610000  0.43800000  1.0 0.1194458324
H  H80  1  0.12230000  0.56030000  0.98840000  1.0 0.1194458324
H  H81  1  0.56200000  0.42810000  0.43970000  1.0 0.1194458324
H  H82  1  0.01160000  0.57190000  0.13390000  1.0 0.1194458324
H  H83  1  0.43800000  0.87770000  0.86610000  1.0 0.1194458324
H  H84  1  0.98840000  0.12230000  0.56030000  1.0 0.1194458324
H  H85  1  0.56030000  0.43800000  0.57190000  1.0 0.1194458324
H  H86  1  0.86610000  0.98840000  0.42810000  1.0 0.1194458324
H  H87  1  0.13390000  0.56200000  0.12230000  1.0 0.1194458324
H  H88  1  0.43970000  0.01160000  0.87770000  1.0 0.1194458324
H  H89  1  0.57190000  0.56030000  0.43800000  1.0 0.1194458324
H  H90  1  0.42810000  0.86610000  0.98840000  1.0 0.1194458324
H  H91  1  0.12230000  0.13390000  0.56200000  1.0 0.1194458324
H  H92  1  0.87770000  0.43970000  0.01160000  1.0 0.1194458324
H  H93  1  0.43800000  0.57190000  0.56030000  1.0 0.1194458324
H  H94  1  0.98840000  0.42810000  0.86610000  1.0 0.1194458324
H  H95  1  0.56200000  0.12230000  0.13390000  1.0 0.1194458324
H  H96  1  0.01160000  0.87770000  0.43970000  1.0 0.1194458324
H  H97  1  0.43840000  0.43980000  0.30520000  1.0 0.1194458324
H  H98  1  0.13460000  0.13320000  0.69480000  1.0 0.1194458324
H  H99  1  0.86540000  0.56020000  0.99860000  1.0 0.1194458324
H  H100  1  0.56160000  0.86680000  0.00140000  1.0 0.1194458324
H  H101  1  0.30520000  0.43840000  0.43980000  1.0 0.1194458324
H  H102  1  0.69480000  0.13460000  0.13320000  1.0 0.1194458324
H  H103  1  0.99860000  0.86540000  0.56020000  1.0 0.1194458324
H  H104  1  0.00140000  0.56160000  0.86680000  1.0 0.1194458324
H  H105  1  0.43980000  0.30520000  0.43840000  1.0 0.1194458324
H  H106  1  0.13320000  0.69480000  0.13460000  1.0 0.1194458324
H  H107  1  0.56020000  0.99860000  0.86540000  1.0 0.1194458324
H  H108  1  0.86680000  0.00140000  0.56160000  1.0 0.1194458324
H  H109  1  0.56160000  0.56020000  0.69480000  1.0 0.1194458324
H  H110  1  0.86540000  0.86680000  0.30520000  1.0 0.1194458324
H  H111  1  0.13460000  0.43980000  0.00140000  1.0 0.1194458324
H  H112  1  0.43840000  0.13320000  0.99860000  1.0 0.1194458324
H  H113  1  0.69480000  0.56160000  0.56020000  1.0 0.1194458324
H  H114  1  0.30520000  0.86540000  0.86680000  1.0 0.1194458324
H  H115  1  0.00140000  0.13460000  0.43980000  1.0 0.1194458324
H  H116  1  0.99860000  0.43840000  0.13320000  1.0 0.1194458324
H  H117  1  0.56020000  0.69480000  0.56160000  1.0 0.1194458324
H  H118  1  0.86680000  0.30520000  0.86540000  1.0 0.1194458324
H  H119  1  0.43980000  0.00140000  0.13460000  1.0 0.1194458324
H  H120  1  0.13320000  0.99860000  0.43840000  1.0 0.1194458324
H  H121  1  0.45100000  0.49310000  0.26370000  1.0 0.111370182
H  H122  1  0.22940000  0.18730000  0.73630000  1.0 0.111370182
H  H123  1  0.77060000  0.50690000  0.95790000  1.0 0.111370182
H  H124  1  0.54900000  0.81270000  0.04210000  1.0 0.111370182
H  H125  1  0.26370000  0.45100000  0.49310000  1.0 0.111370182
H  H126  1  0.73630000  0.22940000  0.18730000  1.0 0.111370182
H  H127  1  0.95790000  0.77060000  0.50690000  1.0 0.111370182
H  H128  1  0.04210000  0.54900000  0.81270000  1.0 0.111370182
H  H129  1  0.49310000  0.26370000  0.45100000  1.0 0.111370182
H  H130  1  0.18730000  0.73630000  0.22940000  1.0 0.111370182
H  H131  1  0.50690000  0.95790000  0.77060000  1.0 0.111370182
H  H132  1  0.81270000  0.04210000  0.54900000  1.0 0.111370182
H  H133  1  0.54900000  0.50690000  0.73630000  1.0 0.111370182
H  H134  1  0.77060000  0.81270000  0.26370000  1.0 0.111370182
H  H135  1  0.22940000  0.49310000  0.04210000  1.0 0.111370182
H  H136  1  0.45100000  0.18730000  0.95790000  1.0 0.111370182
H  H137  1  0.73630000  0.54900000  0.50690000  1.0 0.111370182
H  H138  1  0.26370000  0.77060000  0.81270000  1.0 0.111370182
H  H139  1  0.04210000  0.22940000  0.49310000  1.0 0.111370182
H  H140  1  0.95790000  0.45100000  0.18730000  1.0 0.111370182
H  H141  1  0.50690000  0.73630000  0.54900000  1.0 0.111370182
H  H142  1  0.81270000  0.26370000  0.77060000  1.0 0.111370182
H  H143  1  0.49310000  0.04210000  0.22940000  1.0 0.111370182
H  H144  1  0.18730000  0.95790000  0.45100000  1.0 0.111370182
H  H145  1  0.46520000  0.58380000  0.26120000  1.0 0.1003439241
H  H146  1  0.32260000  0.20400000  0.73880000  1.0 0.1003439241
H  H147  1  0.67740000  0.41620000  0.88140000  1.0 0.1003439241
H  H148  1  0.53480000  0.79600000  0.11860000  1.0 0.1003439241
H  H149  1  0.26120000  0.46520000  0.58380000  1.0 0.1003439241
H  H150  1  0.73880000  0.32260000  0.20400000  1.0 0.1003439241
H  H151  1  0.88140000  0.67740000  0.41620000  1.0 0.1003439241
H  H152  1  0.11860000  0.53480000  0.79600000  1.0 0.1003439241
H  H153  1  0.58380000  0.26120000  0.46520000  1.0 0.1003439241
H  H154  1  0.20400000  0.73880000  0.32260000  1.0 0.1003439241
H  H155  1  0.41620000  0.88140000  0.67740000  1.0 0.1003439241
H  H156  1  0.79600000  0.11860000  0.53480000  1.0 0.1003439241
H  H157  1  0.53480000  0.41620000  0.73880000  1.0 0.1003439241
H  H158  1  0.67740000  0.79600000  0.26120000  1.0 0.1003439241
H  H159  1  0.32260000  0.58380000  0.11860000  1.0 0.1003439241
H  H160  1  0.46520000  0.20400000  0.88140000  1.0 0.1003439241
H  H161  1  0.73880000  0.53480000  0.41620000  1.0 0.1003439241
H  H162  1  0.26120000  0.67740000  0.79600000  1.0 0.1003439241
H  H163  1  0.11860000  0.32260000  0.58380000  1.0 0.1003439241
H  H164  1  0.88140000  0.46520000  0.20400000  1.0 0.1003439241
H  H165  1  0.41620000  0.73880000  0.53480000  1.0 0.1003439241
H  H166  1  0.79600000  0.26120000  0.67740000  1.0 0.1003439241
H  H167  1  0.58380000  0.11860000  0.32260000  1.0 0.1003439241
H  H168  1  0.20400000  0.88140000  0.46520000  1.0 0.1003439241
H  H169  1  0.53350000  0.61470000  0.29420000  1.0 0.1003439241
H  H170  1  0.32050000  0.23930000  0.70580000  1.0 0.1003439241
H  H171  1  0.67950000  0.38530000  0.91880000  1.0 0.1003439241
H  H172  1  0.46650000  0.76070000  0.08120000  1.0 0.1003439241
H  H173  1  0.29420000  0.53350000  0.61470000  1.0 0.1003439241
H  H174  1  0.70580000  0.32050000  0.23930000  1.0 0.1003439241
H  H175  1  0.91880000  0.67950000  0.38530000  1.0 0.1003439241
H  H176  1  0.08120000  0.46650000  0.76070000  1.0 0.1003439241
H  H177  1  0.61470000  0.29420000  0.53350000  1.0 0.1003439241
H  H178  1  0.23930000  0.70580000  0.32050000  1.0 0.1003439241
H  H179  1  0.38530000  0.91880000  0.67950000  1.0 0.1003439241
H  H180  1  0.76070000  0.08120000  0.46650000  1.0 0.1003439241
H  H181  1  0.46650000  0.38530000  0.70580000  1.0 0.1003439241
H  H182  1  0.67950000  0.76070000  0.29420000  1.0 0.1003439241
H  H183  1  0.32050000  0.61470000  0.08120000  1.0 0.1003439241
H  H184  1  0.53350000  0.23930000  0.91880000  1.0 0.1003439241
H  H185  1  0.70580000  0.46650000  0.38530000  1.0 0.1003439241
H  H186  1  0.29420000  0.67950000  0.76070000  1.0 0.1003439241
H  H187  1  0.08120000  0.32050000  0.61470000  1.0 0.1003439241
H  H188  1  0.91880000  0.53350000  0.23930000  1.0 0.1003439241
H  H189  1  0.38530000  0.70580000  0.46650000  1.0 0.1003439241
H  H190  1  0.76070000  0.29420000  0.67950000  1.0 0.1003439241
H  H191  1  0.61470000  0.08120000  0.32050000  1.0 0.1003439241
H  H192  1  0.23930000  0.91880000  0.53350000  1.0 0.1003439241
H  H193  1  0.54290000  0.57130000  0.34660000  1.0 0.1003439241
H  H194  1  0.22470000  0.19630000  0.65340000  1.0 0.1003439241
H  H195  1  0.77530000  0.42870000  0.97160000  1.0 0.1003439241
H  H196  1  0.45710000  0.80370000  0.02840000  1.0 0.1003439241
H  H197  1  0.34660000  0.54290000  0.57130000  1.0 0.1003439241
H  H198  1  0.65340000  0.22470000  0.19630000  1.0 0.1003439241
H  H199  1  0.97160000  0.77530000  0.42870000  1.0 0.1003439241
H  H200  1  0.02840000  0.45710000  0.80370000  1.0 0.1003439241
H  H201  1  0.57130000  0.34660000  0.54290000  1.0 0.1003439241
H  H202  1  0.19630000  0.65340000  0.22470000  1.0 0.1003439241
H  H203  1  0.42870000  0.97160000  0.77530000  1.0 0.1003439241
H  H204  1  0.80370000  0.02840000  0.45710000  1.0 0.1003439241
H  H205  1  0.45710000  0.42870000  0.65340000  1.0 0.1003439241
H  H206  1  0.77530000  0.80370000  0.34660000  1.0 0.1003439241
H  H207  1  0.22470000  0.57130000  0.02840000  1.0 0.1003439241
H  H208  1  0.54290000  0.19630000  0.97160000  1.0 0.1003439241
H  H209  1  0.65340000  0.45710000  0.42870000  1.0 0.1003439241
H  H210  1  0.34660000  0.77530000  0.80370000  1.0 0.1003439241
H  H211  1  0.02840000  0.22470000  0.57130000  1.0 0.1003439241
H  H212  1  0.97160000  0.54290000  0.19630000  1.0 0.1003439241
H  H213  1  0.42870000  0.65340000  0.45710000  1.0 0.1003439241
H  H214  1  0.80370000  0.34660000  0.77530000  1.0 0.1003439241
H  H215  1  0.57130000  0.02840000  0.22470000  1.0 0.1003439241
H  H216  1  0.19630000  0.97160000  0.54290000  1.0 0.1003439241
H  H217  1  0.55860000  0.57060000  0.43720000  1.0 0.111370182
H  H218  1  0.13340000  0.12140000  0.56280000  1.0 0.111370182
H  H219  1  0.86660000  0.42940000  0.98800000  1.0 0.111370182
H  H220  1  0.44140000  0.87860000  0.01200000  1.0 0.111370182
H  H221  1  0.43720000  0.55860000  0.57060000  1.0 0.111370182
H  H222  1  0.56280000  0.13340000  0.12140000  1.0 0.111370182
H  H223  1  0.98800000  0.86660000  0.42940000  1.0 0.111370182
H  H224  1  0.01200000  0.44140000  0.87860000  1.0 0.111370182
H  H225  1  0.57060000  0.43720000  0.55860000  1.0 0.111370182
H  H226  1  0.12140000  0.56280000  0.13340000  1.0 0.111370182
H  H227  1  0.42940000  0.98800000  0.86660000  1.0 0.111370182
H  H228  1  0.87860000  0.01200000  0.44140000  1.0 0.111370182
H  H229  1  0.44140000  0.42940000  0.56280000  1.0 0.111370182
H  H230  1  0.86660000  0.87860000  0.43720000  1.0 0.111370182
H  H231  1  0.13340000  0.57060000  0.01200000  1.0 0.111370182
H  H232  1  0.55860000  0.12140000  0.98800000  1.0 0.111370182
H  H233  1  0.56280000  0.44140000  0.42940000  1.0 0.111370182
H  H234  1  0.43720000  0.86660000  0.87860000  1.0 0.111370182
H  H235  1  0.01200000  0.13340000  0.57060000  1.0 0.111370182
H  H236  1  0.98800000  0.55860000  0.12140000  1.0 0.111370182
H  H237  1  0.42940000  0.56280000  0.44140000  1.0 0.111370182
H  H238  1  0.87860000  0.43720000  0.86660000  1.0 0.111370182
H  H239  1  0.57060000  0.01200000  0.13340000  1.0 0.111370182
H  H240  1  0.12140000  0.98800000  0.55860000  1.0 0.111370182
H  H241  1  0.56210000  0.69600000  0.56010000  1.0 0.1194458324
H  H242  1  0.13590000  0.00200000  0.43990000  1.0 0.1194458324
H  H243  1  0.86410000  0.30400000  0.86610000  1.0 0.1194458324
H  H244  1  0.43790000  0.99800000  0.13390000  1.0 0.1194458324
H  H245  1  0.56010000  0.56210000  0.69600000  1.0 0.1194458324
H  H246  1  0.43990000  0.13590000  0.00200000  1.0 0.1194458324
H  H247  1  0.86610000  0.86410000  0.30400000  1.0 0.1194458324
H  H248  1  0.13390000  0.43790000  0.99800000  1.0 0.1194458324
H  H249  1  0.69600000  0.56010000  0.56210000  1.0 0.1194458324
H  H250  1  0.00200000  0.43990000  0.13590000  1.0 0.1194458324
H  H251  1  0.30400000  0.86610000  0.86410000  1.0 0.1194458324
H  H252  1  0.99800000  0.13390000  0.43790000  1.0 0.1194458324
H  H253  1  0.43790000  0.30400000  0.43990000  1.0 0.1194458324
H  H254  1  0.86410000  0.99800000  0.56010000  1.0 0.1194458324
H  H255  1  0.13590000  0.69600000  0.13390000  1.0 0.1194458324
H  H256  1  0.56210000  0.00200000  0.86610000  1.0 0.1194458324
H  H257  1  0.43990000  0.43790000  0.30400000  1.0 0.1194458324
H  H258  1  0.56010000  0.86410000  0.99800000  1.0 0.1194458324
H  H259  1  0.13390000  0.13590000  0.69600000  1.0 0.1194458324
H  H260  1  0.86610000  0.56210000  0.00200000  1.0 0.1194458324
H  H261  1  0.30400000  0.43990000  0.43790000  1.0 0.1194458324
H  H262  1  0.99800000  0.56010000  0.86410000  1.0 0.1194458324
H  H263  1  0.69600000  0.13390000  0.13590000  1.0 0.1194458324
H  H264  1  0.00200000  0.86610000  0.56210000  1.0 0.1194458324
H  H265  1  0.55000000  0.73630000  0.50610000  1.0 0.1194458324
H  H266  1  0.23020000  0.04390000  0.49390000  1.0 0.1194458324
H  H267  1  0.76980000  0.26370000  0.81370000  1.0 0.1194458324
H  H268  1  0.45000000  0.95610000  0.18630000  1.0 0.1194458324
H  H269  1  0.50610000  0.55000000  0.73630000  1.0 0.1194458324
H  H270  1  0.49390000  0.23020000  0.04390000  1.0 0.111370182
H  H271  1  0.81370000  0.76980000  0.26370000  1.0 0.1194458324
H  H272  1  0.18630000  0.45000000  0.95610000  1.0 0.1194458324
H  H273  1  0.73630000  0.50610000  0.55000000  1.0 0.1194458324
H  H274  1  0.04390000  0.49390000  0.23020000  1.0 0.1194458324
H  H275  1  0.26370000  0.81370000  0.76980000  1.0 0.1194458324
H  H276  1  0.95610000  0.18630000  0.45000000  1.0 0.1194458324
H  H277  1  0.45000000  0.26370000  0.49390000  1.0 0.1194458324
H  H278  1  0.76980000  0.95610000  0.50610000  1.0 0.1194458324
H  H279  1  0.23020000  0.73630000  0.18630000  1.0 0.111370182
H  H280  1  0.55000000  0.04390000  0.81370000  1.0 0.1194458324
H  H281  1  0.49390000  0.45000000  0.26370000  1.0 0.1194458324
H  H282  1  0.50610000  0.76980000  0.95610000  1.0 0.1194458324
H  H283  1  0.18630000  0.23020000  0.73630000  1.0 0.1194458324
H  H284  1  0.81370000  0.55000000  0.04390000  1.0 0.1194458324
H  H285  1  0.26370000  0.49390000  0.45000000  1.0 0.1194458324
H  H286  1  0.95610000  0.50610000  0.76980000  1.0 0.1194458324
H  H287  1  0.73630000  0.18630000  0.23020000  1.0 0.1194458324
H  H288  1  0.04390000  0.81370000  0.55000000  1.0 0.1194458324
H  H289  1  0.53420000  0.73800000  0.41600000  1.0 0.1003439241
H  H290  1  0.32200000  0.11820000  0.58400000  1.0 0.1003439241
H  H291  1  0.67800000  0.26200000  0.79620000  1.0 0.1003439241
H  H292  1  0.46580000  0.88180000  0.20380000  1.0 0.1003439241
H  H293  1  0.41600000  0.53420000  0.73800000  1.0 0.1003439241
H  H294  1  0.58400000  0.32200000  0.11820000  1.0 0.1003439241
H  H295  1  0.79620000  0.67800000  0.26200000  1.0 0.1003439241
H  H296  1  0.20380000  0.46580000  0.88180000  1.0 0.1003439241
H  H297  1  0.73800000  0.41600000  0.53420000  1.0 0.1003439241
H  H298  1  0.11820000  0.58400000  0.32200000  1.0 0.1003439241
H  H299  1  0.26200000  0.79620000  0.67800000  1.0 0.1003439241
H  H300  1  0.88180000  0.20380000  0.46580000  1.0 0.1003439241
H  H301  1  0.46580000  0.26200000  0.58400000  1.0 0.1003439241
H  H302  1  0.67800000  0.88180000  0.41600000  1.0 0.1003439241
H  H303  1  0.32200000  0.73800000  0.20380000  1.0 0.1003439241
H  H304  1  0.53420000  0.11820000  0.79620000  1.0 0.1003439241
H  H305  1  0.58400000  0.46580000  0.26200000  1.0 0.1003439241
H  H306  1  0.41600000  0.67800000  0.88180000  1.0 0.1003439241
H  H307  1  0.20380000  0.32200000  0.73800000  1.0 0.1003439241
H  H308  1  0.79620000  0.53420000  0.11820000  1.0 0.1003439241
H  H309  1  0.26200000  0.58400000  0.46580000  1.0 0.1003439241
H  H310  1  0.88180000  0.41600000  0.67800000  1.0 0.1003439241
H  H311  1  0.73800000  0.20380000  0.32200000  1.0 0.1003439241
H  H312  1  0.11820000  0.79620000  0.53420000  1.0 0.1003439241
C  C1  1  0.43349000  0.46300000  0.40381000  1.0 -0.0389383532
C  C2  1  0.05919000  0.02968000  0.59619000  1.0 -0.0389383532
C  C3  1  0.94081000  0.53700000  0.97049000  1.0 -0.0389383532
C  C4  1  0.56651000  0.97032000  0.02951000  1.0 -0.0389383532
C  C5  1  0.40381000  0.43349000  0.46300000  1.0 -0.0389383532
C  C6  1  0.59619000  0.05919000  0.02968000  1.0 -0.0389383532
C  C7  1  0.97049000  0.94081000  0.53700000  1.0 -0.0389383532
C  C8  1  0.02951000  0.56651000  0.97032000  1.0 -0.0389383532
C  C9  1  0.46300000  0.40381000  0.43349000  1.0 -0.0389383532
C  C10  1  0.02968000  0.59619000  0.05919000  1.0 -0.0389383532
C  C11  1  0.53700000  0.97049000  0.94081000  1.0 -0.0389383532
C  C12  1  0.97032000  0.02951000  0.56651000  1.0 -0.0389383532
C  C13  1  0.56651000  0.53700000  0.59619000  1.0 -0.0389383532
C  C14  1  0.94081000  0.97032000  0.40381000  1.0 -0.0389383532
C  C15  1  0.05919000  0.46300000  0.02951000  1.0 -0.0389383532
C  C16  1  0.43349000  0.02968000  0.97049000  1.0 -0.0389383532
C  C17  1  0.59619000  0.56651000  0.53700000  1.0 -0.0389383532
C  C18  1  0.40381000  0.94081000  0.97032000  1.0 -0.0389383532
C  C19  1  0.02951000  0.05919000  0.46300000  1.0 -0.0389383532
C  C20  1  0.97049000  0.43349000  0.02968000  1.0 -0.0389383532
C  C21  1  0.53700000  0.59619000  0.56651000  1.0 -0.0389383532
C  C22  1  0.97032000  0.40381000  0.94081000  1.0 -0.0389383532
C  C23  1  0.46300000  0.02951000  0.05919000  1.0 -0.0389383532
C  C24  1  0.02968000  0.97049000  0.43349000  1.0 -0.0389383532
C  C25  1  0.46363000  0.43398000  0.40429000  1.0 -0.1131752232
C  C26  1  0.02969000  0.05934000  0.59571000  1.0 -0.1131752232
C  C27  1  0.97031000  0.56602000  0.02965000  1.0 -0.1131752232
C  C28  1  0.53637000  0.94066000  0.97035000  1.0 -0.1131752232
C  C29  1  0.40429000  0.46363000  0.43398000  1.0 -0.1131752232
C  C30  1  0.59571000  0.02969000  0.05934000  1.0 -0.1131752232
C  C31  1  0.02965000  0.97031000  0.56602000  1.0 -0.1131752232
C  C32  1  0.97035000  0.53637000  0.94066000  1.0 -0.1131752232
C  C33  1  0.43398000  0.40429000  0.46363000  1.0 -0.1131752232
C  C34  1  0.05934000  0.59571000  0.02969000  1.0 -0.1131752232
C  C35  1  0.56602000  0.02965000  0.97031000  1.0 -0.1131752232
C  C36  1  0.94066000  0.97035000  0.53637000  1.0 -0.1131752232
C  C37  1  0.53637000  0.56602000  0.59571000  1.0 -0.1131752232
C  C38  1  0.97031000  0.94066000  0.40429000  1.0 -0.1131752232
C  C39  1  0.02969000  0.43398000  0.97035000  1.0 -0.1131752232
C  C40  1  0.46363000  0.05934000  0.02965000  1.0 -0.1131752232
C  C41  1  0.59571000  0.53637000  0.56602000  1.0 -0.1131752232
C  C42  1  0.40429000  0.97031000  0.94066000  1.0 -0.1131752232
C  C43  1  0.97035000  0.02969000  0.43398000  1.0 -0.1131752232
C  C44  1  0.02965000  0.46363000  0.05934000  1.0 -0.1131752232
C  C45  1  0.56602000  0.59571000  0.53637000  1.0 -0.1131752232
C  C46  1  0.94066000  0.40429000  0.97031000  1.0 -0.1131752232
C  C47  1  0.43398000  0.97035000  0.02969000  1.0 -0.1131752232
C  C48  1  0.05934000  0.02965000  0.46363000  1.0 -0.1131752232
C  C49  1  0.48220000  0.68950000  0.29390000  1.0 0.277527468
C  C50  1  0.39560000  0.18830000  0.70610000  1.0 0.277527468
C  C51  1  0.60440000  0.31050000  0.79270000  1.0 0.277527468
C  C52  1  0.51780000  0.81170000  0.20730000  1.0 0.277527468
C  C53  1  0.29390000  0.48220000  0.68950000  1.0 0.277527468
C  C54  1  0.70610000  0.39560000  0.18830000  1.0 0.277527468
C  C55  1  0.79270000  0.60440000  0.31050000  1.0 0.277527468
C  C56  1  0.20730000  0.51780000  0.81170000  1.0 0.277527468
C  C57  1  0.68950000  0.29390000  0.48220000  1.0 0.277527468
C  C58  1  0.18830000  0.70610000  0.39560000  1.0 0.277527468
C  C59  1  0.31050000  0.79270000  0.60440000  1.0 0.277527468
C  C60  1  0.81170000  0.20730000  0.51780000  1.0 0.277527468
C  C61  1  0.51780000  0.31050000  0.70610000  1.0 0.277527468
C  C62  1  0.60440000  0.81170000  0.29390000  1.0 0.277527468
C  C63  1  0.39560000  0.68950000  0.20730000  1.0 0.277527468
C  C64  1  0.48220000  0.18830000  0.79270000  1.0 0.277527468
C  C65  1  0.70610000  0.51780000  0.31050000  1.0 0.277527468
C  C66  1  0.29390000  0.60440000  0.81170000  1.0 0.277527468
C  C67  1  0.20730000  0.39560000  0.68950000  1.0 0.277527468
C  C68  1  0.79270000  0.48220000  0.18830000  1.0 0.277527468
C  C69  1  0.31050000  0.70610000  0.51780000  1.0 0.277527468
C  C70  1  0.81170000  0.29390000  0.60440000  1.0 0.277527468
C  C71  1  0.68950000  0.20730000  0.39560000  1.0 0.277527468
C  C72  1  0.18830000  0.79270000  0.48220000  1.0 0.277527468
C  C73  1  0.46950000  0.65050000  0.32000000  1.0 -0.0389383532
C  C74  1  0.33050000  0.14950000  0.68000000  1.0 -0.0389383532
C  C75  1  0.66950000  0.34950000  0.81900000  1.0 -0.0389383532
C  C76  1  0.53050000  0.85050000  0.18100000  1.0 -0.0389383532
C  C77  1  0.32000000  0.46950000  0.65050000  1.0 -0.0389383532
C  C78  1  0.68000000  0.33050000  0.14950000  1.0 -0.0389383532
C  C79  1  0.81900000  0.66950000  0.34950000  1.0 -0.0389383532
C  C80  1  0.18100000  0.53050000  0.85050000  1.0 -0.0389383532
C  C81  1  0.65050000  0.32000000  0.46950000  1.0 -0.0389383532
C  C82  1  0.14950000  0.68000000  0.33050000  1.0 -0.0389383532
C  C83  1  0.34950000  0.81900000  0.66950000  1.0 -0.0389383532
C  C84  1  0.85050000  0.18100000  0.53050000  1.0 -0.0389383532
C  C85  1  0.53050000  0.34950000  0.68000000  1.0 -0.0389383532
C  C86  1  0.66950000  0.85050000  0.32000000  1.0 -0.0389383532
C  C87  1  0.33050000  0.65050000  0.18100000  1.0 -0.0389383532
C  C88  1  0.46950000  0.14950000  0.81900000  1.0 -0.0389383532
C  C89  1  0.68000000  0.53050000  0.34950000  1.0 -0.0389383532
C  C90  1  0.32000000  0.66950000  0.85050000  1.0 -0.0389383532
C  C91  1  0.18100000  0.33050000  0.65050000  1.0 -0.0389383532
C  C92  1  0.81900000  0.46950000  0.14950000  1.0 -0.0389383532
C  C93  1  0.34950000  0.68000000  0.53050000  1.0 -0.0389383532
C  C94  1  0.85050000  0.32000000  0.66950000  1.0 -0.0389383532
C  C95  1  0.65050000  0.18100000  0.33050000  1.0 -0.0389383532
C  C96  1  0.14950000  0.81900000  0.46950000  1.0 -0.0389383532
C  C97  1  0.46410000  0.67050000  0.36920000  1.0 -0.0800972204
C  C98  1  0.30130000  0.09490000  0.63080000  1.0 -0.0800972204
C  C99  1  0.69870000  0.32950000  0.79360000  1.0 -0.0800972204
C  C100  1  0.53590000  0.90510000  0.20640000  1.0 -0.0800972204
C  C101  1  0.36920000  0.46410000  0.67050000  1.0 -0.0800972204
C  C102  1  0.63080000  0.30130000  0.09490000  1.0 -0.0800972204
C  C103  1  0.79360000  0.69870000  0.32950000  1.0 -0.0800972204
C  C104  1  0.20640000  0.53590000  0.90510000  1.0 -0.0800972204
C  C105  1  0.67050000  0.36920000  0.46410000  1.0 -0.0800972204
C  C106  1  0.09490000  0.63080000  0.30130000  1.0 -0.0800972204
C  C107  1  0.32950000  0.79360000  0.69870000  1.0 -0.0800972204
C  C108  1  0.90510000  0.20640000  0.53590000  1.0 -0.0800972204
C  C109  1  0.53590000  0.32950000  0.63080000  1.0 -0.0800972204
C  C110  1  0.69870000  0.90510000  0.36920000  1.0 -0.0800972204
C  C111  1  0.30130000  0.67050000  0.20640000  1.0 -0.0800972204
C  C112  1  0.46410000  0.09490000  0.79360000  1.0 -0.0800972204
C  C113  1  0.63080000  0.53590000  0.32950000  1.0 -0.0800972204
C  C114  1  0.36920000  0.69870000  0.90510000  1.0 -0.0800972204
C  C115  1  0.20640000  0.30130000  0.67050000  1.0 -0.0800972204
C  C116  1  0.79360000  0.46410000  0.09490000  1.0 -0.0800972204
C  C117  1  0.32950000  0.63080000  0.53590000  1.0 -0.0800972204
C  C118  1  0.90510000  0.36920000  0.69870000  1.0 -0.0800972204
C  C119  1  0.67050000  0.20640000  0.30130000  1.0 -0.0800972204
C  C120  1  0.09490000  0.79360000  0.46410000  1.0 -0.0800972204
C  C121  1  0.45680000  0.63850000  0.39490000  1.0 -0.1832588845
C  C122  1  0.24360000  0.06190000  0.60510000  1.0 -0.1832588845
C  C123  1  0.75640000  0.36150000  0.81830000  1.0 -0.1832588845
C  C124  1  0.54320000  0.93810000  0.18170000  1.0 -0.1832588845
C  C125  1  0.39490000  0.45680000  0.63850000  1.0 -0.1832588845
C  C126  1  0.60510000  0.24360000  0.06190000  1.0 -0.1832588845
C  C127  1  0.81830000  0.75640000  0.36150000  1.0 -0.1832588845
C  C128  1  0.18170000  0.54320000  0.93810000  1.0 -0.1832588845
C  C129  1  0.63850000  0.39490000  0.45680000  1.0 -0.1832588845
C  C130  1  0.06190000  0.60510000  0.24360000  1.0 -0.1832588845
C  C131  1  0.36150000  0.81830000  0.75640000  1.0 -0.1832588845
C  C132  1  0.93810000  0.18170000  0.54320000  1.0 -0.1832588845
C  C133  1  0.54320000  0.36150000  0.60510000  1.0 -0.1832588845
C  C134  1  0.75640000  0.93810000  0.39490000  1.0 -0.1832588845
C  C135  1  0.24360000  0.63850000  0.18170000  1.0 -0.1832588845
C  C136  1  0.45680000  0.06190000  0.81830000  1.0 -0.1832588845
C  C137  1  0.60510000  0.54320000  0.36150000  1.0 -0.1832588845
C  C138  1  0.39490000  0.75640000  0.93810000  1.0 -0.1832588845
C  C139  1  0.18170000  0.24360000  0.63850000  1.0 -0.1832588845
C  C140  1  0.81830000  0.45680000  0.06190000  1.0 -0.1832588845
C  C141  1  0.36150000  0.60510000  0.54320000  1.0 -0.1832588845
C  C142  1  0.93810000  0.39490000  0.75640000  1.0 -0.1832588845
C  C143  1  0.63850000  0.18170000  0.24360000  1.0 -0.1832588845
C  C144  1  0.06190000  0.81830000  0.45680000  1.0 -0.1832588845
C  C145  1  0.45130000  0.58380000  0.37150000  1.0 0.0860149324
C  C146  1  0.21230000  0.07980000  0.62850000  1.0 0.0860149324
C  C147  1  0.78770000  0.41620000  0.86750000  1.0 0.0860149324
C  C148  1  0.54870000  0.92020000  0.13250000  1.0 0.0860149324
C  C149  1  0.37150000  0.45130000  0.58380000  1.0 0.0860149324
C  C150  1  0.62850000  0.21230000  0.07980000  1.0 0.0860149324
C  C151  1  0.86750000  0.78770000  0.41620000  1.0 0.0860149324
C  C152  1  0.13250000  0.54870000  0.92020000  1.0 0.0860149324
C  C153  1  0.58380000  0.37150000  0.45130000  1.0 0.0860149324
C  C154  1  0.07980000  0.62850000  0.21230000  1.0 0.0860149324
C  C155  1  0.41620000  0.86750000  0.78770000  1.0 0.0860149324
C  C156  1  0.92020000  0.13250000  0.54870000  1.0 0.0860149324
C  C157  1  0.54870000  0.41620000  0.62850000  1.0 0.0860149324
C  C158  1  0.78770000  0.92020000  0.37150000  1.0 0.0860149324
C  C159  1  0.21230000  0.58380000  0.13250000  1.0 0.0860149324
C  C160  1  0.45130000  0.07980000  0.86750000  1.0 0.0860149324
C  C161  1  0.62850000  0.54870000  0.41620000  1.0 0.0860149324
C  C162  1  0.37150000  0.78770000  0.92020000  1.0 0.0860149324
C  C163  1  0.13250000  0.21230000  0.58380000  1.0 0.0860149324
C  C164  1  0.86750000  0.45130000  0.07980000  1.0 0.0860149324
C  C165  1  0.41620000  0.62850000  0.54870000  1.0 0.0860149324
C  C166  1  0.92020000  0.37150000  0.78770000  1.0 0.0860149324
C  C167  1  0.58380000  0.13250000  0.21230000  1.0 0.0860149324
C  C168  1  0.07980000  0.86750000  0.45130000  1.0 0.0860149324
C  C169  1  0.44340000  0.54890000  0.39550000  1.0 -0.2606931847
C  C170  1  0.15340000  0.04790000  0.60450000  1.0 -0.2606931847
C  C171  1  0.84660000  0.45110000  0.89450000  1.0 -0.2606931847
C  C172  1  0.55660000  0.95210000  0.10550000  1.0 -0.2606931847
C  C173  1  0.39550000  0.44340000  0.54890000  1.0 -0.2606931847
C  C174  1  0.60450000  0.15340000  0.04790000  1.0 -0.2606931847
C  C175  1  0.89450000  0.84660000  0.45110000  1.0 -0.2606931847
C  C176  1  0.10550000  0.55660000  0.95210000  1.0 -0.2606931847
C  C177  1  0.54890000  0.39550000  0.44340000  1.0 -0.2606931847
C  C178  1  0.04790000  0.60450000  0.15340000  1.0 -0.2606931847
C  C179  1  0.45110000  0.89450000  0.84660000  1.0 -0.2606931847
C  C180  1  0.95210000  0.10550000  0.55660000  1.0 -0.2606931847
C  C181  1  0.55660000  0.45110000  0.60450000  1.0 -0.2606931847
C  C182  1  0.84660000  0.95210000  0.39550000  1.0 -0.2606931847
C  C183  1  0.15340000  0.54890000  0.10550000  1.0 -0.2606931847
C  C184  1  0.44340000  0.04790000  0.89450000  1.0 -0.2606931847
C  C185  1  0.60450000  0.55660000  0.45110000  1.0 -0.2606931847
C  C186  1  0.39550000  0.84660000  0.95210000  1.0 -0.2606931847
C  C187  1  0.10550000  0.15340000  0.54890000  1.0 -0.2606931847
C  C188  1  0.89450000  0.44340000  0.04790000  1.0 -0.2606931847
C  C189  1  0.45110000  0.60450000  0.55660000  1.0 -0.2606931847
C  C190  1  0.95210000  0.39550000  0.84660000  1.0 -0.2606931847
C  C191  1  0.54890000  0.10550000  0.15340000  1.0 -0.2606931847
C  C192  1  0.04790000  0.89450000  0.44340000  1.0 -0.2606931847
C  C193  1  0.43960000  0.49750000  0.37430000  1.0 0.0411893429
C  C194  1  0.12320000  0.06530000  0.62570000  1.0 0.0411893429
C  C195  1  0.87680000  0.50250000  0.94210000  1.0 0.0456086169
C  C196  1  0.56040000  0.93470000  0.05790000  1.0 0.0456086169
C  C197  1  0.37430000  0.43960000  0.49750000  1.0 0.0411893429
C  C198  1  0.62570000  0.12320000  0.06530000  1.0 0.0456086169
C  C199  1  0.94210000  0.87680000  0.50250000  1.0 0.0456086169
C  C200  1  0.05790000  0.56040000  0.93470000  1.0 0.0411893429
C  C201  1  0.49750000  0.37430000  0.43960000  1.0 0.0456086169
C  C202  1  0.06530000  0.62570000  0.12320000  1.0 0.0411893429
C  C203  1  0.50250000  0.94210000  0.87680000  1.0 0.0411893429
C  C204  1  0.93470000  0.05790000  0.56040000  1.0 0.0456086169
C  C205  1  0.56040000  0.50250000  0.62570000  1.0 0.0456086169
C  C206  1  0.87680000  0.93470000  0.37430000  1.0 0.0456086169
C  C207  1  0.12320000  0.49750000  0.05790000  1.0 0.0411893429
C  C208  1  0.43960000  0.06530000  0.94210000  1.0 0.0411893429
C  C209  1  0.62570000  0.56040000  0.50250000  1.0 0.0456086169
C  C210  1  0.37430000  0.87680000  0.93470000  1.0 0.0411893429
C  C211  1  0.05790000  0.12320000  0.49750000  1.0 0.0411893429
C  C212  1  0.94210000  0.43960000  0.06530000  1.0 0.0456086169
C  C213  1  0.50250000  0.62570000  0.56040000  1.0 0.0411893429
C  C214  1  0.93470000  0.37430000  0.87680000  1.0 0.0456086169
C  C215  1  0.49750000  0.05790000  0.12320000  1.0 0.0456086169
C  C216  1  0.06530000  0.94210000  0.43960000  1.0 0.0456086169
C  C217  1  0.44260000  0.47690000  0.32230000  1.0 -0.13224278
C  C218  1  0.15460000  0.12030000  0.67770000  1.0 -0.13224278
C  C219  1  0.84540000  0.52310000  0.96570000  1.0 -0.13224278
C  C220  1  0.55740000  0.87970000  0.03430000  1.0 -0.13224278
C  C221  1  0.32230000  0.44260000  0.47690000  1.0 -0.13224278
C  C222  1  0.67770000  0.15460000  0.12030000  1.0 -0.13224278
C  C223  1  0.96570000  0.84540000  0.52310000  1.0 -0.13224278
C  C224  1  0.03430000  0.55740000  0.87970000  1.0 -0.13224278
C  C225  1  0.47690000  0.32230000  0.44260000  1.0 -0.13224278
C  C226  1  0.12030000  0.67770000  0.15460000  1.0 -0.13224278
C  C227  1  0.52310000  0.96570000  0.84540000  1.0 -0.13224278
C  C228  1  0.87970000  0.03430000  0.55740000  1.0 -0.13224278
C  C229  1  0.55740000  0.52310000  0.67770000  1.0 -0.13224278
C  C230  1  0.84540000  0.87970000  0.32230000  1.0 -0.13224278
C  C231  1  0.15460000  0.47690000  0.03430000  1.0 -0.13224278
C  C232  1  0.44260000  0.12030000  0.96570000  1.0 -0.13224278
C  C233  1  0.67770000  0.55740000  0.52310000  1.0 -0.13224278
C  C234  1  0.32230000  0.84540000  0.87970000  1.0 -0.13224278
C  C235  1  0.03430000  0.15460000  0.47690000  1.0 -0.13224278
C  C236  1  0.96570000  0.44260000  0.12030000  1.0 -0.13224278
C  C237  1  0.52310000  0.67770000  0.55740000  1.0 -0.13224278
C  C238  1  0.87970000  0.32230000  0.84540000  1.0 -0.13224278
C  C239  1  0.47690000  0.03430000  0.15460000  1.0 -0.13224278
C  C240  1  0.12030000  0.96570000  0.44260000  1.0 -0.13224278
C  C241  1  0.44880000  0.50750000  0.29710000  1.0 -0.1494827598
C  C242  1  0.21040000  0.15170000  0.70290000  1.0 -0.1494827598
C  C243  1  0.78960000  0.49250000  0.94130000  1.0 -0.1494827598
C  C244  1  0.55120000  0.84830000  0.05870000  1.0 -0.1494827598
C  C245  1  0.29710000  0.44880000  0.50750000  1.0 -0.1494827598
C  C246  1  0.70290000  0.21040000  0.15170000  1.0 -0.1494827598
C  C247  1  0.94130000  0.78960000  0.49250000  1.0 -0.1494827598
C  C248  1  0.05870000  0.55120000  0.84830000  1.0 -0.1494827598
C  C249  1  0.50750000  0.29710000  0.44880000  1.0 -0.1494827598
C  C250  1  0.15170000  0.70290000  0.21040000  1.0 -0.1494827598
C  C251  1  0.49250000  0.94130000  0.78960000  1.0 -0.1494827598
C  C252  1  0.84830000  0.05870000  0.55120000  1.0 -0.1494827598
C  C253  1  0.55120000  0.49250000  0.70290000  1.0 -0.1494827598
C  C254  1  0.78960000  0.84830000  0.29710000  1.0 -0.1494827598
C  C255  1  0.21040000  0.50750000  0.05870000  1.0 -0.1494827598
C  C256  1  0.44880000  0.15170000  0.94130000  1.0 -0.1494827598
C  C257  1  0.70290000  0.55120000  0.49250000  1.0 -0.1441504604
C  C258  1  0.29710000  0.78960000  0.84830000  1.0 -0.1494827598
C  C259  1  0.05870000  0.21040000  0.50750000  1.0 -0.1494827598
C  C260  1  0.94130000  0.44880000  0.15170000  1.0 -0.1494827598
C  C261  1  0.49250000  0.70290000  0.55120000  1.0 -0.1494827598
C  C262  1  0.84830000  0.29710000  0.78960000  1.0 -0.1494827598
C  C263  1  0.50750000  0.05870000  0.21040000  1.0 -0.1494827598
C  C264  1  0.15170000  0.94130000  0.44880000  1.0 -0.1494827598
C  C265  1  0.45380000  0.56200000  0.31960000  1.0 0.0411893429
C  C266  1  0.24240000  0.13420000  0.68040000  1.0 0.0411893429
C  C267  1  0.75760000  0.43800000  0.89180000  1.0 0.0411893429
C  C268  1  0.54620000  0.86580000  0.10820000  1.0 0.0411893429
C  C269  1  0.31960000  0.45380000  0.56200000  1.0 0.0411893429
C  C270  1  0.68040000  0.24240000  0.13420000  1.0 0.0411893429
C  C271  1  0.89180000  0.75760000  0.43800000  1.0 0.0411893429
C  C272  1  0.10820000  0.54620000  0.86580000  1.0 0.0411893429
C  C273  1  0.56200000  0.31960000  0.45380000  1.0 0.0411893429
C  C274  1  0.13420000  0.68040000  0.24240000  1.0 0.0456086169
C  C275  1  0.43800000  0.89180000  0.75760000  1.0 0.0411893429
C  C276  1  0.86580000  0.10820000  0.54620000  1.0 0.0411893429
C  C277  1  0.54620000  0.43800000  0.68040000  1.0 0.0411893429
C  C278  1  0.75760000  0.86580000  0.31960000  1.0 0.0411893429
C  C279  1  0.24240000  0.56200000  0.10820000  1.0 0.0411893429
C  C280  1  0.45380000  0.13420000  0.89180000  1.0 0.0411893429
C  C281  1  0.68040000  0.54620000  0.43800000  1.0 0.0411893429
C  C282  1  0.31960000  0.75760000  0.86580000  1.0 0.0411893429
C  C283  1  0.10820000  0.24240000  0.56200000  1.0 0.0411893429
C  C284  1  0.89180000  0.45380000  0.13420000  1.0 0.0456086169
C  C285  1  0.43800000  0.68040000  0.54620000  1.0 0.0411893429
C  C286  1  0.86580000  0.31960000  0.75760000  1.0 0.0411893429
C  C287  1  0.56200000  0.10820000  0.24240000  1.0 0.0411893429
C  C288  1  0.13420000  0.89180000  0.45380000  1.0 0.0456086169
C  C289  1  0.46270000  0.59730000  0.29520000  1.0 -0.1209079218
C  C290  1  0.30210000  0.16750000  0.70480000  1.0 -0.1209079218
C  C291  1  0.69790000  0.40270000  0.86540000  1.0 -0.1209079218
C  C292  1  0.53730000  0.83250000  0.13460000  1.0 -0.1209079218
C  C293  1  0.29520000  0.46270000  0.59730000  1.0 -0.1209079218
C  C294  1  0.70480000  0.30210000  0.16750000  1.0 -0.1209079218
C  C295  1  0.86540000  0.69790000  0.40270000  1.0 -0.1209079218
C  C296  1  0.13460000  0.53730000  0.83250000  1.0 -0.1209079218
C  C297  1  0.59730000  0.29520000  0.46270000  1.0 -0.1209079218
C  C298  1  0.16750000  0.70480000  0.30210000  1.0 -0.1209079218
C  C299  1  0.40270000  0.86540000  0.69790000  1.0 -0.1209079218
C  C300  1  0.83250000  0.13460000  0.53730000  1.0 -0.1209079218
C  C301  1  0.53730000  0.40270000  0.70480000  1.0 -0.1209079218
C  C302  1  0.69790000  0.83250000  0.29520000  1.0 -0.1209079218
C  C303  1  0.30210000  0.59730000  0.13460000  1.0 -0.1209079218
C  C304  1  0.46270000  0.16750000  0.86540000  1.0 -0.1209079218
C  C305  1  0.70480000  0.53730000  0.40270000  1.0 -0.1209079218
C  C306  1  0.29520000  0.69790000  0.83250000  1.0 -0.1209079218
C  C307  1  0.13460000  0.30210000  0.59730000  1.0 -0.1209079218
C  C308  1  0.86540000  0.46270000  0.16750000  1.0 -0.1209079218
C  C309  1  0.40270000  0.70480000  0.53730000  1.0 -0.1209079218
C  C310  1  0.83250000  0.29520000  0.69790000  1.0 -0.1209079218
C  C311  1  0.59730000  0.13460000  0.30210000  1.0 -0.1209079218
C  C312  1  0.16750000  0.86540000  0.46270000  1.0 -0.1209079218
C  C313  1  0.51730000  0.70510000  0.31040000  1.0 0.277527468
C  C314  1  0.39470000  0.20690000  0.68960000  1.0 0.277527468
C  C315  1  0.60530000  0.29490000  0.81220000  1.0 0.277527468
C  C316  1  0.48270000  0.79310000  0.18780000  1.0 0.277527468
C  C317  1  0.31040000  0.51730000  0.70510000  1.0 0.277527468
C  C318  1  0.68960000  0.39470000  0.20690000  1.0 0.277527468
C  C319  1  0.81220000  0.60530000  0.29490000  1.0 0.277527468
C  C320  1  0.18780000  0.48270000  0.79310000  1.0 0.277527468
C  C321  1  0.70510000  0.31040000  0.51730000  1.0 0.277527468
C  C322  1  0.20690000  0.68960000  0.39470000  1.0 0.277527468
C  C323  1  0.29490000  0.81220000  0.60530000  1.0 0.277527468
C  C324  1  0.79310000  0.18780000  0.48270000  1.0 0.277527468
C  C325  1  0.48270000  0.29490000  0.68960000  1.0 0.277527468
C  C326  1  0.60530000  0.79310000  0.31040000  1.0 0.277527468
C  C327  1  0.39470000  0.70510000  0.18780000  1.0 0.277527468
C  C328  1  0.51730000  0.20690000  0.81220000  1.0 0.277527468
C  C329  1  0.68960000  0.48270000  0.29490000  1.0 0.277527468
C  C330  1  0.31040000  0.60530000  0.79310000  1.0 0.277527468
C  C331  1  0.18780000  0.39470000  0.70510000  1.0 0.277527468
C  C332  1  0.81220000  0.51730000  0.20690000  1.0 0.277527468
C  C333  1  0.29490000  0.68960000  0.48270000  1.0 0.277527468
C  C334  1  0.79310000  0.31040000  0.60530000  1.0 0.277527468
C  C335  1  0.70510000  0.18780000  0.39470000  1.0 0.277527468
C  C336  1  0.20690000  0.81220000  0.51730000  1.0 0.277527468
C  C337  1  0.53050000  0.67990000  0.34960000  1.0 -0.0457550906
C  C338  1  0.33030000  0.18090000  0.65040000  1.0 -0.0457550906
C  C339  1  0.66970000  0.32010000  0.85060000  1.0 -0.0457550906
C  C340  1  0.46950000  0.81910000  0.14940000  1.0 -0.0457550906
C  C341  1  0.34960000  0.53050000  0.67990000  1.0 -0.0457550906
C  C342  1  0.65040000  0.33030000  0.18090000  1.0 -0.0457550906
C  C343  1  0.85060000  0.66970000  0.32010000  1.0 -0.0457550906
C  C344  1  0.14940000  0.46950000  0.81910000  1.0 -0.0457550906
C  C345  1  0.67990000  0.34960000  0.53050000  1.0 -0.0457550906
C  C346  1  0.18090000  0.65040000  0.33030000  1.0 -0.0457550906
C  C347  1  0.32010000  0.85060000  0.66970000  1.0 -0.0457550906
C  C348  1  0.81910000  0.14940000  0.46950000  1.0 -0.0457550906
C  C349  1  0.46950000  0.32010000  0.65040000  1.0 -0.0457550906
C  C350  1  0.66970000  0.81910000  0.34960000  1.0 -0.0457550906
C  C351  1  0.33030000  0.67990000  0.14940000  1.0 -0.0457550906
C  C352  1  0.53050000  0.18090000  0.85060000  1.0 -0.0457550906
C  C353  1  0.65040000  0.46950000  0.32010000  1.0 -0.0457550906
C  C354  1  0.34960000  0.66970000  0.81910000  1.0 -0.0457550906
C  C355  1  0.14940000  0.33030000  0.67990000  1.0 -0.0457550906
C  C356  1  0.85060000  0.53050000  0.18090000  1.0 -0.0457550906
C  C357  1  0.32010000  0.65040000  0.46950000  1.0 -0.0457550906
C  C358  1  0.81910000  0.34960000  0.66970000  1.0 -0.0457550906
C  C359  1  0.67990000  0.14940000  0.33030000  1.0 -0.0457550906
C  C360  1  0.18090000  0.85060000  0.53050000  1.0 -0.0457550906
C  C361  1  0.53500000  0.63020000  0.33020000  1.0 -0.0701607264
C  C362  1  0.30000000  0.20480000  0.66980000  1.0 -0.0701607264
C  C363  1  0.70000000  0.36980000  0.90480000  1.0 -0.0701607264
C  C364  1  0.46500000  0.79520000  0.09520000  1.0 -0.0701607264
C  C365  1  0.33020000  0.53500000  0.63020000  1.0 -0.0701607264
C  C366  1  0.66980000  0.30000000  0.20480000  1.0 -0.0701607264
C  C367  1  0.90480000  0.70000000  0.36980000  1.0 -0.0701607264
C  C368  1  0.09520000  0.46500000  0.79520000  1.0 -0.0701607264
C  C369  1  0.63020000  0.33020000  0.53500000  1.0 -0.0701607264
C  C370  1  0.20480000  0.66980000  0.30000000  1.0 -0.0701607264
C  C371  1  0.36980000  0.90480000  0.70000000  1.0 -0.0701607264
C  C372  1  0.79520000  0.09520000  0.46500000  1.0 -0.0701607264
C  C373  1  0.46500000  0.36980000  0.66980000  1.0 -0.0701607264
C  C374  1  0.70000000  0.79520000  0.33020000  1.0 -0.0701607264
C  C375  1  0.30000000  0.63020000  0.09520000  1.0 -0.0701607264
C  C376  1  0.53500000  0.20480000  0.90480000  1.0 -0.0701607264
C  C377  1  0.66980000  0.46500000  0.36980000  1.0 -0.0701607264
C  C378  1  0.33020000  0.70000000  0.79520000  1.0 -0.0701607264
C  C379  1  0.09520000  0.30000000  0.63020000  1.0 -0.0701607264
C  C380  1  0.90480000  0.53500000  0.20480000  1.0 -0.0701607264
C  C381  1  0.36980000  0.66980000  0.46500000  1.0 -0.0701607264
C  C382  1  0.79520000  0.33020000  0.70000000  1.0 -0.0701607264
C  C383  1  0.63020000  0.09520000  0.30000000  1.0 -0.0701607264
C  C384  1  0.20480000  0.90480000  0.53500000  1.0 -0.0701607264
C  C385  1  0.54260000  0.60560000  0.36140000  1.0 -0.1709644307
C  C386  1  0.24420000  0.18120000  0.63860000  1.0 -0.1709644307
C  C387  1  0.75580000  0.39440000  0.93700000  1.0 -0.1709644307
C  C388  1  0.45740000  0.81880000  0.06300000  1.0 -0.1709644307
C  C389  1  0.36140000  0.54260000  0.60560000  1.0 -0.1709644307
C  C390  1  0.63860000  0.24420000  0.18120000  1.0 -0.1709644307
C  C391  1  0.93700000  0.75580000  0.39440000  1.0 -0.1709644307
C  C392  1  0.06300000  0.45740000  0.81880000  1.0 -0.1709644307
C  C393  1  0.60560000  0.36140000  0.54260000  1.0 -0.1709644307
C  C394  1  0.18120000  0.63860000  0.24420000  1.0 -0.1709644307
C  C395  1  0.39440000  0.93700000  0.75580000  1.0 -0.1709644307
C  C396  1  0.81880000  0.06300000  0.45740000  1.0 -0.1709644307
C  C397  1  0.45740000  0.39440000  0.63860000  1.0 -0.1709644307
C  C398  1  0.75580000  0.81880000  0.36140000  1.0 -0.1709644307
C  C399  1  0.24420000  0.60560000  0.06300000  1.0 -0.1709644307
C  C400  1  0.54260000  0.18120000  0.93700000  1.0 -0.1709644307
C  C401  1  0.63860000  0.45740000  0.39440000  1.0 -0.1709644307
C  C402  1  0.36140000  0.75580000  0.81880000  1.0 -0.1709644307
C  C403  1  0.06300000  0.24420000  0.60560000  1.0 -0.1709644307
C  C404  1  0.93700000  0.54260000  0.18120000  1.0 -0.1709644307
C  C405  1  0.39440000  0.63860000  0.45740000  1.0 -0.1709644307
C  C406  1  0.81880000  0.36140000  0.75580000  1.0 -0.1709644307
C  C407  1  0.60560000  0.06300000  0.24420000  1.0 -0.1709644307
C  C408  1  0.18120000  0.93700000  0.54260000  1.0 -0.1709644307
C  C409  1  0.54900000  0.62900000  0.41660000  1.0 0.0771767494
C  C410  1  0.21240000  0.13240000  0.58340000  1.0 0.0771767494
C  C411  1  0.78760000  0.37100000  0.92000000  1.0 0.0771767494
C  C412  1  0.45100000  0.86760000  0.08000000  1.0 0.0771767494
C  C413  1  0.41660000  0.54900000  0.62900000  1.0 0.0771767494
C  C414  1  0.58340000  0.21240000  0.13240000  1.0 0.0771767494
C  C415  1  0.92000000  0.78760000  0.37100000  1.0 0.0771767494
C  C416  1  0.08000000  0.45100000  0.86760000  1.0 0.0771767494
C  C417  1  0.62900000  0.41660000  0.54900000  1.0 0.0771767494
C  C418  1  0.13240000  0.58340000  0.21240000  1.0 0.0771767494
C  C419  1  0.37100000  0.92000000  0.78760000  1.0 0.0771767494
C  C420  1  0.86760000  0.08000000  0.45100000  1.0 0.0771767494
C  C421  1  0.45100000  0.37100000  0.58340000  1.0 0.0771767494
C  C422  1  0.78760000  0.86760000  0.41660000  1.0 0.0771767494
C  C423  1  0.21240000  0.62900000  0.08000000  1.0 0.0771767494
C  C424  1  0.54900000  0.13240000  0.92000000  1.0 0.0771767494
C  C425  1  0.58340000  0.45100000  0.37100000  1.0 0.0771767494
C  C426  1  0.41660000  0.78760000  0.86760000  1.0 0.0771767494
C  C427  1  0.08000000  0.21240000  0.62900000  1.0 0.0771767494
C  C428  1  0.92000000  0.54900000  0.13240000  1.0 0.0771767494
C  C429  1  0.37100000  0.58340000  0.45100000  1.0 0.0771767494
C  C430  1  0.86760000  0.41660000  0.78760000  1.0 0.0771767494
C  C431  1  0.62900000  0.08000000  0.21240000  1.0 0.0771767494
C  C432  1  0.13240000  0.92000000  0.54900000  1.0 0.0771767494
C  C433  1  0.55640000  0.60390000  0.45110000  1.0 -0.207978807
C  C434  1  0.15280000  0.10530000  0.54890000  1.0 -0.207978807
C  C435  1  0.84720000  0.39610000  0.95250000  1.0 -0.207978807
C  C436  1  0.44360000  0.89470000  0.04750000  1.0 -0.207978807
C  C437  1  0.45110000  0.55640000  0.60390000  1.0 -0.207978807
C  C438  1  0.54890000  0.15280000  0.10530000  1.0 -0.207978807
C  C439  1  0.95250000  0.84720000  0.39610000  1.0 -0.207978807
C  C440  1  0.04750000  0.44360000  0.89470000  1.0 -0.207978807
C  C441  1  0.60390000  0.45110000  0.55640000  1.0 -0.207978807
C  C442  1  0.10530000  0.54890000  0.15280000  1.0 -0.207978807
C  C443  1  0.39610000  0.95250000  0.84720000  1.0 -0.207978807
C  C444  1  0.89470000  0.04750000  0.44360000  1.0 -0.207978807
C  C445  1  0.44360000  0.39610000  0.54890000  1.0 -0.207978807
C  C446  1  0.84720000  0.89470000  0.45110000  1.0 -0.207978807
C  C447  1  0.15280000  0.60390000  0.04750000  1.0 -0.207978807
C  C448  1  0.55640000  0.10530000  0.95250000  1.0 -0.207978807
C  C449  1  0.54890000  0.44360000  0.39610000  1.0 -0.207978807
C  C450  1  0.45110000  0.84720000  0.89470000  1.0 -0.207978807
C  C451  1  0.04750000  0.15280000  0.60390000  1.0 -0.207978807
C  C452  1  0.95250000  0.55640000  0.10530000  1.0 -0.207978807
C  C453  1  0.39610000  0.54890000  0.44360000  1.0 -0.207978807
C  C454  1  0.89470000  0.45110000  0.84720000  1.0 -0.207978807
C  C455  1  0.60390000  0.04750000  0.15280000  1.0 -0.207978807
C  C456  1  0.10530000  0.95250000  0.55640000  1.0 -0.207978807
C  C457  1  0.55990000  0.62540000  0.50130000  1.0 -0.0011006037
C  C458  1  0.12410000  0.05860000  0.49870000  1.0 -0.0011006037
C  C459  1  0.87590000  0.37460000  0.93450000  1.0 -0.0011006037
C  C460  1  0.44010000  0.94140000  0.06550000  1.0 -0.0011006037
C  C461  1  0.50130000  0.55990000  0.62540000  1.0 -0.0011006037
C  C462  1  0.49870000  0.12410000  0.05860000  1.0 -0.0011006037
C  C463  1  0.93450000  0.87590000  0.37460000  1.0 -0.0011006037
C  C464  1  0.06550000  0.44010000  0.94140000  1.0 -0.0011006037
C  C465  1  0.62540000  0.50130000  0.55990000  1.0 -0.0011006037
C  C466  1  0.05860000  0.49870000  0.12410000  1.0 -0.0011006037
C  C467  1  0.37460000  0.93450000  0.87590000  1.0 -0.0011006037
C  C468  1  0.94140000  0.06550000  0.44010000  1.0 -0.0011006037
C  C469  1  0.44010000  0.37460000  0.49870000  1.0 -0.0011006037
C  C470  1  0.87590000  0.94140000  0.50130000  1.0 -0.0011006037
C  C471  1  0.12410000  0.62540000  0.06550000  1.0 -0.0011006037
C  C472  1  0.55990000  0.05860000  0.93450000  1.0 -0.0011006037
C  C473  1  0.49870000  0.44010000  0.37460000  1.0 -0.0011006037
C  C474  1  0.50130000  0.87590000  0.94140000  1.0 -0.0011006037
C  C475  1  0.06550000  0.12410000  0.62540000  1.0 -0.0011006037
C  C476  1  0.93450000  0.55990000  0.05860000  1.0 -0.0011006037
C  C477  1  0.37460000  0.49870000  0.44010000  1.0 -0.0011006037
C  C478  1  0.94140000  0.50130000  0.87590000  1.0 -0.0011006037
C  C479  1  0.62540000  0.06550000  0.12410000  1.0 -0.0011006037
C  C480  1  0.05860000  0.93450000  0.55990000  1.0 -0.0011006037
C  C481  1  0.55780000  0.67830000  0.52290000  1.0 -0.1209079218
C  C482  1  0.15540000  0.03490000  0.47710000  1.0 -0.1209079218
C  C483  1  0.84460000  0.32170000  0.87950000  1.0 -0.1209079218
C  C484  1  0.44220000  0.96510000  0.12050000  1.0 -0.1209079218
C  C485  1  0.52290000  0.55780000  0.67830000  1.0 -0.1209079218
C  C486  1  0.47710000  0.15540000  0.03490000  1.0 -0.1209079218
C  C487  1  0.87950000  0.84460000  0.32170000  1.0 -0.1209079218
C  C488  1  0.12050000  0.44220000  0.96510000  1.0 -0.1209079218
C  C489  1  0.67830000  0.52290000  0.55780000  1.0 -0.1209079218
C  C490  1  0.03490000  0.47710000  0.15540000  1.0 -0.1209079218
C  C491  1  0.32170000  0.87950000  0.84460000  1.0 -0.1209079218
C  C492  1  0.96510000  0.12050000  0.44220000  1.0 -0.1209079218
C  C493  1  0.44220000  0.32170000  0.47710000  1.0 -0.1209079218
C  C494  1  0.84460000  0.96510000  0.52290000  1.0 -0.1209079218
C  C495  1  0.15540000  0.67830000  0.12050000  1.0 -0.1209079218
C  C496  1  0.55780000  0.03490000  0.87950000  1.0 -0.1209079218
C  C497  1  0.47710000  0.44220000  0.32170000  1.0 -0.1209079218
C  C498  1  0.52290000  0.84460000  0.96510000  1.0 -0.1209079218
C  C499  1  0.12050000  0.15540000  0.67830000  1.0 -0.1209079218
C  C500  1  0.87950000  0.55780000  0.03490000  1.0 -0.1209079218
C  C501  1  0.32170000  0.47710000  0.44220000  1.0 -0.1209079218
C  C502  1  0.96510000  0.52290000  0.84460000  1.0 -0.1209079218
C  C503  1  0.67830000  0.12050000  0.15540000  1.0 -0.1209079218
C  C504  1  0.03490000  0.87950000  0.55780000  1.0 -0.1209079218
C  C505  1  0.55160000  0.70270000  0.49170000  1.0 -0.1494827598
C  C506  1  0.21100000  0.05990000  0.50830000  1.0 -0.1494827598
C  C507  1  0.78900000  0.29730000  0.84890000  1.0 -0.1494827598
C  C508  1  0.44840000  0.94010000  0.15110000  1.0 -0.1494827598
C  C509  1  0.49170000  0.55160000  0.70270000  1.0 -0.1494827598
C  C510  1  0.50830000  0.21100000  0.05990000  1.0 -0.1494827598
C  C511  1  0.84890000  0.78900000  0.29730000  1.0 -0.1494827598
C  C512  1  0.15110000  0.44840000  0.94010000  1.0 -0.1494827598
C  C513  1  0.70270000  0.49170000  0.55160000  1.0 -0.1494827598
C  C514  1  0.05990000  0.50830000  0.21100000  1.0 -0.1494827598
C  C515  1  0.29730000  0.84890000  0.78900000  1.0 -0.1494827598
C  C516  1  0.94010000  0.15110000  0.44840000  1.0 -0.1494827598
C  C517  1  0.44840000  0.29730000  0.50830000  1.0 -0.1494827598
C  C518  1  0.78900000  0.94010000  0.49170000  1.0 -0.1494827598
C  C519  1  0.21100000  0.70270000  0.15110000  1.0 -0.1494827598
C  C520  1  0.55160000  0.05990000  0.84890000  1.0 -0.1494827598
C  C521  1  0.50830000  0.44840000  0.29730000  1.0 -0.1494827598
C  C522  1  0.49170000  0.78900000  0.94010000  1.0 -0.1494827598
C  C523  1  0.15110000  0.21100000  0.70270000  1.0 -0.1494827598
C  C524  1  0.84890000  0.55160000  0.05990000  1.0 -0.1494827598
C  C525  1  0.29730000  0.50830000  0.44840000  1.0 -0.1494827598
C  C526  1  0.94010000  0.49170000  0.78900000  1.0 -0.1494827598
C  C527  1  0.70270000  0.15110000  0.21100000  1.0 -0.1494827598
C  C528  1  0.05990000  0.84890000  0.55160000  1.0 -0.1494827598
C  C529  1  0.54600000  0.68080000  0.43800000  1.0 0.0411893429
C  C530  1  0.24280000  0.10800000  0.56200000  1.0 0.0411893429
C  C531  1  0.75720000  0.31920000  0.86520000  1.0 0.0411893429
C  C532  1  0.45400000  0.89200000  0.13480000  1.0 0.0411893429
C  C533  1  0.43800000  0.54600000  0.68080000  1.0 0.0411893429
C  C534  1  0.56200000  0.24280000  0.10800000  1.0 0.0411893429
C  C535  1  0.86520000  0.75720000  0.31920000  1.0 0.0411893429
C  C536  1  0.13480000  0.45400000  0.89200000  1.0 0.0411893429
C  C537  1  0.68080000  0.43800000  0.54600000  1.0 0.0411893429
C  C538  1  0.10800000  0.56200000  0.24280000  1.0 0.0411893429
C  C539  1  0.31920000  0.86520000  0.75720000  1.0 0.0411893429
C  C540  1  0.89200000  0.13480000  0.45400000  1.0 0.0411893429
C  C541  1  0.45400000  0.31920000  0.56200000  1.0 0.0411893429
C  C542  1  0.75720000  0.89200000  0.43800000  1.0 0.0411893429
C  C543  1  0.24280000  0.68080000  0.13480000  1.0 0.0411893429
C  C544  1  0.54600000  0.10800000  0.86520000  1.0 0.0411893429
C  C545  1  0.56200000  0.45400000  0.31920000  1.0 0.0411893429
C  C546  1  0.43800000  0.75720000  0.89200000  1.0 0.0411893429
C  C547  1  0.13480000  0.24280000  0.68080000  1.0 0.0411893429
C  C548  1  0.86520000  0.54600000  0.10800000  1.0 0.0411893429
C  C549  1  0.31920000  0.56200000  0.45400000  1.0 0.0411893429
C  C550  1  0.89200000  0.43800000  0.75720000  1.0 0.0411893429
C  C551  1  0.68080000  0.13480000  0.24280000  1.0 0.0411893429
C  C552  1  0.10800000  0.86520000  0.54600000  1.0 0.0411893429
C  C553  1  0.53680000  0.70410000  0.40250000  1.0 -0.1131752232
C  C554  1  0.30160000  0.13430000  0.59750000  1.0 -0.1131752232
C  C555  1  0.69840000  0.29590000  0.83270000  1.0 -0.1131752232
C  C556  1  0.46320000  0.86570000  0.16730000  1.0 -0.1131752232
C  C557  1  0.40250000  0.53680000  0.70410000  1.0 -0.1131752232
C  C558  1  0.59750000  0.30160000  0.13430000  1.0 -0.1131752232
C  C559  1  0.83270000  0.69840000  0.29590000  1.0 -0.1131752232
C  C560  1  0.16730000  0.46320000  0.86570000  1.0 -0.1131752232
C  C561  1  0.70410000  0.40250000  0.53680000  1.0 -0.1131752232
C  C562  1  0.13430000  0.59750000  0.30160000  1.0 -0.1131752232
C  C563  1  0.29590000  0.83270000  0.69840000  1.0 -0.1131752232
C  C564  1  0.86570000  0.16730000  0.46320000  1.0 -0.1131752232
C  C565  1  0.46320000  0.29590000  0.59750000  1.0 -0.1131752232
C  C566  1  0.69840000  0.86570000  0.40250000  1.0 -0.1131752232
C  C567  1  0.30160000  0.70410000  0.16730000  1.0 -0.1131752232
C  C568  1  0.53680000  0.13430000  0.83270000  1.0 -0.1131752232
C  C569  1  0.59750000  0.46320000  0.29590000  1.0 -0.1131752232
C  C570  1  0.40250000  0.69840000  0.86570000  1.0 -0.1131752232
C  C571  1  0.16730000  0.30160000  0.70410000  1.0 -0.1131752232
C  C572  1  0.83270000  0.53680000  0.13430000  1.0 -0.1131752232
C  C573  1  0.29590000  0.59750000  0.46320000  1.0 -0.1131752232
C  C574  1  0.86570000  0.40250000  0.69840000  1.0 -0.1131752232
C  C575  1  0.70410000  0.16730000  0.30160000  1.0 -0.1131752232
C  C576  1  0.13430000  0.83270000  0.53680000  1.0 -0.1131752232
O  O1  1  0.48500000  0.66820000  0.25000000  1.0 -0.13224278
O  O2  1  0.41820000  0.23500000  0.75000000  1.0 -0.13224278
O  O3  1  0.58180000  0.33180000  0.81680000  1.0 -0.13224278
O  O4  1  0.51500000  0.76500000  0.18320000  1.0 -0.13224278
O  O5  1  0.25000000  0.48500000  0.66820000  1.0 -0.13224278
O  O6  1  0.75000000  0.41820000  0.23500000  1.0 -0.13224278
O  O7  1  0.81680000  0.58180000  0.33180000  1.0 -0.13224278
O  O8  1  0.18320000  0.51500000  0.76500000  1.0 -0.13224278
O  O9  1  0.66820000  0.25000000  0.48500000  1.0 -0.13224278
O  O10  1  0.23500000  0.75000000  0.41820000  1.0 -0.13224278
O  O11  1  0.33180000  0.81680000  0.58180000  1.0 -0.13224278
O  O12  1  0.76500000  0.18320000  0.51500000  1.0 -0.13224278
O  O13  1  0.51500000  0.33180000  0.75000000  1.0 -0.13224278
O  O14  1  0.58180000  0.76500000  0.25000000  1.0 -0.13224278
O  O15  1  0.41820000  0.66820000  0.18320000  1.0 -0.13224278
O  O16  1  0.48500000  0.23500000  0.81680000  1.0 -0.13224278
O  O17  1  0.75000000  0.51500000  0.33180000  1.0 -0.13224278
O  O18  1  0.25000000  0.58180000  0.76500000  1.0 -0.13224278
O  O19  1  0.18320000  0.41820000  0.66820000  1.0 -0.13224278
O  O20  1  0.81680000  0.48500000  0.23500000  1.0 -0.13224278
O  O21  1  0.33180000  0.75000000  0.51500000  1.0 -0.13224278
O  O22  1  0.76500000  0.25000000  0.58180000  1.0 -0.13224278
O  O23  1  0.66820000  0.18320000  0.41820000  1.0 -0.13224278
O  O24  1  0.23500000  0.81680000  0.48500000  1.0 -0.13224278
O  O25  1  0.48610000  0.73690000  0.31880000  1.0 -0.1209079218
O  O26  1  0.41810000  0.16730000  0.68120000  1.0 -0.1209079218
O  O27  1  0.58190000  0.26310000  0.74920000  1.0 -0.1209079218
O  O28  1  0.51390000  0.83270000  0.25080000  1.0 -0.1209079218
O  O29  1  0.31880000  0.48610000  0.73690000  1.0 -0.1209079218
O  O30  1  0.68120000  0.41810000  0.16730000  1.0 -0.1209079218
O  O31  1  0.74920000  0.58190000  0.26310000  1.0 -0.1209079218
O  O32  1  0.25080000  0.51390000  0.83270000  1.0 -0.1209079218
O  O33  1  0.73690000  0.31880000  0.48610000  1.0 -0.1209079218
O  O34  1  0.16730000  0.68120000  0.41810000  1.0 -0.1209079218
O  O35  1  0.26310000  0.74920000  0.58190000  1.0 -0.1209079218
O  O36  1  0.83270000  0.25080000  0.51390000  1.0 -0.1209079218
O  O37  1  0.51390000  0.26310000  0.68120000  1.0 -0.1209079218
O  O38  1  0.58190000  0.83270000  0.31880000  1.0 -0.1209079218
O  O39  1  0.41810000  0.73690000  0.25080000  1.0 -0.1209079218
O  O40  1  0.48610000  0.16730000  0.74920000  1.0 -0.1209079218
O  O41  1  0.68120000  0.51390000  0.26310000  1.0 -0.1209079218
O  O42  1  0.31880000  0.58190000  0.83270000  1.0 -0.1209079218
O  O43  1  0.25080000  0.41810000  0.73690000  1.0 -0.1209079218
O  O44  1  0.74920000  0.48610000  0.16730000  1.0 -0.1209079218
O  O45  1  0.26310000  0.68120000  0.51390000  1.0 -0.1209079218
O  O46  1  0.83270000  0.31880000  0.58190000  1.0 -0.1209079218
O  O47  1  0.73690000  0.25080000  0.41810000  1.0 -0.1209079218
O  O48  1  0.16730000  0.74920000  0.48610000  1.0 -0.1209079218
O  O49  1  0.51340000  0.68120000  0.26340000  1.0 -0.1209079218
O  O50  1  0.41780000  0.25000000  0.73660000  1.0 -0.1209079218
O  O51  1  0.58220000  0.31880000  0.83220000  1.0 -0.1209079218
O  O52  1  0.48660000  0.75000000  0.16780000  1.0 -0.1209079218
O  O53  1  0.26340000  0.51340000  0.68120000  1.0 -0.1209079218
O  O54  1  0.73660000  0.41780000  0.25000000  1.0 -0.1209079218
O  O55  1  0.83220000  0.58220000  0.31880000  1.0 -0.1209079218
O  O56  1  0.16780000  0.48660000  0.75000000  1.0 -0.1209079218
O  O57  1  0.68120000  0.26340000  0.51340000  1.0 -0.1209079218
O  O58  1  0.25000000  0.73660000  0.41780000  1.0 -0.1209079218
O  O59  1  0.31880000  0.83220000  0.58220000  1.0 -0.1209079218
O  O60  1  0.75000000  0.16780000  0.48660000  1.0 -0.1209079218
O  O61  1  0.48660000  0.31880000  0.73660000  1.0 -0.1209079218
O  O62  1  0.58220000  0.75000000  0.26340000  1.0 -0.1209079218
O  O63  1  0.41780000  0.68120000  0.16780000  1.0 -0.1209079218
O  O64  1  0.51340000  0.25000000  0.83220000  1.0 -0.1209079218
O  O65  1  0.73660000  0.48660000  0.31880000  1.0 -0.1209079218
O  O66  1  0.26340000  0.58220000  0.75000000  1.0 -0.1209079218
O  O67  1  0.16780000  0.41780000  0.68120000  1.0 -0.1209079218
O  O68  1  0.83220000  0.51340000  0.25000000  1.0 -0.1209079218
O  O69  1  0.31880000  0.73660000  0.48660000  1.0 -0.1209079218
O  O70  1  0.75000000  0.26340000  0.58220000  1.0 -0.1209079218
O  O71  1  0.68120000  0.16780000  0.41780000  1.0 -0.1209079218
O  O72  1  0.25000000  0.83220000  0.51340000  1.0 -0.1209079218
O  O73  1  0.51430000  0.74920000  0.33150000  1.0 -0.13224278
O  O74  1  0.41770000  0.18280000  0.66850000  1.0 -0.13224278
O  O75  1  0.58230000  0.25080000  0.76510000  1.0 -0.13224278
O  O76  1  0.48570000  0.81720000  0.23490000  1.0 -0.13224278
O  O77  1  0.33150000  0.51430000  0.74920000  1.0 -0.13224278
O  O78  1  0.66850000  0.41770000  0.18280000  1.0 -0.13224278
O  O79  1  0.76510000  0.58230000  0.25080000  1.0 -0.13224278
O  O80  1  0.23490000  0.48570000  0.81720000  1.0 -0.13224278
O  O81  1  0.74920000  0.33150000  0.51430000  1.0 -0.13224278
O  O82  1  0.18280000  0.66850000  0.41770000  1.0 -0.13224278
O  O83  1  0.25080000  0.76510000  0.58230000  1.0 -0.13224278
O  O84  1  0.81720000  0.23490000  0.48570000  1.0 -0.13224278
O  O85  1  0.48570000  0.25080000  0.66850000  1.0 -0.13224278
O  O86  1  0.58230000  0.81720000  0.33150000  1.0 -0.13224278
O  O87  1  0.41770000  0.74920000  0.23490000  1.0 -0.13224278
O  O88  1  0.51430000  0.18280000  0.76510000  1.0 -0.13224278
O  O89  1  0.66850000  0.48570000  0.25080000  1.0 -0.13224278
O  O90  1  0.33150000  0.58230000  0.81720000  1.0 -0.13224278
O  O91  1  0.23490000  0.41770000  0.74920000  1.0 -0.13224278
O  O92  1  0.76510000  0.51430000  0.18280000  1.0 -0.13224278
O  O93  1  0.25080000  0.66850000  0.48570000  1.0 -0.13224278
O  O94  1  0.81720000  0.33150000  0.58230000  1.0 -0.13224278
O  O95  1  0.74920000  0.23490000  0.41770000  1.0 -0.13224278
O  O96  1  0.18280000  0.76510000  0.51430000  1.0 -0.13224278
