# DDEC6 charges by PACMAN v1.1 (https://github.com/mtap-research/PACMAN-charge/)
data_VOYGOH_ASR_pacman
_symmetry_space_group_name_H-M   'P 1'
_cell_length_a   21.68540000
_cell_length_b   29.72760000
_cell_length_c   38.94140000
_cell_angle_alpha   90.00000000
_cell_angle_beta   117.26300000
_cell_angle_gamma   90.00000000
_symmetry_Int_Tables_number   1
_chemical_formula_structural   Zn4Mo12PH12C21O34
_chemical_formula_sum   'Zn32 Mo96 P8 H96 C168 O272'
_cell_volume   22315.06813464
_cell_formula_units_Z   8
loop_
 _symmetry_equiv_pos_site_id
 _symmetry_equiv_pos_as_xyz
  1  'x, y, z'
loop_
 _atom_site_type_symbol
 _atom_site_label
 _atom_site_symmetry_multiplicity
 _atom_site_fract_x
 _atom_site_fract_y
 _atom_site_fract_z
 _atom_site_occupancy
 _atom_site_charge
Zn  Zn1  1  0.91577000  0.02877000  0.98320000  1.0 1.0206465513
Zn  Zn2  1  0.08423000  0.52877000  0.51680000  1.0 1.0206465513
Zn  Zn3  1  0.08423000  0.97123000  0.01680000  1.0 1.0206465513
Zn  Zn4  1  0.91577000  0.47123000  0.48320000  1.0 1.0206465513
Zn  Zn5  1  0.80925000  0.86935000  0.86955000  1.0 1.0106907437
Zn  Zn6  1  0.19075000  0.36935000  0.63045000  1.0 1.0106907437
Zn  Zn7  1  0.19075000  0.13065000  0.13045000  1.0 1.0106907437
Zn  Zn8  1  0.80925000  0.63065000  0.36955000  1.0 1.0106907437
Zn  Zn9  1  0.81433000  0.84881000  0.01832000  1.0 1.0106907437
Zn  Zn10  1  0.18567000  0.34881000  0.48168000  1.0 1.0106907437
Zn  Zn11  1  0.18567000  0.15119000  0.98168000  1.0 1.0106907437
Zn  Zn12  1  0.81433000  0.65119000  0.51832000  1.0 1.0106907437
Zn  Zn13  1  0.61844000  0.99119000  0.90655000  1.0 1.0206465513
Zn  Zn14  1  0.38156000  0.49119000  0.59345000  1.0 1.0206465513
Zn  Zn15  1  0.38156000  0.00881000  0.09345000  1.0 1.0206465513
Zn  Zn16  1  0.61844000  0.50881000  0.40655000  1.0 1.0206465513
Zn  Zn17  1  0.58892000  0.97418000  0.52336000  1.0 1.0206465513
Zn  Zn18  1  0.41108000  0.47418000  0.97664000  1.0 1.0262686004
Zn  Zn19  1  0.41108000  0.02582000  0.47664000  1.0 1.0206465513
Zn  Zn20  1  0.58892000  0.52582000  0.02336000  1.0 1.0262686004
Zn  Zn21  1  0.67475000  0.15945000  0.60283000  1.0 1.0106907437
Zn  Zn22  1  0.32525000  0.65945000  0.89717000  1.0 1.0106907437
Zn  Zn23  1  0.32525000  0.84055000  0.39717000  1.0 1.0106907437
Zn  Zn24  1  0.67475000  0.34055000  0.10283000  1.0 1.0106907437
Zn  Zn25  1  0.66863000  0.13614000  0.45497000  1.0 1.0031295608
Zn  Zn26  1  0.33137000  0.63614000  0.04503000  1.0 1.0106907437
Zn  Zn27  1  0.33137000  0.86386000  0.54503000  1.0 1.0031295608
Zn  Zn28  1  0.66863000  0.36386000  0.95497000  1.0 1.0031295608
Zn  Zn29  1  0.87910000  0.02648000  0.59029000  1.0 1.0206465513
Zn  Zn30  1  0.12090000  0.52648000  0.90971000  1.0 1.0106907437
Zn  Zn31  1  0.12090000  0.97352000  0.40971000  1.0 1.0106907437
Zn  Zn32  1  0.87910000  0.47352000  0.09029000  1.0 1.0206465513
Mo  Mo1  1  0.95885000  0.91720000  0.03051000  1.0 1.6592485895
Mo  Mo2  1  0.04115000  0.41720000  0.46949000  1.0 1.6505981674
Mo  Mo3  1  0.04115000  0.08280000  0.96949000  1.0 1.6505981674
Mo  Mo4  1  0.95885000  0.58280000  0.53051000  1.0 1.6592485895
Mo  Mo5  1  0.95401000  0.92903000  0.93985000  1.0 1.6505981674
Mo  Mo6  1  0.04599000  0.42903000  0.56015000  1.0 1.6505981674
Mo  Mo7  1  0.04599000  0.07097000  0.06015000  1.0 1.6505981674
Mo  Mo8  1  0.95401000  0.57097000  0.43985000  1.0 1.6699347486
Mo  Mo9  1  0.75738000  0.04081000  0.98665000  1.0 2.0495719502
Mo  Mo10  1  0.24262000  0.54081000  0.51335000  1.0 2.0495719502
Mo  Mo11  1  0.24262000  0.95919000  0.01335000  1.0 2.0386480084
Mo  Mo12  1  0.75738000  0.45919000  0.48665000  1.0 2.0495719502
Mo  Mo13  1  0.75441000  0.05207000  0.90438000  1.0 2.0742424717
Mo  Mo14  1  0.24559000  0.55207000  0.59562000  1.0 2.0742424717
Mo  Mo15  1  0.24559000  0.94793000  0.09562000  1.0 2.0795167079
Mo  Mo16  1  0.75441000  0.44793000  0.40438000  1.0 2.0795167079
Mo  Mo17  1  0.86942000  0.98603000  0.88904000  1.0 1.8615444442
Mo  Mo18  1  0.13058000  0.48603000  0.61096000  1.0 1.8615444442
Mo  Mo19  1  0.13058000  0.01397000  0.11096000  1.0 1.8615444442
Mo  Mo20  1  0.86942000  0.51397000  0.38904000  1.0 1.8680177785
Mo  Mo21  1  0.87491000  0.96412000  0.04786000  1.0 1.8502471884
Mo  Mo22  1  0.12509000  0.46412000  0.45214000  1.0 1.8502471884
Mo  Mo23  1  0.12509000  0.03588000  0.95214000  1.0 1.8401037445
Mo  Mo24  1  0.87491000  0.53588000  0.54786000  1.0 1.8502471884
Mo  Mo25  1  0.69139000  0.94157000  0.00033000  1.0 1.8880742331
Mo  Mo26  1  0.30861000  0.44157000  0.49967000  1.0 1.8680177785
Mo  Mo27  1  0.30861000  0.05843000  0.99967000  1.0 1.8880742331
Mo  Mo28  1  0.69139000  0.55843000  0.50033000  1.0 1.8797991385
Mo  Mo29  1  0.90319000  0.83074000  0.96494000  1.0 2.0795167079
Mo  Mo30  1  0.09681000  0.33074000  0.53506000  1.0 2.0795167079
Mo  Mo31  1  0.09681000  0.16926000  0.03506000  1.0 2.0795167079
Mo  Mo32  1  0.90319000  0.66926000  0.46494000  1.0 2.0906820288
Mo  Mo33  1  0.74045000  0.81127000  0.92153000  1.0 2.0795167079
Mo  Mo34  1  0.25955000  0.31127000  0.57847000  1.0 2.0795167079
Mo  Mo35  1  0.25955000  0.18873000  0.07847000  1.0 2.0795167079
Mo  Mo36  1  0.74045000  0.68873000  0.42153000  1.0 2.0906820288
Mo  Mo37  1  0.64147000  0.87758000  0.94893000  1.0 1.8680177785
Mo  Mo38  1  0.35853000  0.37758000  0.55107000  1.0 1.8680177785
Mo  Mo39  1  0.35853000  0.12242000  0.05107000  1.0 1.8797991385
Mo  Mo40  1  0.64147000  0.62242000  0.44893000  1.0 1.8680177785
Mo  Mo41  1  0.63805000  0.89054000  0.85620000  1.0 1.8615444442
Mo  Mo42  1  0.36195000  0.39054000  0.64380000  1.0 1.8615444442
Mo  Mo43  1  0.36195000  0.10946000  0.14380000  1.0 1.8797991385
Mo  Mo44  1  0.63805000  0.60946000  0.35620000  1.0 1.8797991385
Mo  Mo45  1  0.68619000  0.96407000  0.84097000  1.0 1.8797991385
Mo  Mo46  1  0.31381000  0.46407000  0.65903000  1.0 1.8880742331
Mo  Mo47  1  0.31381000  0.03593000  0.15903000  1.0 1.8880742331
Mo  Mo48  1  0.68619000  0.53593000  0.34097000  1.0 1.8880742331
Mo  Mo49  1  0.53323000  0.07002000  0.45573000  1.0 1.6592485895
Mo  Mo50  1  0.46677000  0.57002000  0.04427000  1.0 1.6505981674
Mo  Mo51  1  0.46677000  0.92998000  0.54427000  1.0 1.6505981674
Mo  Mo52  1  0.53323000  0.42998000  0.95573000  1.0 1.6592485895
Mo  Mo53  1  0.53756000  0.08406000  0.54601000  1.0 1.6505981674
Mo  Mo54  1  0.46244000  0.58406000  0.95399000  1.0 1.6505981674
Mo  Mo55  1  0.46244000  0.91594000  0.45399000  1.0 1.6505981674
Mo  Mo56  1  0.53756000  0.41594000  0.04601000  1.0 1.6592485895
Mo  Mo57  1  0.62877000  0.04146000  0.60666000  1.0 1.8502471884
Mo  Mo58  1  0.37123000  0.54146000  0.89334000  1.0 1.8401037445
Mo  Mo59  1  0.37123000  0.95854000  0.39334000  1.0 1.8401037445
Mo  Mo60  1  0.62877000  0.45854000  0.10666000  1.0 1.8502471884
Mo  Mo61  1  0.62235000  0.01709000  0.44754000  1.0 1.8502471884
Mo  Mo62  1  0.37765000  0.51709000  0.05246000  1.0 1.8502471884
Mo  Mo63  1  0.37765000  0.98291000  0.55246000  1.0 1.8401037445
Mo  Mo64  1  0.62235000  0.48291000  0.94754000  1.0 1.8502471884
Mo  Mo65  1  0.75217000  0.96974000  0.60553000  1.0 2.0906820288
Mo  Mo66  1  0.24783000  0.46974000  0.89447000  1.0 2.0906820288
Mo  Mo67  1  0.24783000  0.03026000  0.39447000  1.0 2.0906820288
Mo  Mo68  1  0.75217000  0.53026000  0.10553000  1.0 2.1053699245
Mo  Mo69  1  0.57644000  0.17198000  0.50277000  1.0 2.0795167079
Mo  Mo70  1  0.42356000  0.67198000  0.99723000  1.0 2.0795167079
Mo  Mo71  1  0.42356000  0.82802000  0.49723000  1.0 2.0795167079
Mo  Mo72  1  0.57644000  0.32802000  0.00277000  1.0 2.0795167079
Mo  Mo73  1  0.73635000  0.19942000  0.53982000  1.0 2.0906820288
Mo  Mo74  1  0.26365000  0.69942000  0.96018000  1.0 2.0906820288
Mo  Mo75  1  0.26365000  0.80058000  0.46018000  1.0 2.0906820288
Mo  Mo76  1  0.73635000  0.30058000  0.03982000  1.0 2.098577856
Mo  Mo77  1  0.74867000  0.95796000  0.52310000  1.0 2.0386480084
Mo  Mo78  1  0.25133000  0.45796000  0.97690000  1.0 2.0386480084
Mo  Mo79  1  0.25133000  0.04204000  0.47690000  1.0 2.0386480084
Mo  Mo80  1  0.74867000  0.54204000  0.02310000  1.0 2.0294343223
Mo  Mo81  1  0.80308000  0.04881000  0.48992000  1.0 1.8797991385
Mo  Mo82  1  0.19692000  0.54881000  0.01008000  1.0 1.8880742331
Mo  Mo83  1  0.19692000  0.95119000  0.51008000  1.0 1.8797991385
Mo  Mo84  1  0.80308000  0.45119000  0.98992000  1.0 1.8797991385
Mo  Mo85  1  0.80876000  0.07241000  0.64873000  1.0 1.8880742331
Mo  Mo86  1  0.19124000  0.57241000  0.85127000  1.0 1.8880742331
Mo  Mo87  1  0.19124000  0.92759000  0.35127000  1.0 1.8797991385
Mo  Mo88  1  0.80876000  0.42759000  0.14873000  1.0 1.9025095691
Mo  Mo89  1  0.84717000  0.13875000  0.61886000  1.0 1.8680177785
Mo  Mo90  1  0.15283000  0.63875000  0.88114000  1.0 1.8680177785
Mo  Mo91  1  0.15283000  0.86125000  0.38114000  1.0 1.8615444442
Mo  Mo92  1  0.84717000  0.36125000  0.11886000  1.0 1.8797991385
Mo  Mo93  1  0.84507000  0.12503000  0.52673000  1.0 1.8615444442
Mo  Mo94  1  0.15493000  0.62503000  0.97327000  1.0 1.8680177785
Mo  Mo95  1  0.15493000  0.87497000  0.47327000  1.0 1.8615444442
Mo  Mo96  1  0.84507000  0.37497000  0.02673000  1.0 1.8680177785
P  P1  1  0.78836000  0.93337000  0.94407000  1.0 1.411781921
P  P2  1  0.21164000  0.43337000  0.55593000  1.0 1.411781921
P  P3  1  0.21164000  0.06663000  0.05593000  1.0 1.411781921
P  P4  1  0.78836000  0.56663000  0.44407000  1.0 1.411781921
P  P5  1  0.70436000  0.07498000  0.54301000  1.0 1.411781921
P  P6  1  0.29564000  0.57498000  0.95699000  1.0 1.411781921
P  P7  1  0.29564000  0.92502000  0.45699000  1.0 1.411781921
P  P8  1  0.70436000  0.42502000  0.04301000  1.0 1.411781921
H  H1  1  0.80960000  0.72250000  0.28790000  1.0 0.096394746
H  H2  1  0.19040000  0.22250000  0.21210000  1.0 0.096394746
H  H3  1  0.19040000  0.27750000  0.71210000  1.0 0.096394746
H  H4  1  0.80960000  0.77750000  0.78790000  1.0 0.096394746
H  H5  1  0.81220000  0.76370000  0.23840000  1.0 0.0919397539
H  H6  1  0.18780000  0.26370000  0.26160000  1.0 0.0919397539
H  H7  1  0.18780000  0.23630000  0.76160000  1.0 0.0919397539
H  H8  1  0.81220000  0.73630000  0.73840000  1.0 0.0919397539
H  H9  1  0.81470000  0.65120000  0.18530000  1.0 0.0919397539
H  H10  1  0.18530000  0.15120000  0.31470000  1.0 0.0919397539
H  H11  1  0.18530000  0.34880000  0.81470000  1.0 0.0919397539
H  H12  1  0.81470000  0.84880000  0.68530000  1.0 0.0919397539
H  H13  1  0.81690000  0.61060000  0.23620000  1.0 0.0919397539
H  H14  1  0.18310000  0.11060000  0.26380000  1.0 0.0919397539
H  H15  1  0.18310000  0.38940000  0.76380000  1.0 0.0919397539
H  H16  1  0.81690000  0.88940000  0.73620000  1.0 0.0919397539
H  H17  1  0.78820000  0.79710000  0.19150000  1.0 0.0919397539
H  H18  1  0.21180000  0.29710000  0.30850000  1.0 0.0919397539
H  H19  1  0.21180000  0.20290000  0.80850000  1.0 0.0919397539
H  H20  1  0.78820000  0.70290000  0.69150000  1.0 0.0919397539
H  H21  1  0.78860000  0.84320000  0.14370000  1.0 0.0919397539
H  H22  1  0.21140000  0.34320000  0.35630000  1.0 0.0919397539
H  H23  1  0.21140000  0.15680000  0.85630000  1.0 0.0919397539
H  H24  1  0.78860000  0.65680000  0.64370000  1.0 0.0919397539
H  H25  1  0.83000000  0.73790000  0.09630000  1.0 0.096394746
H  H26  1  0.17000000  0.23790000  0.40370000  1.0 0.0919397539
H  H27  1  0.17000000  0.26210000  0.90370000  1.0 0.096394746
H  H28  1  0.83000000  0.76210000  0.59630000  1.0 0.0919397539
H  H29  1  0.83170000  0.69300000  0.14520000  1.0 0.0919397539
H  H30  1  0.16830000  0.19300000  0.35480000  1.0 0.0919397539
H  H31  1  0.16830000  0.30700000  0.85480000  1.0 0.0919397539
H  H32  1  0.83170000  0.80700000  0.64520000  1.0 0.0919397539
H  H33  1  0.05750000  0.98290000  0.68900000  1.0 0.096394746
H  H34  1  0.94250000  0.48290000  0.81100000  1.0 0.096394746
H  H35  1  0.94250000  0.01710000  0.31100000  1.0 0.096394746
H  H36  1  0.05750000  0.51710000  0.18900000  1.0 0.096394746
H  H37  1  0.16280000  0.97110000  0.74220000  1.0 0.0919397539
H  H38  1  0.83720000  0.47110000  0.75780000  1.0 0.0919397539
H  H39  1  0.83720000  0.02890000  0.25780000  1.0 0.0919397539
H  H40  1  0.16280000  0.52890000  0.24220000  1.0 0.0919397539
H  H41  1  0.24260000  0.07370000  0.71130000  1.0 0.096394746
H  H42  1  0.75740000  0.57370000  0.78870000  1.0 0.0919397539
H  H43  1  0.75740000  0.92630000  0.28870000  1.0 0.0919397539
H  H44  1  0.24260000  0.42630000  0.21130000  1.0 0.096394746
H  H45  1  0.13690000  0.08850000  0.66040000  1.0 0.0919397539
H  H46  1  0.86310000  0.58850000  0.83960000  1.0 0.0919397539
H  H47  1  0.86310000  0.91150000  0.33960000  1.0 0.0919397539
H  H48  1  0.13690000  0.41150000  0.16040000  1.0 0.0919397539
H  H49  1  0.26950000  0.94510000  0.76910000  1.0 0.0919397539
H  H50  1  0.73050000  0.44510000  0.73090000  1.0 0.0919397539
H  H51  1  0.73050000  0.05490000  0.23090000  1.0 0.0919397539
H  H52  1  0.26950000  0.55490000  0.26910000  1.0 0.0919397539
H  H53  1  0.37750000  0.92920000  0.81950000  1.0 0.096394746
H  H54  1  0.62250000  0.42920000  0.68050000  1.0 0.096394746
H  H55  1  0.62250000  0.07080000  0.18050000  1.0 0.096394746
H  H56  1  0.37750000  0.57080000  0.31950000  1.0 0.096394746
H  H57  1  0.42630000  0.05840000  0.82730000  1.0 0.096394746
H  H58  1  0.57370000  0.55840000  0.67270000  1.0 0.096394746
H  H59  1  0.57370000  0.94160000  0.17270000  1.0 0.096394746
H  H60  1  0.42630000  0.44160000  0.32730000  1.0 0.096394746
H  H61  1  0.32110000  0.07330000  0.77520000  1.0 0.096394746
H  H62  1  0.67890000  0.57330000  0.72480000  1.0 0.096394746
H  H63  1  0.67890000  0.92670000  0.22480000  1.0 0.096394746
H  H64  1  0.32110000  0.42670000  0.27520000  1.0 0.096394746
H  H65  1  0.65300000  0.16130000  0.72820000  1.0 0.0919397539
H  H66  1  0.34700000  0.66130000  0.77180000  1.0 0.0919397539
H  H67  1  0.34700000  0.83870000  0.27180000  1.0 0.0919397539
H  H68  1  0.65300000  0.33870000  0.22820000  1.0 0.0919397539
H  H69  1  0.65580000  0.20580000  0.77750000  1.0 0.0919397539
H  H70  1  0.34420000  0.70580000  0.72250000  1.0 0.0919397539
H  H71  1  0.34420000  0.79420000  0.22250000  1.0 0.0919397539
H  H72  1  0.65580000  0.29420000  0.27750000  1.0 0.0919397539
H  H73  1  0.73500000  0.30620000  0.74450000  1.0 0.0919397539
H  H74  1  0.26500000  0.80620000  0.75550000  1.0 0.0919397539
H  H75  1  0.26500000  0.69380000  0.25550000  1.0 0.0919397539
H  H76  1  0.73500000  0.19380000  0.24450000  1.0 0.0919397539
H  H77  1  0.72860000  0.26300000  0.69320000  1.0 0.0919397539
H  H78  1  0.27140000  0.76300000  0.80680000  1.0 0.0919397539
H  H79  1  0.27140000  0.73700000  0.30680000  1.0 0.0919397539
H  H80  1  0.72860000  0.23700000  0.19320000  1.0 0.0919397539
H  H81  1  0.71760000  0.23690000  0.83590000  1.0 0.0919397539
H  H82  1  0.28240000  0.73690000  0.66410000  1.0 0.0919397539
H  H83  1  0.28240000  0.76310000  0.16410000  1.0 0.096394746
H  H84  1  0.71760000  0.26310000  0.33590000  1.0 0.0919397539
H  H85  1  0.71230000  0.27860000  0.88480000  1.0 0.096394746
H  H86  1  0.28770000  0.77860000  0.61520000  1.0 0.096394746
H  H87  1  0.28770000  0.72140000  0.11520000  1.0 0.0919397539
H  H88  1  0.71230000  0.22140000  0.38480000  1.0 0.096394746
H  H89  1  0.66370000  0.38760000  0.81920000  1.0 0.096394746
H  H90  1  0.33630000  0.88760000  0.68080000  1.0 0.096394746
H  H91  1  0.33630000  0.61240000  0.18080000  1.0 0.096394746
H  H92  1  0.66370000  0.11240000  0.31920000  1.0 0.096394746
H  H93  1  0.67240000  0.34720000  0.77120000  1.0 0.096394746
H  H94  1  0.32760000  0.84720000  0.72880000  1.0 0.0919397539
H  H95  1  0.32760000  0.65280000  0.22880000  1.0 0.0919397539
H  H96  1  0.67240000  0.15280000  0.27120000  1.0 0.096394746
C  C1  1  0.81050000  0.63580000  0.30010000  1.0 0.5029121702
C  C2  1  0.18950000  0.13580000  0.19990000  1.0 0.5029121702
C  C3  1  0.18950000  0.36420000  0.69990000  1.0 0.5029121702
C  C4  1  0.81050000  0.86420000  0.80010000  1.0 0.5029121702
C  C5  1  0.81250000  0.66220000  0.26720000  1.0 -0.0590290019
C  C6  1  0.18750000  0.16220000  0.23280000  1.0 -0.0590290019
C  C7  1  0.18750000  0.33780000  0.73280000  1.0 -0.0590290019
C  C8  1  0.81250000  0.83780000  0.76720000  1.0 -0.0590290019
C  C9  1  0.81100000  0.70750000  0.26730000  1.0 -0.1097289761
C  C10  1  0.18900000  0.20750000  0.23270000  1.0 -0.1168187705
C  C11  1  0.18900000  0.29250000  0.73270000  1.0 -0.1168187705
C  C12  1  0.81100000  0.79250000  0.76730000  1.0 -0.1097289761
C  C13  1  0.81170000  0.73250000  0.23710000  1.0 -0.1728975152
C  C14  1  0.18830000  0.23250000  0.26290000  1.0 -0.1728975152
C  C15  1  0.18830000  0.26750000  0.76290000  1.0 -0.1728975152
C  C16  1  0.81170000  0.76750000  0.73710000  1.0 -0.1728975152
C  C17  1  0.81160000  0.71200000  0.20560000  1.0 0.0479654594
C  C18  1  0.18840000  0.21200000  0.29440000  1.0 0.0479654594
C  C19  1  0.18840000  0.28800000  0.79440000  1.0 0.0479654594
C  C20  1  0.81160000  0.78800000  0.70560000  1.0 0.0479654594
C  C21  1  0.81390000  0.66630000  0.20600000  1.0 -0.1728975152
C  C22  1  0.18610000  0.16630000  0.29400000  1.0 -0.1728975152
C  C23  1  0.18610000  0.33370000  0.79400000  1.0 -0.1728975152
C  C24  1  0.81390000  0.83370000  0.70600000  1.0 -0.1728975152
C  C25  1  0.81480000  0.64180000  0.23670000  1.0 -0.1097289761
C  C26  1  0.18520000  0.14180000  0.26330000  1.0 -0.1097289761
C  C27  1  0.18520000  0.35820000  0.76330000  1.0 -0.1097289761
C  C28  1  0.81480000  0.85820000  0.73670000  1.0 -0.1097289761
C  C29  1  0.81110000  0.74040000  0.17370000  1.0 0.0479654594
C  C30  1  0.18890000  0.24040000  0.32630000  1.0 0.0479654594
C  C31  1  0.18890000  0.25960000  0.82630000  1.0 0.0479654594
C  C32  1  0.81110000  0.75960000  0.67370000  1.0 0.0479654594
C  C33  1  0.79790000  0.78470000  0.17260000  1.0 -0.1796165268
C  C34  1  0.20210000  0.28470000  0.32740000  1.0 -0.1796165268
C  C35  1  0.20210000  0.21530000  0.82740000  1.0 -0.1796165268
C  C36  1  0.79790000  0.71530000  0.67260000  1.0 -0.1796165268
C  C37  1  0.79800000  0.81270000  0.14370000  1.0 -0.1097289761
C  C38  1  0.20200000  0.31270000  0.35630000  1.0 -0.1097289761
C  C39  1  0.20200000  0.18730000  0.85630000  1.0 -0.1097289761
C  C40  1  0.79800000  0.68730000  0.64370000  1.0 -0.1097289761
C  C41  1  0.81170000  0.79560000  0.11570000  1.0 -0.0590290019
C  C42  1  0.18830000  0.29560000  0.38430000  1.0 -0.0590290019
C  C43  1  0.18830000  0.20440000  0.88430000  1.0 -0.0590290019
C  C44  1  0.81170000  0.70440000  0.61570000  1.0 -0.0590290019
C  C45  1  0.82270000  0.75070000  0.11590000  1.0 -0.1097289761
C  C46  1  0.17730000  0.25070000  0.38410000  1.0 -0.1097289761
C  C47  1  0.17730000  0.24930000  0.88410000  1.0 -0.1097289761
C  C48  1  0.82270000  0.74930000  0.61590000  1.0 -0.1097289761
C  C49  1  0.82300000  0.72370000  0.14530000  1.0 -0.1728975152
C  C50  1  0.17700000  0.22370000  0.35470000  1.0 -0.1796165268
C  C51  1  0.17700000  0.27630000  0.85470000  1.0 -0.1728975152
C  C52  1  0.82300000  0.77630000  0.64530000  1.0 -0.1796165268
C  C53  1  0.81290000  0.82710000  0.08530000  1.0 0.5029121702
C  C54  1  0.18710000  0.32710000  0.41470000  1.0 0.5029121702
C  C55  1  0.18710000  0.17290000  0.91470000  1.0 0.5029121702
C  C56  1  0.81290000  0.67290000  0.58530000  1.0 0.5029121702
C  C57  1  0.01670000  0.04590000  0.63480000  1.0 0.5153754046
C  C58  1  0.98330000  0.54590000  0.86520000  1.0 0.5153754046
C  C59  1  0.98330000  0.95410000  0.36520000  1.0 0.5153754046
C  C60  1  0.01670000  0.45410000  0.13480000  1.0 0.5153754046
C  C61  1  0.08600000  0.03630000  0.66840000  1.0 -0.0762252696
C  C62  1  0.91400000  0.53630000  0.83160000  1.0 -0.0762252696
C  C63  1  0.91400000  0.96370000  0.33160000  1.0 -0.0715370784
C  C64  1  0.08600000  0.46370000  0.16840000  1.0 -0.0762252696
C  C65  1  0.09470000  0.00170000  0.69340000  1.0 -0.1035874626
C  C66  1  0.90530000  0.50170000  0.80660000  1.0 -0.1035874626
C  C67  1  0.90530000  0.99830000  0.30660000  1.0 -0.1035874626
C  C68  1  0.09470000  0.49830000  0.19340000  1.0 -0.1035874626
C  C69  1  0.15830000  0.99440000  0.72530000  1.0 -0.1796165268
C  C70  1  0.84170000  0.49440000  0.77470000  1.0 -0.1796165268
C  C71  1  0.84170000  0.00560000  0.27470000  1.0 -0.1796165268
C  C72  1  0.15830000  0.50560000  0.22530000  1.0 -0.1796165268
C  C73  1  0.21460000  0.02070000  0.73250000  1.0 0.0441058529
C  C74  1  0.78540000  0.52070000  0.76750000  1.0 0.0479654594
C  C75  1  0.78540000  0.97930000  0.26750000  1.0 0.0441058529
C  C76  1  0.21460000  0.47930000  0.23250000  1.0 0.0479654594
C  C77  1  0.20510000  0.05540000  0.70730000  1.0 -0.1728975152
C  C78  1  0.79490000  0.55540000  0.79270000  1.0 -0.1728975152
C  C79  1  0.79490000  0.94460000  0.29270000  1.0 -0.1728975152
C  C80  1  0.20510000  0.44460000  0.20730000  1.0 -0.1728975152
C  C81  1  0.14200000  0.06390000  0.67630000  1.0 -0.1097289761
C  C82  1  0.85800000  0.56390000  0.82370000  1.0 -0.1097289761
C  C83  1  0.85800000  0.93610000  0.32370000  1.0 -0.1097289761
C  C84  1  0.14200000  0.43610000  0.17630000  1.0 -0.1097289761
C  C85  1  0.28320000  0.01130000  0.76590000  1.0 0.0479654594
C  C86  1  0.71680000  0.51130000  0.73410000  1.0 0.0479654594
C  C87  1  0.71680000  0.98870000  0.23410000  1.0 0.0479654594
C  C88  1  0.28320000  0.48870000  0.26590000  1.0 0.0479654594
C  C89  1  0.30130000  0.96840000  0.78030000  1.0 -0.1856379221
C  C90  1  0.69870000  0.46840000  0.71970000  1.0 -0.1856379221
C  C91  1  0.69870000  0.03160000  0.21970000  1.0 -0.1856379221
C  C92  1  0.30130000  0.53160000  0.28030000  1.0 -0.1856379221
C  C93  1  0.36570000  0.95870000  0.81100000  1.0 -0.1168187705
C  C94  1  0.63430000  0.45870000  0.68900000  1.0 -0.1168187705
C  C95  1  0.63430000  0.04130000  0.18900000  1.0 -0.1168187705
C  C96  1  0.36570000  0.54130000  0.31100000  1.0 -0.1168187705
C  C97  1  0.41160000  0.99270000  0.82870000  1.0 -0.0590290019
C  C98  1  0.58840000  0.49270000  0.67130000  1.0 -0.0590290019
C  C99  1  0.58840000  0.00730000  0.17130000  1.0 -0.0590290019
C  C100  1  0.41160000  0.50730000  0.32870000  1.0 -0.0590290019
C  C101  1  0.39500000  0.03510000  0.81540000  1.0 -0.1035874626
C  C102  1  0.60500000  0.53510000  0.68460000  1.0 -0.1035874626
C  C103  1  0.60500000  0.96490000  0.18460000  1.0 -0.1035874626
C  C104  1  0.39500000  0.46490000  0.31540000  1.0 -0.1035874626
C  C105  1  0.33130000  0.04390000  0.78410000  1.0 -0.1796165268
C  C106  1  0.66870000  0.54390000  0.71590000  1.0 -0.1796165268
C  C107  1  0.66870000  0.95610000  0.21590000  1.0 -0.1796165268
C  C108  1  0.33130000  0.45610000  0.28410000  1.0 -0.1796165268
C  C109  1  0.48160000  0.98050000  0.86210000  1.0 0.5095985671
C  C110  1  0.51840000  0.48050000  0.63790000  1.0 0.5095985671
C  C111  1  0.51840000  0.01950000  0.13790000  1.0 0.5095985671
C  C112  1  0.48160000  0.51950000  0.36210000  1.0 0.5095985671
C  C113  1  0.68580000  0.17790000  0.67360000  1.0 0.5095985671
C  C114  1  0.31420000  0.67790000  0.82640000  1.0 0.5095985671
C  C115  1  0.31420000  0.82210000  0.32640000  1.0 0.5095985671
C  C116  1  0.68580000  0.32210000  0.17360000  1.0 0.5095985671
C  C117  1  0.69050000  0.20730000  0.70610000  1.0 -0.0715370784
C  C118  1  0.30950000  0.70730000  0.79390000  1.0 -0.0715370784
C  C119  1  0.30950000  0.79270000  0.29390000  1.0 -0.0715370784
C  C120  1  0.69050000  0.29270000  0.20610000  1.0 -0.0762252696
C  C121  1  0.66940000  0.19070000  0.73100000  1.0 -0.1097289761
C  C122  1  0.33060000  0.69070000  0.76900000  1.0 -0.1097289761
C  C123  1  0.33060000  0.80930000  0.26900000  1.0 -0.1097289761
C  C124  1  0.66940000  0.30930000  0.23100000  1.0 -0.1097289761
C  C125  1  0.67180000  0.21760000  0.76090000  1.0 -0.1728975152
C  C126  1  0.32820000  0.71760000  0.73910000  1.0 -0.1728975152
C  C127  1  0.32820000  0.78240000  0.23910000  1.0 -0.1728975152
C  C128  1  0.67180000  0.28240000  0.26090000  1.0 -0.1728975152
C  C129  1  0.69620000  0.26000000  0.76650000  1.0 0.0441058529
C  C130  1  0.30380000  0.76000000  0.73350000  1.0 0.0441058529
C  C131  1  0.30380000  0.74000000  0.23350000  1.0 0.0441058529
C  C132  1  0.69620000  0.24000000  0.26650000  1.0 0.0441058529
C  C133  1  0.71790000  0.27690000  0.74130000  1.0 -0.1796165268
C  C134  1  0.28210000  0.77690000  0.75870000  1.0 -0.1796165268
C  C135  1  0.28210000  0.72310000  0.25870000  1.0 -0.1796165268
C  C136  1  0.71790000  0.22310000  0.24130000  1.0 -0.1796165268
C  C137  1  0.71460000  0.25090000  0.71060000  1.0 -0.1097289761
C  C138  1  0.28540000  0.75090000  0.78940000  1.0 -0.1097289761
C  C139  1  0.28540000  0.74910000  0.28940000  1.0 -0.1097289761
C  C140  1  0.71460000  0.24910000  0.21060000  1.0 -0.1097289761
C  C141  1  0.69600000  0.28800000  0.79810000  1.0 0.0479654594
C  C142  1  0.30400000  0.78800000  0.70190000  1.0 0.0479654594
C  C143  1  0.30400000  0.71200000  0.20190000  1.0 0.0479654594
C  C144  1  0.69600000  0.21200000  0.29810000  1.0 0.0479654594
C  C145  1  0.70700000  0.26740000  0.83230000  1.0 -0.1728975152
C  C146  1  0.29300000  0.76740000  0.66770000  1.0 -0.1728975152
C  C147  1  0.29300000  0.73260000  0.16770000  1.0 -0.1728975152
C  C148  1  0.70700000  0.23260000  0.33230000  1.0 -0.1728975152
C  C149  1  0.70220000  0.29220000  0.86130000  1.0 -0.1097289761
C  C150  1  0.29780000  0.79220000  0.63870000  1.0 -0.1097289761
C  C151  1  0.29780000  0.70780000  0.13870000  1.0 -0.1097289761
C  C152  1  0.70220000  0.20780000  0.36130000  1.0 -0.1097289761
C  C153  1  0.68310000  0.33600000  0.85570000  1.0 -0.0715370784
C  C154  1  0.31690000  0.83600000  0.64430000  1.0 -0.0715370784
C  C155  1  0.31690000  0.66400000  0.14430000  1.0 -0.0715370784
C  C156  1  0.68310000  0.16400000  0.35570000  1.0 -0.0715370784
C  C157  1  0.67390000  0.35700000  0.82250000  1.0 -0.1097289761
C  C158  1  0.32610000  0.85700000  0.67750000  1.0 -0.1097289761
C  C159  1  0.32610000  0.64300000  0.17750000  1.0 -0.1097289761
C  C160  1  0.67390000  0.14300000  0.32250000  1.0 -0.1097289761
C  C161  1  0.67980000  0.33270000  0.79400000  1.0 -0.1728975152
C  C162  1  0.32020000  0.83270000  0.70600000  1.0 -0.1728975152
C  C163  1  0.32020000  0.66730000  0.20600000  1.0 -0.1728975152
C  C164  1  0.67980000  0.16730000  0.29400000  1.0 -0.1728975152
C  C165  1  0.67390000  0.36100000  0.88680000  1.0 0.5095985671
C  C166  1  0.32610000  0.86100000  0.61320000  1.0 0.5095985671
C  C167  1  0.32610000  0.63900000  0.11320000  1.0 0.5095985671
C  C168  1  0.67390000  0.13900000  0.38680000  1.0 0.5095985671
O  O1  1  0.99300000  0.07116000  0.00228000  1.0 -0.9665260258
O  O2  1  0.00700000  0.57116000  0.49772000  1.0 -0.9665260258
O  O3  1  0.00700000  0.92884000  0.99772000  1.0 -0.9665260258
O  O4  1  0.99300000  0.42884000  0.50228000  1.0 -0.9665260258
O  O5  1  0.92934000  0.98026000  0.02131000  1.0 -0.9289786744
O  O6  1  0.07066000  0.48026000  0.47869000  1.0 -0.9289786744
O  O7  1  0.07066000  0.01974000  0.97869000  1.0 -0.9289786744
O  O8  1  0.92934000  0.51974000  0.52131000  1.0 -0.9289786744
O  O9  1  0.92654000  0.99019000  0.94474000  1.0 -0.9215192734
O  O10  1  0.07346000  0.49019000  0.55526000  1.0 -0.9215192734
O  O11  1  0.07346000  0.00981000  0.05526000  1.0 -0.9215192734
O  O12  1  0.92654000  0.50981000  0.44474000  1.0 -0.9215192734
O  O13  1  0.86211000  0.91217000  0.96062000  1.0 -0.8902631569
O  O14  1  0.13789000  0.41217000  0.53938000  1.0 -0.8902631569
O  O15  1  0.13789000  0.08783000  0.03938000  1.0 -0.8902631569
O  O16  1  0.86211000  0.58783000  0.46062000  1.0 -0.8902631569
O  O17  1  0.81892000  0.04847000  0.96142000  1.0 -1.037952964
O  O18  1  0.18108000  0.54847000  0.53858000  1.0 -1.037952964
O  O19  1  0.18108000  0.95153000  0.03858000  1.0 -1.037952964
O  O20  1  0.81892000  0.45153000  0.46142000  1.0 -1.037952964
O  O21  1  0.87342000  0.92047000  0.88942000  1.0 -0.9215192734
O  O22  1  0.12658000  0.42047000  0.61058000  1.0 -0.9215192734
O  O23  1  0.12658000  0.07953000  0.11058000  1.0 -0.9215192734
O  O24  1  0.87342000  0.57953000  0.38942000  1.0 -0.9215192734
O  O25  1  0.94900000  0.86128000  0.94300000  1.0 -0.8788227915
O  O26  1  0.05100000  0.36128000  0.55700000  1.0 -0.8788227915
O  O27  1  0.05100000  0.13872000  0.05700000  1.0 -0.8704595618
O  O28  1  0.94900000  0.63872000  0.44300000  1.0 -0.8788227915
O  O29  1  0.82054000  0.82198000  0.97424000  1.0 -1.0329061359
O  O30  1  0.17946000  0.32198000  0.52576000  1.0 -1.037952964
O  O31  1  0.17946000  0.17802000  0.02576000  1.0 -1.037952964
O  O32  1  0.82054000  0.67802000  0.47424000  1.0 -1.037952964
O  O33  1  0.81937000  0.83044000  0.91217000  1.0 -1.0329061359
O  O34  1  0.18063000  0.33044000  0.58783000  1.0 -1.0329061359
O  O35  1  0.18063000  0.16956000  0.08783000  1.0 -1.037952964
O  O36  1  0.81937000  0.66956000  0.41217000  1.0 -1.0329061359
O  O37  1  0.69546000  0.03336000  0.92956000  1.0 -1.0329061359
O  O38  1  0.30454000  0.53336000  0.57044000  1.0 -1.0329061359
O  O39  1  0.30454000  0.96664000  0.07044000  1.0 -1.037952964
O  O40  1  0.69546000  0.46664000  0.42956000  1.0 -1.0329061359
O  O41  1  0.95163000  0.85231000  0.01343000  1.0 -0.8704595618
O  O42  1  0.04837000  0.35231000  0.48657000  1.0 -0.8704595618
O  O43  1  0.04837000  0.14769000  0.98657000  1.0 -0.8704595618
O  O44  1  0.95163000  0.64769000  0.51343000  1.0 -0.8704595618
O  O45  1  0.83224000  0.02522000  0.03094000  1.0 -0.8788227915
O  O46  1  0.16776000  0.52522000  0.46906000  1.0 -0.8788227915
O  O47  1  0.16776000  0.97478000  0.96906000  1.0 -0.8788227915
O  O48  1  0.83224000  0.47478000  0.53094000  1.0 -0.8788227915
O  O49  1  0.68141000  0.81951000  0.94261000  1.0 -0.8902631569
O  O50  1  0.31859000  0.31951000  0.55739000  1.0 -0.8902631569
O  O51  1  0.31859000  0.18049000  0.05739000  1.0 -0.8788227915
O  O52  1  0.68141000  0.68049000  0.44261000  1.0 -0.8788227915
O  O53  1  0.63120000  0.94336000  0.94460000  1.0 -0.9289786744
O  O54  1  0.36880000  0.44336000  0.55540000  1.0 -0.9289786744
O  O55  1  0.36880000  0.05664000  0.05540000  1.0 -0.9289786744
O  O56  1  0.63120000  0.55664000  0.44460000  1.0 -0.9289786744
O  O57  1  0.72386000  0.88075000  0.99876000  1.0 -0.9215192734
O  O58  1  0.27614000  0.38075000  0.50124000  1.0 -0.9215192734
O  O59  1  0.27614000  0.11925000  0.00124000  1.0 -0.9215192734
O  O60  1  0.72386000  0.61925000  0.49876000  1.0 -0.9215192734
O  O61  1  0.77893000  0.96676000  0.91123000  1.0 -0.8978766312
O  O62  1  0.22107000  0.46676000  0.58877000  1.0 -0.8902631569
O  O63  1  0.22107000  0.03324000  0.08877000  1.0 -0.8902631569
O  O64  1  0.77893000  0.53324000  0.41123000  1.0 -0.8902631569
O  O65  1  0.82859000  0.04389000  0.89509000  1.0 -0.8902631569
O  O66  1  0.17141000  0.54389000  0.60491000  1.0 -0.8902631569
O  O67  1  0.17141000  0.95611000  0.10491000  1.0 -0.8902631569
O  O68  1  0.82859000  0.45611000  0.39509000  1.0 -0.8902631569
O  O69  1  0.71910000  0.90185000  0.84800000  1.0 -0.9215192734
O  O70  1  0.28090000  0.40185000  0.65200000  1.0 -0.9215192734
O  O71  1  0.28090000  0.09815000  0.15200000  1.0 -0.9215192734
O  O72  1  0.71910000  0.59815000  0.34800000  1.0 -0.9215192734
O  O73  1  0.78383000  0.94696000  0.05023000  1.0 -0.9804498384
O  O74  1  0.21617000  0.44696000  0.44977000  1.0 -0.9804498384
O  O75  1  0.21617000  0.05304000  0.94977000  1.0 -0.9804498384
O  O76  1  0.78383000  0.55304000  0.55023000  1.0 -0.9804498384
O  O77  1  0.62940000  0.95363000  0.86700000  1.0 -0.9215192734
O  O78  1  0.37060000  0.45363000  0.63300000  1.0 -0.9215192734
O  O79  1  0.37060000  0.04637000  0.13300000  1.0 -0.9215192734
O  O80  1  0.62940000  0.54637000  0.36700000  1.0 -0.9215192734
O  O81  1  0.78031000  0.95725000  0.97719000  1.0 -0.8902631569
O  O82  1  0.21969000  0.45725000  0.52281000  1.0 -0.8902631569
O  O83  1  0.21969000  0.04275000  0.02281000  1.0 -0.8902631569
O  O84  1  0.78031000  0.54275000  0.47719000  1.0 -0.8902631569
O  O85  1  0.69371000  0.00835000  0.99521000  1.0 -0.908977204
O  O86  1  0.30629000  0.50835000  0.50479000  1.0 -0.908977204
O  O87  1  0.30629000  0.99165000  0.00479000  1.0 -0.908977204
O  O88  1  0.69371000  0.49165000  0.49521000  1.0 -0.908977204
O  O89  1  0.73149000  0.89639000  0.92689000  1.0 -0.8978766312
O  O90  1  0.26851000  0.39639000  0.57311000  1.0 -0.8902631569
O  O91  1  0.26851000  0.10361000  0.07311000  1.0 -0.8902631569
O  O92  1  0.73149000  0.60361000  0.42689000  1.0 -0.8902631569
O  O93  1  0.58861000  0.87913000  0.88961000  1.0 -0.9616800556
O  O94  1  0.41139000  0.37913000  0.61039000  1.0 -0.9616800556
O  O95  1  0.41139000  0.12087000  0.11039000  1.0 -0.9665260258
O  O96  1  0.58861000  0.62087000  0.38961000  1.0 -0.9616800556
O  O97  1  0.77784000  0.97665000  0.83794000  1.0 -0.988600173
O  O98  1  0.22216000  0.47665000  0.66206000  1.0 -0.988600173
O  O99  1  0.22216000  0.02335000  0.16206000  1.0 -0.9988619099
O  O100  1  0.77784000  0.52335000  0.33794000  1.0 -0.9988619099
O  O101  1  0.87935000  0.89989000  0.03889000  1.0 -0.9215192734
O  O102  1  0.12065000  0.39989000  0.46111000  1.0 -0.9215192734
O  O103  1  0.12065000  0.10011000  0.96111000  1.0 -0.9215192734
O  O104  1  0.87935000  0.60011000  0.53889000  1.0 -0.9215192734
O  O105  1  0.68992000  0.02699000  0.85932000  1.0 -0.8902631569
O  O106  1  0.31008000  0.52699000  0.64068000  1.0 -0.8902631569
O  O107  1  0.31008000  0.97301000  0.14068000  1.0 -0.8902631569
O  O108  1  0.68992000  0.47301000  0.35932000  1.0 -0.8902631569
O  O109  1  0.67959000  0.82957000  0.87259000  1.0 -0.8978766312
O  O110  1  0.32041000  0.32957000  0.62741000  1.0 -0.8978766312
O  O111  1  0.32041000  0.17043000  0.12741000  1.0 -0.8978766312
O  O112  1  0.67959000  0.67043000  0.37259000  1.0 -0.8978766312
O  O113  1  0.80013000  0.59541000  0.29683000  1.0 -0.4698654609
O  O114  1  0.19987000  0.09541000  0.20317000  1.0 -0.4698654609
O  O115  1  0.19987000  0.40459000  0.70317000  1.0 -0.4698654609
O  O116  1  0.80013000  0.90459000  0.79683000  1.0 -0.4698654609
O  O117  1  0.81976000  0.66042000  0.32916000  1.0 -0.5513601671
O  O118  1  0.18024000  0.16042000  0.17084000  1.0 -0.5513601671
O  O119  1  0.18024000  0.33958000  0.67084000  1.0 -0.5513601671
O  O120  1  0.81976000  0.83958000  0.82916000  1.0 -0.5513601671
O  O121  1  0.82089000  0.80832000  0.05839000  1.0 -0.5513601671
O  O122  1  0.17911000  0.30832000  0.44161000  1.0 -0.5435521016
O  O123  1  0.17911000  0.19168000  0.94161000  1.0 -0.5513601671
O  O124  1  0.82089000  0.69168000  0.55839000  1.0 -0.5435521016
O  O125  1  0.80718000  0.86720000  0.08878000  1.0 -0.4603425994
O  O126  1  0.19282000  0.36720000  0.41122000  1.0 -0.4603425994
O  O127  1  0.19282000  0.13280000  0.91122000  1.0 -0.4603425994
O  O128  1  0.80718000  0.63280000  0.58878000  1.0 -0.4603425994
O  O129  1  0.00419000  0.08430000  0.62169000  1.0 -0.4698654609
O  O130  1  0.99581000  0.58430000  0.87831000  1.0 -0.4698654609
O  O131  1  0.99581000  0.91570000  0.37831000  1.0 -0.4698654609
O  O132  1  0.00419000  0.41570000  0.12169000  1.0 -0.4698654609
O  O133  1  0.52436000  0.01300000  0.87736000  1.0 -0.5642372181
O  O134  1  0.47564000  0.51300000  0.62264000  1.0 -0.5642372181
O  O135  1  0.47564000  0.98700000  0.12264000  1.0 -0.5642372181
O  O136  1  0.52436000  0.48700000  0.37736000  1.0 -0.5718778679
O  O137  1  0.97492000  0.01172000  0.62242000  1.0 -0.5766564021
O  O138  1  0.02508000  0.51172000  0.87758000  1.0 -0.5718778679
O  O139  1  0.02508000  0.98828000  0.37758000  1.0 -0.5718778679
O  O140  1  0.97492000  0.48828000  0.12242000  1.0 -0.5718778679
O  O141  1  0.49210000  0.94060000  0.87150000  1.0 -0.4818060606
O  O142  1  0.50790000  0.44060000  0.62850000  1.0 -0.4818060606
O  O143  1  0.50790000  0.05940000  0.12850000  1.0 -0.4818060606
O  O144  1  0.49210000  0.55940000  0.37150000  1.0 -0.4863569746
O  O145  1  0.56950000  0.01068000  0.47678000  1.0 -0.9289786744
O  O146  1  0.43050000  0.51068000  0.02322000  1.0 -0.9289786744
O  O147  1  0.43050000  0.98932000  0.52322000  1.0 -0.9289786744
O  O148  1  0.56950000  0.48932000  0.97678000  1.0 -0.9289786744
O  O149  1  0.61030000  0.08222000  0.44384000  1.0 -0.9215192734
O  O150  1  0.38970000  0.58222000  0.05616000  1.0 -0.9289786744
O  O151  1  0.38970000  0.91778000  0.55616000  1.0 -0.9215192734
O  O152  1  0.61030000  0.41778000  0.94384000  1.0 -0.9215192734
O  O153  1  0.51431000  0.93048000  0.51047000  1.0 -0.9665260258
O  O154  1  0.48569000  0.43048000  0.98953000  1.0 -0.9665260258
O  O155  1  0.48569000  0.06952000  0.48953000  1.0 -0.9665260258
O  O156  1  0.51431000  0.56952000  0.01047000  1.0 -0.9665260258
O  O157  1  0.53197000  0.13775000  0.45967000  1.0 -0.8788227915
O  O158  1  0.46803000  0.63775000  0.04033000  1.0 -0.8704595618
O  O159  1  0.46803000  0.86225000  0.54033000  1.0 -0.8788227915
O  O160  1  0.53197000  0.36225000  0.95967000  1.0 -0.8788227915
O  O161  1  0.57317000  0.02263000  0.55319000  1.0 -0.9289786744
O  O162  1  0.42683000  0.52263000  0.94681000  1.0 -0.9289786744
O  O163  1  0.42683000  0.97737000  0.44681000  1.0 -0.9289786744
O  O164  1  0.57317000  0.47737000  0.05319000  1.0 -0.9289786744
O  O165  1  0.61637000  0.10534000  0.59337000  1.0 -0.9215192734
O  O166  1  0.38363000  0.60534000  0.90663000  1.0 -0.9215192734
O  O167  1  0.38363000  0.89466000  0.40663000  1.0 -0.9215192734
O  O168  1  0.61637000  0.39466000  0.09337000  1.0 -0.9215192734
O  O169  1  0.53396000  0.14905000  0.52966000  1.0 -0.8788227915
O  O170  1  0.46604000  0.64905000  0.97034000  1.0 -0.8788227915
O  O171  1  0.46604000  0.85095000  0.47034000  1.0 -0.8704595618
O  O172  1  0.53396000  0.35095000  0.02966000  1.0 -0.8788227915
O  O173  1  0.67680000  0.98205000  0.61260000  1.0 -0.8704595618
O  O174  1  0.32320000  0.48205000  0.88740000  1.0 -0.8704595618
O  O175  1  0.32320000  0.01795000  0.38740000  1.0 -0.8704595618
O  O176  1  0.67680000  0.51795000  0.11260000  1.0 -0.8704595618
O  O177  1  0.71925000  0.06208000  0.65335000  1.0 -0.988600173
O  O178  1  0.28075000  0.56208000  0.84665000  1.0 -0.988600173
O  O179  1  0.28075000  0.93792000  0.34665000  1.0 -0.9804498384
O  O180  1  0.71925000  0.43792000  0.15335000  1.0 -0.988600173
O  O181  1  0.67243000  0.96202000  0.47673000  1.0 -0.8902631569
O  O182  1  0.32757000  0.46202000  0.02327000  1.0 -0.8902631569
O  O183  1  0.32757000  0.03798000  0.52327000  1.0 -0.8902631569
O  O184  1  0.67243000  0.53798000  0.97673000  1.0 -0.8788227915
O  O185  1  0.71135000  0.03113000  0.44225000  1.0 -0.988600173
O  O186  1  0.28865000  0.53113000  0.05775000  1.0 -0.988600173
O  O187  1  0.28865000  0.96887000  0.55775000  1.0 -0.9804498384
O  O188  1  0.71135000  0.46887000  0.94225000  1.0 -0.988600173
O  O189  1  0.81326000  0.00596000  0.64406000  1.0 -0.864818574
O  O190  1  0.18674000  0.50596000  0.85594000  1.0 -0.8704595618
O  O191  1  0.18674000  0.99404000  0.35594000  1.0 -0.8704595618
O  O192  1  0.81326000  0.49404000  0.14406000  1.0 -0.8704595618
O  O193  1  0.68762000  0.95885000  0.54912000  1.0 -1.0329061359
O  O194  1  0.31238000  0.45885000  0.95088000  1.0 -1.037952964
O  O195  1  0.31238000  0.04115000  0.45088000  1.0 -1.037952964
O  O196  1  0.68762000  0.54115000  0.04912000  1.0 -1.037952964
O  O197  1  0.80956000  0.97950000  0.57736000  1.0 -1.0329061359
O  O198  1  0.19044000  0.47950000  0.92264000  1.0 -1.0329061359
O  O199  1  0.19044000  0.02050000  0.42264000  1.0 -1.0329061359
O  O200  1  0.80956000  0.52050000  0.07736000  1.0 -1.0329061359
O  O201  1  0.76279000  0.10904000  0.47929000  1.0 -0.9215192734
O  O202  1  0.23721000  0.60904000  0.02071000  1.0 -0.9215192734
O  O203  1  0.23721000  0.89096000  0.52071000  1.0 -0.9215192734
O  O204  1  0.76279000  0.39096000  0.97929000  1.0 -0.9289786744
O  O205  1  0.86408000  0.06213000  0.54428000  1.0 -0.9289786744
O  O206  1  0.13592000  0.56213000  0.95572000  1.0 -0.9289786744
O  O207  1  0.13592000  0.93787000  0.45572000  1.0 -0.9289786744
O  O208  1  0.86408000  0.43787000  0.04428000  1.0 -0.9289786744
O  O209  1  0.80881000  0.98548000  0.50861000  1.0 -0.908977204
O  O210  1  0.19119000  0.48548000  0.99139000  1.0 -0.908977204
O  O211  1  0.19119000  0.01452000  0.49139000  1.0 -0.908977204
O  O212  1  0.80881000  0.51452000  0.00861000  1.0 -0.908977204
O  O213  1  0.86444000  0.07416000  0.62144000  1.0 -0.9215192734
O  O214  1  0.13556000  0.57416000  0.87856000  1.0 -0.9215192734
O  O215  1  0.13556000  0.92584000  0.37856000  1.0 -0.9215192734
O  O216  1  0.86444000  0.42584000  0.12144000  1.0 -0.9215192734
O  O217  1  0.76811000  0.13156000  0.62921000  1.0 -0.9215192734
O  O218  1  0.23189000  0.63156000  0.87079000  1.0 -0.9215192734
O  O219  1  0.23189000  0.86844000  0.37079000  1.0 -0.9215192734
O  O220  1  0.76811000  0.36844000  0.12921000  1.0 -0.9215192734
O  O221  1  0.79810000  0.19461000  0.59090000  1.0 -0.8788227915
O  O222  1  0.20190000  0.69461000  0.90910000  1.0 -0.8788227915
O  O223  1  0.20190000  0.80539000  0.40910000  1.0 -0.8788227915
O  O224  1  0.79810000  0.30539000  0.09090000  1.0 -0.8902631569
O  O225  1  0.89766000  0.13981000  0.58486000  1.0 -0.9804498384
O  O226  1  0.10234000  0.63981000  0.91514000  1.0 -0.9804498384
O  O227  1  0.10234000  0.86019000  0.41514000  1.0 -0.9804498384
O  O228  1  0.89766000  0.36019000  0.08486000  1.0 -0.9804498384
O  O229  1  0.66066000  0.18533000  0.55386000  1.0 -1.037952964
O  O230  1  0.33934000  0.68533000  0.94614000  1.0 -1.037952964
O  O231  1  0.33934000  0.81467000  0.44614000  1.0 -1.037952964
O  O232  1  0.66066000  0.31467000  0.05386000  1.0 -1.037952964
O  O233  1  0.65837000  0.17547000  0.49167000  1.0 -1.0329061359
O  O234  1  0.34163000  0.67547000  0.00833000  1.0 -1.037952964
O  O235  1  0.34163000  0.82453000  0.50833000  1.0 -1.0329061359
O  O236  1  0.65837000  0.32453000  0.99167000  1.0 -1.0329061359
O  O237  1  0.71582000  0.04180000  0.51568000  1.0 -0.8902631569
O  O238  1  0.28418000  0.54180000  0.98432000  1.0 -0.8902631569
O  O239  1  0.28418000  0.95820000  0.48432000  1.0 -0.8902631569
O  O240  1  0.71582000  0.45820000  0.01568000  1.0 -0.8902631569
O  O241  1  0.71772000  0.05157000  0.58151000  1.0 -0.8978766312
O  O242  1  0.28228000  0.55157000  0.91849000  1.0 -0.8978766312
O  O243  1  0.28228000  0.94843000  0.41849000  1.0 -0.8978766312
O  O244  1  0.71772000  0.44843000  0.08151000  1.0 -0.8978766312
O  O245  1  0.75655000  0.11464000  0.55255000  1.0 -0.8978766312
O  O246  1  0.24345000  0.61464000  0.94745000  1.0 -0.8902631569
O  O247  1  0.24345000  0.88536000  0.44745000  1.0 -0.8902631569
O  O248  1  0.75655000  0.38536000  0.05255000  1.0 -0.8978766312
O  O249  1  0.62813000  0.09256000  0.52245000  1.0 -0.8902631569
O  O250  1  0.37187000  0.59256000  0.97755000  1.0 -0.8902631569
O  O251  1  0.37187000  0.90744000  0.47755000  1.0 -0.8902631569
O  O252  1  0.62813000  0.40744000  0.02245000  1.0 -0.8902631569
O  O253  1  0.79691000  0.18375000  0.52141000  1.0 -0.8788227915
O  O254  1  0.20309000  0.68375000  0.97859000  1.0 -0.8788227915
O  O255  1  0.20309000  0.81625000  0.47859000  1.0 -0.8788227915
O  O256  1  0.79691000  0.31625000  0.02141000  1.0 -0.8788227915
O  O257  1  0.69061000  0.13750000  0.67881000  1.0 -0.4603425994
O  O258  1  0.30939000  0.63750000  0.82119000  1.0 -0.4603425994
O  O259  1  0.30939000  0.86250000  0.32119000  1.0 -0.4603425994
O  O260  1  0.69061000  0.36250000  0.17881000  1.0 -0.4603425994
O  O261  1  0.67475000  0.19827000  0.64245000  1.0 -0.5513601671
O  O262  1  0.32525000  0.69827000  0.85755000  1.0 -0.5513601671
O  O263  1  0.32525000  0.80173000  0.35755000  1.0 -0.5513601671
O  O264  1  0.67475000  0.30173000  0.14245000  1.0 -0.5513601671
O  O265  1  0.67827000  0.40200000  0.88827000  1.0 -0.4603425994
O  O266  1  0.32173000  0.90200000  0.61173000  1.0 -0.4603425994
O  O267  1  0.32173000  0.59800000  0.11173000  1.0 -0.4603425994
O  O268  1  0.67827000  0.09800000  0.38827000  1.0 -0.4603425994
O  O269  1  0.66097000  0.33600000  0.90917000  1.0 -0.5435521016
O  O270  1  0.33903000  0.83600000  0.59083000  1.0 -0.5435521016
O  O271  1  0.33903000  0.66400000  0.09083000  1.0 -0.5435521016
O  O272  1  0.66097000  0.16400000  0.40917000  1.0 -0.5435521016
