# DDEC6 charges by PACMAN v1.1 (https://github.com/mtap-research/PACMAN-charge/)
data_VOYWUB_FSR_pacman
_symmetry_space_group_name_H-M   'P 1'
_cell_length_a   6.07200000
_cell_length_b   9.53000000
_cell_length_c   19.84400000
_cell_angle_alpha   90.00000000
_cell_angle_beta   90.00000000
_cell_angle_gamma   90.00000000
_symmetry_Int_Tables_number   1
_chemical_formula_structural   Er(CO)9
_chemical_formula_sum   'Er4 C36 O36'
_cell_volume   1148.29607904
_cell_formula_units_Z   4
loop_
 _symmetry_equiv_pos_site_id
 _symmetry_equiv_pos_as_xyz
  1  'x, y, z'
loop_
 _atom_site_type_symbol
 _atom_site_label
 _atom_site_symmetry_multiplicity
 _atom_site_fract_x
 _atom_site_fract_y
 _atom_site_fract_z
 _atom_site_occupancy
 _atom_site_charge
Er  Er1  1  0.21390000  0.53290000  0.18630000  1.0 1.9315728244
Er  Er2  1  0.71390000  0.96710000  0.81370000  1.0 1.9315728244
Er  Er3  1  0.78610000  0.03290000  0.31370000  1.0 1.9315728244
Er  Er4  1  0.28610000  0.46710000  0.68630000  1.0 1.9315728244
C  C1  1  0.71290000  0.37460000  0.87200000  1.0 -0.0633609745
C  C2  1  0.21290000  0.12540000  0.12800000  1.0 -0.0633609745
C  C3  1  0.28710000  0.87460000  0.62800000  1.0 -0.0633609745
C  C4  1  0.78710000  0.62540000  0.37200000  1.0 -0.0633609745
C  C5  1  0.91860000  0.43880000  0.87430000  1.0 -0.0894616249
C  C6  1  0.41860000  0.06120000  0.12570000  1.0 -0.0894616249
C  C7  1  0.08140000  0.93880000  0.62570000  1.0 -0.0894616249
C  C8  1  0.58140000  0.56120000  0.37430000  1.0 -0.0894616249
C  C9  1  0.00740000  0.47640000  0.93600000  1.0 0.0778743472
C  C10  1  0.50740000  0.02360000  0.06400000  1.0 0.0778743472
C  C11  1  0.99260000  0.97640000  0.56400000  1.0 0.0778743472
C  C12  1  0.49260000  0.52360000  0.43600000  1.0 0.0778743472
C  C13  1  0.89330000  0.45280000  0.99600000  1.0 -0.1013004969
C  C14  1  0.39330000  0.04720000  0.00400000  1.0 -0.1013004969
C  C15  1  0.10670000  0.95280000  0.50400000  1.0 -0.1013004969
C  C16  1  0.60670000  0.54720000  0.49600000  1.0 -0.1013004969
C  C17  1  0.68150000  0.39520000  0.99320000  1.0 0.0324016471
C  C18  1  0.18150000  0.10480000  0.00680000  1.0 0.0324016471
C  C19  1  0.31850000  0.89520000  0.50680000  1.0 0.0324016471
C  C20  1  0.81850000  0.60480000  0.49320000  1.0 0.0324016471
C  C21  1  0.59940000  0.35150000  0.93160000  1.0 -0.0236703889
C  C22  1  0.09940000  0.14850000  0.06840000  1.0 -0.0236703889
C  C23  1  0.40060000  0.85150000  0.56840000  1.0 -0.0236703889
C  C24  1  0.90060000  0.64850000  0.43160000  1.0 -0.0236703889
C  C25  1  0.61110000  0.32970000  0.80560000  1.0 0.6748080251
C  C26  1  0.11110000  0.17030000  0.19440000  1.0 0.6752793786
C  C27  1  0.38890000  0.82970000  0.69440000  1.0 0.6748080251
C  C28  1  0.88890000  0.67030000  0.30560000  1.0 0.6752793786
C  C29  1  0.05590000  0.45910000  0.81270000  1.0 0.5587044206
C  C30  1  0.55590000  0.04090000  0.18730000  1.0 0.5587044206
C  C31  1  0.94410000  0.95910000  0.68730000  1.0 0.5587044206
C  C32  1  0.44410000  0.54090000  0.31270000  1.0 0.5587044206
C  C33  1  0.99760000  0.49220000  0.06290000  1.0 0.5817688403
C  C34  1  0.49760000  0.00780000  0.93710000  1.0 0.5817688403
C  C35  1  0.00240000  0.99220000  0.43710000  1.0 0.5817688403
C  C36  1  0.50240000  0.50780000  0.56290000  1.0 0.5817688403
O  O1  1  0.09470000  0.76550000  0.16220000  1.0 -0.2218405011
O  O2  1  0.59470000  0.73450000  0.83780000  1.0 -0.2218405011
O  O3  1  0.90530000  0.26550000  0.33780000  1.0 -0.2218405011
O  O4  1  0.40530000  0.23450000  0.66220000  1.0 -0.2218405011
O  O5  1  0.51740000  0.38990000  0.17010000  1.0 -0.2979356724
O  O6  1  0.01740000  0.11010000  0.82990000  1.0 -0.2979356724
O  O7  1  0.48260000  0.88990000  0.32990000  1.0 -0.2979356724
O  O8  1  0.98260000  0.61010000  0.67010000  1.0 -0.2979356724
O  O9  1  0.50970000  0.67550000  0.13430000  1.0 0.144010479
O  O10  1  0.00970000  0.82450000  0.86570000  1.0 0.144010479
O  O11  1  0.49030000  0.17550000  0.36570000  1.0 0.144010479
O  O12  1  0.99030000  0.32450000  0.63430000  1.0 0.1451472339
O  O13  1  0.57470000  0.19680000  0.79780000  1.0 -0.5938663486
O  O14  1  0.07470000  0.30320000  0.20220000  1.0 -0.5938663486
O  O15  1  0.42530000  0.69680000  0.70220000  1.0 -0.5938663486
O  O16  1  0.92530000  0.80320000  0.29780000  1.0 -0.5938663486
O  O17  1  0.55840000  0.42250000  0.76590000  1.0 -0.5758296254
O  O18  1  0.05840000  0.07750000  0.23410000  1.0 -0.5758296254
O  O19  1  0.44160000  0.92250000  0.73410000  1.0 -0.5758296254
O  O20  1  0.94160000  0.57750000  0.26590000  1.0 -0.5758296254
O  O21  1  0.15140000  0.57310000  0.80340000  1.0 -0.4620006535
O  O22  1  0.65140000  0.92690000  0.19660000  1.0 -0.4620006535
O  O23  1  0.84860000  0.07310000  0.69660000  1.0 -0.4620006535
O  O24  1  0.34860000  0.42690000  0.30340000  1.0 -0.4620006535
O  O25  1  0.07580000  0.35960000  0.77150000  1.0 -0.5177043679
O  O26  1  0.57580000  0.14040000  0.22850000  1.0 -0.5177043679
O  O27  1  0.92420000  0.85960000  0.72850000  1.0 -0.5177043679
O  O28  1  0.42420000  0.64040000  0.27150000  1.0 -0.5177043679
O  O29  1  0.19860000  0.50580000  0.06560000  1.0 -0.5717133882
O  O30  1  0.69860000  0.99420000  0.93440000  1.0 -0.5717133882
O  O31  1  0.80140000  0.00580000  0.43440000  1.0 -0.5717133882
O  O32  1  0.30140000  0.49420000  0.56560000  1.0 -0.5717133882
O  O33  1  0.88140000  0.50390000  0.11510000  1.0 -0.4829764071
O  O34  1  0.38140000  0.99610000  0.88490000  1.0 -0.4829764071
O  O35  1  0.11860000  0.00390000  0.38490000  1.0 -0.4829764071
O  O36  1  0.61860000  0.49610000  0.61510000  1.0 -0.4829764071
