# DDEC6 charges by PACMAN v1.1 (https://github.com/mtap-research/PACMAN-charge/)
data_VOZDOG_ASR_pacman
_symmetry_space_group_name_H-M   'P 1'
_cell_length_a   5.56710000
_cell_length_b   10.42780000
_cell_length_c   23.34600000
_cell_angle_alpha   93.61200000
_cell_angle_beta   96.15700000
_cell_angle_gamma   97.15700000
_symmetry_Int_Tables_number   1
_chemical_formula_structural   CoH22C23(NO2)2
_chemical_formula_sum   'Co2 H44 C46 N4 O8'
_cell_volume   1332.96788726
_cell_formula_units_Z   2
loop_
 _symmetry_equiv_pos_site_id
 _symmetry_equiv_pos_as_xyz
  1  'x, y, z'
loop_
 _atom_site_type_symbol
 _atom_site_label
 _atom_site_symmetry_multiplicity
 _atom_site_fract_x
 _atom_site_fract_y
 _atom_site_fract_z
 _atom_site_occupancy
 _atom_site_charge
Co  Co1  1  0.50000000  0.50000000  0.00000000  1.0 0.7058718274
Co  Co2  1  0.00000000  0.50000000  0.50000000  1.0 0.7307729791
H  H1  1  0.19910000  0.59500000  0.09470000  1.0 0.1205735217
H  H2  1  0.22320000  0.74890000  0.17090000  1.0 0.1408034558
H  H3  1  0.85840000  0.90690000  0.12840000  1.0 0.1408034558
H  H4  1  0.81570000  0.74790000  0.05240000  1.0 0.1106781533
H  H5  1  0.42100000  0.99020000  0.20660000  1.0 0.1302577625
H  H6  1  0.70510000  0.01110000  0.20610000  1.0 0.1302577625
H  H7  1  0.46820000  0.81410000  0.26670000  1.0 0.0913632302
H  H8  1  0.58310000  0.94910000  0.29740000  1.0 0.1106781533
H  H9  1  0.86340000  0.77660000  0.24450000  1.0 0.1205735217
H  H10  1  0.97280000  0.90770000  0.27950000  1.0 0.1205735217
H  H11  1  0.55220000  0.64990000  0.31940000  1.0 0.1408034558
H  H12  1  0.60810000  0.54340000  0.40210000  1.0 0.1205735217
H  H13  1  0.24020000  0.73720000  0.44500000  1.0 0.1106781533
H  H14  1  0.20220000  0.85500000  0.36570000  1.0 0.1408034558
H  H15  1  0.80440000  0.84400000  0.86840000  1.0 0.1205735217
H  H16  1  0.00510000  0.76340000  0.89390000  1.0 0.1479990403
H  H17  1  0.25550000  0.84800000  0.98120000  1.0 0.1302577625
H  H18  1  0.64080000  0.99860000  0.94020000  1.0 0.1205735217
H  H19  1  0.39580000  0.19950000  0.39490000  1.0 0.1479990403
H  H20  1  0.57030000  0.10960000  0.36920000  1.0 0.1205735217
H  H21  1  0.23640000  0.15100000  0.48220000  1.0 0.1302577625
H  H22  1  0.79640000  0.97770000  0.43930000  1.0 0.1205735217
H  H23  1  0.80090000  0.40500000  0.90530000  1.0 0.1205735217
H  H24  1  0.77680000  0.25110000  0.82910000  1.0 0.1408034558
H  H25  1  0.14160000  0.09310000  0.87160000  1.0 0.1408034558
H  H26  1  0.18430000  0.25210000  0.94760000  1.0 0.1106781533
H  H27  1  0.57900000  0.00980000  0.79340000  1.0 0.1302577625
H  H28  1  0.29490000  0.98890000  0.79390000  1.0 0.1302577625
H  H29  1  0.53180000  0.18590000  0.73330000  1.0 0.0913632302
H  H30  1  0.41690000  0.05090000  0.70260000  1.0 0.1106781533
H  H31  1  0.13660000  0.22340000  0.75550000  1.0 0.1205735217
H  H32  1  0.02720000  0.09230000  0.72050000  1.0 0.1205735217
H  H33  1  0.44780000  0.35010000  0.68060000  1.0 0.1408034558
H  H34  1  0.39190000  0.45660000  0.59790000  1.0 0.1205735217
H  H35  1  0.75980000  0.26280000  0.55500000  1.0 0.1106781533
H  H36  1  0.79780000  0.14500000  0.63430000  1.0 0.1408034558
H  H37  1  0.19560000  0.15600000  0.13160000  1.0 0.1205735217
H  H38  1  0.99490000  0.23660000  0.10610000  1.0 0.1479990403
H  H39  1  0.74450000  0.15200000  0.01880000  1.0 0.1302577625
H  H40  1  0.35920000  0.00140000  0.05980000  1.0 0.1205735217
H  H41  1  0.60420000  0.80050000  0.60510000  1.0 0.1479990403
H  H42  1  0.42970000  0.89040000  0.63080000  1.0 0.1205735217
H  H43  1  0.76360000  0.84900000  0.51780000  1.0 0.1302577625
H  H44  1  0.20360000  0.02230000  0.56070000  1.0 0.1205735217
C  C1  1  0.33600000  0.65720000  0.10170000  1.0 0.0913632302
C  C2  1  0.34960000  0.75100000  0.14780000  1.0 -0.2144192909
C  C3  1  0.54270000  0.84460000  0.15960000  1.0 0.161446921
C  C4  1  0.72230000  0.84400000  0.12290000  1.0 -0.2144192909
C  C5  1  0.69570000  0.74660000  0.07720000  1.0 0.083147462
C  C6  1  0.56600000  0.94690000  0.20880000  1.0 -0.2562503745
C  C7  1  0.59800000  0.88540000  0.26630000  1.0 -0.1376829376
C  C8  1  0.84420000  0.83510000  0.27720000  1.0 -0.2543308069
C  C9  1  0.87400000  0.76530000  0.33160000  1.0 0.161446921
C  C10  1  0.69700000  0.67010000  0.34410000  1.0 -0.2172802766
C  C11  1  0.73400000  0.60430000  0.39370000  1.0 0.0983273307
C  C12  1  0.10040000  0.71760000  0.41880000  1.0 0.083147462
C  C13  1  0.07820000  0.78990000  0.37100000  1.0 -0.2172802766
C  C14  1  0.66930000  0.70230000  0.91700000  1.0 0.6286981921
C  C15  1  0.86410000  0.80390000  0.90250000  1.0 -0.3891762724
C  C16  1  0.93990000  0.90850000  0.95290000  1.0 0.1205735217
C  C17  1  0.15200000  0.90900000  0.98850000  1.0 -0.1599127481
C  C18  1  0.78570000  0.99880000  0.96410000  1.0 -0.1599127481
C  C19  1  0.75640000  0.26760000  0.41860000  1.0 0.6286981921
C  C20  1  0.54450000  0.16120000  0.40350000  1.0 -0.3891762724
C  C21  1  0.51690000  0.07550000  0.45230000  1.0 0.1205735217
C  C22  1  0.34300000  0.09010000  0.48880000  1.0 -0.1466600676
C  C23  1  0.67570000  0.98720000  0.46330000  1.0 -0.1599127481
C  C24  1  0.66400000  0.34280000  0.89830000  1.0 0.0913632302
C  C25  1  0.65040000  0.24900000  0.85220000  1.0 -0.2144192909
C  C26  1  0.45730000  0.15540000  0.84040000  1.0 0.161446921
C  C27  1  0.27770000  0.15600000  0.87710000  1.0 -0.2144192909
C  C28  1  0.30430000  0.25340000  0.92280000  1.0 0.083147462
C  C29  1  0.43400000  0.05310000  0.79120000  1.0 -0.2562503745
C  C30  1  0.40200000  0.11460000  0.73370000  1.0 -0.1376829376
C  C31  1  0.15580000  0.16490000  0.72280000  1.0 -0.2543308069
C  C32  1  0.12600000  0.23470000  0.66840000  1.0 0.161446921
C  C33  1  0.30300000  0.32990000  0.65590000  1.0 -0.2172802766
C  C34  1  0.26600000  0.39570000  0.60630000  1.0 0.0983273307
C  C35  1  0.89960000  0.28240000  0.58120000  1.0 0.083147462
C  C36  1  0.92180000  0.21010000  0.62900000  1.0 -0.2172802766
C  C37  1  0.33070000  0.29770000  0.08300000  1.0 0.6286981921
C  C38  1  0.13590000  0.19610000  0.09750000  1.0 -0.3891762724
C  C39  1  0.06010000  0.09150000  0.04710000  1.0 0.1205735217
C  C40  1  0.84800000  0.09100000  0.01150000  1.0 -0.1599127481
C  C41  1  0.21430000  0.00120000  0.03590000  1.0 -0.1599127481
C  C42  1  0.24360000  0.73240000  0.58140000  1.0 0.6286981921
C  C43  1  0.45550000  0.83880000  0.59650000  1.0 -0.3891762724
C  C44  1  0.48310000  0.92450000  0.54770000  1.0 0.1205735217
C  C45  1  0.65700000  0.90990000  0.51120000  1.0 -0.1466600676
C  C46  1  0.32430000  0.01280000  0.53670000  1.0 -0.1599127481
N  N1  1  0.50830000  0.65350000  0.06780000  1.0 -0.2028598269
N  N2  1  0.93470000  0.62290000  0.42910000  1.0 -0.2028598269
N  N3  1  0.49170000  0.34650000  0.93220000  1.0 -0.2028598269
N  N4  1  0.06530000  0.37710000  0.57090000  1.0 -0.2028598269
O  O1  1  0.45860000  0.69960000  0.89370000  1.0 -0.5725906124
O  O2  1  0.72970000  0.62800000  0.95530000  1.0 -0.5825049808
O  O3  1  0.94450000  0.26310000  0.39410000  1.0 -0.6009361078
O  O4  1  0.73350000  0.35250000  0.45810000  1.0 -0.5858085086
O  O5  1  0.54140000  0.30040000  0.10630000  1.0 -0.5725906124
O  O6  1  0.27030000  0.37200000  0.04470000  1.0 -0.5825049808
O  O7  1  0.05550000  0.73690000  0.60590000  1.0 -0.6009361078
O  O8  1  0.26650000  0.64750000  0.54190000  1.0 -0.5858085086
