# DDEC6 charges by PACMAN v1.1 (https://github.com/mtap-research/PACMAN-charge/)
data_VUDXID_FSR_pacman
_symmetry_space_group_name_H-M   'P 1'
_cell_length_a   17.00500000
_cell_length_b   17.53900000
_cell_length_c   21.66800000
_cell_angle_alpha   92.01000000
_cell_angle_beta   104.49000000
_cell_angle_gamma   107.16000000
_symmetry_Int_Tables_number   1
_chemical_formula_structural   Dy2Cu3H42C50S4N6O31
_chemical_formula_sum   'Dy4 Cu6 H84 C100 S8 N12 O62'
_cell_volume   5936.83783772
_cell_formula_units_Z   2
loop_
 _symmetry_equiv_pos_site_id
 _symmetry_equiv_pos_as_xyz
  1  'x, y, z'
loop_
 _atom_site_type_symbol
 _atom_site_label
 _atom_site_symmetry_multiplicity
 _atom_site_fract_x
 _atom_site_fract_y
 _atom_site_fract_z
 _atom_site_occupancy
 _atom_site_charge
Dy  Dy1  1  0.11932000  0.28880000  0.90701000  1.0 2.0694623902
Dy  Dy2  1  0.99775000  0.24102000  0.70424000  1.0 2.0439721062
Dy  Dy3  1  0.88068000  0.71120000  0.09299000  1.0 2.0694623902
Dy  Dy4  1  0.00225000  0.75898000  0.29576000  1.0 2.0439721062
Cu  Cu1  1  0.56780000  0.28914000  0.80973000  1.0 0.7214077308
Cu  Cu2  1  0.12190000  0.78221000  0.80893000  1.0 0.831173928
Cu  Cu3  1  0.11483000  0.29279000  0.32177000  1.0 0.7811706677
Cu  Cu4  1  0.43220000  0.71086000  0.19027000  1.0 0.7214077308
Cu  Cu5  1  0.87810000  0.21779000  0.19107000  1.0 0.831173928
Cu  Cu6  1  0.88517000  0.70721000  0.67823000  1.0 0.7811706677
H  H1  1  0.32450000  0.30560000  0.87420000  1.0 0.1695337214
H  H2  1  0.84750000  0.26010000  0.93270000  1.0 0.158721646
H  H3  1  0.71380000  0.27360000  0.92180000  1.0 0.1365278322
H  H4  1  0.79600000  0.24110000  0.73710000  1.0 0.158721646
H  H5  1  0.42220000  0.29430000  0.69690000  1.0 0.1365278322
H  H6  1  0.08360000  0.40280000  0.10880000  1.0 0.158721646
H  H7  1  0.08980000  0.40770000  0.21580000  1.0 0.1203983403
H  H8  1  0.10480000  0.18410000  0.11400000  1.0 0.158721646
H  H9  1  0.10370000  0.53390000  0.89820000  1.0 0.158721646
H  H10  1  0.09160000  0.64070000  0.70550000  1.0 0.1323783213
H  H11  1  0.06400000  0.50500000  0.70760000  1.0 0.1515114386
H  H12  1  0.11730000  0.90570000  0.90790000  1.0 0.1323783213
H  H13  1  0.03440000  0.36280000  0.50790000  1.0 0.1515114386
H  H14  1  0.10600000  0.16140000  0.41540000  1.0 0.1365278322
H  H15  1  0.10630000  0.03600000  0.90770000  1.0 0.1365278322
H  H16  1  0.06090000  0.00920000  0.71560000  1.0 0.158721646
H  H17  1  0.28010000  0.29130000  0.68310000  1.0 0.158721646
H  H18  1  0.40200000  0.50910000  0.97280000  1.0 0.1695337214
H  H19  1  0.43140000  0.49940000  0.04590000  1.0 0.158721646
H  H20  1  0.41260000  0.42730000  0.99380000  1.0 0.1695337214
H  H21  1  0.08470000  0.15200000  0.51790000  1.0 0.1515114386
H  H22  1  0.27160000  0.24850000  0.08700000  1.0 0.1695337214
H  H23  1  0.31500000  0.18070000  0.09380000  1.0 0.158721646
H  H24  1  0.35600000  0.25980000  0.06640000  1.0 0.1695337214
H  H25  1  0.22030000  0.53060000  0.02550000  1.0 0.1695337214
H  H26  1  0.31910000  0.56820000  0.05650000  1.0 0.1695337214
H  H27  1  0.28080000  0.56540000  0.98240000  1.0 0.1695337214
H  H28  1  0.71470000  0.58730000  0.83360000  1.0 0.158721646
H  H29  1  0.65190000  0.61610000  0.78070000  1.0 0.158721646
H  H30  1  0.62630000  0.58760000  0.84270000  1.0 0.158721646
H  H31  1  0.86020000  0.42150000  0.72630000  1.0 0.1515114386
H  H32  1  0.83090000  0.46360000  0.66600000  1.0 0.1695337214
H  H33  1  0.77600000  0.37670000  0.67270000  1.0 0.1695337214
H  H34  1  0.64340000  0.43370000  0.69070000  1.0 0.1695337214
H  H35  1  0.64940000  0.52430000  0.68750000  1.0 0.1695337214
H  H36  1  0.72240000  0.50090000  0.73490000  1.0 0.158721646
H  H37  1  0.76480000  0.31940000  0.56020000  1.0 0.1695337214
H  H38  1  0.81950000  0.39990000  0.54220000  1.0 0.1695337214
H  H39  1  0.84110000  0.32030000  0.53160000  1.0 0.1695337214
H  H40  1  0.36100000  0.18830000  0.95650000  1.0 0.1695337214
H  H41  1  0.34670000  0.11910000  0.00030000  1.0 0.158721646
H  H42  1  0.29190000  0.10490000  0.92860000  1.0 0.158721646
H  H43  1  0.67550000  0.69440000  0.12580000  1.0 0.1695337214
H  H44  1  0.15250000  0.73990000  0.06730000  1.0 0.158721646
H  H45  1  0.28620000  0.72640000  0.07820000  1.0 0.1365278322
H  H46  1  0.20400000  0.75890000  0.26290000  1.0 0.158721646
H  H47  1  0.57780000  0.70570000  0.30310000  1.0 0.1365278322
H  H48  1  0.91640000  0.59720000  0.89120000  1.0 0.158721646
H  H49  1  0.91020000  0.59230000  0.78420000  1.0 0.1203983403
H  H50  1  0.89520000  0.81590000  0.88600000  1.0 0.158721646
H  H51  1  0.89630000  0.46610000  0.10180000  1.0 0.158721646
H  H52  1  0.90840000  0.35930000  0.29450000  1.0 0.1323783213
H  H53  1  0.93600000  0.49500000  0.29240000  1.0 0.1515114386
H  H54  1  0.88270000  0.09430000  0.09210000  1.0 0.1323783213
H  H55  1  0.96560000  0.63720000  0.49210000  1.0 0.1515114386
H  H56  1  0.89400000  0.83860000  0.58460000  1.0 0.1365278322
H  H57  1  0.89370000  0.96400000  0.09230000  1.0 0.1365278322
H  H58  1  0.93910000  0.99080000  0.28440000  1.0 0.158721646
H  H59  1  0.71990000  0.70870000  0.31690000  1.0 0.158721646
H  H60  1  0.59800000  0.49090000  0.02720000  1.0 0.1695337214
H  H61  1  0.56860000  0.50060000  0.95410000  1.0 0.158721646
H  H62  1  0.58740000  0.57270000  0.00620000  1.0 0.1695337214
H  H63  1  0.91530000  0.84800000  0.48210000  1.0 0.1515114386
H  H64  1  0.72840000  0.75150000  0.91300000  1.0 0.1695337214
H  H65  1  0.68500000  0.81930000  0.90620000  1.0 0.158721646
H  H66  1  0.64400000  0.74020000  0.93360000  1.0 0.1695337214
H  H67  1  0.77970000  0.46940000  0.97450000  1.0 0.1695337214
H  H68  1  0.68090000  0.43180000  0.94350000  1.0 0.1695337214
H  H69  1  0.71920000  0.43460000  0.01760000  1.0 0.1695337214
H  H70  1  0.28530000  0.41270000  0.16640000  1.0 0.158721646
H  H71  1  0.34810000  0.38390000  0.21930000  1.0 0.158721646
H  H72  1  0.37370000  0.41240000  0.15730000  1.0 0.158721646
H  H73  1  0.13980000  0.57850000  0.27370000  1.0 0.158721646
H  H74  1  0.16910000  0.53640000  0.33400000  1.0 0.1695337214
H  H75  1  0.22400000  0.62330000  0.32730000  1.0 0.1695337214
H  H76  1  0.35660000  0.56630000  0.30930000  1.0 0.1695337214
H  H77  1  0.35060000  0.47570000  0.31250000  1.0 0.1695337214
H  H78  1  0.27760000  0.49910000  0.26510000  1.0 0.158721646
H  H79  1  0.23520000  0.68060000  0.43980000  1.0 0.176174359
H  H80  1  0.18050000  0.60010000  0.45780000  1.0 0.1695337214
H  H81  1  0.15890000  0.67970000  0.46840000  1.0 0.1695337214
H  H82  1  0.63900000  0.81170000  0.04350000  1.0 0.1695337214
H  H83  1  0.65330000  0.88090000  0.99970000  1.0 0.158721646
H  H84  1  0.70810000  0.89510000  0.07140000  1.0 0.158721646
C  C1  1  0.06300000  0.11620000  0.80610000  1.0 0.6293139174
C  C2  1  0.19220000  0.28930000  0.76910000  1.0 0.6293139174
C  C3  1  0.28740000  0.29610000  0.77910000  1.0 0.0475459281
C  C4  1  0.02970000  0.24860000  0.58340000  1.0 0.5384599879
C  C5  1  0.09910000  0.29000000  0.03190000  1.0 0.5719144061
C  C6  1  0.09560000  0.29440000  0.09990000  1.0 0.0281159411
C  C7  1  0.34240000  0.30220000  0.83730000  1.0 -0.1089958609
C  C8  1  0.81140000  0.25870000  0.89220000  1.0 -0.1203305248
C  C9  1  0.73150000  0.26770000  0.88510000  1.0 0.0976072862
C  C10  1  0.78060000  0.24750000  0.77470000  1.0 -0.1089958609
C  C11  1  0.70070000  0.25780000  0.77470000  1.0 0.1323783213
C  C12  1  0.92360000  0.24350000  0.84300000  1.0 0.6293139174
C  C13  1  0.07790000  0.03670000  0.80850000  1.0 0.0117001045
C  C14  1  0.49000000  0.30740000  0.90220000  1.0 0.509583882
C  C15  1  0.63570000  0.26000000  0.71100000  1.0 0.5181027537
C  C16  1  0.83560000  0.24760000  0.83690000  1.0 0.0281159411
C  C17  1  0.42460000  0.30360000  0.84190000  1.0 0.091496143
C  C18  1  0.40140000  0.29610000  0.73260000  1.0 0.0777971889
C  C19  1  0.09010000  0.35950000  0.13080000  1.0 -0.1294931755
C  C20  1  0.09390000  0.36210000  0.19520000  1.0 0.0608333587
C  C21  1  0.10910000  0.23730000  0.19940000  1.0 0.0976072862
C  C22  1  0.10340000  0.23100000  0.13440000  1.0 -0.1294931755
C  C23  1  0.10020000  0.55480000  0.85920000  1.0 -0.1203305248
C  C24  1  0.07920000  0.50380000  0.80150000  1.0 0.0281159411
C  C25  1  0.06490000  0.41450000  0.80230000  1.0 0.6428132966
C  C26  1  0.11530000  0.63540000  0.85650000  1.0 0.0777971889
C  C27  1  0.09220000  0.61880000  0.74410000  1.0 0.1203983403
C  C28  1  0.07670000  0.53780000  0.74570000  1.0 -0.1294931755
C  C29  1  0.10740000  0.92760000  0.86930000  1.0 0.1119712885
C  C30  1  0.08560000  0.91420000  0.75930000  1.0 0.0721671819
C  C31  1  0.11780000  0.17300000  0.24140000  1.0 0.5181027537
C  C32  1  0.05020000  0.32220000  0.49060000  1.0 -0.080747385
C  C33  1  0.07200000  0.32940000  0.43200000  1.0 0.091496143
C  C34  1  0.09470000  0.20320000  0.43540000  1.0 0.1119712885
C  C35  1  0.09870000  0.00550000  0.86940000  1.0 -0.1384646059
C  C36  1  0.07290000  0.99060000  0.75550000  1.0 -0.080747385
C  C37  1  0.05190000  0.25450000  0.52360000  1.0 -0.0065134563
C  C38  1  0.31610000  0.29400000  0.72380000  1.0 -0.1203305248
C  C39  1  0.39580000  0.47260000  0.00450000  1.0 -0.5399901356
C  C40  1  0.08020000  0.86040000  0.70460000  1.0 0.509583882
C  C41  1  0.13050000  0.69390000  0.91380000  1.0 0.5181027537
C  C42  1  0.07390000  0.39680000  0.39370000  1.0 0.5025001034
C  C43  1  0.07820000  0.19550000  0.49630000  1.0 -0.0971221164
C  C44  1  0.30310000  0.22170000  0.06820000  1.0 -0.5297789592
C  C45  1  0.27580000  0.53750000  0.01930000  1.0 -0.5297789592
C  C46  1  0.65570000  0.57900000  0.81200000  1.0 -0.5874155149
C  C47  1  0.83310000  0.41320000  0.68100000  1.0 -0.5575747476
C  C48  1  0.66190000  0.48550000  0.71520000  1.0 -0.5522694573
C  C49  1  0.82120000  0.35020000  0.55880000  1.0 -0.4888309114
C  C50  1  0.31920000  0.14350000  0.96600000  1.0 -0.5297789592
C  C51  1  0.93700000  0.88380000  0.19390000  1.0 0.6293139174
C  C52  1  0.80780000  0.71070000  0.23090000  1.0 0.6293139174
C  C53  1  0.71260000  0.70390000  0.22090000  1.0 0.0475459281
C  C54  1  0.97030000  0.75140000  0.41660000  1.0 0.5384599879
C  C55  1  0.90090000  0.71000000  0.96810000  1.0 0.5719144061
C  C56  1  0.90440000  0.70560000  0.90010000  1.0 0.0281159411
C  C57  1  0.65760000  0.69780000  0.16270000  1.0 -0.1089958609
C  C58  1  0.18860000  0.74130000  0.10780000  1.0 -0.1203305248
C  C59  1  0.26850000  0.73230000  0.11490000  1.0 0.0976072862
C  C60  1  0.21940000  0.75250000  0.22530000  1.0 -0.1089958609
C  C61  1  0.29930000  0.74220000  0.22530000  1.0 0.1323783213
C  C62  1  0.07640000  0.75650000  0.15700000  1.0 0.6293139174
C  C63  1  0.92210000  0.96330000  0.19150000  1.0 0.0117001045
C  C64  1  0.51000000  0.69260000  0.09780000  1.0 0.509583882
C  C65  1  0.36430000  0.74000000  0.28900000  1.0 0.5181027537
C  C66  1  0.16440000  0.75240000  0.16310000  1.0 0.0281159411
C  C67  1  0.57540000  0.69640000  0.15810000  1.0 0.091496143
C  C68  1  0.59860000  0.70390000  0.26740000  1.0 0.0777971889
C  C69  1  0.90990000  0.64050000  0.86920000  1.0 -0.1294931755
C  C70  1  0.90610000  0.63790000  0.80480000  1.0 0.0608333587
C  C71  1  0.89090000  0.76270000  0.80060000  1.0 0.0976072862
C  C72  1  0.89660000  0.76900000  0.86560000  1.0 -0.1294931755
C  C73  1  0.89980000  0.44520000  0.14080000  1.0 -0.1203305248
C  C74  1  0.92080000  0.49620000  0.19850000  1.0 0.0281159411
C  C75  1  0.93510000  0.58550000  0.19770000  1.0 0.6428132966
C  C76  1  0.88470000  0.36460000  0.14350000  1.0 0.0777971889
C  C77  1  0.90780000  0.38120000  0.25590000  1.0 0.1203983403
C  C78  1  0.92330000  0.46220000  0.25430000  1.0 -0.1294931755
C  C79  1  0.89260000  0.07240000  0.13070000  1.0 0.1119712885
C  C80  1  0.91440000  0.08580000  0.24070000  1.0 0.0721671819
C  C81  1  0.88220000  0.82700000  0.75860000  1.0 0.5181027537
C  C82  1  0.94980000  0.67780000  0.50940000  1.0 -0.080747385
C  C83  1  0.92800000  0.67060000  0.56800000  1.0 0.091496143
C  C84  1  0.90530000  0.79680000  0.56460000  1.0 0.1119712885
C  C85  1  0.90130000  0.99450000  0.13060000  1.0 -0.1384646059
C  C86  1  0.92710000  0.00940000  0.24450000  1.0 -0.080747385
C  C87  1  0.94810000  0.74550000  0.47640000  1.0 -0.0065134563
C  C88  1  0.68390000  0.70600000  0.27620000  1.0 -0.1203305248
C  C89  1  0.60420000  0.52740000  0.99550000  1.0 -0.5399901356
C  C90  1  0.91980000  0.13960000  0.29540000  1.0 0.5181027537
C  C91  1  0.86950000  0.30610000  0.08620000  1.0 0.5181027537
C  C92  1  0.92610000  0.60320000  0.60630000  1.0 0.5025001034
C  C93  1  0.92180000  0.80450000  0.50370000  1.0 -0.0971221164
C  C94  1  0.69690000  0.77830000  0.93180000  1.0 -0.5297789592
C  C95  1  0.72420000  0.46250000  0.98070000  1.0 -0.5297789592
C  C96  1  0.34430000  0.42100000  0.18800000  1.0 -0.5874155149
C  C97  1  0.16690000  0.58680000  0.31900000  1.0 -0.5575747476
C  C98  1  0.33810000  0.51450000  0.28480000  1.0 -0.5522694573
C  C99  1  0.17880000  0.64980000  0.44120000  1.0 -0.4888309114
C  C100  1  0.68080000  0.85650000  0.03400000  1.0 -0.5399901356
S  S1  1  0.60896000  0.48104000  0.77387000  1.0 0.7303679898
S  S2  1  0.28928000  0.43964000  0.00660000  1.0 0.6485925927
S  S3  1  0.24188000  0.17719000  0.98936000  1.0 0.7214077308
S  S4  1  0.89334000  0.37130000  0.63954000  1.0 0.7089278414
S  S5  1  0.39104000  0.51896000  0.22613000  1.0 0.7303679898
S  S6  1  0.71072000  0.56036000  0.99340000  1.0 0.6485925927
S  S7  1  0.75812000  0.82281000  0.01064000  1.0 0.7214077308
S  S8  1  0.10666000  0.62870000  0.36046000  1.0 0.7214077308
N  N1  1  0.10340000  0.30070000  0.22950000  1.0 -0.2481344824
N  N2  1  0.10190000  0.88540000  0.81620000  1.0 -0.23415768
N  N3  1  0.09440000  0.27120000  0.40530000  1.0 -0.2409511066
N  N4  1  0.10810000  0.66600000  0.79820000  1.0 -0.2481344824
N  N5  1  0.45330000  0.30040000  0.79080000  1.0 -0.2409511066
N  N6  1  0.67760000  0.26830000  0.82750000  1.0 -0.2409511066
N  N7  1  0.89660000  0.69930000  0.77050000  1.0 -0.2409511066
N  N8  1  0.89810000  0.11460000  0.18380000  1.0 -0.23415768
N  N9  1  0.90560000  0.72880000  0.59470000  1.0 -0.2409511066
N  N10  1  0.89190000  0.33400000  0.20180000  1.0 -0.2481344824
N  N11  1  0.54670000  0.69960000  0.20920000  1.0 -0.2409511066
N  N12  1  0.32240000  0.73170000  0.17250000  1.0 -0.2409511066
O  O1  1  0.02550000  0.30870000  0.61163000  1.0 -0.5780921713
O  O2  1  0.01600000  0.18290000  0.60493000  1.0 -0.5297789592
O  O3  1  0.05300000  0.45250000  0.41390000  1.0 -0.4849119172
O  O4  1  0.09050000  0.39220000  0.34170000  1.0 -0.4707868234
O  O5  1  0.07700000  0.88610000  0.65200000  1.0 -0.4521913216
O  O6  1  0.08580000  0.79130000  0.71760000  1.0 -0.5215902612
O  O7  1  0.04350000  0.13840000  0.75458000  1.0 -0.5297789592
O  O8  1  0.07400000  0.15450000  0.85938000  1.0 -0.6379567072
O  O9  1  0.12690000  0.10880000  0.21820000  1.0 -0.4888309114
O  O10  1  0.10550000  0.35410000  0.00443000  1.0 -0.6179154054
O  O11  1  0.09900000  0.22540000  0.00413000  1.0 -0.6179154054
O  O12  1  0.88290000  0.28730000  0.66200000  1.0 -0.5780921713
O  O13  1  0.04700000  0.37370000  0.74842000  1.0 -0.6693521426
O  O14  1  0.94390000  0.23430000  0.79138000  1.0 -0.6494671986
O  O15  1  0.97180000  0.25080000  0.89844000  1.0 -0.5874155149
O  O16  1  0.64300000  0.42990000  0.82240000  1.0 -0.5985676036
O  O17  1  0.57220000  0.27580000  0.71961000  1.0 -0.5215902612
O  O18  1  0.65150000  0.25050000  0.66060000  1.0 -0.4434536979
O  O19  1  0.16910000  0.29390000  0.81938000  1.0 -0.6693521426
O  O20  1  0.14620000  0.27710000  0.71350000  1.0 -0.5731227384
O  O21  1  0.47390000  0.31530000  0.95380000  1.0 -0.4521913216
O  O22  1  0.56160000  0.29990000  0.89846000  1.0 -0.4888309114
O  O23  1  0.24100000  0.24950000  0.95212000  1.0 -0.655164747
O  O24  1  0.23880000  0.40580000  0.93749000  1.0 -0.6331924484
O  O25  1  0.07250000  0.38980000  0.85781000  1.0 -0.6494671986
O  O26  1  0.13910000  0.67300000  0.96670000  1.0 -0.4608363197
O  O27  1  0.13250000  0.76760000  0.89860000  1.0 -0.5215902612
O  O28  1  0.26150000  0.35370000  0.35900000  1.0 -0.3887770758
O  O29  1  0.26110000  0.83230000  0.81880000  1.0 -0.4259775862
O  O30  1  0.87900000  0.13040000  0.66890000  1.0 -0.3967612371
O  O31  1  0.11900000  0.18670000  0.29930000  1.0 -0.4888309114
O  O32  1  0.97450000  0.69130000  0.38837000  1.0 -0.5780921713
O  O33  1  0.98400000  0.81710000  0.39507000  1.0 -0.5297789592
O  O34  1  0.94700000  0.54750000  0.58610000  1.0 -0.4849119172
O  O35  1  0.90950000  0.60780000  0.65830000  1.0 -0.4707868234
O  O36  1  0.92300000  0.11390000  0.34800000  1.0 -0.4521913216
O  O37  1  0.91420000  0.20870000  0.28240000  1.0 -0.5215902612
O  O38  1  0.95650000  0.86160000  0.24542000  1.0 -0.5297789592
O  O39  1  0.92600000  0.84550000  0.14062000  1.0 -0.6379567072
O  O40  1  0.87310000  0.89120000  0.78180000  1.0 -0.4888309114
O  O41  1  0.89450000  0.64590000  0.99557000  1.0 -0.6179154054
O  O42  1  0.90100000  0.77460000  0.99587000  1.0 -0.6179154054
O  O43  1  0.11710000  0.71270000  0.33800000  1.0 -0.5780921713
O  O44  1  0.95300000  0.62630000  0.25158000  1.0 -0.6693521426
O  O45  1  0.05610000  0.76570000  0.20862000  1.0 -0.6494671986
O  O46  1  0.02820000  0.74920000  0.10156000  1.0 -0.5874155149
O  O47  1  0.35700000  0.57010000  0.17760000  1.0 -0.5985676036
O  O48  1  0.42780000  0.72420000  0.28039000  1.0 -0.5215902612
O  O49  1  0.34850000  0.74950000  0.33940000  1.0 -0.4434536979
O  O50  1  0.83090000  0.70610000  0.18062000  1.0 -0.6693521426
O  O51  1  0.85380000  0.72290000  0.28650000  1.0 -0.5731227384
O  O52  1  0.52610000  0.68470000  0.04620000  1.0 -0.4521913216
O  O53  1  0.43840000  0.70010000  0.10154000  1.0 -0.4888309114
O  O54  1  0.75900000  0.75050000  0.04788000  1.0 -0.655164747
O  O55  1  0.76120000  0.59420000  0.06251000  1.0 -0.6331924484
O  O56  1  0.92750000  0.61020000  0.14219000  1.0 -0.6494671986
O  O57  1  0.86090000  0.32700000  0.03330000  1.0 -0.4608363197
O  O58  1  0.86750000  0.23240000  0.10140000  1.0 -0.5215902612
O  O59  1  0.73850000  0.64630000  0.64100000  1.0 -0.3887770758
O  O60  1  0.73890000  0.16770000  0.18120000  1.0 -0.4054675684
O  O61  1  0.12100000  0.86960000  0.33110000  1.0 -0.3887770758
O  O62  1  0.88100000  0.81330000  0.70070000  1.0 -0.4888309114
