# DDEC6 charges by PACMAN v1.1 (https://github.com/mtap-research/PACMAN-charge/)
data_VUFBEE_ASR_pacman
_symmetry_space_group_name_H-M   'P 1'
_cell_length_a   7.07000000
_cell_length_b   12.35600000
_cell_length_c   17.12000000
_cell_angle_alpha   75.69800000
_cell_angle_beta   85.65100000
_cell_angle_gamma   78.33100000
_symmetry_Int_Tables_number   1
_chemical_formula_structural   MnV4(PO5)4
_chemical_formula_sum   'Mn2 V8 P8 O40'
_cell_volume   1418.72020464
_cell_formula_units_Z   2
loop_
 _symmetry_equiv_pos_site_id
 _symmetry_equiv_pos_as_xyz
  1  'x, y, z'
loop_
 _atom_site_type_symbol
 _atom_site_label
 _atom_site_symmetry_multiplicity
 _atom_site_fract_x
 _atom_site_fract_y
 _atom_site_fract_z
 _atom_site_occupancy
 _atom_site_charge
Mn  Mn1  1  0.25068000  0.75016000  0.74994000  1.0 1.3318420536
Mn  Mn2  1  0.74932000  0.24984000  0.25006000  1.0 1.3382381088
V  V1  1  0.46908000  0.70373000  0.57271000  1.0 1.7997135208
V  V2  1  0.53092000  0.29627000  0.42729000  1.0 1.7997135208
V  V3  1  0.03136000  0.79622000  0.92755000  1.0 1.8193739539
V  V4  1  0.96864000  0.20378000  0.07245000  1.0 1.7997135208
V  V5  1  0.26650000  0.24707000  0.75288000  1.0 1.8193739539
V  V6  1  0.73350000  0.75293000  0.24712000  1.0 1.8193739539
V  V7  1  0.76552000  0.25317000  0.74768000  1.0 1.8406862504
V  V8  1  0.23448000  0.74683000  0.25232000  1.0 1.8406862504
P  P1  1  0.06603000  0.01489000  0.78355000  1.0 1.476573456
P  P2  1  0.93397000  0.98511000  0.21645000  1.0 1.4714666889
P  P3  1  0.48633000  0.73958000  0.41183000  1.0 1.4208241588
P  P4  1  0.51367000  0.26042000  0.58817000  1.0 1.4208241588
P  P5  1  0.43458000  0.48505000  0.71645000  1.0 1.4714666889
P  P6  1  0.56542000  0.51495000  0.28355000  1.0 1.4714666889
P  P7  1  0.01490000  0.76094000  0.08847000  1.0 1.4208241588
P  P8  1  0.98510000  0.23906000  0.91153000  1.0 1.4208241588
O  O1  1  0.13040000  0.93080000  0.73040000  1.0 -0.6912409031
O  O2  1  0.86960000  0.06920000  0.26960000  1.0 -0.6912409031
O  O3  1  0.21450000  0.08970000  0.78270000  1.0 -0.7501563841
O  O4  1  0.78550000  0.91030000  0.21730000  1.0 -0.7501563841
O  O5  1  0.03140000  0.95000000  0.87230000  1.0 -0.6998443865
O  O6  1  0.96860000  0.05000000  0.12770000  1.0 -0.6998443865
O  O7  1  0.87120000  0.09010000  0.75280000  1.0 -0.7199744397
O  O8  1  0.12880000  0.90990000  0.24720000  1.0 -0.7199744397
O  O9  1  0.65460000  0.77440000  0.35730000  1.0 -0.7199744397
O  O10  1  0.34540000  0.22560000  0.64270000  1.0 -0.7199744397
O  O11  1  0.32070000  0.73040000  0.36390000  1.0 -0.7313731664
O  O12  1  0.67930000  0.26960000  0.63610000  1.0 -0.7313731664
O  O13  1  0.54430000  0.62800000  0.47750000  1.0 -0.6448831075
O  O14  1  0.45570000  0.37200000  0.52250000  1.0 -0.6475402826
O  O15  1  0.41070000  0.82070000  0.46860000  1.0 -0.676208567
O  O16  1  0.58930000  0.17930000  0.53140000  1.0 -0.676208567
O  O17  1  0.28620000  0.40960000  0.71810000  1.0 -0.736203801
O  O18  1  0.71380000  0.59040000  0.28190000  1.0 -0.7313731664
O  O19  1  0.62940000  0.41020000  0.74710000  1.0 -0.736203801
O  O20  1  0.37060000  0.58980000  0.25290000  1.0 -0.7313731664
O  O21  1  0.46530000  0.54950000  0.62790000  1.0 -0.6998443865
O  O22  1  0.53470000  0.45050000  0.37210000  1.0 -0.6998443865
O  O23  1  0.36890000  0.56970000  0.76920000  1.0 -0.6912409031
O  O24  1  0.63110000  0.43030000  0.23080000  1.0 -0.6912409031
O  O25  1  0.18210000  0.76930000  0.13780000  1.0 -0.7146796101
O  O26  1  0.81790000  0.23070000  0.86220000  1.0 -0.7199744397
O  O27  1  0.09440000  0.67930000  0.03190000  1.0 -0.6742003077
O  O28  1  0.90560000  0.32070000  0.96810000  1.0 -0.6742003077
O  O29  1  0.95700000  0.87150000  0.02248000  1.0 -0.6475402826
O  O30  1  0.04300000  0.12850000  0.97752000  1.0 -0.6475402826
O  O31  1  0.84670000  0.72520000  0.14170000  1.0 -0.7199744397
O  O32  1  0.15330000  0.27480000  0.85830000  1.0 -0.7313731664
O  O33  1  0.51240000  0.20500000  0.78740000  1.0 -0.7717305535
O  O34  1  0.48760000  0.79500000  0.21260000  1.0 -0.7770439301
O  O35  1  0.28450000  0.76330000  0.62270000  1.0 -0.7908368969
O  O36  1  0.71550000  0.23670000  0.37730000  1.0 -0.7908368969
O  O37  1  0.99370000  0.29540000  0.71330000  1.0 -0.7770439301
O  O38  1  0.00630000  0.70460000  0.28670000  1.0 -0.7770439301
O  O39  1  0.21700000  0.73740000  0.87730000  1.0 -0.7908368969
O  O40  1  0.78300000  0.26260000  0.12270000  1.0 -0.7908368969
