# DDEC6 charges by PACMAN v1.1 (https://github.com/mtap-research/PACMAN-charge/)
data_VUHPAR_ASR_pacman
_symmetry_space_group_name_H-M   'P 1'
_cell_length_a   18.95590000
_cell_length_b   18.95590000
_cell_length_c   31.08110000
_cell_angle_alpha   79.36490000
_cell_angle_beta   100.63500000
_cell_angle_gamma   134.04000000
_symmetry_Int_Tables_number   1
_chemical_formula_structural   Zn5H60C57I12N12O
_chemical_formula_sum   'Zn20 H240 C228 I48 N48 O4'
_cell_volume   7865.38797792
_cell_formula_units_Z   4
loop_
 _symmetry_equiv_pos_site_id
 _symmetry_equiv_pos_as_xyz
  1  'x, y, z'
loop_
 _atom_site_type_symbol
 _atom_site_label
 _atom_site_symmetry_multiplicity
 _atom_site_fract_x
 _atom_site_fract_y
 _atom_site_fract_z
 _atom_site_occupancy
 _atom_site_charge
Zn  Zn1  1  0.47375000  0.72595000  0.93819000  1.0 0.2295544381
Zn  Zn2  1  0.27405000  0.52625000  0.43819000  1.0 0.2295544381
Zn  Zn3  1  0.81050000  0.47250000  0.26610000  1.0 0.2360332991
Zn  Zn4  1  0.52750000  0.18950000  0.76610000  1.0 0.2360332991
Zn  Zn5  1  0.21044000  0.05016000  0.59210000  1.0 0.3304109881
Zn  Zn6  1  0.94984000  0.78956000  0.09210000  1.0 0.3304109881
Zn  Zn7  1  0.81600000  0.46360000  0.27620000  1.0 0.2590494576
Zn  Zn8  1  0.53640000  0.18400000  0.77620000  1.0 0.2590494576
Zn  Zn9  1  0.20400000  0.02920000  0.58950000  1.0 0.3908932629
Zn  Zn10  1  0.97080000  0.79600000  0.08950000  1.0 0.3908932629
Zn  Zn11  1  0.72595000  0.47375000  0.56181000  1.0 0.2295544381
Zn  Zn12  1  0.52625000  0.27405000  0.06181000  1.0 0.2295544381
Zn  Zn13  1  0.47250000  0.81050000  0.23390000  1.0 0.2360332991
Zn  Zn14  1  0.18950000  0.52750000  0.73390000  1.0 0.2360332991
Zn  Zn15  1  0.05016000  0.21044000  0.90790000  1.0 0.3304109881
Zn  Zn16  1  0.78956000  0.94984000  0.40790000  1.0 0.3304109881
Zn  Zn17  1  0.46360000  0.81600000  0.22380000  1.0 0.2590494576
Zn  Zn18  1  0.18400000  0.53640000  0.72380000  1.0 0.2590494576
Zn  Zn19  1  0.02920000  0.20400000  0.91050000  1.0 0.3908932629
Zn  Zn20  1  0.79600000  0.97080000  0.41050000  1.0 0.3908932629
H  H1  1  0.66666667  0.46670000  0.29480000  1.0 0.0874510678
H  H2  1  0.53330000  0.33333333  0.79480000  1.0 0.0874510678
H  H3  1  0.65170000  0.53450000  0.34340000  1.0 0.1306093185
H  H4  1  0.46550000  0.34830000  0.84340000  1.0 0.1306093185
H  H5  1  0.91230000  0.64170000  0.40370000  1.0 0.1306093185
H  H6  1  0.35830000  0.08770000  0.90370000  1.0 0.1306093185
H  H7  1  0.92320000  0.57660000  0.35300000  1.0 0.0874510678
H  H8  1  0.42340000  0.07680000  0.85300000  1.0 0.0874510678
H  H9  1  0.00170000  0.96450000  0.56310000  1.0 0.0874510678
H  H10  1  0.03550000  0.99830000  0.06310000  1.0 0.0874510678
H  H11  1  0.86120000  0.84420000  0.52090000  1.0 0.1306093185
H  H12  1  0.15580000  0.13880000  0.02090000  1.0 0.1306093185
H  H13  1  0.01480000  0.79660000  0.47890000  1.0 0.1306093185
H  H14  1  0.20340000  0.98520000  0.97890000  1.0 0.1306093185
H  H15  1  0.15130000  0.92090000  0.52290000  1.0 0.0874510678
H  H16  1  0.07910000  0.84870000  0.02290000  1.0 0.0874510678
H  H17  1  0.39370000  0.55110000  0.37970000  1.0 0.0694093161
H  H18  1  0.44890000  0.60630000  0.87970000  1.0 0.0694093161
H  H19  1  0.54050000  0.58950000  0.37890000  1.0 0.1306093185
H  H20  1  0.41050000  0.45950000  0.87890000  1.0 0.1306093185
H  H21  1  0.60020000  0.64460000  0.50550000  1.0 0.1306093185
H  H22  1  0.35540000  0.39980000  0.00550000  1.0 0.1306093185
H  H23  1  0.45120000  0.60260000  0.50270000  1.0 0.0790821647
H  H24  1  0.39740000  0.54880000  0.00270000  1.0 0.0790821647
H  H25  1  0.03780000  0.84760000  0.62720000  1.0 0.0790821647
H  H26  1  0.15240000  0.96220000  0.12720000  1.0 0.0790821647
H  H27  1  0.99380000  0.72720000  0.68340000  1.0 0.1185632963
H  H28  1  0.27280000  0.00620000  0.18340000  1.0 0.1185632963
H  H29  1  0.27990000  0.89410000  0.72190000  1.0 0.1185632963
H  H30  1  0.10590000  0.72010000  0.22190000  1.0 0.1185632963
H  H31  1  0.31660000  0.00500000  0.66230000  1.0 0.0694093161
H  H32  1  0.99500000  0.68340000  0.16230000  1.0 0.0694093161
H  H33  1  0.25610000  0.57870000  0.92280000  1.0 0.0694093161
H  H34  1  0.42130000  0.74390000  0.42280000  1.0 0.0694093161
H  H35  1  0.12910000  0.54990000  0.87500000  1.0 0.1185632963
H  H36  1  0.45010000  0.87090000  0.37500000  1.0 0.1185632963
H  H37  1  0.33760000  0.80720000  0.80640000  1.0 0.1002126138
H  H38  1  0.19280000  0.66240000  0.30640000  1.0 0.1002126138
H  H39  1  0.45580000  0.82720000  0.85610000  1.0 0.0790821647
H  H40  1  0.17280000  0.54420000  0.35610000  1.0 0.0790821647
H  H41  1  0.72050000  0.25930000  0.82140000  1.0 0.0874510678
H  H42  1  0.74070000  0.27950000  0.32140000  1.0 0.0874510678
H  H43  1  0.88740000  0.40100000  0.82810000  1.0 0.1353138285
H  H44  1  0.59900000  0.11260000  0.32810000  1.0 0.1353138285
H  H45  1  0.83240000  0.53720000  0.73330000  1.0 0.1306093185
H  H46  1  0.46280000  0.16760000  0.23330000  1.0 0.1306093185
H  H47  1  0.66740000  0.39240000  0.73070000  1.0 0.0694093161
H  H48  1  0.60760000  0.33260000  0.23070000  1.0 0.0694093161
H  H49  1  0.46670000  0.66666667  0.20520000  1.0 0.0874510678
H  H50  1  0.33333333  0.53330000  0.70520000  1.0 0.0874510678
H  H51  1  0.53450000  0.65170000  0.15660000  1.0 0.1306093185
H  H52  1  0.34830000  0.46550000  0.65660000  1.0 0.1306093185
H  H53  1  0.64170000  0.91230000  0.09630000  1.0 0.1306093185
H  H54  1  0.08770000  0.35830000  0.59630000  1.0 0.1306093185
H  H55  1  0.57660000  0.92320000  0.14700000  1.0 0.0874510678
H  H56  1  0.07680000  0.42340000  0.64700000  1.0 0.0874510678
H  H57  1  0.96450000  0.00170000  0.93690000  1.0 0.0874510678
H  H58  1  0.99830000  0.03550000  0.43690000  1.0 0.0874510678
H  H59  1  0.84420000  0.86120000  0.97910000  1.0 0.1306093185
H  H60  1  0.13880000  0.15580000  0.47910000  1.0 0.1306093185
H  H61  1  0.79660000  0.01480000  0.02110000  1.0 0.1306093185
H  H62  1  0.98520000  0.20340000  0.52110000  1.0 0.1306093185
H  H63  1  0.92090000  0.15130000  0.97710000  1.0 0.0874510678
H  H64  1  0.84870000  0.07910000  0.47710000  1.0 0.0874510678
H  H65  1  0.55110000  0.39370000  0.12030000  1.0 0.0694093161
H  H66  1  0.60630000  0.44890000  0.62030000  1.0 0.0694093161
H  H67  1  0.58950000  0.54050000  0.12110000  1.0 0.1306093185
H  H68  1  0.45950000  0.41050000  0.62110000  1.0 0.1306093185
H  H69  1  0.64460000  0.60020000  0.99450000  1.0 0.1306093185
H  H70  1  0.39980000  0.35540000  0.49450000  1.0 0.1306093185
H  H71  1  0.60260000  0.45120000  0.99730000  1.0 0.0790821647
H  H72  1  0.54880000  0.39740000  0.49730000  1.0 0.0790821647
H  H73  1  0.84760000  0.03780000  0.87280000  1.0 0.0790821647
H  H74  1  0.96220000  0.15240000  0.37280000  1.0 0.0790821647
H  H75  1  0.72720000  0.99380000  0.81660000  1.0 0.1185632963
H  H76  1  0.00620000  0.27280000  0.31660000  1.0 0.1185632963
H  H77  1  0.89410000  0.27990000  0.77810000  1.0 0.1185632963
H  H78  1  0.72010000  0.10590000  0.27810000  1.0 0.1185632963
H  H79  1  0.00500000  0.31660000  0.83770000  1.0 0.0694093161
H  H80  1  0.68340000  0.99500000  0.33770000  1.0 0.0694093161
H  H81  1  0.57870000  0.25610000  0.57720000  1.0 0.0694093161
H  H82  1  0.74390000  0.42130000  0.07720000  1.0 0.0694093161
H  H83  1  0.54990000  0.12910000  0.62500000  1.0 0.1185632963
H  H84  1  0.87090000  0.45010000  0.12500000  1.0 0.1185632963
H  H85  1  0.80720000  0.33760000  0.69360000  1.0 0.1002126138
H  H86  1  0.66240000  0.19280000  0.19360000  1.0 0.1002126138
H  H87  1  0.82720000  0.45580000  0.64390000  1.0 0.0790821647
H  H88  1  0.54420000  0.17280000  0.14390000  1.0 0.0790821647
H  H89  1  0.25930000  0.72050000  0.67860000  1.0 0.0874510678
H  H90  1  0.27950000  0.74070000  0.17860000  1.0 0.0874510678
H  H91  1  0.40100000  0.88740000  0.67190000  1.0 0.1353138285
H  H92  1  0.11260000  0.59900000  0.17190000  1.0 0.1353138285
H  H93  1  0.53720000  0.83240000  0.76670000  1.0 0.1306093185
H  H94  1  0.16760000  0.46280000  0.26670000  1.0 0.1306093185
H  H95  1  0.39240000  0.66740000  0.76930000  1.0 0.0694093161
H  H96  1  0.33260000  0.60760000  0.26930000  1.0 0.0694093161
H  H97  1  0.37970000  0.93590000  0.57040000  1.0 0.1002126138
H  H98  1  0.62030000  0.06410000  0.42960000  1.0 0.1002126138
H  H99  1  0.43380000  0.89700000  0.58230000  1.0 0.1002126138
H  H100  1  0.56620000  0.10300000  0.41770000  1.0 0.1002126138
H  H101  1  0.28390000  0.73850000  0.55390000  1.0 0.1076713773
H  H102  1  0.71610000  0.26150000  0.44610000  1.0 0.1076713773
H  H103  1  0.05920000  0.62200000  0.58020000  1.0 0.0590487703
H  H104  1  0.94080000  0.37800000  0.41980000  1.0 0.0590487703
H  H105  1  0.11300000  0.59860000  0.56010000  1.0 0.0590487703
H  H106  1  0.88700000  0.40140000  0.43990000  1.0 0.0590487703
H  H107  1  0.01510000  0.64410000  0.52030000  1.0 0.0590487703
H  H108  1  0.98490000  0.35590000  0.47970000  1.0 0.0590487703
H  H109  1  0.05500000  0.60740000  0.50090000  1.0 0.0790821647
H  H110  1  0.94500000  0.39260000  0.49910000  1.0 0.0790821647
H  H111  1  0.13500000  0.79320000  0.49000000  1.0 0.1002126138
H  H112  1  0.86500000  0.20680000  0.51000000  1.0 0.1002126138
H  H113  1  0.18910000  0.78270000  0.39840000  1.0 0.1002126138
H  H114  1  0.81090000  0.21730000  0.60160000  1.0 0.1002126138
H  H115  1  0.19360000  0.84520000  0.42930000  1.0 0.1185632963
H  H116  1  0.80640000  0.15480000  0.57070000  1.0 0.1185632963
H  H117  1  0.28150000  0.77410000  0.45790000  1.0 0.0790821647
H  H118  1  0.71850000  0.22590000  0.54210000  1.0 0.0790821647
H  H119  1  0.35740000  0.96240000  0.47880000  1.0 0.1002126138
H  H120  1  0.64260000  0.03760000  0.52120000  1.0 0.1002126138
H  H121  1  0.52150000  0.89670000  0.53780000  1.0 0.1002126138
H  H122  1  0.47850000  0.10330000  0.46220000  1.0 0.1002126138
H  H123  1  0.41550000  0.80730000  0.51590000  1.0 0.0874510678
H  H124  1  0.58450000  0.19270000  0.48410000  1.0 0.0874510678
H  H125  1  0.57420000  0.06920000  0.54910000  1.0 0.1878982233
H  H126  1  0.42580000  0.93080000  0.45090000  1.0 0.1878982233
H  H127  1  0.57170000  0.09950000  0.49760000  1.0 0.0694093161
H  H128  1  0.42830000  0.90050000  0.50240000  1.0 0.0694093161
H  H129  1  0.11020000  0.73900000  0.59440000  1.0 0.0790821647
H  H130  1  0.88980000  0.26100000  0.40560000  1.0 0.0790821647
H  H131  1  0.19990000  0.84630000  0.57340000  1.0 0.0694093161
H  H132  1  0.80010000  0.15370000  0.42660000  1.0 0.0694093161
H  H133  1  0.21680000  0.80660000  0.62050000  1.0 0.0874510678
H  H134  1  0.78320000  0.19340000  0.37950000  1.0 0.0874510678
H  H135  1  0.14300000  0.68360000  0.40390000  1.0 0.1076713773
H  H136  1  0.85700000  0.31640000  0.59610000  1.0 0.1076713773
H  H137  1  0.05360000  0.59060000  0.43190000  1.0 0.0694093161
H  H138  1  0.94640000  0.40940000  0.56810000  1.0 0.0694093161
H  H139  1  0.16450000  0.64530000  0.45010000  1.0 0.1076713773
H  H140  1  0.83550000  0.35470000  0.54990000  1.0 0.1076713773
H  H141  1  0.49860000  0.10300000  0.51450000  1.0 0.0590487703
H  H142  1  0.50140000  0.89700000  0.48550000  1.0 0.0590487703
H  H143  1  0.49120000  0.90620000  0.47140000  1.0 0.0694093161
H  H144  1  0.50880000  0.09380000  0.52860000  1.0 0.0694093161
H  H145  1  0.11870000  0.59810000  0.53520000  1.0 0.0694093161
H  H146  1  0.88130000  0.40190000  0.46480000  1.0 0.0694093161
H  H147  1  0.12460000  0.53120000  0.57240000  1.0 0.0694093161
H  H148  1  0.87540000  0.46880000  0.42760000  1.0 0.0694093161
H  H149  1  0.14360000  0.62080000  0.62750000  1.0 0.0496481947
H  H150  1  0.85640000  0.37920000  0.37250000  1.0 0.0496481947
H  H151  1  0.23430000  0.68930000  0.59710000  1.0 0.0790821647
H  H152  1  0.76570000  0.31070000  0.40290000  1.0 0.0790821647
H  H153  1  0.20310000  0.78530000  0.57290000  1.0 0.0694093161
H  H154  1  0.79690000  0.21470000  0.42710000  1.0 0.0694093161
H  H155  1  0.11780000  0.72160000  0.60630000  1.0 0.0694093161
H  H156  1  0.88220000  0.27840000  0.39370000  1.0 0.0694093161
H  H157  1  0.04630000  0.70850000  0.53090000  1.0 0.0694093161
H  H158  1  0.95370000  0.29150000  0.46910000  1.0 0.0694093161
H  H159  1  0.08730000  0.66390000  0.51910000  1.0 0.0293173701
H  H160  1  0.91270000  0.33610000  0.48090000  1.0 0.0293173701
H  H161  1  0.91270000  0.53550000  0.54040000  1.0 0.0694093161
H  H162  1  0.08730000  0.46450000  0.45960000  1.0 0.0694093161
H  H163  1  0.95670000  0.56930000  0.58940000  1.0 0.0694093161
H  H164  1  0.04330000  0.43070000  0.41060000  1.0 0.0694093161
H  H165  1  0.95490000  0.44790000  0.54810000  1.0 0.0874510678
H  H166  1  0.04510000  0.55210000  0.45190000  1.0 0.0874510678
H  H167  1  0.97620000  0.46280000  0.59980000  1.0 0.0590487703
H  H168  1  0.02380000  0.53720000  0.40020000  1.0 0.0590487703
H  H169  1  0.93590000  0.37970000  0.92960000  1.0 0.1002126138
H  H170  1  0.06410000  0.62030000  0.07040000  1.0 0.1002126138
H  H171  1  0.89700000  0.43380000  0.91770000  1.0 0.1002126138
H  H172  1  0.10300000  0.56620000  0.08230000  1.0 0.1002126138
H  H173  1  0.73850000  0.28390000  0.94610000  1.0 0.1076713773
H  H174  1  0.26150000  0.71610000  0.05390000  1.0 0.1076713773
H  H175  1  0.62200000  0.05920000  0.91980000  1.0 0.0590487703
H  H176  1  0.37800000  0.94080000  0.08020000  1.0 0.0590487703
H  H177  1  0.59860000  0.11300000  0.93990000  1.0 0.0590487703
H  H178  1  0.40140000  0.88700000  0.06010000  1.0 0.0590487703
H  H179  1  0.64410000  0.01510000  0.97970000  1.0 0.0590487703
H  H180  1  0.35590000  0.98490000  0.02030000  1.0 0.0590487703
H  H181  1  0.60740000  0.05500000  0.99910000  1.0 0.0790821647
H  H182  1  0.39260000  0.94500000  0.00090000  1.0 0.0790821647
H  H183  1  0.79320000  0.13500000  0.01000000  1.0 0.1002126138
H  H184  1  0.20680000  0.86500000  0.99000000  1.0 0.1002126138
H  H185  1  0.78270000  0.18910000  0.10160000  1.0 0.1002126138
H  H186  1  0.21730000  0.81090000  0.89840000  1.0 0.1002126138
H  H187  1  0.84520000  0.19360000  0.07070000  1.0 0.1185632963
H  H188  1  0.15480000  0.80640000  0.92930000  1.0 0.1185632963
H  H189  1  0.77410000  0.28150000  0.04210000  1.0 0.0790821647
H  H190  1  0.22590000  0.71850000  0.95790000  1.0 0.0790821647
H  H191  1  0.96240000  0.35740000  0.02120000  1.0 0.1002126138
H  H192  1  0.03760000  0.64260000  0.97880000  1.0 0.1002126138
H  H193  1  0.89670000  0.52150000  0.96220000  1.0 0.1002126138
H  H194  1  0.10330000  0.47850000  0.03780000  1.0 0.1002126138
H  H195  1  0.80730000  0.41550000  0.98410000  1.0 0.0874510678
H  H196  1  0.19270000  0.58450000  0.01590000  1.0 0.0874510678
H  H197  1  0.06920000  0.57420000  0.95090000  1.0 0.1878982233
H  H198  1  0.93080000  0.42580000  0.04910000  1.0 0.1878982233
H  H199  1  0.09950000  0.57170000  0.00240000  1.0 0.0694093161
H  H200  1  0.90050000  0.42830000  0.99760000  1.0 0.0694093161
H  H201  1  0.73900000  0.11020000  0.90560000  1.0 0.0790821647
H  H202  1  0.26100000  0.88980000  0.09440000  1.0 0.0790821647
H  H203  1  0.84630000  0.19990000  0.92660000  1.0 0.0694093161
H  H204  1  0.15370000  0.80010000  0.07340000  1.0 0.0694093161
H  H205  1  0.80660000  0.21680000  0.87950000  1.0 0.0874510678
H  H206  1  0.19340000  0.78320000  0.12050000  1.0 0.0874510678
H  H207  1  0.68360000  0.14300000  0.09610000  1.0 0.1076713773
H  H208  1  0.31640000  0.85700000  0.90390000  1.0 0.1076713773
H  H209  1  0.59060000  0.05360000  0.06810000  1.0 0.0694093161
H  H210  1  0.40940000  0.94640000  0.93190000  1.0 0.0694093161
H  H211  1  0.64530000  0.16450000  0.04990000  1.0 0.1076713773
H  H212  1  0.35470000  0.83550000  0.95010000  1.0 0.1076713773
H  H213  1  0.10300000  0.49860000  0.98550000  1.0 0.0590487703
H  H214  1  0.89700000  0.50140000  0.01450000  1.0 0.0590487703
H  H215  1  0.90620000  0.49120000  0.02860000  1.0 0.0694093161
H  H216  1  0.09380000  0.50880000  0.97140000  1.0 0.0694093161
H  H217  1  0.59810000  0.11870000  0.96480000  1.0 0.0694093161
H  H218  1  0.40190000  0.88130000  0.03520000  1.0 0.0694093161
H  H219  1  0.53120000  0.12460000  0.92760000  1.0 0.0694093161
H  H220  1  0.46880000  0.87540000  0.07240000  1.0 0.0694093161
H  H221  1  0.62080000  0.14360000  0.87250000  1.0 0.0496481947
H  H222  1  0.37920000  0.85640000  0.12750000  1.0 0.0496481947
H  H223  1  0.68930000  0.23430000  0.90290000  1.0 0.0790821647
H  H224  1  0.31070000  0.76570000  0.09710000  1.0 0.0790821647
H  H225  1  0.78530000  0.20310000  0.92710000  1.0 0.0694093161
H  H226  1  0.21470000  0.79690000  0.07290000  1.0 0.0694093161
H  H227  1  0.72160000  0.11780000  0.89370000  1.0 0.0694093161
H  H228  1  0.27840000  0.88220000  0.10630000  1.0 0.0694093161
H  H229  1  0.70850000  0.04630000  0.96910000  1.0 0.0694093161
H  H230  1  0.29150000  0.95370000  0.03090000  1.0 0.0694093161
H  H231  1  0.66390000  0.08730000  0.98090000  1.0 0.0293173701
H  H232  1  0.33610000  0.91270000  0.01910000  1.0 0.0293173701
H  H233  1  0.53550000  0.91270000  0.95960000  1.0 0.0694093161
H  H234  1  0.46450000  0.08730000  0.04040000  1.0 0.0694093161
H  H235  1  0.56930000  0.95670000  0.91060000  1.0 0.0694093161
H  H236  1  0.43070000  0.04330000  0.08940000  1.0 0.0694093161
H  H237  1  0.44790000  0.95490000  0.95190000  1.0 0.0874510678
H  H238  1  0.55210000  0.04510000  0.04810000  1.0 0.0874510678
H  H239  1  0.46280000  0.97620000  0.90020000  1.0 0.0590487703
H  H240  1  0.53720000  0.02380000  0.09980000  1.0 0.0590487703
C  C1  1  0.71880000  0.50520000  0.31670000  1.0 0.0694093161
C  C2  1  0.49480000  0.28120000  0.81670000  1.0 0.0694093161
C  C3  1  0.70840000  0.54360000  0.34630000  1.0 -0.1341266287
C  C4  1  0.45640000  0.29160000  0.84630000  1.0 -0.1341266287
C  C5  1  0.77916000  0.59444000  0.37940000  1.0 0.0496481947
C  C6  1  0.40556000  0.22084000  0.87940000  1.0 0.0496481947
C  C7  1  0.86080000  0.60660000  0.38120000  1.0 -0.1679301811
C  C8  1  0.39340000  0.13920000  0.88120000  1.0 -0.1679301811
C  C9  1  0.86720000  0.56860000  0.35080000  1.0 0.0203276952
C  C10  1  0.43140000  0.13280000  0.85080000  1.0 0.0203276952
C  C11  1  0.00371000  0.92929000  0.54607000  1.0 0.0590487703
C  C12  1  0.07071000  0.99629000  0.04607000  1.0 0.0590487703
C  C13  1  0.92003000  0.85837000  0.52070000  1.0 -0.1605905983
C  C14  1  0.14163000  0.07997000  0.02070000  1.0 -0.1605905983
C  C15  1  0.92297000  0.80843000  0.49497000  1.0 0.0590487703
C  C16  1  0.19157000  0.07703000  0.99497000  1.0 0.0590487703
C  C17  1  0.01020000  0.83000000  0.49570000  1.0 -0.198861026
C  C18  1  0.17000000  0.98980000  0.99570000  1.0 -0.198861026
C  C19  1  0.09080000  0.90360000  0.52260000  1.0 -0.0035324445
C  C20  1  0.09640000  0.90920000  0.02260000  1.0 -0.0035324445
C  C21  1  0.43500000  0.56720000  0.40610000  1.0 0.0790821647
C  C22  1  0.43280000  0.56500000  0.90610000  1.0 0.0790821647
C  C23  1  0.52260000  0.59040000  0.40530000  1.0 -0.1605905983
C  C24  1  0.40960000  0.47740000  0.90530000  1.0 -0.1605905983
C  C25  1  0.58198000  0.61442000  0.44311000  1.0 0.0590487703
C  C26  1  0.38558000  0.41802000  0.94311000  1.0 0.0590487703
C  C27  1  0.55728000  0.62232000  0.47940000  1.0 -0.1605905983
C  C28  1  0.37768000  0.44272000  0.97940000  1.0 -0.1605905983
C  C29  1  0.46881000  0.59759000  0.47750000  1.0 0.0590487703
C  C30  1  0.40241000  0.53119000  0.97750000  1.0 0.0590487703
C  C31  1  0.77066000  0.63534000  0.41174000  1.0 0.3304109881
C  C32  1  0.36466000  0.22934000  0.91174000  1.0 0.3304109881
C  C33  1  0.83578000  0.73182000  0.46687000  1.0 0.3304109881
C  C34  1  0.26818000  0.16422000  0.96687000  1.0 0.3304109881
C  C35  1  0.67683000  0.64137000  0.44272000  1.0 0.3513861793
C  C36  1  0.35863000  0.32317000  0.94272000  1.0 0.3513861793
C  C37  1  0.08830000  0.85650000  0.64650000  1.0 0.0293173701
C  C38  1  0.14350000  0.91170000  0.14650000  1.0 0.0293173701
C  C39  1  0.06120000  0.78500000  0.68030000  1.0 -0.1518382103
C  C40  1  0.21500000  0.93880000  0.18030000  1.0 -0.1518382103
C  C41  1  0.13265000  0.79855000  0.70886000  1.0 0.0694093161
C  C42  1  0.20145000  0.86735000  0.20886000  1.0 0.0694093161
C  C43  1  0.22827000  0.88193000  0.70230000  1.0 -0.1518382103
C  C44  1  0.11807000  0.77173000  0.20230000  1.0 -0.1518382103
C  C45  1  0.24960000  0.94840000  0.66710000  1.0 0.0125129161
C  C46  1  0.05160000  0.75040000  0.16710000  1.0 0.0125129161
C  C47  1  0.27230000  0.62550000  0.89870000  1.0 0.0496481947
C  C48  1  0.37450000  0.72770000  0.39870000  1.0 0.0496481947
C  C49  1  0.19589000  0.60771000  0.87050000  1.0 -0.198861026
C  C50  1  0.39229000  0.80411000  0.37050000  1.0 -0.198861026
C  C51  1  0.21974000  0.67626000  0.83584000  1.0 0.0590487703
C  C52  1  0.32374000  0.78026000  0.33584000  1.0 0.0590487703
C  C53  1  0.31880000  0.75920000  0.83020000  1.0 -0.1605905983
C  C54  1  0.24080000  0.68120000  0.33020000  1.0 -0.1605905983
C  C55  1  0.38850000  0.77010000  0.85970000  1.0 0.0293173701
C  C56  1  0.22990000  0.61150000  0.35970000  1.0 0.0293173701
C  C57  1  0.74390000  0.31690000  0.80310000  1.0 0.0293173701
C  C58  1  0.68310000  0.25610000  0.30310000  1.0 0.0293173701
C  C59  1  0.84400000  0.40120000  0.80710000  1.0 -0.1791066778
C  C60  1  0.59880000  0.15600000  0.30710000  1.0 -0.1791066778
C  C61  1  0.87879000  0.48381000  0.78040000  1.0 0.0590487703
C  C62  1  0.51619000  0.12121000  0.28040000  1.0 0.0590487703
C  C63  1  0.81130000  0.48050000  0.75170000  1.0 -0.1518382103
C  C64  1  0.51950000  0.18870000  0.25170000  1.0 -0.1518382103
C  C65  1  0.71320000  0.39420000  0.75030000  1.0 0.0590487703
C  C66  1  0.60580000  0.28680000  0.25030000  1.0 0.0496481947
C  C67  1  0.10404000  0.72276000  0.74567000  1.0 0.3435452032
C  C68  1  0.27724000  0.89596000  0.24567000  1.0 0.3435452032
C  C69  1  0.14268000  0.66332000  0.80461000  1.0 0.3435452032
C  C70  1  0.33668000  0.85732000  0.30461000  1.0 0.3435452032
C  C71  1  0.98523000  0.57597000  0.77990000  1.0 0.3304109881
C  C72  1  0.42403000  0.01477000  0.27990000  1.0 0.3304109881
C  C73  1  0.50520000  0.71880000  0.18330000  1.0 0.0694093161
C  C74  1  0.28120000  0.49480000  0.68330000  1.0 0.0694093161
C  C75  1  0.54360000  0.70840000  0.15370000  1.0 -0.1341266287
C  C76  1  0.29160000  0.45640000  0.65370000  1.0 -0.1341266287
C  C77  1  0.59444000  0.77916000  0.12060000  1.0 0.0496481947
C  C78  1  0.22084000  0.40556000  0.62060000  1.0 0.0496481947
C  C79  1  0.60660000  0.86080000  0.11880000  1.0 -0.1679301811
C  C80  1  0.13920000  0.39340000  0.61880000  1.0 -0.1679301811
C  C81  1  0.56860000  0.86720000  0.14920000  1.0 0.0203276952
C  C82  1  0.13280000  0.43140000  0.64920000  1.0 0.0203276952
C  C83  1  0.92929000  0.00371000  0.95393000  1.0 0.0590487703
C  C84  1  0.99629000  0.07071000  0.45393000  1.0 0.0590487703
C  C85  1  0.85837000  0.92003000  0.97930000  1.0 -0.1605905983
C  C86  1  0.07997000  0.14163000  0.47930000  1.0 -0.1605905983
C  C87  1  0.80843000  0.92297000  0.00503000  1.0 0.0590487703
C  C88  1  0.07703000  0.19157000  0.50503000  1.0 0.0590487703
C  C89  1  0.83000000  0.01020000  0.00430000  1.0 -0.198861026
C  C90  1  0.98980000  0.17000000  0.50430000  1.0 -0.198861026
C  C91  1  0.90360000  0.09080000  0.97740000  1.0 -0.0035324445
C  C92  1  0.90920000  0.09640000  0.47740000  1.0 -0.0035324445
C  C93  1  0.56720000  0.43500000  0.09390000  1.0 0.0790821647
C  C94  1  0.56500000  0.43280000  0.59390000  1.0 0.0790821647
C  C95  1  0.59040000  0.52260000  0.09470000  1.0 -0.1518382103
C  C96  1  0.47740000  0.40960000  0.59470000  1.0 -0.1605905983
C  C97  1  0.61442000  0.58198000  0.05689000  1.0 0.0590487703
C  C98  1  0.41802000  0.38558000  0.55689000  1.0 0.0590487703
C  C99  1  0.62232000  0.55728000  0.02060000  1.0 -0.1605905983
C  C100  1  0.44272000  0.37768000  0.52060000  1.0 -0.1605905983
C  C101  1  0.59759000  0.46881000  0.02250000  1.0 0.0590487703
C  C102  1  0.53119000  0.40241000  0.52250000  1.0 0.0590487703
C  C103  1  0.63534000  0.77066000  0.08826000  1.0 0.3304109881
C  C104  1  0.22934000  0.36466000  0.58826000  1.0 0.3304109881
C  C105  1  0.73182000  0.83578000  0.03313000  1.0 0.3304109881
C  C106  1  0.16422000  0.26818000  0.53313000  1.0 0.3304109881
C  C107  1  0.64137000  0.67683000  0.05728000  1.0 0.3513861793
C  C108  1  0.32317000  0.35863000  0.55728000  1.0 0.3513861793
C  C109  1  0.85650000  0.08830000  0.85350000  1.0 0.0293173701
C  C110  1  0.91170000  0.14350000  0.35350000  1.0 0.0293173701
C  C111  1  0.78500000  0.06120000  0.81970000  1.0 -0.1518382103
C  C112  1  0.93880000  0.21500000  0.31970000  1.0 -0.1518382103
C  C113  1  0.79855000  0.13265000  0.79114000  1.0 0.0694093161
C  C114  1  0.86735000  0.20145000  0.29114000  1.0 0.0694093161
C  C115  1  0.88193000  0.22827000  0.79770000  1.0 -0.1518382103
C  C116  1  0.77173000  0.11807000  0.29770000  1.0 -0.1518382103
C  C117  1  0.94840000  0.24960000  0.83290000  1.0 0.0125129161
C  C118  1  0.75040000  0.05160000  0.33290000  1.0 0.0125129161
C  C119  1  0.62550000  0.27230000  0.60130000  1.0 0.0496481947
C  C120  1  0.72770000  0.37450000  0.10130000  1.0 0.0496481947
C  C121  1  0.60771000  0.19589000  0.62950000  1.0 -0.198861026
C  C122  1  0.80411000  0.39229000  0.12950000  1.0 -0.198861026
C  C123  1  0.67626000  0.21974000  0.66416000  1.0 0.0590487703
C  C124  1  0.78026000  0.32374000  0.16416000  1.0 0.0590487703
C  C125  1  0.75920000  0.31880000  0.66980000  1.0 -0.1605905983
C  C126  1  0.68120000  0.24080000  0.16980000  1.0 -0.1605905983
C  C127  1  0.77010000  0.38850000  0.64030000  1.0 0.0293173701
C  C128  1  0.61150000  0.22990000  0.14030000  1.0 0.0293173701
C  C129  1  0.31690000  0.74390000  0.69690000  1.0 0.0293173701
C  C130  1  0.25610000  0.68310000  0.19690000  1.0 0.0293173701
C  C131  1  0.40120000  0.84400000  0.69290000  1.0 -0.1791066778
C  C132  1  0.15600000  0.59880000  0.19290000  1.0 -0.1791066778
C  C133  1  0.48381000  0.87879000  0.71960000  1.0 0.0590487703
C  C134  1  0.12121000  0.51619000  0.21960000  1.0 0.0590487703
C  C135  1  0.48050000  0.81130000  0.74830000  1.0 -0.1518382103
C  C136  1  0.18870000  0.51950000  0.24830000  1.0 -0.1518382103
C  C137  1  0.39420000  0.71320000  0.74970000  1.0 0.0590487703
C  C138  1  0.28680000  0.60580000  0.24970000  1.0 0.0590487703
C  C139  1  0.72276000  0.10404000  0.75433000  1.0 0.3435452032
C  C140  1  0.89596000  0.27724000  0.25433000  1.0 0.3435452032
C  C141  1  0.66332000  0.14268000  0.69539000  1.0 0.3435452032
C  C142  1  0.85732000  0.33668000  0.19539000  1.0 0.3435452032
C  C143  1  0.57597000  0.98523000  0.72010000  1.0 0.3304109881
C  C144  1  0.01477000  0.42403000  0.22010000  1.0 0.3304109881
C  C145  1  0.43400000  0.94200000  0.51380000  1.0 -0.0277872858
C  C146  1  0.56600000  0.05800000  0.48620000  1.0 -0.0277872858
C  C147  1  0.38620000  0.89380000  0.56070000  1.0 -0.2759621991
C  C148  1  0.61380000  0.10620000  0.43930000  1.0 -0.2759621991
C  C149  1  0.28250000  0.78350000  0.56190000  1.0 -0.2215391139
C  C150  1  0.71750000  0.21650000  0.43810000  1.0 -0.2215391139
C  C151  1  0.20580000  0.74620000  0.57050000  1.0 0.0590487703
C  C152  1  0.79420000  0.25380000  0.42950000  1.0 0.0590487703
C  C153  1  0.10710000  0.64690000  0.55920000  1.0 -0.0277872858
C  C154  1  0.89290000  0.35310000  0.44080000  1.0 -0.0277872858
C  C155  1  0.07640000  0.66160000  0.51630000  1.0 -0.0996162118
C  C156  1  0.92360000  0.33840000  0.48370000  1.0 -0.0996162118
C  C157  1  0.11560000  0.73240000  0.48730000  1.0 -0.1901196129
C  C158  1  0.88440000  0.26760000  0.51270000  1.0 -0.1901196129
C  C159  1  0.12670000  0.71130000  0.45300000  1.0 0.0125129161
C  C160  1  0.87330000  0.28870000  0.54700000  1.0 0.0125129161
C  C161  1  0.19790000  0.79610000  0.42920000  1.0 -0.2215391139
C  C162  1  0.80210000  0.20390000  0.57080000  1.0 -0.2215391139
C  C163  1  0.28710000  0.83090000  0.44820000  1.0 -0.0996162118
C  C164  1  0.71290000  0.16910000  0.55180000  1.0 -0.0996162118
C  C165  1  0.36870000  0.91730000  0.48130000  1.0 0.036346634
C  C166  1  0.63130000  0.08270000  0.51870000  1.0 0.036346634
C  C167  1  0.47200000  0.87800000  0.51320000  1.0 -0.3502652226
C  C168  1  0.52800000  0.12200000  0.48680000  1.0 -0.3502652226
C  C169  1  0.53330000  0.06470000  0.52330000  1.0 -0.0516555793
C  C170  1  0.46670000  0.93530000  0.47670000  1.0 -0.0516555793
C  C171  1  0.18170000  0.78830000  0.59140000  1.0 -0.2531947745
C  C172  1  0.81830000  0.21170000  0.40860000  1.0 -0.2531947745
C  C173  1  0.12160000  0.65440000  0.43360000  1.0 -0.3207840128
C  C174  1  0.87840000  0.34560000  0.56640000  1.0 -0.3207840128
C  C175  1  0.10390000  0.56810000  0.56600000  1.0 -0.1518382103
C  C176  1  0.89610000  0.43190000  0.43400000  1.0 -0.1518382103
C  C177  1  0.16400000  0.65000000  0.59700000  1.0 -0.1199815986
C  C178  1  0.83600000  0.35000000  0.40300000  1.0 -0.1199815986
C  C179  1  0.14200000  0.71800000  0.58200000  1.0 -0.0804575783
C  C180  1  0.85800000  0.28200000  0.41800000  1.0 -0.0804575783
C  C181  1  0.06290000  0.66910000  0.54300000  1.0 -0.0692309215
C  C182  1  0.93710000  0.33090000  0.45700000  1.0 -0.0692309215
C  C183  1  0.97100000  0.56500000  0.56200000  1.0 -0.2531947745
C  C184  1  0.02900000  0.43500000  0.43800000  1.0 -0.2531947745
C  C185  1  0.99300000  0.49700000  0.57000000  1.0 -0.2215391139
C  C186  1  0.00700000  0.50300000  0.43000000  1.0 -0.2215391139
C  C187  1  0.94200000  0.43400000  0.98620000  1.0 -0.0277872858
C  C188  1  0.05800000  0.56600000  0.01380000  1.0 -0.0277872858
C  C189  1  0.89380000  0.38620000  0.93930000  1.0 -0.2759621991
C  C190  1  0.10620000  0.61380000  0.06070000  1.0 -0.2759621991
C  C191  1  0.78350000  0.28250000  0.93810000  1.0 -0.2215391139
C  C192  1  0.21650000  0.71750000  0.06190000  1.0 -0.2215391139
C  C193  1  0.74620000  0.20580000  0.92950000  1.0 0.0590487703
C  C194  1  0.25380000  0.79420000  0.07050000  1.0 0.0590487703
C  C195  1  0.64690000  0.10710000  0.94080000  1.0 -0.0277872858
C  C196  1  0.35310000  0.89290000  0.05920000  1.0 -0.0277872858
C  C197  1  0.66160000  0.07640000  0.98370000  1.0 -0.0996162118
C  C198  1  0.33840000  0.92360000  0.01630000  1.0 -0.0996162118
C  C199  1  0.73240000  0.11560000  0.01270000  1.0 -0.1901196129
C  C200  1  0.26760000  0.88440000  0.98730000  1.0 -0.1901196129
C  C201  1  0.71130000  0.12670000  0.04700000  1.0 0.0125129161
C  C202  1  0.28870000  0.87330000  0.95300000  1.0 0.0125129161
C  C203  1  0.79610000  0.19790000  0.07080000  1.0 -0.2215391139
C  C204  1  0.20390000  0.80210000  0.92920000  1.0 -0.2215391139
C  C205  1  0.83090000  0.28710000  0.05180000  1.0 -0.0996162118
C  C206  1  0.16910000  0.71290000  0.94820000  1.0 -0.0996162118
C  C207  1  0.91730000  0.36870000  0.01870000  1.0 0.036346634
C  C208  1  0.08270000  0.63130000  0.98130000  1.0 0.036346634
C  C209  1  0.87800000  0.47200000  0.98680000  1.0 -0.3502652226
C  C210  1  0.12200000  0.52800000  0.01320000  1.0 -0.3502652226
C  C211  1  0.06470000  0.53330000  0.97670000  1.0 -0.0516555793
C  C212  1  0.93530000  0.46670000  0.02330000  1.0 -0.0516555793
C  C213  1  0.78830000  0.18170000  0.90860000  1.0 -0.2531947745
C  C214  1  0.21170000  0.81830000  0.09140000  1.0 -0.2531947745
C  C215  1  0.65440000  0.12160000  0.06640000  1.0 -0.3207840128
C  C216  1  0.34560000  0.87840000  0.93360000  1.0 -0.3207840128
C  C217  1  0.56810000  0.10390000  0.93400000  1.0 -0.1518382103
C  C218  1  0.43190000  0.89610000  0.06600000  1.0 -0.1518382103
C  C219  1  0.65000000  0.16400000  0.90300000  1.0 -0.1199815986
C  C220  1  0.35000000  0.83600000  0.09700000  1.0 -0.1199815986
C  C221  1  0.71800000  0.14200000  0.91800000  1.0 -0.0804575783
C  C222  1  0.28200000  0.85800000  0.08200000  1.0 -0.0804575783
C  C223  1  0.66910000  0.06290000  0.95700000  1.0 -0.0692309215
C  C224  1  0.33090000  0.93710000  0.04300000  1.0 -0.0692309215
C  C225  1  0.56500000  0.97100000  0.93800000  1.0 -0.2531947745
C  C226  1  0.43500000  0.02900000  0.06200000  1.0 -0.2531947745
C  C227  1  0.49700000  0.99300000  0.93000000  1.0 -0.2215391139
C  C228  1  0.50300000  0.00700000  0.07000000  1.0 -0.2215391139
I  I1  1  0.96579000  0.50701000  0.28940000  1.0 -0.0101131592
I  I2  1  0.49299000  0.03421000  0.78940000  1.0 -0.0101131592
I  I3  1  0.78108000  0.53572000  0.19375000  1.0 -0.0396924735
I  I4  1  0.46428000  0.21892000  0.69375000  1.0 -0.0396924735
I  I5  1  0.17650000  0.12758000  0.62888000  1.0 -0.2714921413
I  I6  1  0.87242000  0.82350000  0.12888000  1.0 -0.2714921413
I  I7  1  0.35982000  0.12638000  0.55498000  1.0 -0.1199815986
I  I8  1  0.87362000  0.64018000  0.05498000  1.0 -0.1145184999
I  I9  1  0.63117000  0.84043000  0.89886000  1.0 0.0203276952
I  I10  1  0.15957000  0.36883000  0.39886000  1.0 0.0203276952
I  I11  1  0.44231000  0.73089000  0.01258000  1.0 -0.0804575783
I  I12  1  0.26911000  0.55769000  0.51258000  1.0 -0.0804575783
I  I13  1  0.96070000  0.48170000  0.30430000  1.0 0.0293173701
I  I14  1  0.51830000  0.03930000  0.80430000  1.0 0.0293173701
I  I15  1  0.79920000  0.53480000  0.20030000  1.0 -0.0692309215
I  I16  1  0.46520000  0.20080000  0.70030000  1.0 -0.0692309215
I  I17  1  0.17980000  0.12700000  0.62120000  1.0 -0.2095032483
I  I18  1  0.87300000  0.82020000  0.12120000  1.0 -0.2095032483
I  I19  1  0.35430000  0.10530000  0.55240000  1.0 -0.1426174221
I  I20  1  0.89470000  0.64570000  0.05240000  1.0 -0.1426174221
I  I21  1  0.62970000  0.85810000  0.90650000  1.0 0.0125129161
I  I22  1  0.14190000  0.37030000  0.40650000  1.0 0.0125129161
I  I23  1  0.45822000  0.75918000  0.00789000  1.0 -0.0996162118
I  I24  1  0.24082000  0.54178000  0.50789000  1.0 -0.0996162118
I  I25  1  0.50701000  0.96579000  0.21060000  1.0 -0.0101131592
I  I26  1  0.03421000  0.49299000  0.71060000  1.0 -0.0101131592
I  I27  1  0.53572000  0.78108000  0.30625000  1.0 -0.0396924735
I  I28  1  0.21892000  0.46428000  0.80625000  1.0 -0.0396924735
I  I29  1  0.12758000  0.17650000  0.87112000  1.0 -0.2714921413
I  I30  1  0.82350000  0.87242000  0.37112000  1.0 -0.2714921413
I  I31  1  0.12638000  0.35982000  0.94502000  1.0 -0.1199815986
I  I32  1  0.64018000  0.87362000  0.44502000  1.0 -0.1145184999
I  I33  1  0.84043000  0.63117000  0.60114000  1.0 0.0203276952
I  I34  1  0.36883000  0.15957000  0.10114000  1.0 0.0203276952
I  I35  1  0.73089000  0.44231000  0.48742000  1.0 -0.0804575783
I  I36  1  0.55769000  0.26911000  0.98742000  1.0 -0.0804575783
I  I37  1  0.48170000  0.96070000  0.19570000  1.0 0.0293173701
I  I38  1  0.03930000  0.51830000  0.69570000  1.0 0.0293173701
I  I39  1  0.53480000  0.79920000  0.29970000  1.0 -0.0692309215
I  I40  1  0.20080000  0.46520000  0.79970000  1.0 -0.0692309215
I  I41  1  0.12700000  0.17980000  0.87880000  1.0 -0.2095032483
I  I42  1  0.82020000  0.87300000  0.37880000  1.0 -0.2095032483
I  I43  1  0.10530000  0.35430000  0.94760000  1.0 -0.1426174221
I  I44  1  0.64570000  0.89470000  0.44760000  1.0 -0.1426174221
I  I45  1  0.85810000  0.62970000  0.59350000  1.0 0.0125129161
I  I46  1  0.37030000  0.14190000  0.09350000  1.0 0.0125129161
I  I47  1  0.75918000  0.45822000  0.49211000  1.0 -0.0996162118
I  I48  1  0.54178000  0.24082000  0.99211000  1.0 -0.0996162118
N  N1  1  0.79828000  0.52032000  0.31800000  1.0 -0.198861026
N  N2  1  0.47968000  0.20172000  0.81800000  1.0 -0.198861026
N  N3  1  0.08691000  0.94989000  0.54747000  1.0 -0.2095032483
N  N4  1  0.05011000  0.91309000  0.04747000  1.0 -0.2095032483
N  N5  1  0.40799000  0.56701000  0.44153000  1.0 -0.1901196129
N  N6  1  0.43299000  0.59201000  0.94153000  1.0 -0.198861026
N  N7  1  0.84978000  0.70042000  0.43756000  1.0 -0.4106649262
N  N8  1  0.29958000  0.15022000  0.93756000  1.0 -0.4106649262
N  N9  1  0.74940000  0.70260000  0.47197000  1.0 -0.4306845022
N  N10  1  0.29740000  0.25060000  0.97197000  1.0 -0.4306845022
N  N11  1  0.68208000  0.60552000  0.41212000  1.0 -0.4106649262
N  N12  1  0.39448000  0.31792000  0.91212000  1.0 -0.4106649262
N  N13  1  0.18004000  0.93616000  0.63974000  1.0 -0.2095032483
N  N14  1  0.06384000  0.81996000  0.13974000  1.0 -0.2095032483
N  N15  1  0.36568000  0.70372000  0.89343000  1.0 -0.2095032483
N  N16  1  0.29628000  0.63432000  0.39343000  1.0 -0.2095032483
N  N17  1  0.68078000  0.31322000  0.77560000  1.0 -0.1901196129
N  N18  1  0.68678000  0.31922000  0.27560000  1.0 -0.1901196129
N  N19  1  0.17507000  0.73573000  0.77261000  1.0 -0.4197044176
N  N20  1  0.26427000  0.82493000  0.27261000  1.0 -0.4197044176
N  N21  1  0.04873000  0.58167000  0.80981000  1.0 -0.4197044176
N  N22  1  0.41833000  0.95127000  0.30981000  1.0 -0.4197044176
N  N23  1  0.00768000  0.64492000  0.74832000  1.0 -0.4197044176
N  N24  1  0.35508000  0.99232000  0.24832000  1.0 -0.4197044176
N  N25  1  0.52032000  0.79828000  0.18200000  1.0 -0.198861026
N  N26  1  0.20172000  0.47968000  0.68200000  1.0 -0.198861026
N  N27  1  0.94989000  0.08691000  0.95253000  1.0 -0.2095032483
N  N28  1  0.91309000  0.05011000  0.45253000  1.0 -0.2095032483
N  N29  1  0.56701000  0.40799000  0.05847000  1.0 -0.198861026
N  N30  1  0.59201000  0.43299000  0.55847000  1.0 -0.198861026
N  N31  1  0.70042000  0.84978000  0.06244000  1.0 -0.4106649262
N  N32  1  0.15022000  0.29958000  0.56244000  1.0 -0.4106649262
N  N33  1  0.70260000  0.74940000  0.02803000  1.0 -0.4306845022
N  N34  1  0.25060000  0.29740000  0.52803000  1.0 -0.4306845022
N  N35  1  0.60552000  0.68208000  0.08788000  1.0 -0.4106649262
N  N36  1  0.31792000  0.39448000  0.58788000  1.0 -0.4106649262
N  N37  1  0.93616000  0.18004000  0.86026000  1.0 -0.2095032483
N  N38  1  0.81996000  0.06384000  0.36026000  1.0 -0.2095032483
N  N39  1  0.70372000  0.36568000  0.60657000  1.0 -0.2095032483
N  N40  1  0.63432000  0.29628000  0.10657000  1.0 -0.2095032483
N  N41  1  0.31322000  0.68078000  0.72440000  1.0 -0.1901196129
N  N42  1  0.31922000  0.68678000  0.22440000  1.0 -0.1901196129
N  N43  1  0.73573000  0.17507000  0.72739000  1.0 -0.4197044176
N  N44  1  0.82493000  0.26427000  0.22739000  1.0 -0.4197044176
N  N45  1  0.58167000  0.04873000  0.69019000  1.0 -0.4197044176
N  N46  1  0.95127000  0.41833000  0.19019000  1.0 -0.4197044176
N  N47  1  0.64492000  0.00768000  0.75168000  1.0 -0.4197044176
N  N48  1  0.99232000  0.35508000  0.25168000  1.0 -0.4197044176
O  O1  1  0.40090000  0.92910000  0.44470000  1.0 -0.1199815986
O  O2  1  0.59910000  0.07090000  0.55530000  1.0 -0.1199815986
O  O3  1  0.92910000  0.40090000  0.05530000  1.0 -0.1199815986
O  O4  1  0.07090000  0.59910000  0.94470000  1.0 -0.1199815986
