# DDEC6 charges by PACMAN v1.1 (https://github.com/mtap-research/PACMAN-charge/)
data_VUHPUL_ASR_pacman
_symmetry_space_group_name_H-M   'P 1'
_cell_length_a   18.87690000
_cell_length_b   18.87690000
_cell_length_c   30.11300000
_cell_angle_alpha   80.15650000
_cell_angle_beta   99.84350000
_cell_angle_gamma   133.21700000
_symmetry_Int_Tables_number   1
_chemical_formula_structural   Zn6H60C57I14(N4O)3
_chemical_formula_sum   'Zn24 H240 C228 I56 N48 O12'
_cell_volume   7683.08134821
_cell_formula_units_Z   4
loop_
 _symmetry_equiv_pos_site_id
 _symmetry_equiv_pos_as_xyz
  1  'x, y, z'
loop_
 _atom_site_type_symbol
 _atom_site_label
 _atom_site_symmetry_multiplicity
 _atom_site_fract_x
 _atom_site_fract_y
 _atom_site_fract_z
 _atom_site_occupancy
 _atom_site_charge
Zn  Zn1  1  0.80488000  0.46812000  0.26855000  1.0 -0.0298424312
Zn  Zn2  1  0.53188000  0.19512000  0.76855000  1.0 -0.0298424312
Zn  Zn3  1  0.26806000  0.53228000  0.44978000  1.0 0.1993020442
Zn  Zn4  1  0.46772000  0.73194000  0.94978000  1.0 0.1929350065
Zn  Zn5  1  0.20598000  0.04972000  0.59215000  1.0 0.4230870621
Zn  Zn6  1  0.95028000  0.79402000  0.09215000  1.0 0.4230870621
Zn  Zn7  1  0.81260000  0.45720000  0.27870000  1.0 0.1290050038
Zn  Zn8  1  0.54280000  0.18740000  0.77870000  1.0 0.1290050038
Zn  Zn9  1  0.83200000  0.44080000  0.30180000  1.0 -0.0212783626
Zn  Zn10  1  0.55920000  0.16800000  0.80180000  1.0 -0.0212783626
Zn  Zn11  1  0.27900000  0.55760000  0.46010000  1.0 0.2065921641
Zn  Zn12  1  0.44240000  0.72100000  0.96010000  1.0 0.2065921641
Zn  Zn13  1  0.46812000  0.80488000  0.23145000  1.0 -0.0212783626
Zn  Zn14  1  0.19512000  0.53188000  0.73145000  1.0 -0.0298424312
Zn  Zn15  1  0.53228000  0.26806000  0.05022000  1.0 0.1993020442
Zn  Zn16  1  0.73194000  0.46772000  0.55022000  1.0 0.1929350065
Zn  Zn17  1  0.04972000  0.20598000  0.90785000  1.0 0.4230870621
Zn  Zn18  1  0.79402000  0.95028000  0.40785000  1.0 0.4230870621
Zn  Zn19  1  0.45720000  0.81260000  0.22130000  1.0 0.1207408302
Zn  Zn20  1  0.18740000  0.54280000  0.72130000  1.0 0.1207408302
Zn  Zn21  1  0.44080000  0.83200000  0.19820000  1.0 -0.0212783626
Zn  Zn22  1  0.16800000  0.55920000  0.69820000  1.0 -0.0212783626
Zn  Zn23  1  0.55760000  0.27900000  0.03990000  1.0 0.1993020442
Zn  Zn24  1  0.72100000  0.44240000  0.53990000  1.0 0.2065921641
H  H1  1  0.90550000  0.55950000  0.35960000  1.0 0.0913538003
H  H2  1  0.44050000  0.09450000  0.85960000  1.0 0.0913538003
H  H3  1  0.89630000  0.63090000  0.41130000  1.0 0.1290050038
H  H4  1  0.36910000  0.10370000  0.91130000  1.0 0.1290050038
H  H5  1  0.64710000  0.54130000  0.34130000  1.0 0.1396072524
H  H6  1  0.45870000  0.35290000  0.84130000  1.0 0.1396072524
H  H7  1  0.66580000  0.47640000  0.29190000  1.0 0.1003059265
H  H8  1  0.52360000  0.33420000  0.79190000  1.0 0.1003059265
H  H9  1  0.44530000  0.60270000  0.51610000  1.0 0.0913538003
H  H10  1  0.39730000  0.55470000  0.01610000  1.0 0.0913538003
H  H11  1  0.59440000  0.64580000  0.51560000  1.0 0.1472464978
H  H12  1  0.35420000  0.40560000  0.01560000  1.0 0.1472464978
H  H13  1  0.52470000  0.58230000  0.38490000  1.0 0.1396072524
H  H14  1  0.41770000  0.47530000  0.88490000  1.0 0.1396072524
H  H15  1  0.37970000  0.54370000  0.38890000  1.0 0.1003059265
H  H16  1  0.45630000  0.62030000  0.88890000  1.0 0.1003059265
H  H17  1  0.99520000  0.96280000  0.57320000  1.0 0.1097866106
H  H18  1  0.03720000  0.00480000  0.07320000  1.0 0.1097866106
H  H19  1  0.85370000  0.84190000  0.53270000  1.0 0.1396072524
H  H20  1  0.15810000  0.14630000  0.03270000  1.0 0.1396072524
H  H21  1  0.01410000  0.82850000  0.46630000  1.0 0.1396072524
H  H22  1  0.17150000  0.98590000  0.96630000  1.0 0.1396072524
H  H23  1  0.15070000  0.94990000  0.50910000  1.0 0.1097866106
H  H24  1  0.05010000  0.84930000  0.00910000  1.0 0.1097866106
H  H25  1  0.61420000  0.32620000  0.22470000  1.0 0.0913538003
H  H26  1  0.67380000  0.38580000  0.72470000  1.0 0.0913538003
H  H27  1  0.47210000  0.16330000  0.22570000  1.0 0.1290050038
H  H28  1  0.83670000  0.52790000  0.72570000  1.0 0.1290050038
H  H29  1  0.59260000  0.11240000  0.33360000  1.0 0.1472464978
H  H30  1  0.88760000  0.40740000  0.83360000  1.0 0.1472464978
H  H31  1  0.73170000  0.27990000  0.32830000  1.0 0.1003059265
H  H32  1  0.72010000  0.26830000  0.82830000  1.0 0.1003059265
H  H33  1  0.16440000  0.55000000  0.36700000  1.0 0.0793681693
H  H34  1  0.45000000  0.83560000  0.86700000  1.0 0.0793681693
H  H35  1  0.18490000  0.66590000  0.31440000  1.0 0.1207408302
H  H36  1  0.33410000  0.81510000  0.81440000  1.0 0.1207408302
H  H37  1  0.45160000  0.87120000  0.37590000  1.0 0.1472464978
H  H38  1  0.12880000  0.54840000  0.87590000  1.0 0.1472464978
H  H39  1  0.42540000  0.74820000  0.42560000  1.0 0.1097866106
H  H40  1  0.25180000  0.57460000  0.92560000  1.0 0.1097866106
H  H41  1  0.99130000  0.68850000  0.16310000  1.0 0.0913538003
H  H42  1  0.31150000  0.00870000  0.66310000  1.0 0.0913538003
H  H43  1  0.10470000  0.72290000  0.22280000  1.0 0.1290050038
H  H44  1  0.27710000  0.89530000  0.72280000  1.0 0.1290050038
H  H45  1  0.27630000  0.00710000  0.17860000  1.0 0.1207408302
H  H46  1  0.99290000  0.72370000  0.67860000  1.0 0.1207408302
H  H47  1  0.15660000  0.96520000  0.12210000  1.0 0.0913538003
H  H48  1  0.03480000  0.84340000  0.62210000  1.0 0.0913538003
H  H49  1  0.55950000  0.90550000  0.14040000  1.0 0.0913538003
H  H50  1  0.09450000  0.44050000  0.64040000  1.0 0.0913538003
H  H51  1  0.63090000  0.89630000  0.08870000  1.0 0.1290050038
H  H52  1  0.10370000  0.36910000  0.58870000  1.0 0.1290050038
H  H53  1  0.54130000  0.64710000  0.15870000  1.0 0.1396072524
H  H54  1  0.35290000  0.45870000  0.65870000  1.0 0.1396072524
H  H55  1  0.47640000  0.66580000  0.20810000  1.0 0.1003059265
H  H56  1  0.33420000  0.52360000  0.70810000  1.0 0.1003059265
H  H57  1  0.60270000  0.44530000  0.98390000  1.0 0.0913538003
H  H58  1  0.55470000  0.39730000  0.48390000  1.0 0.0913538003
H  H59  1  0.64580000  0.59440000  0.98440000  1.0 0.1472464978
H  H60  1  0.40560000  0.35420000  0.48440000  1.0 0.1472464978
H  H61  1  0.58230000  0.52470000  0.11510000  1.0 0.1396072524
H  H62  1  0.47530000  0.41770000  0.61510000  1.0 0.1396072524
H  H63  1  0.54370000  0.37970000  0.11110000  1.0 0.1003059265
H  H64  1  0.62030000  0.45630000  0.61110000  1.0 0.1003059265
H  H65  1  0.96280000  0.99520000  0.92680000  1.0 0.1097866106
H  H66  1  0.00480000  0.03720000  0.42680000  1.0 0.1097866106
H  H67  1  0.84190000  0.85370000  0.96730000  1.0 0.1396072524
H  H68  1  0.14630000  0.15810000  0.46730000  1.0 0.1396072524
H  H69  1  0.82850000  0.01410000  0.03370000  1.0 0.1396072524
H  H70  1  0.98590000  0.17150000  0.53370000  1.0 0.1396072524
H  H71  1  0.94990000  0.15070000  0.99090000  1.0 0.1097866106
H  H72  1  0.84930000  0.05010000  0.49090000  1.0 0.1097866106
H  H73  1  0.32620000  0.61420000  0.27530000  1.0 0.0913538003
H  H74  1  0.38580000  0.67380000  0.77530000  1.0 0.0913538003
H  H75  1  0.16330000  0.47210000  0.27430000  1.0 0.1290050038
H  H76  1  0.52790000  0.83670000  0.77430000  1.0 0.1290050038
H  H77  1  0.11240000  0.59260000  0.16640000  1.0 0.1472464978
H  H78  1  0.40740000  0.88760000  0.66640000  1.0 0.1472464978
H  H79  1  0.27990000  0.73170000  0.17170000  1.0 0.1003059265
H  H80  1  0.26830000  0.72010000  0.67170000  1.0 0.1003059265
H  H81  1  0.55000000  0.16440000  0.13300000  1.0 0.0793681693
H  H82  1  0.83560000  0.45000000  0.63300000  1.0 0.0793681693
H  H83  1  0.66590000  0.18490000  0.18560000  1.0 0.1207408302
H  H84  1  0.81510000  0.33410000  0.68560000  1.0 0.1207408302
H  H85  1  0.87120000  0.45160000  0.12410000  1.0 0.1472464978
H  H86  1  0.54840000  0.12880000  0.62410000  1.0 0.1472464978
H  H87  1  0.74820000  0.42540000  0.07440000  1.0 0.1097866106
H  H88  1  0.57460000  0.25180000  0.57440000  1.0 0.1097866106
H  H89  1  0.68850000  0.99130000  0.33690000  1.0 0.0913538003
H  H90  1  0.00870000  0.31150000  0.83690000  1.0 0.0913538003
H  H91  1  0.72290000  0.10470000  0.27720000  1.0 0.1290050038
H  H92  1  0.89530000  0.27710000  0.77720000  1.0 0.1290050038
H  H93  1  0.00710000  0.27630000  0.32140000  1.0 0.1207408302
H  H94  1  0.72370000  0.99290000  0.82140000  1.0 0.1207408302
H  H95  1  0.96520000  0.15660000  0.37790000  1.0 0.0913538003
H  H96  1  0.84340000  0.03480000  0.87790000  1.0 0.0913538003
H  H97  1  0.43890000  0.92130000  0.57650000  1.0 0.1396072524
H  H98  1  0.56110000  0.07870000  0.42350000  1.0 0.1396072524
H  H99  1  0.37190000  0.94350000  0.55470000  1.0 0.1097866106
H  H100  1  0.62810000  0.05650000  0.44530000  1.0 0.1097866106
H  H101  1  0.29610000  0.76750000  0.52590000  1.0 0.1207408302
H  H102  1  0.70390000  0.23250000  0.47410000  1.0 0.1097866106
H  H103  1  0.13380000  0.62160000  0.54110000  1.0 0.0696902961
H  H104  1  0.86620000  0.37840000  0.45890000  1.0 0.0696902961
H  H105  1  0.07460000  0.61000000  0.57820000  1.0 0.0696902961
H  H106  1  0.92540000  0.39000000  0.42180000  1.0 0.0696902961
H  H107  1  0.01240000  0.67040000  0.52580000  1.0 0.0506826879
H  H108  1  0.98760000  0.32960000  0.47420000  1.0 0.0506826879
H  H109  1  0.00480000  0.60260000  0.49610000  1.0 0.0411264205
H  H110  1  0.99520000  0.39740000  0.50390000  1.0 0.0411264205
H  H111  1  0.16040000  0.80760000  0.49270000  1.0 0.0793681693
H  H112  1  0.83960000  0.19240000  0.50730000  1.0 0.0793681693
H  H113  1  0.21460000  0.87040000  0.41500000  1.0 0.1003059265
H  H114  1  0.78540000  0.12960000  0.58500000  1.0 0.1003059265
H  H115  1  0.21050000  0.80670000  0.38420000  1.0 0.1097866106
H  H116  1  0.78950000  0.19330000  0.61580000  1.0 0.1097866106
H  H117  1  0.31640000  0.80540000  0.44390000  1.0 0.0592499391
H  H118  1  0.68360000  0.19460000  0.55610000  1.0 0.0592499391
H  H119  1  0.33890000  0.95890000  0.47080000  1.0 0.0696902961
H  H120  1  0.66110000  0.04110000  0.52920000  1.0 0.0696902961
H  H121  1  0.43180000  0.84920000  0.48840000  1.0 0.0696902961
H  H122  1  0.56820000  0.15080000  0.51160000  1.0 0.0696902961
H  H123  1  0.52320000  0.95720000  0.47010000  1.0 0.0793681693
H  H124  1  0.47680000  0.04280000  0.52990000  1.0 0.0793681693
H  H125  1  0.52580000  0.92060000  0.52190000  1.0 0.1003059265
H  H126  1  0.47420000  0.07940000  0.47810000  1.0 0.1003059265
H  H127  1  0.53820000  0.09960000  0.48310000  1.0 0.0411264205
H  H128  1  0.46180000  0.90040000  0.51690000  1.0 0.0411264205
H  H129  1  0.51780000  0.08440000  0.53490000  1.0 0.0793681693
H  H130  1  0.48220000  0.91560000  0.46510000  1.0 0.0793681693
H  H131  1  0.59160000  0.07760000  0.52190000  1.0 0.1207408302
H  H132  1  0.40840000  0.92240000  0.47810000  1.0 0.1207408302
H  H133  1  0.24650000  0.85150000  0.60300000  1.0 0.1207408302
H  H134  1  0.75350000  0.14850000  0.39700000  1.0 0.1207408302
H  H135  1  0.14410000  0.79430000  0.57370000  1.0 0.0793681693
H  H136  1  0.85590000  0.20570000  0.42630000  1.0 0.0793681693
H  H137  1  0.15240000  0.74400000  0.62020000  1.0 0.0913538003
H  H138  1  0.84760000  0.25600000  0.37980000  1.0 0.0913538003
H  H139  1  0.07770000  0.63890000  0.39320000  1.0 0.0913538003
H  H140  1  0.92230000  0.36110000  0.60680000  1.0 0.0913538003
H  H141  1  0.14920000  0.64440000  0.43300000  1.0 0.0793681693
H  H142  1  0.85080000  0.35560000  0.56700000  1.0 0.0793681693
H  H143  1  0.03960000  0.58740000  0.44230000  1.0 0.1003059265
H  H144  1  0.96040000  0.41260000  0.55770000  1.0 0.1003059265
H  H145  1  0.14770000  0.82810000  0.47190000  1.0 0.1003059265
H  H146  1  0.85230000  0.17190000  0.52810000  1.0 0.1003059265
H  H147  1  0.26000000  0.88220000  0.48070000  1.0 0.0411264205
H  H148  1  0.74000000  0.11780000  0.51930000  1.0 0.0411264205
H  H149  1  0.17530000  0.76930000  0.42320000  1.0 0.0696902961
H  H150  1  0.82470000  0.23070000  0.57680000  1.0 0.0696902961
H  H151  1  0.22860000  0.74780000  0.46280000  1.0 0.0592499391
H  H152  1  0.77140000  0.25220000  0.53720000  1.0 0.0592499391
H  H153  1  0.06070000  0.59830000  0.44700000  1.0 0.1003059265
H  H154  1  0.93930000  0.40170000  0.55300000  1.0 0.1003059265
H  H155  1  0.02390000  0.64690000  0.46040000  1.0 0.1003059265
H  H156  1  0.97610000  0.35310000  0.53960000  1.0 0.0913538003
H  H157  1  0.13550000  0.61310000  0.52090000  1.0 0.0592499391
H  H158  1  0.86450000  0.38690000  0.47910000  1.0 0.0592499391
H  H159  1  0.02210000  0.55030000  0.52380000  1.0 0.0696902961
H  H160  1  0.97790000  0.44970000  0.47620000  1.0 0.0696902961
H  H161  1  0.13620000  0.67360000  0.57840000  1.0 0.0696902961
H  H162  1  0.86380000  0.32640000  0.42160000  1.0 0.0592499391
H  H163  1  0.04800000  0.66500000  0.55560000  1.0 0.0411264205
H  H164  1  0.95200000  0.33500000  0.44440000  1.0 0.0411264205
H  H165  1  0.24550000  0.82130000  0.55010000  1.0 0.0592499391
H  H166  1  0.75450000  0.17870000  0.44990000  1.0 0.0592499391
H  H167  1  0.16040000  0.82180000  0.54510000  1.0 0.0696902961
H  H168  1  0.83960000  0.17820000  0.45490000  1.0 0.0696902961
H  H169  1  0.92130000  0.43890000  0.92350000  1.0 0.1396072524
H  H170  1  0.07870000  0.56110000  0.07650000  1.0 0.1396072524
H  H171  1  0.94350000  0.37190000  0.94530000  1.0 0.1097866106
H  H172  1  0.05650000  0.62810000  0.05470000  1.0 0.1097866106
H  H173  1  0.76750000  0.29610000  0.97410000  1.0 0.1097866106
H  H174  1  0.23250000  0.70390000  0.02590000  1.0 0.1097866106
H  H175  1  0.62160000  0.13380000  0.95890000  1.0 0.0696902961
H  H176  1  0.37840000  0.86620000  0.04110000  1.0 0.0696902961
H  H177  1  0.61000000  0.07460000  0.92180000  1.0 0.0696902961
H  H178  1  0.39000000  0.92540000  0.07820000  1.0 0.0696902961
H  H179  1  0.67040000  0.01240000  0.97420000  1.0 0.0506826879
H  H180  1  0.32960000  0.98760000  0.02580000  1.0 0.0506826879
H  H181  1  0.60260000  0.00480000  0.00390000  1.0 0.0411264205
H  H182  1  0.39740000  0.99520000  0.99610000  1.0 0.0411264205
H  H183  1  0.80760000  0.16040000  0.00730000  1.0 0.0793681693
H  H184  1  0.19240000  0.83960000  0.99270000  1.0 0.0793681693
H  H185  1  0.87040000  0.21460000  0.08500000  1.0 0.1003059265
H  H186  1  0.12960000  0.78540000  0.91500000  1.0 0.1003059265
H  H187  1  0.80670000  0.21050000  0.11580000  1.0 0.1097866106
H  H188  1  0.19330000  0.78950000  0.88420000  1.0 0.1097866106
H  H189  1  0.80540000  0.31640000  0.05610000  1.0 0.0592499391
H  H190  1  0.19460000  0.68360000  0.94390000  1.0 0.0592499391
H  H191  1  0.95890000  0.33890000  0.02920000  1.0 0.0696902961
H  H192  1  0.04110000  0.66110000  0.97080000  1.0 0.0696902961
H  H193  1  0.84920000  0.43180000  0.01160000  1.0 0.0696902961
H  H194  1  0.15080000  0.56820000  0.98840000  1.0 0.0696902961
H  H195  1  0.95720000  0.52320000  0.02990000  1.0 0.0793681693
H  H196  1  0.04280000  0.47680000  0.97010000  1.0 0.0793681693
H  H197  1  0.92060000  0.52580000  0.97810000  1.0 0.1003059265
H  H198  1  0.07940000  0.47420000  0.02190000  1.0 0.1003059265
H  H199  1  0.09960000  0.53820000  0.01690000  1.0 0.0411264205
H  H200  1  0.90040000  0.46180000  0.98310000  1.0 0.0411264205
H  H201  1  0.08440000  0.51780000  0.96510000  1.0 0.0793681693
H  H202  1  0.91560000  0.48220000  0.03490000  1.0 0.0793681693
H  H203  1  0.07760000  0.59160000  0.97810000  1.0 0.1207408302
H  H204  1  0.92240000  0.40840000  0.02190000  1.0 0.1207408302
H  H205  1  0.85150000  0.24650000  0.89700000  1.0 0.1207408302
H  H206  1  0.14850000  0.75350000  0.10300000  1.0 0.1207408302
H  H207  1  0.79430000  0.14410000  0.92630000  1.0 0.0793681693
H  H208  1  0.20570000  0.85590000  0.07370000  1.0 0.0793681693
H  H209  1  0.74400000  0.15240000  0.87980000  1.0 0.0913538003
H  H210  1  0.25600000  0.84760000  0.12020000  1.0 0.1003059265
H  H211  1  0.63890000  0.07770000  0.10680000  1.0 0.0913538003
H  H212  1  0.36110000  0.92230000  0.89320000  1.0 0.0913538003
H  H213  1  0.64440000  0.14920000  0.06700000  1.0 0.0793681693
H  H214  1  0.35560000  0.85080000  0.93300000  1.0 0.0793681693
H  H215  1  0.58740000  0.03960000  0.05770000  1.0 0.1003059265
H  H216  1  0.41260000  0.96040000  0.94230000  1.0 0.1003059265
H  H217  1  0.82810000  0.14770000  0.02810000  1.0 0.1003059265
H  H218  1  0.17190000  0.85230000  0.97190000  1.0 0.1003059265
H  H219  1  0.88220000  0.26000000  0.01930000  1.0 0.0411264205
H  H220  1  0.11780000  0.74000000  0.98070000  1.0 0.0411264205
H  H221  1  0.76930000  0.17530000  0.07680000  1.0 0.0696902961
H  H222  1  0.23070000  0.82470000  0.92320000  1.0 0.0696902961
H  H223  1  0.74780000  0.22860000  0.03720000  1.0 0.0592499391
H  H224  1  0.25220000  0.77140000  0.96280000  1.0 0.0592499391
H  H225  1  0.59830000  0.06070000  0.05300000  1.0 0.1003059265
H  H226  1  0.40170000  0.93930000  0.94700000  1.0 0.1003059265
H  H227  1  0.64690000  0.02390000  0.03960000  1.0 0.0913538003
H  H228  1  0.35310000  0.97610000  0.96040000  1.0 0.0913538003
H  H229  1  0.61310000  0.13550000  0.97910000  1.0 0.0592499391
H  H230  1  0.38690000  0.86450000  0.02090000  1.0 0.0592499391
H  H231  1  0.55030000  0.02210000  0.97620000  1.0 0.0696902961
H  H232  1  0.44970000  0.97790000  0.02380000  1.0 0.0696902961
H  H233  1  0.67360000  0.13620000  0.92160000  1.0 0.0696902961
H  H234  1  0.32640000  0.86380000  0.07840000  1.0 0.0696902961
H  H235  1  0.66500000  0.04800000  0.94440000  1.0 0.0411264205
H  H236  1  0.33500000  0.95200000  0.05560000  1.0 0.0411264205
H  H237  1  0.82130000  0.24550000  0.94990000  1.0 0.0592499391
H  H238  1  0.17870000  0.75450000  0.05010000  1.0 0.0592499391
H  H239  1  0.82180000  0.16040000  0.95490000  1.0 0.0696902961
H  H240  1  0.17820000  0.83960000  0.04510000  1.0 0.0696902961
C  C1  1  0.85260000  0.55640000  0.35600000  1.0 -0.0683204329
C  C2  1  0.44360000  0.14740000  0.85600000  1.0 -0.0683204329
C  C3  1  0.84710000  0.59830000  0.38730000  1.0 -0.1782366319
C  C4  1  0.40170000  0.15290000  0.88730000  1.0 -0.1782366319
C  C5  1  0.76918000  0.59142000  0.38300000  1.0 0.0592499391
C  C6  1  0.40858000  0.23082000  0.88300000  1.0 0.0506826879
C  C7  1  0.70110000  0.54570000  0.34590000  1.0 -0.1296208879
C  C8  1  0.45430000  0.29890000  0.84590000  1.0 -0.1296208879
C  C9  1  0.71290000  0.50770000  0.31670000  1.0 0.0793681693
C  C10  1  0.49230000  0.28710000  0.81670000  1.0 0.0793681693
C  C11  1  0.46188000  0.59832000  0.48930000  1.0 0.0793681693
C  C12  1  0.40168000  0.53812000  0.98930000  1.0 0.0793681693
C  C13  1  0.55059000  0.62361000  0.48929000  1.0 -0.1296208879
C  C14  1  0.37639000  0.44941000  0.98929000  1.0 -0.1296208879
C  C15  1  0.57400000  0.61620000  0.45057000  1.0 0.0696902961
C  C16  1  0.38380000  0.42600000  0.95057000  1.0 0.0696902961
C  C17  1  0.50980000  0.58660000  0.41230000  1.0 -0.1221367811
C  C18  1  0.41340000  0.49020000  0.91230000  1.0 -0.1221367811
C  C19  1  0.42360000  0.56360000  0.41520000  1.0 0.0793681693
C  C20  1  0.43640000  0.57640000  0.91520000  1.0 0.0793681693
C  C21  1  0.99834000  0.93366000  0.55170000  1.0 0.0793681693
C  C22  1  0.06634000  0.00166000  0.05170000  1.0 0.0793681693
C  C23  1  0.91375000  0.86205000  0.52756000  1.0 -0.1401813406
C  C24  1  0.13795000  0.08625000  0.02756000  1.0 -0.1401813406
C  C25  1  0.91714000  0.81966000  0.49567000  1.0 0.0506826879
C  C26  1  0.18034000  0.08286000  0.99567000  1.0 0.0506826879
C  C27  1  0.00834000  0.85426000  0.48852000  1.0 -0.1688443483
C  C28  1  0.14574000  0.99166000  0.98852000  1.0 -0.1688443483
C  C29  1  0.08910000  0.92610000  0.51422000  1.0 0.0506826879
C  C30  1  0.07390000  0.91090000  0.01422000  1.0 0.0506826879
C  C31  1  0.75981000  0.63419000  0.41593000  1.0 0.3693666773
C  C32  1  0.36581000  0.24019000  0.91593000  1.0 0.3693666773
C  C33  1  0.66936000  0.64544000  0.44813000  1.0 0.3693666773
C  C34  1  0.35456000  0.33064000  0.94813000  1.0 0.3693666773
C  C35  1  0.82865000  0.73955000  0.46961000  1.0 0.3513374047
C  C36  1  0.26045000  0.17135000  0.96961000  1.0 0.3513374047
C  C37  1  0.60990000  0.28190000  0.24730000  1.0 0.0696902961
C  C38  1  0.71810000  0.39010000  0.74730000  1.0 0.0696902961
C  C39  1  0.52430000  0.18470000  0.24790000  1.0 -0.1296208879
C  C40  1  0.81530000  0.47570000  0.74790000  1.0 -0.1296208879
C  C41  1  0.51564000  0.11976000  0.28076000  1.0 0.0506826879
C  C42  1  0.88024000  0.48436000  0.78076000  1.0 0.0506826879
C  C43  1  0.59400000  0.15460000  0.31070000  1.0 -0.1064429806
C  C44  1  0.84540000  0.40600000  0.81070000  1.0 -0.1064429806
C  C45  1  0.67760000  0.25520000  0.30690000  1.0 0.0300684392
C  C46  1  0.74480000  0.32240000  0.80690000  1.0 0.0300684392
C  C47  1  0.22370000  0.61610000  0.36860000  1.0 -0.0101974993
C  C48  1  0.38390000  0.77630000  0.86860000  1.0 -0.0101974993
C  C49  1  0.23512000  0.68468000  0.33730000  1.0 -0.1604513005
C  C50  1  0.31532000  0.76488000  0.83730000  1.0 -0.1604513005
C  C51  1  0.32071000  0.78169000  0.33946000  1.0 0.0696902961
C  C52  1  0.21831000  0.67929000  0.83946000  1.0 0.0696902961
C  C53  1  0.39214000  0.80546000  0.37319000  1.0 -0.1688443483
C  C54  1  0.19454000  0.60786000  0.87319000  1.0 -0.1688443483
C  C55  1  0.37554000  0.73186000  0.40290000  1.0 0.0095017185
C  C56  1  0.26814000  0.62446000  0.90290000  1.0 0.0095017185
C  C57  1  0.04952000  0.75448000  0.16691000  1.0 0.0696902961
C  C58  1  0.24552000  0.95048000  0.66691000  1.0 0.0696902961
C  C59  1  0.11720000  0.77420000  0.20242000  1.0 -0.1296208879
C  C60  1  0.22580000  0.88280000  0.70242000  1.0 -0.1296208879
C  C61  1  0.20289000  0.86991000  0.20757000  1.0 0.0592499391
C  C62  1  0.13009000  0.79711000  0.70757000  1.0 0.0592499391
C  C63  1  0.21730000  0.94090000  0.17670000  1.0 -0.1604513005
C  C64  1  0.05910000  0.78270000  0.67670000  1.0 -0.1604513005
C  C65  1  0.14580000  0.91520000  0.14290000  1.0 0.0793681693
C  C66  1  0.08480000  0.85420000  0.64290000  1.0 0.0793681693
C  C67  1  0.42368000  0.01472000  0.28056000  1.0 0.3636229651
C  C68  1  0.98528000  0.57632000  0.78056000  1.0 0.3636229651
C  C69  1  0.33490000  0.85750000  0.30609000  1.0 0.3513374047
C  C70  1  0.14250000  0.66510000  0.80609000  1.0 0.3513374047
C  C71  1  0.27803000  0.89737000  0.24503000  1.0 0.3513374047
C  C72  1  0.10263000  0.72197000  0.74503000  1.0 0.3513374047
C  C73  1  0.55640000  0.85260000  0.14400000  1.0 -0.0683204329
C  C74  1  0.14740000  0.44360000  0.64400000  1.0 -0.0683204329
C  C75  1  0.59830000  0.84710000  0.11270000  1.0 -0.1782366319
C  C76  1  0.15290000  0.40170000  0.61270000  1.0 -0.1782366319
C  C77  1  0.59142000  0.76918000  0.11700000  1.0 0.0592499391
C  C78  1  0.23082000  0.40858000  0.61700000  1.0 0.0592499391
C  C79  1  0.54570000  0.70110000  0.15410000  1.0 -0.1296208879
C  C80  1  0.29890000  0.45430000  0.65410000  1.0 -0.1296208879
C  C81  1  0.50770000  0.71290000  0.18330000  1.0 0.0793681693
C  C82  1  0.28710000  0.49230000  0.68330000  1.0 0.0793681693
C  C83  1  0.59832000  0.46188000  0.01070000  1.0 0.0793681693
C  C84  1  0.53812000  0.40168000  0.51070000  1.0 0.0793681693
C  C85  1  0.62361000  0.55059000  0.01071000  1.0 -0.1296208879
C  C86  1  0.44941000  0.37639000  0.51071000  1.0 -0.1296208879
C  C87  1  0.61620000  0.57400000  0.04943000  1.0 0.0592499391
C  C88  1  0.42600000  0.38380000  0.54943000  1.0 0.0696902961
C  C89  1  0.58660000  0.50980000  0.08770000  1.0 -0.1221367811
C  C90  1  0.49020000  0.41340000  0.58770000  1.0 -0.1221367811
C  C91  1  0.56360000  0.42360000  0.08480000  1.0 0.0793681693
C  C92  1  0.57640000  0.43640000  0.58480000  1.0 0.0793681693
C  C93  1  0.93366000  0.99834000  0.94830000  1.0 0.0793681693
C  C94  1  0.00166000  0.06634000  0.44830000  1.0 0.0793681693
C  C95  1  0.86205000  0.91375000  0.97244000  1.0 -0.1401813406
C  C96  1  0.08625000  0.13795000  0.47244000  1.0 -0.1401813406
C  C97  1  0.81966000  0.91714000  0.00433000  1.0 0.0506826879
C  C98  1  0.08286000  0.18034000  0.50433000  1.0 0.0506826879
C  C99  1  0.85426000  0.00834000  0.01148000  1.0 -0.1688443483
C  C100  1  0.99166000  0.14574000  0.51148000  1.0 -0.1688443483
C  C101  1  0.92610000  0.08910000  0.98578000  1.0 0.0506826879
C  C102  1  0.91090000  0.07390000  0.48578000  1.0 0.0506826879
C  C103  1  0.63419000  0.75981000  0.08407000  1.0 0.3693666773
C  C104  1  0.24019000  0.36581000  0.58407000  1.0 0.3693666773
C  C105  1  0.64544000  0.66936000  0.05187000  1.0 0.3693666773
C  C106  1  0.33064000  0.35456000  0.55187000  1.0 0.3693666773
C  C107  1  0.73955000  0.82865000  0.03039000  1.0 0.3513374047
C  C108  1  0.17135000  0.26045000  0.53039000  1.0 0.3513374047
C  C109  1  0.28190000  0.60990000  0.25270000  1.0 0.0696902961
C  C110  1  0.39010000  0.71810000  0.75270000  1.0 0.0696902961
C  C111  1  0.18470000  0.52430000  0.25210000  1.0 -0.1296208879
C  C112  1  0.47570000  0.81530000  0.75210000  1.0 -0.1296208879
C  C113  1  0.11976000  0.51564000  0.21924000  1.0 0.0506826879
C  C114  1  0.48436000  0.88024000  0.71924000  1.0 0.0506826879
C  C115  1  0.15460000  0.59400000  0.18930000  1.0 -0.1064429806
C  C116  1  0.40600000  0.84540000  0.68930000  1.0 -0.1064429806
C  C117  1  0.25520000  0.67760000  0.19310000  1.0 0.0300684392
C  C118  1  0.32240000  0.74480000  0.69310000  1.0 0.0300684392
C  C119  1  0.61610000  0.22370000  0.13140000  1.0 -0.0101974993
C  C120  1  0.77630000  0.38390000  0.63140000  1.0 -0.0101974993
C  C121  1  0.68468000  0.23512000  0.16270000  1.0 -0.1604513005
C  C122  1  0.76488000  0.31532000  0.66270000  1.0 -0.1604513005
C  C123  1  0.78169000  0.32071000  0.16054000  1.0 0.0696902961
C  C124  1  0.67929000  0.21831000  0.66054000  1.0 0.0696902961
C  C125  1  0.80546000  0.39214000  0.12681000  1.0 -0.1688443483
C  C126  1  0.60786000  0.19454000  0.62681000  1.0 -0.1688443483
C  C127  1  0.73186000  0.37554000  0.09710000  1.0 0.0095017185
C  C128  1  0.62446000  0.26814000  0.59710000  1.0 0.0095017185
C  C129  1  0.75448000  0.04952000  0.33309000  1.0 0.0793681693
C  C130  1  0.95048000  0.24552000  0.83309000  1.0 0.0793681693
C  C131  1  0.77420000  0.11720000  0.29758000  1.0 -0.1296208879
C  C132  1  0.88280000  0.22580000  0.79758000  1.0 -0.1296208879
C  C133  1  0.86991000  0.20289000  0.29243000  1.0 0.0592499391
C  C134  1  0.79711000  0.13009000  0.79243000  1.0 0.0592499391
C  C135  1  0.94090000  0.21730000  0.32330000  1.0 -0.1604513005
C  C136  1  0.78270000  0.05910000  0.82330000  1.0 -0.1604513005
C  C137  1  0.91520000  0.14580000  0.35710000  1.0 0.0793681693
C  C138  1  0.85420000  0.08480000  0.85710000  1.0 0.0793681693
C  C139  1  0.01472000  0.42368000  0.21944000  1.0 0.3636229651
C  C140  1  0.57632000  0.98528000  0.71944000  1.0 0.3636229651
C  C141  1  0.85750000  0.33490000  0.19391000  1.0 0.3513374047
C  C142  1  0.66510000  0.14250000  0.69391000  1.0 0.3513374047
C  C143  1  0.89737000  0.27803000  0.25497000  1.0 0.3513374047
C  C144  1  0.72197000  0.10263000  0.75497000  1.0 0.3513374047
C  C145  1  0.44400000  0.95080000  0.50740000  1.0 0.0696902961
C  C146  1  0.55600000  0.04920000  0.49260000  1.0 0.0696902961
C  C147  1  0.39230000  0.90890000  0.55060000  1.0 -0.2678956571
C  C148  1  0.60770000  0.09110000  0.44940000  1.0 -0.2678956571
C  C149  1  0.30330000  0.80010000  0.55150000  1.0 0.0095017185
C  C150  1  0.69670000  0.19990000  0.44850000  1.0 0.0095017185
C  C151  1  0.20870000  0.74930000  0.57070000  1.0 0.1003059265
C  C152  1  0.79130000  0.25070000  0.42930000  1.0 0.1003059265
C  C153  1  0.11610000  0.65330000  0.55280000  1.0 -0.1003849862
C  C154  1  0.88390000  0.34670000  0.44720000  1.0 -0.1003849862
C  C155  1  0.05110000  0.66330000  0.51200000  1.0 -0.1003849862
C  C156  1  0.94890000  0.33670000  0.48800000  1.0 -0.1003849862
C  C157  1  0.10820000  0.74180000  0.48080000  1.0 0.0300684392
C  C158  1  0.89180000  0.25820000  0.51920000  1.0 0.0300684392
C  C159  1  0.12550000  0.72610000  0.43790000  1.0 0.1003059265
C  C160  1  0.87450000  0.27390000  0.56210000  1.0 0.1003059265
C  C161  1  0.21530000  0.81830000  0.41590000  1.0 -0.2228137089
C  C162  1  0.78470000  0.18170000  0.58410000  1.0 -0.2228137089
C  C163  1  0.30990000  0.85450000  0.43730000  1.0 0.0028236738
C  C164  1  0.69010000  0.14550000  0.56270000  1.0 0.0028236738
C  C165  1  0.36890000  0.93290000  0.46670000  1.0 0.0206743424
C  C166  1  0.63110000  0.06710000  0.53330000  1.0 0.0206743424
C  C167  1  0.48460000  0.91740000  0.49610000  1.0 -0.1688443483
C  C168  1  0.51540000  0.08260000  0.50390000  1.0 -0.1782366319
C  C169  1  0.53170000  0.06430000  0.51200000  1.0 -0.1401813406
C  C170  1  0.46830000  0.93570000  0.48800000  1.0 -0.1401813406
C  C171  1  0.18650000  0.78750000  0.59350000  1.0 -0.3215485496
C  C172  1  0.81350000  0.21250000  0.40650000  1.0 -0.3215485496
C  C173  1  0.09600000  0.64360000  0.42580000  1.0 -0.2546570284
C  C174  1  0.90400000  0.35640000  0.57420000  1.0 -0.2546570284
C  C175  1  0.19320000  0.81880000  0.48450000  1.0 -0.1688443483
C  C176  1  0.80680000  0.18120000  0.51550000  1.0 -0.1688443483
C  C177  1  0.17570000  0.74830000  0.45560000  1.0 0.0206743424
C  C178  1  0.82430000  0.25170000  0.54440000  1.0 0.0206743424
C  C179  1  0.07630000  0.64570000  0.46630000  1.0 -0.0535536494
C  C180  1  0.92370000  0.35430000  0.53370000  1.0 -0.0535536494
C  C181  1  0.08500000  0.61700000  0.51600000  1.0 -0.1511541067
C  C182  1  0.91500000  0.38300000  0.48400000  1.0 -0.1511541067
C  C183  1  0.11000000  0.68400000  0.54950000  1.0 -0.0535536494
C  C184  1  0.89000000  0.31600000  0.45050000  1.0 -0.0535536494
C  C185  1  0.18060000  0.79140000  0.53450000  1.0 -0.0828653371
C  C186  1  0.81940000  0.20860000  0.46550000  1.0 -0.0828653371
C  C187  1  0.95080000  0.44400000  0.99260000  1.0 0.0696902961
C  C188  1  0.04920000  0.55600000  0.00740000  1.0 0.0696902961
C  C189  1  0.90890000  0.39230000  0.94940000  1.0 -0.2678956571
C  C190  1  0.09110000  0.60770000  0.05060000  1.0 -0.2678956571
C  C191  1  0.80010000  0.30330000  0.94850000  1.0 0.0095017185
C  C192  1  0.19990000  0.69670000  0.05150000  1.0 0.0095017185
C  C193  1  0.74930000  0.20870000  0.92930000  1.0 0.1003059265
C  C194  1  0.25070000  0.79130000  0.07070000  1.0 0.1003059265
C  C195  1  0.65330000  0.11610000  0.94720000  1.0 -0.1003849862
C  C196  1  0.34670000  0.88390000  0.05280000  1.0 -0.1003849862
C  C197  1  0.66330000  0.05110000  0.98800000  1.0 -0.1003849862
C  C198  1  0.33670000  0.94890000  0.01200000  1.0 -0.1003849862
C  C199  1  0.74180000  0.10820000  0.01920000  1.0 0.0300684392
C  C200  1  0.25820000  0.89180000  0.98080000  1.0 0.0300684392
C  C201  1  0.72610000  0.12550000  0.06210000  1.0 0.1003059265
C  C202  1  0.27390000  0.87450000  0.93790000  1.0 0.1003059265
C  C203  1  0.81830000  0.21530000  0.08410000  1.0 -0.2228137089
C  C204  1  0.18170000  0.78470000  0.91590000  1.0 -0.2228137089
C  C205  1  0.85450000  0.30990000  0.06270000  1.0 0.0028236738
C  C206  1  0.14550000  0.69010000  0.93730000  1.0 0.0028236738
C  C207  1  0.93290000  0.36890000  0.03330000  1.0 0.0206743424
C  C208  1  0.06710000  0.63110000  0.96670000  1.0 0.0206743424
C  C209  1  0.91740000  0.48460000  0.00390000  1.0 -0.1688443483
C  C210  1  0.08260000  0.51540000  0.99610000  1.0 -0.1782366319
C  C211  1  0.06430000  0.53170000  0.98800000  1.0 -0.1401813406
C  C212  1  0.93570000  0.46830000  0.01200000  1.0 -0.1401813406
C  C213  1  0.78750000  0.18650000  0.90650000  1.0 -0.3215485496
C  C214  1  0.21250000  0.81350000  0.09350000  1.0 -0.3215485496
C  C215  1  0.64360000  0.09600000  0.07420000  1.0 -0.2546570284
C  C216  1  0.35640000  0.90400000  0.92580000  1.0 -0.2546570284
C  C217  1  0.81880000  0.19320000  0.01550000  1.0 -0.1688443483
C  C218  1  0.18120000  0.80680000  0.98450000  1.0 -0.1688443483
C  C219  1  0.74830000  0.17570000  0.04440000  1.0 0.0206743424
C  C220  1  0.25170000  0.82430000  0.95560000  1.0 0.0206743424
C  C221  1  0.64570000  0.07630000  0.03370000  1.0 -0.0535536494
C  C222  1  0.35430000  0.92370000  0.96630000  1.0 -0.0535536494
C  C223  1  0.61700000  0.08500000  0.98400000  1.0 -0.1511541067
C  C224  1  0.38300000  0.91500000  0.01600000  1.0 -0.1511541067
C  C225  1  0.68400000  0.11000000  0.95050000  1.0 -0.0535536494
C  C226  1  0.31600000  0.89000000  0.04950000  1.0 -0.0535536494
C  C227  1  0.79140000  0.18060000  0.96550000  1.0 -0.0828653371
C  C228  1  0.20860000  0.81940000  0.03450000  1.0 -0.0828653371
I  I1  1  0.77785000  0.53093000  0.19263000  1.0 0.0095017185
I  I2  1  0.46907000  0.22215000  0.69263000  1.0 0.0028236738
I  I3  1  0.95813000  0.49747000  0.29546000  1.0 -0.0101974993
I  I4  1  0.50253000  0.04187000  0.79546000  1.0 -0.0101974993
I  I5  1  0.26803000  0.58377000  0.52138000  1.0 -0.0298424312
I  I6  1  0.41623000  0.73197000  0.02138000  1.0 -0.0298424312
I  I7  1  0.13846000  0.37386000  0.41713000  1.0 0.0506826879
I  I8  1  0.62614000  0.86154000  0.91713000  1.0 0.0506826879
I  I9  1  0.18089000  0.13299000  0.63660000  1.0 -0.4007626407
I  I10  1  0.86701000  0.81911000  0.13660000  1.0 -0.4007626407
I  I11  1  0.35575000  0.12165000  0.55500000  1.0 -0.4612410796
I  I12  1  0.87835000  0.64425000  0.05500000  1.0 -0.4612410796
I  I13  1  0.79900000  0.53220000  0.20290000  1.0 -0.0683204329
I  I14  1  0.46780000  0.20100000  0.70290000  1.0 -0.0683204329
I  I15  1  0.95720000  0.47520000  0.30850000  1.0 -0.000353639
I  I16  1  0.52480000  0.04280000  0.80850000  1.0 0.0028236738
I  I17  1  0.85080000  0.52620000  0.22570000  1.0 -0.1401813406
I  I18  1  0.47380000  0.14920000  0.72570000  1.0 -0.1401813406
I  I19  1  0.95300000  0.43360000  0.34540000  1.0 0.0206743424
I  I20  1  0.56640000  0.04700000  0.84540000  1.0 0.0206743424
I  I21  1  0.30540000  0.63800000  0.53210000  1.0 0.0095017185
I  I22  1  0.36200000  0.69460000  0.03210000  1.0 0.0095017185
I  I23  1  0.13540000  0.38980000  0.43710000  1.0 0.0095017185
I  I24  1  0.61020000  0.86460000  0.93710000  1.0 0.0095017185
I  I25  1  0.17820000  0.13360000  0.63150000  1.0 -0.3820420822
I  I26  1  0.86640000  0.82180000  0.13150000  1.0 -0.3820420822
I  I27  1  0.35170000  0.12650000  0.54840000  1.0 -0.4687157257
I  I28  1  0.87350000  0.64830000  0.04840000  1.0 -0.4687157257
I  I29  1  0.53093000  0.77785000  0.30737000  1.0 0.0095017185
I  I30  1  0.22215000  0.46907000  0.80737000  1.0 0.0028236738
I  I31  1  0.49747000  0.95813000  0.20454000  1.0 -0.0101974993
I  I32  1  0.04187000  0.50253000  0.70454000  1.0 -0.0101974993
I  I33  1  0.58377000  0.26803000  0.97862000  1.0 -0.0298424312
I  I34  1  0.73197000  0.41623000  0.47862000  1.0 -0.0298424312
I  I35  1  0.37386000  0.13846000  0.08287000  1.0 0.0506826879
I  I36  1  0.86154000  0.62614000  0.58287000  1.0 0.0506826879
I  I37  1  0.13299000  0.18089000  0.86340000  1.0 -0.4007626407
I  I38  1  0.81911000  0.86701000  0.36340000  1.0 -0.4007626407
I  I39  1  0.12165000  0.35575000  0.94500000  1.0 -0.4612410796
I  I40  1  0.64425000  0.87835000  0.44500000  1.0 -0.4612410796
I  I41  1  0.53220000  0.79900000  0.29710000  1.0 -0.0683204329
I  I42  1  0.20100000  0.46780000  0.79710000  1.0 -0.0683204329
I  I43  1  0.47520000  0.95720000  0.19150000  1.0 0.0095017185
I  I44  1  0.04280000  0.52480000  0.69150000  1.0 0.0028236738
I  I45  1  0.52620000  0.85080000  0.27430000  1.0 -0.1296208879
I  I46  1  0.14920000  0.47380000  0.77430000  1.0 -0.1401813406
I  I47  1  0.43360000  0.95300000  0.15460000  1.0 0.0206743424
I  I48  1  0.04700000  0.56640000  0.65460000  1.0 0.0206743424
I  I49  1  0.63800000  0.30540000  0.96790000  1.0 0.0095017185
I  I50  1  0.69460000  0.36200000  0.46790000  1.0 0.0095017185
I  I51  1  0.38980000  0.13540000  0.06290000  1.0 0.0095017185
I  I52  1  0.86460000  0.61020000  0.56290000  1.0 0.0095017185
I  I53  1  0.13360000  0.17820000  0.86850000  1.0 -0.3820420822
I  I54  1  0.82180000  0.86640000  0.36850000  1.0 -0.3820420822
I  I55  1  0.12650000  0.35170000  0.95160000  1.0 -0.4687157257
I  I56  1  0.64830000  0.87350000  0.45160000  1.0 -0.4687157257
N  N1  1  0.78720000  0.51220000  0.32120000  1.0 -0.1511541067
N  N2  1  0.48780000  0.21280000  0.82120000  1.0 -0.1511541067
N  N3  1  0.39917000  0.56783000  0.45261000  1.0 -0.1901298521
N  N4  1  0.43217000  0.60083000  0.95261000  1.0 -0.1901298521
N  N5  1  0.08487000  0.96433000  0.54634000  1.0 -0.1688443483
N  N6  1  0.03567000  0.91513000  0.04634000  1.0 -0.1688443483
N  N7  1  0.67234000  0.60426000  0.41736000  1.0 -0.3820420822
N  N8  1  0.39574000  0.32766000  0.91736000  1.0 -0.3820420822
N  N9  1  0.74369000  0.71151000  0.47582000  1.0 -0.3722995205
N  N10  1  0.28849000  0.25631000  0.97582000  1.0 -0.3722995205
N  N11  1  0.84057000  0.70223000  0.44057000  1.0 -0.4007626407
N  N12  1  0.29777000  0.15943000  0.94057000  1.0 -0.4007626407
N  N13  1  0.68408000  0.31532000  0.27569000  1.0 -0.1688443483
N  N14  1  0.68468000  0.31592000  0.77569000  1.0 -0.1688443483
N  N15  1  0.29208000  0.63812000  0.40126000  1.0 -0.1688443483
N  N16  1  0.36188000  0.70792000  0.90126000  1.0 -0.1688443483
N  N17  1  0.06228000  0.82372000  0.13789000  1.0 -0.1604513005
N  N18  1  0.17628000  0.93772000  0.63789000  1.0 -0.1604513005
N  N19  1  0.41696000  0.95084000  0.31139000  1.0 -0.4175445495
N  N20  1  0.04916000  0.58304000  0.81139000  1.0 -0.4175445495
N  N21  1  0.26405000  0.82675000  0.27347000  1.0 -0.4007626407
N  N22  1  0.17325000  0.73595000  0.77347000  1.0 -0.4007626407
N  N23  1  0.35575000  0.99305000  0.24766000  1.0 -0.4175445495
N  N24  1  0.00695000  0.64425000  0.74766000  1.0 -0.4175445495
N  N25  1  0.51220000  0.78720000  0.17880000  1.0 -0.1511541067
N  N26  1  0.21280000  0.48780000  0.67880000  1.0 -0.1511541067
N  N27  1  0.56783000  0.39917000  0.04739000  1.0 -0.1901298521
N  N28  1  0.60083000  0.43217000  0.54739000  1.0 -0.1901298521
N  N29  1  0.96433000  0.08487000  0.95366000  1.0 -0.1688443483
N  N30  1  0.91513000  0.03567000  0.45366000  1.0 -0.1688443483
N  N31  1  0.60426000  0.67234000  0.08264000  1.0 -0.3820420822
N  N32  1  0.32766000  0.39574000  0.58264000  1.0 -0.3820420822
N  N33  1  0.71151000  0.74369000  0.02418000  1.0 -0.3722995205
N  N34  1  0.25631000  0.28849000  0.52418000  1.0 -0.3722995205
N  N35  1  0.70223000  0.84057000  0.05943000  1.0 -0.4007626407
N  N36  1  0.15943000  0.29777000  0.55943000  1.0 -0.4007626407
N  N37  1  0.31532000  0.68408000  0.22431000  1.0 -0.1604513005
N  N38  1  0.31592000  0.68468000  0.72431000  1.0 -0.1688443483
N  N39  1  0.63812000  0.29208000  0.09874000  1.0 -0.1688443483
N  N40  1  0.70792000  0.36188000  0.59874000  1.0 -0.1688443483
N  N41  1  0.82372000  0.06228000  0.36211000  1.0 -0.1604513005
N  N42  1  0.93772000  0.17628000  0.86211000  1.0 -0.1604513005
N  N43  1  0.95084000  0.41696000  0.18861000  1.0 -0.4175445495
N  N44  1  0.58304000  0.04916000  0.68861000  1.0 -0.4175445495
N  N45  1  0.82675000  0.26405000  0.22653000  1.0 -0.4007626407
N  N46  1  0.73595000  0.17325000  0.72653000  1.0 -0.4007626407
N  N47  1  0.99305000  0.35575000  0.25234000  1.0 -0.4175445495
N  N48  1  0.64425000  0.00695000  0.75234000  1.0 -0.4175445495
O  O1  1  0.27960000  0.74440000  0.59340000  1.0 -0.3722995205
O  O2  1  0.72040000  0.25560000  0.40660000  1.0 -0.3722995205
O  O3  1  0.05590000  0.73590000  0.43960000  1.0 -0.2649216039
O  O4  1  0.94410000  0.26410000  0.56040000  1.0 -0.2649216039
O  O5  1  0.39710000  0.95290000  0.42390000  1.0 -0.3001207022
O  O6  1  0.60290000  0.04710000  0.57610000  1.0 -0.3001207022
O  O7  1  0.74440000  0.27960000  0.90660000  1.0 -0.3722995205
O  O8  1  0.25560000  0.72040000  0.09340000  1.0 -0.3722995205
O  O9  1  0.73590000  0.05590000  0.06040000  1.0 -0.2678956571
O  O10  1  0.26410000  0.94410000  0.93960000  1.0 -0.2678956571
O  O11  1  0.95290000  0.39710000  0.07610000  1.0 -0.3001207022
O  O12  1  0.04710000  0.60290000  0.92390000  1.0 -0.3001207022
