# DDEC6 charges by PACMAN v1.1 (https://github.com/mtap-research/PACMAN-charge/)
data_VUHPOF_ASR_pacman
_symmetry_space_group_name_H-M   'P 1'
_cell_length_a   18.90100000
_cell_length_b   18.90100000
_cell_length_c   31.05840000
_cell_angle_alpha   79.50010000
_cell_angle_beta   100.50000000
_cell_angle_gamma   133.56700000
_symmetry_Int_Tables_number   1
_chemical_formula_structural   Zn2H20C19(IN)4
_chemical_formula_sum   'Zn24 H240 C228 I48 N48'
_cell_volume   7879.84713638
_cell_formula_units_Z   12
loop_
 _symmetry_equiv_pos_site_id
 _symmetry_equiv_pos_as_xyz
  1  'x, y, z'
loop_
 _atom_site_type_symbol
 _atom_site_label
 _atom_site_symmetry_multiplicity
 _atom_site_fract_x
 _atom_site_fract_y
 _atom_site_fract_z
 _atom_site_occupancy
 _atom_site_charge
Zn  Zn1  1  0.29252000  0.45208000  0.90714000  1.0 0.3283451233
Zn  Zn2  1  0.54792000  0.70748000  0.40714000  1.0 0.3283451233
Zn  Zn3  1  0.68280000  0.04080000  0.22090000  1.0 0.210516918
Zn  Zn4  1  0.95920000  0.31720000  0.72090000  1.0 0.210516918
Zn  Zn5  1  0.22580000  0.98200000  0.06200000  1.0 0.2504185173
Zn  Zn6  1  0.01800000  0.77420000  0.56200000  1.0 0.2504185173
Zn  Zn7  1  0.68694000  0.02806000  0.23213000  1.0 0.1757481578
Zn  Zn8  1  0.97194000  0.31306000  0.73213000  1.0 0.1757481578
Zn  Zn9  1  0.22364000  0.96216000  0.05930000  1.0 0.3159148428
Zn  Zn10  1  0.03784000  0.77636000  0.55930000  1.0 0.3159148428
Zn  Zn11  1  0.30100000  0.47440000  0.90860000  1.0 0.3971350375
Zn  Zn12  1  0.52560000  0.69900000  0.40860000  1.0 0.3971350375
Zn  Zn13  1  0.45208000  0.29252000  0.59286000  1.0 0.3283451233
Zn  Zn14  1  0.70748000  0.54792000  0.09286000  1.0 0.3283451233
Zn  Zn15  1  0.04080000  0.68280000  0.27910000  1.0 0.210516918
Zn  Zn16  1  0.31720000  0.95920000  0.77910000  1.0 0.210516918
Zn  Zn17  1  0.98200000  0.22580000  0.43800000  1.0 0.2504185173
Zn  Zn18  1  0.77420000  0.01800000  0.93800000  1.0 0.2504185173
Zn  Zn19  1  0.02806000  0.68694000  0.26787000  1.0 0.1747494522
Zn  Zn20  1  0.31306000  0.97194000  0.76787000  1.0 0.1747494522
Zn  Zn21  1  0.96216000  0.22364000  0.44070000  1.0 0.3159148428
Zn  Zn22  1  0.77636000  0.03784000  0.94070000  1.0 0.3159148428
Zn  Zn23  1  0.47440000  0.30100000  0.59140000  1.0 0.3971350375
Zn  Zn24  1  0.69900000  0.52560000  0.09140000  1.0 0.3971350375
H  H1  1  0.75940000  0.22480000  0.17580000  1.0 0.0891802642
H  H2  1  0.77520000  0.24060000  0.67580000  1.0 0.0891802642
H  H3  1  0.90250000  0.38970000  0.17010000  1.0 0.1311157572
H  H4  1  0.61030000  0.09750000  0.67010000  1.0 0.1311157572
H  H5  1  0.03240000  0.33020000  0.26700000  1.0 0.1218225512
H  H6  1  0.66980000  0.96760000  0.76700000  1.0 0.1218225512
H  H7  1  0.88700000  0.16640000  0.26830000  1.0 0.0705853892
H  H8  1  0.83360000  0.11300000  0.76830000  1.0 0.0705853892
H  H9  1  0.07800000  0.75520000  0.07610000  1.0 0.0815663504
H  H10  1  0.24480000  0.92200000  0.57610000  1.0 0.0815663504
H  H11  1  0.05060000  0.62920000  0.12350000  1.0 0.1218225512
H  H12  1  0.37080000  0.94940000  0.62350000  1.0 0.1218225512
H  H13  1  0.30550000  0.83530000  0.19230000  1.0 0.0987808574
H  H14  1  0.16470000  0.69450000  0.69230000  1.0 0.0987808574
H  H15  1  0.32490000  0.95390000  0.14380000  1.0 0.0705853892
H  H16  1  0.04610000  0.67510000  0.64380000  1.0 0.0705853892
H  H17  1  0.34730000  0.53290000  0.37020000  1.0 0.0815663504
H  H18  1  0.46710000  0.65270000  0.87020000  1.0 0.0815663504
H  H19  1  0.22670000  0.48950000  0.31530000  1.0 0.1107874799
H  H20  1  0.51050000  0.77330000  0.81530000  1.0 0.1107874799
H  H21  1  0.39120000  0.77680000  0.27730000  1.0 0.1218225512
H  H22  1  0.22320000  0.60880000  0.77730000  1.0 0.1218225512
H  H23  1  0.50320000  0.81160000  0.33620000  1.0 0.0584952365
H  H24  1  0.18840000  0.49680000  0.83620000  1.0 0.0584952365
H  H25  1  0.04640000  0.89400000  0.99670000  1.0 0.0891802642
H  H26  1  0.10600000  0.95360000  0.49670000  1.0 0.0891802642
H  H27  1  0.89800000  0.85080000  0.99440000  1.0 0.1353279385
H  H28  1  0.14920000  0.10200000  0.49440000  1.0 0.1353279385
H  H29  1  0.96150000  0.91410000  0.12010000  1.0 0.1311157572
H  H30  1  0.08590000  0.03850000  0.62010000  1.0 0.1311157572
H  H31  1  0.10730000  0.95530000  0.11850000  1.0 0.0815663504
H  H32  1  0.04470000  0.89270000  0.61850000  1.0 0.0815663504
H  H33  1  0.50140000  0.53860000  0.93520000  1.0 0.0815663504
H  H34  1  0.46140000  0.49860000  0.43520000  1.0 0.0815663504
H  H35  1  0.63990000  0.65710000  0.97840000  1.0 0.1311157572
H  H36  1  0.34290000  0.36010000  0.47840000  1.0 0.1311157572
H  H37  1  0.48280000  0.69580000  0.02350000  1.0 0.1311157572
H  H38  1  0.30420000  0.51720000  0.52350000  1.0 0.1311157572
H  H39  1  0.34890000  0.57750000  0.97810000  1.0 0.0815663504
H  H40  1  0.42250000  0.65110000  0.47810000  1.0 0.0815663504
H  H41  1  0.83340000  0.04080000  0.19980000  1.0 0.0891802642
H  H42  1  0.95920000  0.16660000  0.69980000  1.0 0.0891802642
H  H43  1  0.85290000  0.98110000  0.15050000  1.0 0.1218225512
H  H44  1  0.01890000  0.14710000  0.65050000  1.0 0.1218225512
H  H45  1  0.58630000  0.85770000  0.09460000  1.0 0.1311157572
H  H46  1  0.14230000  0.41370000  0.59460000  1.0 0.1311157572
H  H47  1  0.57630000  0.92630000  0.14430000  1.0 0.0815663504
H  H48  1  0.07370000  0.42370000  0.64430000  1.0 0.0891802642
H  H49  1  0.22480000  0.75940000  0.32420000  1.0 0.0891802642
H  H50  1  0.24060000  0.77520000  0.82420000  1.0 0.0891802642
H  H51  1  0.38970000  0.90250000  0.32990000  1.0 0.1311157572
H  H52  1  0.09750000  0.61030000  0.82990000  1.0 0.1311157572
H  H53  1  0.33020000  0.03240000  0.23300000  1.0 0.1218225512
H  H54  1  0.96760000  0.66980000  0.73300000  1.0 0.1218225512
H  H55  1  0.16640000  0.88700000  0.23170000  1.0 0.0705853892
H  H56  1  0.11300000  0.83360000  0.73170000  1.0 0.0705853892
H  H57  1  0.75520000  0.07800000  0.42390000  1.0 0.0815663504
H  H58  1  0.92200000  0.24480000  0.92390000  1.0 0.0815663504
H  H59  1  0.62920000  0.05060000  0.37650000  1.0 0.1218225512
H  H60  1  0.94940000  0.37080000  0.87650000  1.0 0.1218225512
H  H61  1  0.83530000  0.30550000  0.30770000  1.0 0.0987808574
H  H62  1  0.69450000  0.16470000  0.80770000  1.0 0.0987808574
H  H63  1  0.95390000  0.32490000  0.35620000  1.0 0.0705853892
H  H64  1  0.67510000  0.04610000  0.85620000  1.0 0.0705853892
H  H65  1  0.53290000  0.34730000  0.12980000  1.0 0.0815663504
H  H66  1  0.65270000  0.46710000  0.62980000  1.0 0.0815663504
H  H67  1  0.48950000  0.22670000  0.18470000  1.0 0.1107874799
H  H68  1  0.77330000  0.51050000  0.68470000  1.0 0.1107874799
H  H69  1  0.77680000  0.39120000  0.22270000  1.0 0.1218225512
H  H70  1  0.60880000  0.22320000  0.72270000  1.0 0.1218225512
H  H71  1  0.81160000  0.50320000  0.16380000  1.0 0.0584952365
H  H72  1  0.49680000  0.18840000  0.66380000  1.0 0.0584952365
H  H73  1  0.89400000  0.04640000  0.50330000  1.0 0.0891802642
H  H74  1  0.95360000  0.10600000  0.00330000  1.0 0.0891802642
H  H75  1  0.85080000  0.89800000  0.50560000  1.0 0.1353279385
H  H76  1  0.10200000  0.14920000  0.00560000  1.0 0.1353279385
H  H77  1  0.91410000  0.96150000  0.37990000  1.0 0.1311157572
H  H78  1  0.03850000  0.08590000  0.87990000  1.0 0.1311157572
H  H79  1  0.95530000  0.10730000  0.38150000  1.0 0.0815663504
H  H80  1  0.89270000  0.04470000  0.88150000  1.0 0.0815663504
H  H81  1  0.53860000  0.50140000  0.56480000  1.0 0.0815663504
H  H82  1  0.49860000  0.46140000  0.06480000  1.0 0.0815663504
H  H83  1  0.65710000  0.63990000  0.52160000  1.0 0.1311157572
H  H84  1  0.36010000  0.34290000  0.02160000  1.0 0.1311157572
H  H85  1  0.69580000  0.48280000  0.47650000  1.0 0.1311157572
H  H86  1  0.51720000  0.30420000  0.97650000  1.0 0.1311157572
H  H87  1  0.57750000  0.34890000  0.52190000  1.0 0.0815663504
H  H88  1  0.65110000  0.42250000  0.02190000  1.0 0.0815663504
H  H89  1  0.04080000  0.83340000  0.30020000  1.0 0.0891802642
H  H90  1  0.16660000  0.95920000  0.80020000  1.0 0.0891802642
H  H91  1  0.98110000  0.85290000  0.34950000  1.0 0.1218225512
H  H92  1  0.14710000  0.01890000  0.84950000  1.0 0.1218225512
H  H93  1  0.85770000  0.58630000  0.40540000  1.0 0.1311157572
H  H94  1  0.41370000  0.14230000  0.90540000  1.0 0.1311157572
H  H95  1  0.92630000  0.57630000  0.35570000  1.0 0.0891802642
H  H96  1  0.42370000  0.07370000  0.85570000  1.0 0.0891802642
H  H97  1  0.84130000  0.45850000  0.98310000  1.0 0.1311157572
H  H98  1  0.15870000  0.54150000  0.01690000  1.0 0.1311157572
H  H99  1  0.82950000  0.32010000  0.95470000  1.0 0.0891802642
H  H100  1  0.17050000  0.67990000  0.04530000  1.0 0.0891802642
H  H101  1  0.72330000  0.32270000  0.89540000  1.0 0.1107874799
H  H102  1  0.27670000  0.67730000  0.10460000  1.0 0.1107874799
H  H103  1  0.71570000  0.37730000  0.92610000  1.0 0.0987808574
H  H104  1  0.28430000  0.62270000  0.07390000  1.0 0.0987808574
H  H105  1  0.62300000  0.28920000  0.99210000  1.0 0.0705853892
H  H106  1  0.37700000  0.71080000  0.00790000  1.0 0.0705853892
H  H107  1  0.51310000  0.08930000  0.00260000  1.0 0.0815663504
H  H108  1  0.48690000  0.91070000  0.99740000  1.0 0.0815663504
H  H109  1  0.50920000  0.14900000  0.03080000  1.0 0.0584952365
H  H110  1  0.49080000  0.85100000  0.96920000  1.0 0.0584952365
H  H111  1  0.56630000  0.10070000  0.07800000  1.0 0.0391156604
H  H112  1  0.43370000  0.89930000  0.92200000  1.0 0.0391156604
H  H113  1  0.62780000  0.11160000  0.04400000  1.0 0.0514838751
H  H114  1  0.37220000  0.88840000  0.95600000  1.0 0.0514838751
H  H115  1  0.78070000  0.23850000  0.05000000  1.0 0.0514838751
H  H116  1  0.21930000  0.76150000  0.95000000  1.0 0.0514838751
H  H117  1  0.92930000  0.38870000  0.08610000  1.0 0.1107874799
H  H118  1  0.07070000  0.61130000  0.91390000  1.0 0.1107874799
H  H119  1  0.87870000  0.43150000  0.07340000  1.0 0.0987808574
H  H120  1  0.12130000  0.56850000  0.92660000  1.0 0.0891802642
H  H121  1  0.92320000  0.32800000  0.00380000  1.0 0.0987808574
H  H122  1  0.07680000  0.67200000  0.99620000  1.0 0.0987808574
H  H123  1  0.02830000  0.41250000  0.02760000  1.0 0.0987808574
H  H124  1  0.97170000  0.58750000  0.97240000  1.0 0.0987808574
H  H125  1  0.00310000  0.43050000  0.97710000  1.0 0.0705853892
H  H126  1  0.99690000  0.56950000  0.02290000  1.0 0.0705853892
H  H127  1  0.98350000  0.56990000  0.03230000  1.0 0.0987808574
H  H128  1  0.01650000  0.43010000  0.96770000  1.0 0.0987808574
H  H129  1  0.04130000  0.58330000  0.99510000  1.0 -0.0193632861
H  H130  1  0.95870000  0.41670000  0.00490000  1.0 -0.0193632861
H  H131  1  0.06640000  0.56540000  0.04560000  1.0 0.0891802642
H  H132  1  0.93360000  0.43460000  0.95440000  1.0 0.0891802642
H  H133  1  0.60290000  0.22850000  0.09560000  1.0 0.0584952365
H  H134  1  0.39710000  0.77150000  0.90440000  1.0 0.0514838751
H  H135  1  0.68260000  0.33280000  0.06990000  1.0 0.0514838751
H  H136  1  0.31740000  0.66720000  0.93010000  1.0 0.0514838751
H  H137  1  0.71070000  0.30850000  0.11850000  1.0 0.0891802642
H  H138  1  0.28930000  0.69150000  0.88150000  1.0 0.0891802642
H  H139  1  0.62960000  0.14740000  0.90740000  1.0 0.1107874799
H  H140  1  0.37040000  0.85260000  0.09260000  1.0 0.1107874799
H  H141  1  0.53000000  0.08540000  0.93020000  1.0 0.1218225512
H  H142  1  0.47000000  0.91460000  0.06980000  1.0 0.1218225512
H  H143  1  0.62290000  0.10810000  0.95810000  1.0 0.0584952365
H  H144  1  0.37710000  0.89190000  0.04190000  1.0 0.0584952365
H  H145  1  0.63260000  0.26160000  0.97730000  1.0 0.0391156604
H  H146  1  0.36740000  0.73840000  0.02270000  1.0 0.0391156604
H  H147  1  0.54900000  0.14940000  0.99580000  1.0 0.0584952365
H  H148  1  0.45100000  0.85060000  0.00420000  1.0 0.0584952365
H  H149  1  0.66770000  0.14570000  0.99490000  1.0 0.0306497019
H  H150  1  0.33230000  0.85430000  0.00510000  1.0 0.0391156604
H  H151  1  0.75540000  0.26180000  0.99950000  1.0 0.1107874799
H  H152  1  0.24460000  0.73820000  0.00050000  1.0 0.1107874799
H  H153  1  0.73380000  0.24100000  0.07610000  1.0 0.0705853892
H  H154  1  0.26620000  0.75900000  0.92390000  1.0 0.0705853892
H  H155  1  0.73660000  0.16040000  0.06950000  1.0 0.0584952365
H  H156  1  0.26340000  0.83960000  0.93050000  1.0 0.0584952365
H  H157  1  0.54990000  0.05270000  0.05000000  1.0 0.0514838751
H  H158  1  0.45010000  0.94730000  0.95000000  1.0 0.0514838751
H  H159  1  0.58770000  0.06050000  0.10140000  1.0 0.0514838751
H  H160  1  0.41230000  0.93950000  0.89860000  1.0 0.0514838751
H  H161  1  0.57950000  0.17450000  0.10920000  1.0 0.0584952365
H  H162  1  0.42050000  0.82550000  0.89080000  1.0 0.0514838751
H  H163  1  0.49190000  0.11590000  0.07120000  1.0 0.0172826187
H  H164  1  0.50810000  0.88410000  0.92880000  1.0 0.0172826187
H  H165  1  0.59770000  0.27970000  0.04100000  1.0 0.0027238338
H  H166  1  0.40230000  0.72030000  0.95900000  1.0 0.0027238338
H  H167  1  0.69310000  0.29550000  0.05780000  1.0 0.0391156604
H  H168  1  0.30690000  0.70450000  0.94220000  1.0 0.0391156604
H  H169  1  0.45850000  0.84130000  0.51690000  1.0 0.1311157572
H  H170  1  0.54150000  0.15870000  0.48310000  1.0 0.1311157572
H  H171  1  0.32010000  0.82950000  0.54530000  1.0 0.0891802642
H  H172  1  0.67990000  0.17050000  0.45470000  1.0 0.0891802642
H  H173  1  0.32270000  0.72330000  0.60460000  1.0 0.1107874799
H  H174  1  0.67730000  0.27670000  0.39540000  1.0 0.1107874799
H  H175  1  0.37730000  0.71570000  0.57390000  1.0 0.0987808574
H  H176  1  0.62270000  0.28430000  0.42610000  1.0 0.0987808574
H  H177  1  0.28920000  0.62300000  0.50790000  1.0 0.0705853892
H  H178  1  0.71080000  0.37700000  0.49210000  1.0 0.0705853892
H  H179  1  0.08930000  0.51310000  0.49740000  1.0 0.0815663504
H  H180  1  0.91070000  0.48690000  0.50260000  1.0 0.0815663504
H  H181  1  0.14900000  0.50920000  0.46920000  1.0 0.0584952365
H  H182  1  0.85100000  0.49080000  0.53080000  1.0 0.0584952365
H  H183  1  0.10070000  0.56630000  0.42200000  1.0 0.0391156604
H  H184  1  0.89930000  0.43370000  0.57800000  1.0 0.0391156604
H  H185  1  0.11160000  0.62780000  0.45600000  1.0 0.0514838751
H  H186  1  0.88840000  0.37220000  0.54400000  1.0 0.0514838751
H  H187  1  0.23850000  0.78070000  0.45000000  1.0 0.0514838751
H  H188  1  0.76150000  0.21930000  0.55000000  1.0 0.0514838751
H  H189  1  0.38870000  0.92930000  0.41390000  1.0 0.1107874799
H  H190  1  0.61130000  0.07070000  0.58610000  1.0 0.1107874799
H  H191  1  0.43150000  0.87870000  0.42660000  1.0 0.0891802642
H  H192  1  0.56850000  0.12130000  0.57340000  1.0 0.0891802642
H  H193  1  0.32800000  0.92320000  0.49620000  1.0 0.0987808574
H  H194  1  0.67200000  0.07680000  0.50380000  1.0 0.0987808574
H  H195  1  0.41250000  0.02830000  0.47240000  1.0 0.0987808574
H  H196  1  0.58750000  0.97170000  0.52760000  1.0 0.0987808574
H  H197  1  0.43050000  0.00310000  0.52290000  1.0 0.0705853892
H  H198  1  0.56950000  0.99690000  0.47710000  1.0 0.0705853892
H  H199  1  0.56990000  0.98350000  0.46770000  1.0 0.0987808574
H  H200  1  0.43010000  0.01650000  0.53230000  1.0 0.0987808574
H  H201  1  0.58330000  0.04130000  0.50490000  1.0 -0.0193632861
H  H202  1  0.41670000  0.95870000  0.49510000  1.0 -0.0193632861
H  H203  1  0.56540000  0.06640000  0.45440000  1.0 0.0891802642
H  H204  1  0.43460000  0.93360000  0.54560000  1.0 0.0891802642
H  H205  1  0.22850000  0.60290000  0.40440000  1.0 0.0514838751
H  H206  1  0.77150000  0.39710000  0.59560000  1.0 0.0584952365
H  H207  1  0.33280000  0.68260000  0.43010000  1.0 0.0514838751
H  H208  1  0.66720000  0.31740000  0.56990000  1.0 0.0514838751
H  H209  1  0.30850000  0.71070000  0.38150000  1.0 0.0891802642
H  H210  1  0.69150000  0.28930000  0.61850000  1.0 0.0891802642
H  H211  1  0.14740000  0.62960000  0.59260000  1.0 0.1107874799
H  H212  1  0.85260000  0.37040000  0.40740000  1.0 0.1107874799
H  H213  1  0.08540000  0.53000000  0.56980000  1.0 0.1218225512
H  H214  1  0.91460000  0.47000000  0.43020000  1.0 0.1218225512
H  H215  1  0.10810000  0.62290000  0.54190000  1.0 0.0584952365
H  H216  1  0.89190000  0.37710000  0.45810000  1.0 0.0584952365
H  H217  1  0.26160000  0.63260000  0.52270000  1.0 0.0391156604
H  H218  1  0.73840000  0.36740000  0.47730000  1.0 0.0391156604
H  H219  1  0.14940000  0.54900000  0.50420000  1.0 0.0584952365
H  H220  1  0.85060000  0.45100000  0.49580000  1.0 0.0584952365
H  H221  1  0.14570000  0.66770000  0.50510000  1.0 0.0391156604
H  H222  1  0.85430000  0.33230000  0.49490000  1.0 0.0391156604
H  H223  1  0.26180000  0.75540000  0.50050000  1.0 0.1107874799
H  H224  1  0.73820000  0.24460000  0.49950000  1.0 0.1107874799
H  H225  1  0.24100000  0.73380000  0.42390000  1.0 0.0705853892
H  H226  1  0.75900000  0.26620000  0.57610000  1.0 0.0705853892
H  H227  1  0.16040000  0.73660000  0.43050000  1.0 0.0584952365
H  H228  1  0.83960000  0.26340000  0.56950000  1.0 0.0584952365
H  H229  1  0.05270000  0.54990000  0.45000000  1.0 0.0514838751
H  H230  1  0.94730000  0.45010000  0.55000000  1.0 0.0514838751
H  H231  1  0.06050000  0.58770000  0.39860000  1.0 0.0514838751
H  H232  1  0.93950000  0.41230000  0.60140000  1.0 0.0514838751
H  H233  1  0.17450000  0.57950000  0.39080000  1.0 0.0584952365
H  H234  1  0.82550000  0.42050000  0.60920000  1.0 0.0514838751
H  H235  1  0.11590000  0.49190000  0.42880000  1.0 0.0172826187
H  H236  1  0.88410000  0.50810000  0.57120000  1.0 0.0172826187
H  H237  1  0.27970000  0.59770000  0.45900000  1.0 0.0027238338
H  H238  1  0.72030000  0.40230000  0.54100000  1.0 0.0027238338
H  H239  1  0.29550000  0.69310000  0.44220000  1.0 0.0391156604
H  H240  1  0.70450000  0.30690000  0.55780000  1.0 0.0391156604
C  C1  1  0.81600000  0.24680000  0.19440000  1.0 0.0306497019
C  C2  1  0.75320000  0.18400000  0.69440000  1.0 0.0306497019
C  C3  1  0.90124000  0.34556000  0.19110000  1.0 -0.1795275886
C  C4  1  0.65444000  0.09876000  0.69110000  1.0 -0.1795275886
C  C5  1  0.98293000  0.37907000  0.21797000  1.0 0.0514838751
C  C6  1  0.62093000  0.01707000  0.71797000  1.0 0.0514838751
C  C7  1  0.97730000  0.31030000  0.24770000  1.0 -0.1590268858
C  C8  1  0.68970000  0.02270000  0.74770000  1.0 -0.1590268858
C  C9  1  0.89030000  0.21310000  0.24840000  1.0 0.0584952365
C  C10  1  0.78690000  0.10970000  0.74840000  1.0 0.0584952365
C  C11  1  0.12459000  0.77121000  0.10017000  1.0 0.0391156604
C  C12  1  0.22879000  0.87541000  0.60017000  1.0 0.0391156604
C  C13  1  0.10769000  0.69551000  0.12824000  1.0 -0.2084427642
C  C14  1  0.30449000  0.89231000  0.62824000  1.0 -0.2084427642
C  C15  1  0.17558000  0.71862000  0.16316000  1.0 0.0584952365
C  C16  1  0.28138000  0.82442000  0.66316000  1.0 0.0584952365
C  C17  1  0.25760000  0.81700000  0.16860000  1.0 -0.1590268858
C  C18  1  0.18300000  0.74240000  0.66860000  1.0 -0.1590268858
C  C19  1  0.26864000  0.88696000  0.13964000  1.0 0.0306497019
C  C20  1  0.11304000  0.73136000  0.63964000  1.0 0.0306497019
C  C21  1  0.35530000  0.58330000  0.35150000  1.0 0.0391156604
C  C22  1  0.41670000  0.64470000  0.85150000  1.0 0.0391156604
C  C23  1  0.28400000  0.55660000  0.31840000  1.0 -0.1510043844
C  C24  1  0.44340000  0.71600000  0.81840000  1.0 -0.1510043844
C  C25  1  0.29701000  0.62899000  0.28937000  1.0 0.0705853892
C  C26  1  0.37101000  0.70299000  0.78937000  1.0 0.0705853892
C  C27  1  0.37988000  0.72492000  0.29636000  1.0 -0.1590268858
C  C28  1  0.27508000  0.62012000  0.79636000  1.0 -0.1590268858
C  C29  1  0.44656000  0.74504000  0.33150000  1.0 0.0306497019
C  C30  1  0.25496000  0.55344000  0.83150000  1.0 0.0306497019
C  C31  1  0.07537000  0.48423000  0.21855000  1.0 0.3355265442
C  C32  1  0.51577000  0.92463000  0.71855000  1.0 0.3355265442
C  C33  1  0.16221000  0.64119000  0.19414000  1.0 0.3495848708
C  C34  1  0.35881000  0.83779000  0.69414000  1.0 0.3495848708
C  C35  1  0.22176000  0.60124000  0.25254000  1.0 0.3495848708
C  C36  1  0.39876000  0.77824000  0.75254000  1.0 0.3495848708
C  C37  1  0.02950000  0.90010000  0.02190000  1.0 0.0705853892
C  C38  1  0.09990000  0.97050000  0.52190000  1.0 0.0705853892
C  C39  1  0.94130000  0.87490000  0.02023000  1.0 -0.1705655441
C  C40  1  0.12510000  0.05870000  0.52023000  1.0 -0.1705655441
C  C41  1  0.91615000  0.88445000  0.05565000  1.0 0.0705853892
C  C42  1  0.11555000  0.08385000  0.55565000  1.0 0.0705853892
C  C43  1  0.97850000  0.91190000  0.09380000  1.0 -0.1590268858
C  C44  1  0.08810000  0.02150000  0.59380000  1.0 -0.1590268858
C  C45  1  0.06450000  0.93550000  0.09250000  1.0 0.0514838751
C  C46  1  0.06450000  0.93550000  0.59250000  1.0 0.0514838751
C  C47  1  0.49824000  0.57216000  0.95289000  1.0 0.0514838751
C  C48  1  0.42784000  0.50176000  0.45289000  1.0 0.0514838751
C  C49  1  0.58073000  0.64227000  0.97872000  1.0 -0.1510043844
C  C50  1  0.35773000  0.41927000  0.47872000  1.0 -0.1510043844
C  C51  1  0.57625000  0.68995000  0.00479000  1.0 0.0584952365
C  C52  1  0.31005000  0.42375000  0.50479000  1.0 0.0584952365
C  C53  1  0.48870000  0.66530000  0.00520000  1.0 -0.1705655441
C  C54  1  0.33470000  0.51130000  0.50520000  1.0 -0.1705655441
C  C55  1  0.40930000  0.59470000  0.97800000  1.0 -0.004317677
C  C56  1  0.40530000  0.59070000  0.47800000  1.0 -0.004317677
C  C57  1  0.78080000  0.00120000  0.17850000  1.0 0.0514838751
C  C58  1  0.99880000  0.21920000  0.67850000  1.0 0.0514838751
C  C59  1  0.79280000  0.96540000  0.14930000  1.0 -0.1367052462
C  C60  1  0.03460000  0.20720000  0.64930000  1.0 -0.1367052462
C  C61  1  0.71943000  0.90717000  0.11840000  1.0 0.0514838751
C  C62  1  0.09283000  0.28057000  0.61840000  1.0 0.0514838751
C  C63  1  0.63810000  0.89430000  0.11660000  1.0 -0.1510043844
C  C64  1  0.10570000  0.36190000  0.61660000  1.0 -0.1510043844
C  C65  1  0.63230000  0.93450000  0.14660000  1.0 0.0172826187
C  C66  1  0.06550000  0.36770000  0.64660000  1.0 0.0103273161
C  C67  1  0.82201000  0.85839000  0.05616000  1.0 0.3575139563
C  C68  1  0.14161000  0.17799000  0.55616000  1.0 0.3575139563
C  C69  1  0.66372000  0.76768000  0.03264000  1.0 0.3495848708
C  C70  1  0.23232000  0.33628000  0.53264000  1.0 0.3495848708
C  C71  1  0.72914000  0.86646000  0.08672000  1.0 0.3575139563
C  C72  1  0.13354000  0.27086000  0.58672000  1.0 0.3575139563
C  C73  1  0.24680000  0.81600000  0.30560000  1.0 0.0306497019
C  C74  1  0.18400000  0.75320000  0.80560000  1.0 0.0306497019
C  C75  1  0.34556000  0.90124000  0.30890000  1.0 -0.1795275886
C  C76  1  0.09876000  0.65444000  0.80890000  1.0 -0.1795275886
C  C77  1  0.37907000  0.98293000  0.28203000  1.0 0.0514838751
C  C78  1  0.01707000  0.62093000  0.78203000  1.0 0.0514838751
C  C79  1  0.31030000  0.97730000  0.25230000  1.0 -0.1590268858
C  C80  1  0.02270000  0.68970000  0.75230000  1.0 -0.1590268858
C  C81  1  0.21310000  0.89030000  0.25160000  1.0 0.0584952365
C  C82  1  0.10970000  0.78690000  0.75160000  1.0 0.0584952365
C  C83  1  0.77121000  0.12459000  0.39983000  1.0 0.0391156604
C  C84  1  0.87541000  0.22879000  0.89983000  1.0 0.0391156604
C  C85  1  0.69551000  0.10769000  0.37176000  1.0 -0.2084427642
C  C86  1  0.89231000  0.30449000  0.87176000  1.0 -0.2084427642
C  C87  1  0.71862000  0.17558000  0.33684000  1.0 0.0584952365
C  C88  1  0.82442000  0.28138000  0.83684000  1.0 0.0584952365
C  C89  1  0.81700000  0.25760000  0.33140000  1.0 -0.1590268858
C  C90  1  0.74240000  0.18300000  0.83140000  1.0 -0.1590268858
C  C91  1  0.88696000  0.26864000  0.36036000  1.0 0.0306497019
C  C92  1  0.73136000  0.11304000  0.86036000  1.0 0.0306497019
C  C93  1  0.58330000  0.35530000  0.14850000  1.0 0.0391156604
C  C94  1  0.64470000  0.41670000  0.64850000  1.0 0.0391156604
C  C95  1  0.55660000  0.28400000  0.18160000  1.0 -0.1510043844
C  C96  1  0.71600000  0.44340000  0.68160000  1.0 -0.1510043844
C  C97  1  0.62899000  0.29701000  0.21063000  1.0 0.0705853892
C  C98  1  0.70299000  0.37101000  0.71063000  1.0 0.0705853892
C  C99  1  0.72492000  0.37988000  0.20364000  1.0 -0.1590268858
C  C100  1  0.62012000  0.27508000  0.70364000  1.0 -0.1590268858
C  C101  1  0.74504000  0.44656000  0.16850000  1.0 0.0306497019
C  C102  1  0.55344000  0.25496000  0.66850000  1.0 0.0306497019
C  C103  1  0.48423000  0.07537000  0.28145000  1.0 0.3355265442
C  C104  1  0.92463000  0.51577000  0.78145000  1.0 0.3355265442
C  C105  1  0.64119000  0.16221000  0.30586000  1.0 0.3495848708
C  C106  1  0.83779000  0.35881000  0.80586000  1.0 0.3495848708
C  C107  1  0.60124000  0.22176000  0.24746000  1.0 0.3495848708
C  C108  1  0.77824000  0.39876000  0.74746000  1.0 0.3495848708
C  C109  1  0.90010000  0.02950000  0.47810000  1.0 0.0705853892
C  C110  1  0.97050000  0.09990000  0.97810000  1.0 0.0705853892
C  C111  1  0.87490000  0.94130000  0.47977000  1.0 -0.1705655441
C  C112  1  0.05870000  0.12510000  0.97977000  1.0 -0.1705655441
C  C113  1  0.88445000  0.91615000  0.44435000  1.0 0.0705853892
C  C114  1  0.08385000  0.11555000  0.94435000  1.0 0.0705853892
C  C115  1  0.91190000  0.97850000  0.40620000  1.0 -0.1590268858
C  C116  1  0.02150000  0.08810000  0.90620000  1.0 -0.1590268858
C  C117  1  0.93550000  0.06450000  0.40750000  1.0 0.0514838751
C  C118  1  0.93550000  0.06450000  0.90750000  1.0 0.0514838751
C  C119  1  0.57216000  0.49824000  0.54711000  1.0 0.0514838751
C  C120  1  0.50176000  0.42784000  0.04711000  1.0 0.0514838751
C  C121  1  0.64227000  0.58073000  0.52128000  1.0 -0.1510043844
C  C122  1  0.41927000  0.35773000  0.02128000  1.0 -0.1510043844
C  C123  1  0.68995000  0.57625000  0.49521000  1.0 0.0584952365
C  C124  1  0.42375000  0.31005000  0.99521000  1.0 0.0584952365
C  C125  1  0.66530000  0.48870000  0.49480000  1.0 -0.1705655441
C  C126  1  0.51130000  0.33470000  0.99480000  1.0 -0.1705655441
C  C127  1  0.59470000  0.40930000  0.52200000  1.0 -0.004317677
C  C128  1  0.59070000  0.40530000  0.02200000  1.0 -0.004317677
C  C129  1  0.00120000  0.78080000  0.32150000  1.0 0.0514838751
C  C130  1  0.21920000  0.99880000  0.82150000  1.0 0.0514838751
C  C131  1  0.96540000  0.79280000  0.35070000  1.0 -0.1367052462
C  C132  1  0.20720000  0.03460000  0.85070000  1.0 -0.1367052462
C  C133  1  0.90717000  0.71943000  0.38160000  1.0 0.0514838751
C  C134  1  0.28057000  0.09283000  0.88160000  1.0 0.0514838751
C  C135  1  0.89430000  0.63810000  0.38340000  1.0 -0.1510043844
C  C136  1  0.36190000  0.10570000  0.88340000  1.0 -0.1510043844
C  C137  1  0.93450000  0.63230000  0.35340000  1.0 0.0172826187
C  C138  1  0.36770000  0.06550000  0.85340000  1.0 0.0103273161
C  C139  1  0.85839000  0.82201000  0.44384000  1.0 0.3575139563
C  C140  1  0.17799000  0.14161000  0.94384000  1.0 0.3575139563
C  C141  1  0.76768000  0.66372000  0.46736000  1.0 0.3495848708
C  C142  1  0.33628000  0.23232000  0.96736000  1.0 0.3495848708
C  C143  1  0.86646000  0.72914000  0.41328000  1.0 0.3575139563
C  C144  1  0.27086000  0.13354000  0.91328000  1.0 0.3575139563
C  C145  1  0.93690000  0.43910000  0.01940000  1.0 0.1500910106
C  C146  1  0.06310000  0.56090000  0.98060000  1.0 0.1500910106
C  C147  1  0.85670000  0.41970000  0.98430000  1.0 -0.2523865369
C  C148  1  0.14330000  0.58030000  0.01570000  1.0 -0.2523865369
C  C149  1  0.80990000  0.35410000  0.95660000  1.0 -0.1795275886
C  C150  1  0.19010000  0.64590000  0.04340000  1.0 -0.1795275886
C  C151  1  0.72000000  0.32800000  0.92590000  1.0 -0.2304144662
C  C152  1  0.28000000  0.67200000  0.07410000  1.0 -0.2304144662
C  C153  1  0.63720000  0.23020000  0.94810000  1.0 0.0815663504
C  C154  1  0.36280000  0.76980000  0.05190000  1.0 0.0815663504
C  C155  1  0.60700000  0.23120000  0.98710000  1.0 -0.0924891796
C  C156  1  0.39300000  0.76880000  0.01290000  1.0 -0.0924891796
C  C157  1  0.55440000  0.14960000  0.01840000  1.0 -0.0964708444
C  C158  1  0.44560000  0.85040000  0.98160000  1.0 -0.0964708444
C  C159  1  0.60980000  0.14420000  0.05370000  1.0 -0.0193632861
C  C160  1  0.39020000  0.85580000  0.94630000  1.0 -0.0261884103
C  C161  1  0.70430000  0.24230000  0.07230000  1.0 -0.0261884103
C  C162  1  0.29570000  0.75770000  0.92770000  1.0 -0.0261884103
C  C163  1  0.78070000  0.28130000  0.06210000  1.0 -0.0830069822
C  C164  1  0.21930000  0.71870000  0.93790000  1.0 -0.0830069822
C  C165  1  0.88590000  0.39010000  0.06360000  1.0 -0.2709821579
C  C166  1  0.11410000  0.60990000  0.93640000  1.0 -0.2709821579
C  C167  1  0.97680000  0.39920000  0.00580000  1.0 -0.2304144662
C  C168  1  0.02320000  0.60080000  0.99420000  1.0 -0.2304144662
C  C169  1  0.01430000  0.54970000  0.02350000  1.0 -0.1892861294
C  C170  1  0.98570000  0.45030000  0.97650000  1.0 -0.1892861294
C  C171  1  0.67270000  0.28130000  0.09050000  1.0 -0.2304144662
C  C172  1  0.32730000  0.71870000  0.90950000  1.0 -0.2304144662
C  C173  1  0.60190000  0.13410000  0.93470000  1.0 -0.4214750346
C  C174  1  0.39810000  0.86590000  0.06530000  1.0 -0.4214750346
C  C175  1  0.61600000  0.21200000  0.00210000  1.0 -0.0193632861
C  C176  1  0.38400000  0.78800000  0.99790000  1.0 -0.0193632861
C  C177  1  0.69100000  0.20100000  0.01000000  1.0 -0.2304144662
C  C178  1  0.30900000  0.79900000  0.99000000  1.0 -0.2304144662
C  C179  1  0.70000000  0.18200000  0.06100000  1.0 -0.0964708444
C  C180  1  0.30000000  0.81800000  0.93900000  1.0 -0.0964708444
C  C181  1  0.59200000  0.09800000  0.07400000  1.0 -0.1212147292
C  C182  1  0.40800000  0.90200000  0.92600000  1.0 -0.1212147292
C  C183  1  0.56300000  0.15500000  0.07900000  1.0 -0.1260569584
C  C184  1  0.43700000  0.84500000  0.92100000  1.0 -0.1260569584
C  C185  1  0.62400000  0.24800000  0.04600000  1.0 0.0027238338
C  C186  1  0.37600000  0.75200000  0.95400000  1.0 0.0027238338
C  C187  1  0.43910000  0.93690000  0.48060000  1.0 0.1500910106
C  C188  1  0.56090000  0.06310000  0.51940000  1.0 0.1500910106
C  C189  1  0.41970000  0.85670000  0.51570000  1.0 -0.2523865369
C  C190  1  0.58030000  0.14330000  0.48430000  1.0 -0.2523865369
C  C191  1  0.35410000  0.80990000  0.54340000  1.0 -0.1795275886
C  C192  1  0.64590000  0.19010000  0.45660000  1.0 -0.1795275886
C  C193  1  0.32800000  0.72000000  0.57410000  1.0 -0.2304144662
C  C194  1  0.67200000  0.28000000  0.42590000  1.0 -0.2304144662
C  C195  1  0.23020000  0.63720000  0.55190000  1.0 0.0815663504
C  C196  1  0.76980000  0.36280000  0.44810000  1.0 0.0815663504
C  C197  1  0.23120000  0.60700000  0.51290000  1.0 -0.0924891796
C  C198  1  0.76880000  0.39300000  0.48710000  1.0 -0.0924891796
C  C199  1  0.14960000  0.55440000  0.48160000  1.0 -0.0964708444
C  C200  1  0.85040000  0.44560000  0.51840000  1.0 -0.0964708444
C  C201  1  0.14420000  0.60980000  0.44630000  1.0 -0.0193632861
C  C202  1  0.85580000  0.39020000  0.55370000  1.0 -0.0193632861
C  C203  1  0.24230000  0.70430000  0.42770000  1.0 -0.0261884103
C  C204  1  0.75770000  0.29570000  0.57230000  1.0 -0.0261884103
C  C205  1  0.28130000  0.78070000  0.43790000  1.0 -0.0830069822
C  C206  1  0.71870000  0.21930000  0.56210000  1.0 -0.0830069822
C  C207  1  0.39010000  0.88590000  0.43640000  1.0 -0.2709821579
C  C208  1  0.60990000  0.11410000  0.56360000  1.0 -0.2709821579
C  C209  1  0.39920000  0.97680000  0.49420000  1.0 -0.2304144662
C  C210  1  0.60080000  0.02320000  0.50580000  1.0 -0.2304144662
C  C211  1  0.54970000  0.01430000  0.47650000  1.0 -0.1892861294
C  C212  1  0.45030000  0.98570000  0.52350000  1.0 -0.1892861294
C  C213  1  0.28130000  0.67270000  0.40950000  1.0 -0.2304144662
C  C214  1  0.71870000  0.32730000  0.59050000  1.0 -0.2304144662
C  C215  1  0.13410000  0.60190000  0.56530000  1.0 -0.4214750346
C  C216  1  0.86590000  0.39810000  0.43470000  1.0 -0.4214750346
C  C217  1  0.21200000  0.61600000  0.49790000  1.0 -0.0193632861
C  C218  1  0.78800000  0.38400000  0.50210000  1.0 -0.0193632861
C  C219  1  0.20100000  0.69100000  0.49000000  1.0 -0.2304144662
C  C220  1  0.79900000  0.30900000  0.51000000  1.0 -0.2304144662
C  C221  1  0.18200000  0.70000000  0.43900000  1.0 -0.0964708444
C  C222  1  0.81800000  0.30000000  0.56100000  1.0 -0.0964708444
C  C223  1  0.09800000  0.59200000  0.42600000  1.0 -0.1212147292
C  C224  1  0.90200000  0.40800000  0.57400000  1.0 -0.1212147292
C  C225  1  0.15500000  0.56300000  0.42100000  1.0 -0.1260569584
C  C226  1  0.84500000  0.43700000  0.57900000  1.0 -0.1260569584
C  C227  1  0.24800000  0.62400000  0.45400000  1.0 0.0027238338
C  C228  1  0.75200000  0.37600000  0.54600000  1.0 0.0027238338
I  I1  1  0.14421000  0.37807000  0.94160000  1.0 -0.0405611843
I  I2  1  0.62193000  0.85579000  0.44160000  1.0 -0.0405611843
I  I3  1  0.32599000  0.37257000  0.87206000  1.0 -0.2756010708
I  I4  1  0.62743000  0.67401000  0.37206000  1.0 -0.2756010708
I  I5  1  0.53767000  0.02433000  0.19290000  1.0 0.0584952365
I  I6  1  0.97567000  0.46233000  0.69290000  1.0 0.0584952365
I  I7  1  0.69700000  0.96560000  0.29520000  1.0 -0.0193632861
I  I8  1  0.03440000  0.30300000  0.79520000  1.0 -0.0193632861
I  I9  1  0.34040000  0.13060000  0.10180000  1.0 0.0027238338
I  I10  1  0.86940000  0.65960000  0.60180000  1.0 0.0103273161
I  I11  1  0.23950000  0.95070000  0.98840000  1.0 -0.3656750437
I  I12  1  0.04930000  0.76050000  0.48840000  1.0 -0.3647076604
I  I13  1  0.53441000  0.99757000  0.20818000  1.0 0.0103273161
I  I14  1  0.00243000  0.46559000  0.70818000  1.0 0.0172826187
I  I15  1  0.71520000  0.96710000  0.30605000  1.0 0.0306497019
I  I16  1  0.03290000  0.28480000  0.80605000  1.0 0.0306497019
I  I17  1  0.35545000  0.12795000  0.09246000  1.0 -0.0124094755
I  I18  1  0.87205000  0.64455000  0.59246000  1.0 -0.0124094755
I  I19  1  0.23915000  0.93625000  0.98880000  1.0 -0.392052066
I  I20  1  0.06375000  0.76085000  0.48880000  1.0 -0.392052066
I  I21  1  0.14380000  0.40040000  0.94357000  1.0 -0.004317677
I  I22  1  0.59960000  0.85620000  0.44357000  1.0 -0.004317677
I  I23  1  0.32180000  0.37040000  0.87970000  1.0 -0.2304144662
I  I24  1  0.62960000  0.67820000  0.37970000  1.0 -0.2304144662
I  I25  1  0.37807000  0.14421000  0.55840000  1.0 -0.0405611843
I  I26  1  0.85579000  0.62193000  0.05840000  1.0 -0.0405611843
I  I27  1  0.37257000  0.32599000  0.62794000  1.0 -0.2756010708
I  I28  1  0.67401000  0.62743000  0.12794000  1.0 -0.2756010708
I  I29  1  0.02433000  0.53767000  0.30710000  1.0 0.0584952365
I  I30  1  0.46233000  0.97567000  0.80710000  1.0 0.0584952365
I  I31  1  0.96560000  0.69700000  0.20480000  1.0 -0.0124094755
I  I32  1  0.30300000  0.03440000  0.70480000  1.0 -0.0124094755
I  I33  1  0.13060000  0.34040000  0.39820000  1.0 0.0103273161
I  I34  1  0.65960000  0.86940000  0.89820000  1.0 0.0103273161
I  I35  1  0.95070000  0.23950000  0.51160000  1.0 -0.3656750437
I  I36  1  0.76050000  0.04930000  0.01160000  1.0 -0.3656750437
I  I37  1  0.99757000  0.53441000  0.29182000  1.0 0.0103273161
I  I38  1  0.46559000  0.00243000  0.79182000  1.0 0.0172826187
I  I39  1  0.96710000  0.71520000  0.19395000  1.0 0.0306497019
I  I40  1  0.28480000  0.03290000  0.69395000  1.0 0.0306497019
I  I41  1  0.12795000  0.35545000  0.40754000  1.0 -0.0124094755
I  I42  1  0.64455000  0.87205000  0.90754000  1.0 -0.0124094755
I  I43  1  0.93625000  0.23915000  0.51120000  1.0 -0.392052066
I  I44  1  0.76085000  0.06375000  0.01120000  1.0 -0.392052066
I  I45  1  0.40040000  0.14380000  0.55643000  1.0 -0.0124094755
I  I46  1  0.85620000  0.59960000  0.05643000  1.0 -0.004317677
I  I47  1  0.37040000  0.32180000  0.62030000  1.0 -0.2304144662
I  I48  1  0.67820000  0.62960000  0.12030000  1.0 -0.2304144662
N  N1  1  0.81167000  0.18293000  0.22248000  1.0 -0.1795275886
N  N2  1  0.81707000  0.18833000  0.72248000  1.0 -0.1795275886
N  N3  1  0.20327000  0.86513000  0.10560000  1.0 -0.2165633407
N  N4  1  0.13487000  0.79673000  0.60560000  1.0 -0.2165633407
N  N5  1  0.43496000  0.67584000  0.35882000  1.0 -0.2084427642
N  N6  1  0.32416000  0.56504000  0.85882000  1.0 -0.2084427642
N  N7  1  0.08062000  0.54818000  0.18886000  1.0 -0.4259244096
N  N8  1  0.45182000  0.91938000  0.68886000  1.0 -0.4259244096
N  N9  1  0.23431000  0.67229000  0.22619000  1.0 -0.4142808136
N  N10  1  0.32771000  0.76569000  0.72619000  1.0 -0.4142808136
N  N11  1  0.14355000  0.50465000  0.24974000  1.0 -0.4142808136
N  N12  1  0.49535000  0.85645000  0.74974000  1.0 -0.4142808136
N  N13  1  0.09117000  0.93243000  0.05729000  1.0 -0.1892861294
N  N14  1  0.06757000  0.90883000  0.55729000  1.0 -0.1892861294
N  N15  1  0.41455000  0.55045000  0.95224000  1.0 -0.2084427642
N  N16  1  0.44955000  0.58545000  0.45224000  1.0 -0.2084427642
N  N17  1  0.70122000  0.98438000  0.17880000  1.0 -0.1892861294
N  N18  1  0.01562000  0.29878000  0.67880000  1.0 -0.1892861294
N  N19  1  0.74924000  0.79616000  0.02714000  1.0 -0.4358120602
N  N20  1  0.20384000  0.25076000  0.52714000  1.0 -0.4358120602
N  N21  1  0.64960000  0.80000000  0.06107000  1.0 -0.4019803968
N  N22  1  0.20000000  0.35040000  0.56107000  1.0 -0.4019803968
N  N23  1  0.81681000  0.89559000  0.08603000  1.0 -0.4019803968
N  N24  1  0.10441000  0.18319000  0.58603000  1.0 -0.4019803968
N  N25  1  0.18293000  0.81167000  0.27752000  1.0 -0.1795275886
N  N26  1  0.18833000  0.81707000  0.77752000  1.0 -0.1795275886
N  N27  1  0.86513000  0.20327000  0.39440000  1.0 -0.2165633407
N  N28  1  0.79673000  0.13487000  0.89440000  1.0 -0.2165633407
N  N29  1  0.67584000  0.43496000  0.14118000  1.0 -0.2084427642
N  N30  1  0.56504000  0.32416000  0.64118000  1.0 -0.2084427642
N  N31  1  0.54818000  0.08062000  0.31114000  1.0 -0.4259244096
N  N32  1  0.91938000  0.45182000  0.81114000  1.0 -0.4259244096
N  N33  1  0.67229000  0.23431000  0.27381000  1.0 -0.4142808136
N  N34  1  0.76569000  0.32771000  0.77381000  1.0 -0.4142808136
N  N35  1  0.50465000  0.14355000  0.25026000  1.0 -0.4142808136
N  N36  1  0.85645000  0.49535000  0.75026000  1.0 -0.4142808136
N  N37  1  0.93243000  0.09117000  0.44271000  1.0 -0.1892861294
N  N38  1  0.90883000  0.06757000  0.94271000  1.0 -0.1892861294
N  N39  1  0.55045000  0.41455000  0.54776000  1.0 -0.2084427642
N  N40  1  0.58545000  0.44955000  0.04776000  1.0 -0.2084427642
N  N41  1  0.98438000  0.70122000  0.32120000  1.0 -0.1892861294
N  N42  1  0.29878000  0.01562000  0.82120000  1.0 -0.1892861294
N  N43  1  0.79616000  0.74924000  0.47286000  1.0 -0.4358120602
N  N44  1  0.25076000  0.20384000  0.97286000  1.0 -0.4358120602
N  N45  1  0.80000000  0.64960000  0.43893000  1.0 -0.4019803968
N  N46  1  0.35040000  0.20000000  0.93893000  1.0 -0.4019803968
N  N47  1  0.89559000  0.81681000  0.41397000  1.0 -0.4019803968
N  N48  1  0.18319000  0.10441000  0.91397000  1.0 -0.4019803968
