# DDEC6 charges by PACMAN v1.1 (https://github.com/mtap-research/PACMAN-charge/)
data_VUJBOS_ASR_pacman
_symmetry_space_group_name_H-M   'P 1'
_cell_length_a   34.72740000
_cell_length_b   34.72740000
_cell_length_c   34.72740000
_cell_angle_alpha   60.00000000
_cell_angle_beta   60.00000000
_cell_angle_gamma   60.00000000
_symmetry_Int_Tables_number   1
_chemical_formula_structural   Cu3H33C60NO12
_chemical_formula_sum   'Cu24 H264 C480 N8 O96'
_cell_volume   29614.32310295
_cell_formula_units_Z   8
loop_
 _symmetry_equiv_pos_site_id
 _symmetry_equiv_pos_as_xyz
  1  'x, y, z'
loop_
 _atom_site_type_symbol
 _atom_site_label
 _atom_site_symmetry_multiplicity
 _atom_site_fract_x
 _atom_site_fract_y
 _atom_site_fract_z
 _atom_site_occupancy
 _atom_site_charge
Cu  Cu1  1  0.19338000  0.80662000  0.50000000  1.0 0.9930021603
Cu  Cu2  1  0.50000000  0.50000000  0.80662000  1.0 0.9930021603
Cu  Cu3  1  0.80662000  0.19338000  0.50000000  1.0 0.9930021603
Cu  Cu4  1  0.50000000  0.50000000  0.19338000  1.0 0.9930021603
Cu  Cu5  1  0.19338000  0.50000000  0.80662000  1.0 0.9930021603
Cu  Cu6  1  0.50000000  0.80662000  0.50000000  1.0 0.9930021603
Cu  Cu7  1  0.19338000  0.50000000  0.50000000  1.0 0.9930021603
Cu  Cu8  1  0.50000000  0.80662000  0.19338000  1.0 0.9930021603
Cu  Cu9  1  0.50000000  0.19338000  0.80662000  1.0 0.9930021603
Cu  Cu10  1  0.80662000  0.50000000  0.19338000  1.0 0.9930021603
Cu  Cu11  1  0.80662000  0.50000000  0.50000000  1.0 0.9930021603
Cu  Cu12  1  0.50000000  0.19338000  0.50000000  1.0 0.9930021603
Cu  Cu13  1  0.27122000  0.72878000  0.50000000  1.0 0.7852591237
Cu  Cu14  1  0.50000000  0.50000000  0.72878000  1.0 0.7843031078
Cu  Cu15  1  0.72878000  0.27122000  0.50000000  1.0 0.7843031078
Cu  Cu16  1  0.50000000  0.50000000  0.27122000  1.0 0.7852591237
Cu  Cu17  1  0.27122000  0.50000000  0.72878000  1.0 0.7852591237
Cu  Cu18  1  0.50000000  0.72878000  0.50000000  1.0 0.7852591237
Cu  Cu19  1  0.27122000  0.50000000  0.50000000  1.0 0.7852591237
Cu  Cu20  1  0.50000000  0.72878000  0.27122000  1.0 0.7852591237
Cu  Cu21  1  0.50000000  0.27122000  0.72878000  1.0 0.7843031078
Cu  Cu22  1  0.72878000  0.50000000  0.27122000  1.0 0.7843031078
Cu  Cu23  1  0.72878000  0.50000000  0.50000000  1.0 0.7843031078
Cu  Cu24  1  0.50000000  0.27122000  0.50000000  1.0 0.7852591237
H  H1  1  0.22630000  0.64370000  0.64370000  1.0 0.1366370657
H  H2  1  0.51370000  0.35630000  0.77370000  1.0 0.1366370657
H  H3  1  0.64370000  0.22630000  0.48630000  1.0 0.1366370657
H  H4  1  0.35630000  0.51370000  0.35630000  1.0 0.1366370657
H  H5  1  0.35630000  0.51370000  0.77370000  1.0 0.1366370657
H  H6  1  0.48630000  0.64370000  0.64370000  1.0 0.1366370657
H  H7  1  0.35630000  0.77370000  0.51370000  1.0 0.1366370657
H  H8  1  0.35630000  0.35630000  0.51370000  1.0 0.1366370657
H  H9  1  0.64370000  0.48630000  0.22630000  1.0 0.1366370657
H  H10  1  0.51370000  0.77370000  0.35630000  1.0 0.1366370657
H  H11  1  0.64370000  0.22630000  0.64370000  1.0 0.1366370657
H  H12  1  0.64370000  0.64370000  0.22630000  1.0 0.1366370657
H  H13  1  0.64370000  0.64370000  0.48630000  1.0 0.1366370657
H  H14  1  0.48630000  0.64370000  0.22630000  1.0 0.1366370657
H  H15  1  0.22630000  0.48630000  0.64370000  1.0 0.1366370657
H  H16  1  0.22630000  0.64370000  0.48630000  1.0 0.1366370657
H  H17  1  0.64370000  0.48630000  0.64370000  1.0 0.1366370657
H  H18  1  0.48630000  0.22630000  0.64370000  1.0 0.1366370657
H  H19  1  0.77370000  0.35630000  0.51370000  1.0 0.1366370657
H  H20  1  0.35630000  0.77370000  0.35630000  1.0 0.1366370657
H  H21  1  0.51370000  0.35630000  0.35630000  1.0 0.1366370657
H  H22  1  0.77370000  0.35630000  0.35630000  1.0 0.1366370657
H  H23  1  0.77370000  0.51370000  0.35630000  1.0 0.1366370657
H  H24  1  0.35630000  0.35630000  0.77370000  1.0 0.1366370657
H  H25  1  0.12310000  0.76710000  0.64890000  1.0 0.1474581077
H  H26  1  0.53910000  0.35110000  0.87690000  1.0 0.1474581077
H  H27  1  0.76710000  0.12310000  0.46090000  1.0 0.1474581077
H  H28  1  0.35110000  0.53910000  0.23290000  1.0 0.1474581077
H  H29  1  0.23290000  0.53910000  0.87690000  1.0 0.1474581077
H  H30  1  0.46090000  0.64890000  0.76710000  1.0 0.1474581077
H  H31  1  0.35110000  0.87690000  0.53910000  1.0 0.1474581077
H  H32  1  0.23290000  0.35110000  0.53910000  1.0 0.1474581077
H  H33  1  0.64890000  0.46090000  0.12310000  1.0 0.1474581077
H  H34  1  0.53910000  0.87690000  0.23290000  1.0 0.1474581077
H  H35  1  0.64890000  0.12310000  0.76710000  1.0 0.1474581077
H  H36  1  0.76710000  0.64890000  0.12310000  1.0 0.1474581077
H  H37  1  0.64890000  0.76710000  0.46090000  1.0 0.1474581077
H  H38  1  0.46090000  0.76710000  0.12310000  1.0 0.1474581077
H  H39  1  0.12310000  0.46090000  0.76710000  1.0 0.1474581077
H  H40  1  0.12310000  0.64890000  0.46090000  1.0 0.1474581077
H  H41  1  0.76710000  0.46090000  0.64890000  1.0 0.1474581077
H  H42  1  0.46090000  0.12310000  0.64890000  1.0 0.1474581077
H  H43  1  0.87690000  0.23290000  0.53910000  1.0 0.1474581077
H  H44  1  0.23290000  0.87690000  0.35110000  1.0 0.1474581077
H  H45  1  0.53910000  0.23290000  0.35110000  1.0 0.1474581077
H  H46  1  0.87690000  0.35110000  0.23290000  1.0 0.1474581077
H  H47  1  0.87690000  0.53910000  0.35110000  1.0 0.1474581077
H  H48  1  0.35110000  0.23290000  0.87690000  1.0 0.1474581077
H  H49  1  0.87690000  0.23290000  0.35110000  1.0 0.1474581077
H  H50  1  0.46090000  0.64890000  0.12310000  1.0 0.1474581077
H  H51  1  0.23290000  0.87690000  0.53910000  1.0 0.1474581077
H  H52  1  0.64890000  0.46090000  0.76710000  1.0 0.1474581077
H  H53  1  0.76710000  0.46090000  0.12310000  1.0 0.1474581077
H  H54  1  0.53910000  0.35110000  0.23290000  1.0 0.1474581077
H  H55  1  0.64890000  0.12310000  0.46090000  1.0 0.1474581077
H  H56  1  0.76710000  0.64890000  0.46090000  1.0 0.1474581077
H  H57  1  0.35110000  0.53910000  0.87690000  1.0 0.1474581077
H  H58  1  0.46090000  0.12310000  0.76710000  1.0 0.1474581077
H  H59  1  0.35110000  0.87690000  0.23290000  1.0 0.1474581077
H  H60  1  0.23290000  0.35110000  0.87690000  1.0 0.1474581077
H  H61  1  0.35110000  0.23290000  0.53910000  1.0 0.1474581077
H  H62  1  0.53910000  0.23290000  0.87690000  1.0 0.1474581077
H  H63  1  0.87690000  0.53910000  0.23290000  1.0 0.1474581077
H  H64  1  0.87690000  0.35110000  0.53910000  1.0 0.1474581077
H  H65  1  0.23290000  0.53910000  0.35110000  1.0 0.1474581077
H  H66  1  0.53910000  0.87690000  0.35110000  1.0 0.1474581077
H  H67  1  0.12310000  0.76710000  0.46090000  1.0 0.1474581077
H  H68  1  0.76710000  0.12310000  0.64890000  1.0 0.1474581077
H  H69  1  0.46090000  0.76710000  0.64890000  1.0 0.1474581077
H  H70  1  0.12310000  0.64890000  0.76710000  1.0 0.1474581077
H  H71  1  0.12310000  0.46090000  0.64890000  1.0 0.1474581077
H  H72  1  0.64890000  0.76710000  0.12310000  1.0 0.1474581077
H  H73  1  0.95890000  0.72350000  0.79950000  1.0 0.1090554006
H  H74  1  0.48190000  0.20050000  0.04110000  1.0 0.1090554006
H  H75  1  0.72350000  0.95890000  0.51810000  1.0 0.1090554006
H  H76  1  0.20050000  0.48190000  0.27650000  1.0 0.1090554006
H  H77  1  0.27650000  0.48190000  0.04110000  1.0 0.1090554006
H  H78  1  0.51810000  0.79950000  0.72350000  1.0 0.1090554006
H  H79  1  0.20050000  0.04110000  0.48190000  1.0 0.1090554006
H  H80  1  0.27650000  0.20050000  0.48190000  1.0 0.1090554006
H  H81  1  0.79950000  0.51810000  0.95890000  1.0 0.1090554006
H  H82  1  0.48190000  0.04110000  0.27650000  1.0 0.1090554006
H  H83  1  0.79950000  0.95890000  0.72350000  1.0 0.1090554006
H  H84  1  0.72350000  0.79950000  0.95890000  1.0 0.1090554006
H  H85  1  0.79950000  0.72350000  0.51810000  1.0 0.1090554006
H  H86  1  0.51810000  0.72350000  0.95890000  1.0 0.1090554006
H  H87  1  0.95890000  0.51810000  0.72350000  1.0 0.1090554006
H  H88  1  0.95890000  0.79950000  0.51810000  1.0 0.1090554006
H  H89  1  0.72350000  0.51810000  0.79950000  1.0 0.1090554006
H  H90  1  0.51810000  0.95890000  0.79950000  1.0 0.1090554006
H  H91  1  0.04110000  0.27650000  0.48190000  1.0 0.1090554006
H  H92  1  0.27650000  0.04110000  0.20050000  1.0 0.1090554006
H  H93  1  0.48190000  0.27650000  0.20050000  1.0 0.1090554006
H  H94  1  0.04110000  0.20050000  0.27650000  1.0 0.1090554006
H  H95  1  0.04110000  0.48190000  0.20050000  1.0 0.1090554006
H  H96  1  0.20050000  0.27650000  0.04110000  1.0 0.1090554006
H  H97  1  0.04110000  0.27650000  0.20050000  1.0 0.1090554006
H  H98  1  0.51810000  0.79950000  0.95890000  1.0 0.1090554006
H  H99  1  0.27650000  0.04110000  0.48190000  1.0 0.1090554006
H  H100  1  0.79950000  0.51810000  0.72350000  1.0 0.1090554006
H  H101  1  0.72350000  0.51810000  0.95890000  1.0 0.1090554006
H  H102  1  0.48190000  0.20050000  0.27650000  1.0 0.1090554006
H  H103  1  0.79950000  0.95890000  0.51810000  1.0 0.1090554006
H  H104  1  0.72350000  0.79950000  0.51810000  1.0 0.1090554006
H  H105  1  0.20050000  0.48190000  0.04110000  1.0 0.1090554006
H  H106  1  0.51810000  0.95890000  0.72350000  1.0 0.1090554006
H  H107  1  0.20050000  0.04110000  0.27650000  1.0 0.1090554006
H  H108  1  0.27650000  0.20050000  0.04110000  1.0 0.1090554006
H  H109  1  0.20050000  0.27650000  0.48190000  1.0 0.1090554006
H  H110  1  0.48190000  0.27650000  0.04110000  1.0 0.1090554006
H  H111  1  0.04110000  0.48190000  0.27650000  1.0 0.1090554006
H  H112  1  0.04110000  0.20050000  0.48190000  1.0 0.1090554006
H  H113  1  0.27650000  0.48190000  0.20050000  1.0 0.1090554006
H  H114  1  0.48190000  0.04110000  0.20050000  1.0 0.1090554006
H  H115  1  0.95890000  0.72350000  0.51810000  1.0 0.1090554006
H  H116  1  0.72350000  0.95890000  0.79950000  1.0 0.1090554006
H  H117  1  0.51810000  0.72350000  0.79950000  1.0 0.1090554006
H  H118  1  0.95890000  0.79950000  0.72350000  1.0 0.1090554006
H  H119  1  0.95890000  0.51810000  0.79950000  1.0 0.1090554006
H  H120  1  0.79950000  0.72350000  0.95890000  1.0 0.1090554006
H  H121  1  0.87840000  0.76500000  0.83980000  1.0 0.0698675204
H  H122  1  0.48320000  0.16020000  0.12160000  1.0 0.0698675204
H  H123  1  0.76500000  0.87840000  0.51680000  1.0 0.0698675204
H  H124  1  0.16020000  0.48320000  0.23500000  1.0 0.0698675204
H  H125  1  0.23500000  0.48320000  0.12160000  1.0 0.0698675204
H  H126  1  0.51680000  0.83980000  0.76500000  1.0 0.0698675204
H  H127  1  0.16020000  0.12160000  0.48320000  1.0 0.0698675204
H  H128  1  0.23500000  0.16020000  0.48320000  1.0 0.0698675204
H  H129  1  0.83980000  0.51680000  0.87840000  1.0 0.0698675204
H  H130  1  0.48320000  0.12160000  0.23500000  1.0 0.0698675204
H  H131  1  0.83980000  0.87840000  0.76500000  1.0 0.0698675204
H  H132  1  0.76500000  0.83980000  0.87840000  1.0 0.0698675204
H  H133  1  0.83980000  0.76500000  0.51680000  1.0 0.0698675204
H  H134  1  0.51680000  0.76500000  0.87840000  1.0 0.0698675204
H  H135  1  0.87840000  0.51680000  0.76500000  1.0 0.0698675204
H  H136  1  0.87840000  0.83980000  0.51680000  1.0 0.0698675204
H  H137  1  0.76500000  0.51680000  0.83980000  1.0 0.0698675204
H  H138  1  0.51680000  0.87840000  0.83980000  1.0 0.0698675204
H  H139  1  0.12160000  0.23500000  0.48320000  1.0 0.0698675204
H  H140  1  0.23500000  0.12160000  0.16020000  1.0 0.0698675204
H  H141  1  0.48320000  0.23500000  0.16020000  1.0 0.0698675204
H  H142  1  0.12160000  0.16020000  0.23500000  1.0 0.0698675204
H  H143  1  0.12160000  0.48320000  0.16020000  1.0 0.0698675204
H  H144  1  0.16020000  0.23500000  0.12160000  1.0 0.0698675204
H  H145  1  0.12160000  0.23500000  0.16020000  1.0 0.0698675204
H  H146  1  0.51680000  0.83980000  0.87840000  1.0 0.0698675204
H  H147  1  0.23500000  0.12160000  0.48320000  1.0 0.0698675204
H  H148  1  0.83980000  0.51680000  0.76500000  1.0 0.0698675204
H  H149  1  0.76500000  0.51680000  0.87840000  1.0 0.0698675204
H  H150  1  0.48320000  0.16020000  0.23500000  1.0 0.0698675204
H  H151  1  0.83980000  0.87840000  0.51680000  1.0 0.0698675204
H  H152  1  0.76500000  0.83980000  0.51680000  1.0 0.0698675204
H  H153  1  0.16020000  0.48320000  0.12160000  1.0 0.0698675204
H  H154  1  0.51680000  0.87840000  0.76500000  1.0 0.0698675204
H  H155  1  0.16020000  0.12160000  0.23500000  1.0 0.0698675204
H  H156  1  0.23500000  0.16020000  0.12160000  1.0 0.0698675204
H  H157  1  0.16020000  0.23500000  0.48320000  1.0 0.0698675204
H  H158  1  0.48320000  0.23500000  0.12160000  1.0 0.0698675204
H  H159  1  0.12160000  0.48320000  0.23500000  1.0 0.0698675204
H  H160  1  0.12160000  0.16020000  0.48320000  1.0 0.0698675204
H  H161  1  0.23500000  0.48320000  0.16020000  1.0 0.0698675204
H  H162  1  0.48320000  0.12160000  0.16020000  1.0 0.0698675204
H  H163  1  0.87840000  0.76500000  0.51680000  1.0 0.0698675204
H  H164  1  0.76500000  0.87840000  0.83980000  1.0 0.0698675204
H  H165  1  0.51680000  0.76500000  0.83980000  1.0 0.0698675204
H  H166  1  0.87840000  0.83980000  0.76500000  1.0 0.0698675204
H  H167  1  0.87840000  0.51680000  0.83980000  1.0 0.0698675204
H  H168  1  0.83980000  0.76500000  0.87840000  1.0 0.0698675204
H  H169  1  0.91300000  0.88240000  0.80380000  1.0 0.0805490618
H  H170  1  0.59920000  0.19620000  0.08700000  1.0 0.0805490618
H  H171  1  0.88240000  0.91300000  0.40080000  1.0 0.0805490618
H  H172  1  0.19620000  0.59920000  0.11760000  1.0 0.0805490618
H  H173  1  0.11760000  0.59920000  0.08700000  1.0 0.0805490618
H  H174  1  0.40080000  0.80380000  0.88240000  1.0 0.0805490618
H  H175  1  0.19620000  0.08700000  0.59920000  1.0 0.0805490618
H  H176  1  0.11760000  0.19620000  0.59920000  1.0 0.0805490618
H  H177  1  0.80380000  0.40080000  0.91300000  1.0 0.0805490618
H  H178  1  0.59920000  0.08700000  0.11760000  1.0 0.0805490618
H  H179  1  0.80380000  0.91300000  0.88240000  1.0 0.0805490618
H  H180  1  0.88240000  0.80380000  0.91300000  1.0 0.0805490618
H  H181  1  0.80380000  0.88240000  0.40080000  1.0 0.0805490618
H  H182  1  0.40080000  0.88240000  0.91300000  1.0 0.0805490618
H  H183  1  0.91300000  0.40080000  0.88240000  1.0 0.0805490618
H  H184  1  0.91300000  0.80380000  0.40080000  1.0 0.0805490618
H  H185  1  0.88240000  0.40080000  0.80380000  1.0 0.0805490618
H  H186  1  0.40080000  0.91300000  0.80380000  1.0 0.0805490618
H  H187  1  0.08700000  0.11760000  0.59920000  1.0 0.0805490618
H  H188  1  0.11760000  0.08700000  0.19620000  1.0 0.0805490618
H  H189  1  0.59920000  0.11760000  0.19620000  1.0 0.0805490618
H  H190  1  0.08700000  0.19620000  0.11760000  1.0 0.0805490618
H  H191  1  0.08700000  0.59920000  0.19620000  1.0 0.0805490618
H  H192  1  0.19620000  0.11760000  0.08700000  1.0 0.0805490618
H  H193  1  0.08700000  0.11760000  0.19620000  1.0 0.0805490618
H  H194  1  0.40080000  0.80380000  0.91300000  1.0 0.0805490618
H  H195  1  0.11760000  0.08700000  0.59920000  1.0 0.0805490618
H  H196  1  0.80380000  0.40080000  0.88240000  1.0 0.0805490618
H  H197  1  0.88240000  0.40080000  0.91300000  1.0 0.0805490618
H  H198  1  0.59920000  0.19620000  0.11760000  1.0 0.0805490618
H  H199  1  0.80380000  0.91300000  0.40080000  1.0 0.0805490618
H  H200  1  0.88240000  0.80380000  0.40080000  1.0 0.0805490618
H  H201  1  0.19620000  0.59920000  0.08700000  1.0 0.0805490618
H  H202  1  0.40080000  0.91300000  0.88240000  1.0 0.0805490618
H  H203  1  0.19620000  0.08700000  0.11760000  1.0 0.0805490618
H  H204  1  0.11760000  0.19620000  0.08700000  1.0 0.0805490618
H  H205  1  0.19620000  0.11760000  0.59920000  1.0 0.0805490618
H  H206  1  0.59920000  0.11760000  0.08700000  1.0 0.0805490618
H  H207  1  0.08700000  0.59920000  0.11760000  1.0 0.0805490618
H  H208  1  0.08700000  0.19620000  0.59920000  1.0 0.0805490618
H  H209  1  0.11760000  0.59920000  0.19620000  1.0 0.0805490618
H  H210  1  0.59920000  0.08700000  0.19620000  1.0 0.0805490618
H  H211  1  0.91300000  0.88240000  0.40080000  1.0 0.0805490618
H  H212  1  0.88240000  0.91300000  0.80380000  1.0 0.0805490618
H  H213  1  0.40080000  0.88240000  0.80380000  1.0 0.0805490618
H  H214  1  0.91300000  0.80380000  0.88240000  1.0 0.0805490618
H  H215  1  0.91300000  0.40080000  0.80380000  1.0 0.0805490618
H  H216  1  0.80380000  0.88240000  0.91300000  1.0 0.0805490618
H  H217  1  0.99570000  0.83790000  0.76270000  1.0 0.1090554006
H  H218  1  0.59630000  0.23730000  0.00430000  1.0 0.1090554006
H  H219  1  0.83790000  0.99570000  0.40370000  1.0 0.1090554006
H  H220  1  0.23730000  0.59630000  0.16210000  1.0 0.1090554006
H  H221  1  0.16210000  0.59630000  0.00430000  1.0 0.1090554006
H  H222  1  0.40370000  0.76270000  0.83790000  1.0 0.1090554006
H  H223  1  0.23730000  0.00430000  0.59630000  1.0 0.1090554006
H  H224  1  0.16210000  0.23730000  0.59630000  1.0 0.1090554006
H  H225  1  0.76270000  0.40370000  0.99570000  1.0 0.1090554006
H  H226  1  0.59630000  0.00430000  0.16210000  1.0 0.1090554006
H  H227  1  0.76270000  0.99570000  0.83790000  1.0 0.1090554006
H  H228  1  0.83790000  0.76270000  0.99570000  1.0 0.1090554006
H  H229  1  0.76270000  0.83790000  0.40370000  1.0 0.1090554006
H  H230  1  0.40370000  0.83790000  0.99570000  1.0 0.1090554006
H  H231  1  0.99570000  0.40370000  0.83790000  1.0 0.1090554006
H  H232  1  0.99570000  0.76270000  0.40370000  1.0 0.1090554006
H  H233  1  0.83790000  0.40370000  0.76270000  1.0 0.1090554006
H  H234  1  0.40370000  0.99570000  0.76270000  1.0 0.1090554006
H  H235  1  0.00430000  0.16210000  0.59630000  1.0 0.1090554006
H  H236  1  0.16210000  0.00430000  0.23730000  1.0 0.1090554006
H  H237  1  0.59630000  0.16210000  0.23730000  1.0 0.1090554006
H  H238  1  0.00430000  0.23730000  0.16210000  1.0 0.1090554006
H  H239  1  0.00430000  0.59630000  0.23730000  1.0 0.1090554006
H  H240  1  0.23730000  0.16210000  0.00430000  1.0 0.1090554006
H  H241  1  0.00430000  0.16210000  0.23730000  1.0 0.1090554006
H  H242  1  0.40370000  0.76270000  0.99570000  1.0 0.1090554006
H  H243  1  0.16210000  0.00430000  0.59630000  1.0 0.1090554006
H  H244  1  0.76270000  0.40370000  0.83790000  1.0 0.1090554006
H  H245  1  0.83790000  0.40370000  0.99570000  1.0 0.1090554006
H  H246  1  0.59630000  0.23730000  0.16210000  1.0 0.1090554006
H  H247  1  0.76270000  0.99570000  0.40370000  1.0 0.1090554006
H  H248  1  0.83790000  0.76270000  0.40370000  1.0 0.1090554006
H  H249  1  0.23730000  0.59630000  0.00430000  1.0 0.1090554006
H  H250  1  0.40370000  0.99570000  0.83790000  1.0 0.1090554006
H  H251  1  0.23730000  0.00430000  0.16210000  1.0 0.1090554006
H  H252  1  0.16210000  0.23730000  0.00430000  1.0 0.1090554006
H  H253  1  0.23730000  0.16210000  0.59630000  1.0 0.1090554006
H  H254  1  0.59630000  0.16210000  0.00430000  1.0 0.1090554006
H  H255  1  0.00430000  0.59630000  0.16210000  1.0 0.1090554006
H  H256  1  0.00430000  0.23730000  0.59630000  1.0 0.1090554006
H  H257  1  0.16210000  0.59630000  0.23730000  1.0 0.1090554006
H  H258  1  0.59630000  0.00430000  0.23730000  1.0 0.1090554006
H  H259  1  0.99570000  0.83790000  0.40370000  1.0 0.1090554006
H  H260  1  0.83790000  0.99570000  0.76270000  1.0 0.1090554006
H  H261  1  0.40370000  0.83790000  0.76270000  1.0 0.1090554006
H  H262  1  0.99570000  0.76270000  0.83790000  1.0 0.1090554006
H  H263  1  0.99570000  0.40370000  0.76270000  1.0 0.1090554006
H  H264  1  0.76270000  0.83790000  0.99570000  1.0 0.1090554006
C  C1  1  0.20397000  0.72671000  0.58317000  1.0 0.570561254
C  C2  1  0.51385000  0.41683000  0.79603000  1.0 0.570561254
C  C3  1  0.72671000  0.20397000  0.48615000  1.0 0.570561254
C  C4  1  0.41683000  0.51385000  0.27329000  1.0 0.570561254
C  C5  1  0.27329000  0.51385000  0.79603000  1.0 0.570561254
C  C6  1  0.48615000  0.58317000  0.72671000  1.0 0.570561254
C  C7  1  0.41683000  0.79603000  0.51385000  1.0 0.570561254
C  C8  1  0.27329000  0.41683000  0.51385000  1.0 0.570561254
C  C9  1  0.58317000  0.48615000  0.20397000  1.0 0.570561254
C  C10  1  0.51385000  0.79603000  0.27329000  1.0 0.570561254
C  C11  1  0.58317000  0.20397000  0.72671000  1.0 0.570561254
C  C12  1  0.72671000  0.58317000  0.20397000  1.0 0.570561254
C  C13  1  0.58317000  0.72671000  0.48615000  1.0 0.570561254
C  C14  1  0.48615000  0.72671000  0.20397000  1.0 0.570561254
C  C15  1  0.20397000  0.48615000  0.72671000  1.0 0.570561254
C  C16  1  0.20397000  0.58317000  0.48615000  1.0 0.570561254
C  C17  1  0.72671000  0.48615000  0.58317000  1.0 0.570561254
C  C18  1  0.48615000  0.20397000  0.58317000  1.0 0.570561254
C  C19  1  0.79603000  0.27329000  0.51385000  1.0 0.570561254
C  C20  1  0.27329000  0.79603000  0.41683000  1.0 0.570561254
C  C21  1  0.51385000  0.27329000  0.41683000  1.0 0.570561254
C  C22  1  0.79603000  0.41683000  0.27329000  1.0 0.570561254
C  C23  1  0.79603000  0.51385000  0.41683000  1.0 0.570561254
C  C24  1  0.41683000  0.27329000  0.79603000  1.0 0.570561254
C  C25  1  0.79603000  0.27329000  0.41683000  1.0 0.570561254
C  C26  1  0.48615000  0.58317000  0.20397000  1.0 0.570561254
C  C27  1  0.27329000  0.79603000  0.51385000  1.0 0.570561254
C  C28  1  0.58317000  0.48615000  0.72671000  1.0 0.570561254
C  C29  1  0.72671000  0.48615000  0.20397000  1.0 0.570561254
C  C30  1  0.51385000  0.41683000  0.27329000  1.0 0.570561254
C  C31  1  0.58317000  0.20397000  0.48615000  1.0 0.570561254
C  C32  1  0.72671000  0.58317000  0.48615000  1.0 0.570561254
C  C33  1  0.41683000  0.51385000  0.79603000  1.0 0.570561254
C  C34  1  0.48615000  0.20397000  0.72671000  1.0 0.570561254
C  C35  1  0.41683000  0.79603000  0.27329000  1.0 0.570561254
C  C36  1  0.27329000  0.41683000  0.79603000  1.0 0.570561254
C  C37  1  0.41683000  0.27329000  0.51385000  1.0 0.570561254
C  C38  1  0.51385000  0.27329000  0.79603000  1.0 0.570561254
C  C39  1  0.79603000  0.51385000  0.27329000  1.0 0.570561254
C  C40  1  0.79603000  0.41683000  0.51385000  1.0 0.570561254
C  C41  1  0.27329000  0.51385000  0.41683000  1.0 0.570561254
C  C42  1  0.51385000  0.79603000  0.41683000  1.0 0.570561254
C  C43  1  0.20397000  0.72671000  0.48615000  1.0 0.570561254
C  C44  1  0.72671000  0.20397000  0.58317000  1.0 0.570561254
C  C45  1  0.48615000  0.72671000  0.58317000  1.0 0.570561254
C  C46  1  0.20397000  0.58317000  0.72671000  1.0 0.570561254
C  C47  1  0.20397000  0.48615000  0.58317000  1.0 0.570561254
C  C48  1  0.58317000  0.72671000  0.20397000  1.0 0.570561254
C  C49  1  0.19768000  0.66138000  0.66138000  1.0 -0.0935006636
C  C50  1  0.52044000  0.33862000  0.80232000  1.0 -0.0935006636
C  C51  1  0.66138000  0.19768000  0.47956000  1.0 -0.0935006636
C  C52  1  0.33862000  0.52044000  0.33862000  1.0 -0.0935006636
C  C53  1  0.33862000  0.52044000  0.80232000  1.0 -0.0935006636
C  C54  1  0.47956000  0.66138000  0.66138000  1.0 -0.0935006636
C  C55  1  0.33862000  0.80232000  0.52044000  1.0 -0.0935006636
C  C56  1  0.33862000  0.33862000  0.52044000  1.0 -0.0935006636
C  C57  1  0.66138000  0.47956000  0.19768000  1.0 -0.0935006636
C  C58  1  0.52044000  0.80232000  0.33862000  1.0 -0.0935006636
C  C59  1  0.66138000  0.19768000  0.66138000  1.0 -0.0935006636
C  C60  1  0.66138000  0.66138000  0.19768000  1.0 -0.1012402035
C  C61  1  0.66138000  0.66138000  0.47956000  1.0 -0.0935006636
C  C62  1  0.47956000  0.66138000  0.19768000  1.0 -0.0935006636
C  C63  1  0.19768000  0.47956000  0.66138000  1.0 -0.0935006636
C  C64  1  0.19768000  0.66138000  0.47956000  1.0 -0.0935006636
C  C65  1  0.66138000  0.47956000  0.66138000  1.0 -0.0935006636
C  C66  1  0.47956000  0.19768000  0.66138000  1.0 -0.0935006636
C  C67  1  0.80232000  0.33862000  0.52044000  1.0 -0.0935006636
C  C68  1  0.33862000  0.80232000  0.33862000  1.0 -0.0935006636
C  C69  1  0.52044000  0.33862000  0.33862000  1.0 -0.0935006636
C  C70  1  0.80232000  0.33862000  0.33862000  1.0 -0.0935006636
C  C71  1  0.80232000  0.52044000  0.33862000  1.0 -0.0935006636
C  C72  1  0.33862000  0.33862000  0.80232000  1.0 -0.0935006636
C  C73  1  0.17820000  0.71038000  0.63640000  1.0 0.0043590404
C  C74  1  0.52498000  0.36360000  0.82180000  1.0 0.0043590404
C  C75  1  0.71038000  0.17820000  0.47502000  1.0 0.0043590404
C  C76  1  0.36360000  0.52498000  0.28962000  1.0 0.0043590404
C  C77  1  0.28962000  0.52498000  0.82180000  1.0 0.0043590404
C  C78  1  0.47502000  0.63640000  0.71038000  1.0 0.0043590404
C  C79  1  0.36360000  0.82180000  0.52498000  1.0 0.0043590404
C  C80  1  0.28962000  0.36360000  0.52498000  1.0 0.0043590404
C  C81  1  0.63640000  0.47502000  0.17820000  1.0 0.0043590404
C  C82  1  0.52498000  0.82180000  0.28962000  1.0 0.0043590404
C  C83  1  0.63640000  0.17820000  0.71038000  1.0 0.0043590404
C  C84  1  0.71038000  0.63640000  0.17820000  1.0 0.0043590404
C  C85  1  0.63640000  0.71038000  0.47502000  1.0 0.0043590404
C  C86  1  0.47502000  0.71038000  0.17820000  1.0 0.0043590404
C  C87  1  0.17820000  0.47502000  0.71038000  1.0 0.0043590404
C  C88  1  0.17820000  0.63640000  0.47502000  1.0 0.0043590404
C  C89  1  0.71038000  0.47502000  0.63640000  1.0 0.0043590404
C  C90  1  0.47502000  0.17820000  0.63640000  1.0 0.0043590404
C  C91  1  0.82180000  0.28962000  0.52498000  1.0 0.0043590404
C  C92  1  0.28962000  0.82180000  0.36360000  1.0 0.0043590404
C  C93  1  0.52498000  0.28962000  0.36360000  1.0 0.0043590404
C  C94  1  0.82180000  0.36360000  0.28962000  1.0 0.0043590404
C  C95  1  0.82180000  0.52498000  0.36360000  1.0 0.0043590404
C  C96  1  0.36360000  0.28962000  0.82180000  1.0 0.0043590404
C  C97  1  0.82180000  0.28962000  0.36360000  1.0 0.0043590404
C  C98  1  0.47502000  0.63640000  0.17820000  1.0 0.0043590404
C  C99  1  0.28962000  0.82180000  0.52498000  1.0 0.0043590404
C  C100  1  0.63640000  0.47502000  0.71038000  1.0 0.0043590404
C  C101  1  0.71038000  0.47502000  0.17820000  1.0 0.0043590404
C  C102  1  0.52498000  0.36360000  0.28962000  1.0 0.0043590404
C  C103  1  0.63640000  0.17820000  0.47502000  1.0 0.0043590404
C  C104  1  0.71038000  0.63640000  0.47502000  1.0 0.0043590404
C  C105  1  0.36360000  0.52498000  0.82180000  1.0 0.0043590404
C  C106  1  0.47502000  0.17820000  0.71038000  1.0 0.0043590404
C  C107  1  0.36360000  0.82180000  0.28962000  1.0 0.0043590404
C  C108  1  0.28962000  0.36360000  0.82180000  1.0 0.0043590404
C  C109  1  0.36360000  0.28962000  0.52498000  1.0 0.0043590404
C  C110  1  0.52498000  0.28962000  0.82180000  1.0 0.0043590404
C  C111  1  0.82180000  0.52498000  0.28962000  1.0 0.0043590404
C  C112  1  0.82180000  0.36360000  0.52498000  1.0 0.0043590404
C  C113  1  0.28962000  0.52498000  0.36360000  1.0 0.0043590404
C  C114  1  0.52498000  0.82180000  0.36360000  1.0 0.0043590404
C  C115  1  0.17820000  0.71038000  0.47502000  1.0 0.0043590404
C  C116  1  0.71038000  0.17820000  0.63640000  1.0 0.0043590404
C  C117  1  0.47502000  0.71038000  0.63640000  1.0 0.0043590404
C  C118  1  0.17820000  0.63640000  0.71038000  1.0 0.0043590404
C  C119  1  0.17820000  0.47502000  0.63640000  1.0 0.0043590404
C  C120  1  0.63640000  0.71038000  0.17820000  1.0 0.0043590404
C  C121  1  0.13652000  0.73384000  0.66230000  1.0 -0.1335103729
C  C122  1  0.53266000  0.33770000  0.86348000  1.0 -0.1335103729
C  C123  1  0.73384000  0.13652000  0.46734000  1.0 -0.1335103729
C  C124  1  0.33770000  0.53266000  0.26616000  1.0 -0.1335103729
C  C125  1  0.26616000  0.53266000  0.86348000  1.0 -0.1335103729
C  C126  1  0.46734000  0.66230000  0.73384000  1.0 -0.1335103729
C  C127  1  0.33770000  0.86348000  0.53266000  1.0 -0.1335103729
C  C128  1  0.26616000  0.33770000  0.53266000  1.0 -0.1335103729
C  C129  1  0.66230000  0.46734000  0.13652000  1.0 -0.1335103729
C  C130  1  0.53266000  0.86348000  0.26616000  1.0 -0.1335103729
C  C131  1  0.66230000  0.13652000  0.73384000  1.0 -0.1335103729
C  C132  1  0.73384000  0.66230000  0.13652000  1.0 -0.1335103729
C  C133  1  0.66230000  0.73384000  0.46734000  1.0 -0.1335103729
C  C134  1  0.46734000  0.73384000  0.13652000  1.0 -0.1335103729
C  C135  1  0.13652000  0.46734000  0.73384000  1.0 -0.1335103729
C  C136  1  0.13652000  0.66230000  0.46734000  1.0 -0.1335103729
C  C137  1  0.73384000  0.46734000  0.66230000  1.0 -0.1335103729
C  C138  1  0.46734000  0.13652000  0.66230000  1.0 -0.1335103729
C  C139  1  0.86348000  0.26616000  0.53266000  1.0 -0.1335103729
C  C140  1  0.26616000  0.86348000  0.33770000  1.0 -0.1335103729
C  C141  1  0.53266000  0.26616000  0.33770000  1.0 -0.1335103729
C  C142  1  0.86348000  0.33770000  0.26616000  1.0 -0.1335103729
C  C143  1  0.86348000  0.53266000  0.33770000  1.0 -0.1335103729
C  C144  1  0.33770000  0.26616000  0.86348000  1.0 -0.1335103729
C  C145  1  0.86348000  0.26616000  0.33770000  1.0 -0.1335103729
C  C146  1  0.46734000  0.66230000  0.13652000  1.0 -0.1335103729
C  C147  1  0.26616000  0.86348000  0.53266000  1.0 -0.1335103729
C  C148  1  0.66230000  0.46734000  0.73384000  1.0 -0.1335103729
C  C149  1  0.73384000  0.46734000  0.13652000  1.0 -0.1335103729
C  C150  1  0.53266000  0.33770000  0.26616000  1.0 -0.1335103729
C  C151  1  0.66230000  0.13652000  0.46734000  1.0 -0.1335103729
C  C152  1  0.73384000  0.66230000  0.46734000  1.0 -0.1335103729
C  C153  1  0.33770000  0.53266000  0.86348000  1.0 -0.1335103729
C  C154  1  0.46734000  0.13652000  0.73384000  1.0 -0.1335103729
C  C155  1  0.33770000  0.86348000  0.26616000  1.0 -0.1335103729
C  C156  1  0.26616000  0.33770000  0.86348000  1.0 -0.1335103729
C  C157  1  0.33770000  0.26616000  0.53266000  1.0 -0.1335103729
C  C158  1  0.53266000  0.26616000  0.86348000  1.0 -0.1335103729
C  C159  1  0.86348000  0.53266000  0.26616000  1.0 -0.1335103729
C  C160  1  0.86348000  0.33770000  0.53266000  1.0 -0.1335103729
C  C161  1  0.26616000  0.53266000  0.33770000  1.0 -0.1335103729
C  C162  1  0.53266000  0.86348000  0.33770000  1.0 -0.1335103729
C  C163  1  0.13652000  0.73384000  0.46734000  1.0 -0.1335103729
C  C164  1  0.73384000  0.13652000  0.66230000  1.0 -0.1335103729
C  C165  1  0.46734000  0.73384000  0.66230000  1.0 -0.1335103729
C  C166  1  0.13652000  0.66230000  0.73384000  1.0 -0.1335103729
C  C167  1  0.13652000  0.46734000  0.66230000  1.0 -0.1335103729
C  C168  1  0.66230000  0.73384000  0.13652000  1.0 -0.1335103729
C  C169  1  0.11180000  0.70980000  0.70980000  1.0 0.1090554006
C  C170  1  0.53140000  0.29020000  0.88820000  1.0 0.1090554006
C  C171  1  0.70980000  0.11180000  0.46860000  1.0 0.1090554006
C  C172  1  0.29020000  0.53140000  0.29020000  1.0 0.1090554006
C  C173  1  0.29020000  0.53140000  0.88820000  1.0 0.1090554006
C  C174  1  0.46860000  0.70980000  0.70980000  1.0 0.1090554006
C  C175  1  0.29020000  0.88820000  0.53140000  1.0 0.1090554006
C  C176  1  0.29020000  0.29020000  0.53140000  1.0 0.1090554006
C  C177  1  0.70980000  0.46860000  0.11180000  1.0 0.1090554006
C  C178  1  0.53140000  0.88820000  0.29020000  1.0 0.1090554006
C  C179  1  0.70980000  0.11180000  0.70980000  1.0 0.1090554006
C  C180  1  0.70980000  0.70980000  0.11180000  1.0 0.1090554006
C  C181  1  0.70980000  0.70980000  0.46860000  1.0 0.1090554006
C  C182  1  0.46860000  0.70980000  0.11180000  1.0 0.1090554006
C  C183  1  0.11180000  0.46860000  0.70980000  1.0 0.1090554006
C  C184  1  0.11180000  0.70980000  0.46860000  1.0 0.1090554006
C  C185  1  0.70980000  0.46860000  0.70980000  1.0 0.1090554006
C  C186  1  0.46860000  0.11180000  0.70980000  1.0 0.1090554006
C  C187  1  0.88820000  0.29020000  0.53140000  1.0 0.1090554006
C  C188  1  0.29020000  0.88820000  0.29020000  1.0 0.1090554006
C  C189  1  0.53140000  0.29020000  0.29020000  1.0 0.1090554006
C  C190  1  0.88820000  0.29020000  0.29020000  1.0 0.1090554006
C  C191  1  0.88820000  0.53140000  0.29020000  1.0 0.1090554006
C  C192  1  0.29020000  0.29020000  0.88820000  1.0 0.1090554006
C  C193  1  0.06459000  0.73653000  0.73653000  1.0 -0.1012402035
C  C194  1  0.53765000  0.26347000  0.93541000  1.0 -0.1012402035
C  C195  1  0.73653000  0.06459000  0.46235000  1.0 -0.1012402035
C  C196  1  0.26347000  0.53765000  0.26347000  1.0 -0.1012402035
C  C197  1  0.26347000  0.53765000  0.93541000  1.0 -0.1012402035
C  C198  1  0.46235000  0.73653000  0.73653000  1.0 -0.1061435587
C  C199  1  0.26347000  0.93541000  0.53765000  1.0 -0.1012402035
C  C200  1  0.26347000  0.26347000  0.53765000  1.0 -0.1012402035
C  C201  1  0.73653000  0.46235000  0.06459000  1.0 -0.1012402035
C  C202  1  0.53765000  0.93541000  0.26347000  1.0 -0.1012402035
C  C203  1  0.73653000  0.06459000  0.73653000  1.0 -0.1061435587
C  C204  1  0.73653000  0.73653000  0.06459000  1.0 -0.1012402035
C  C205  1  0.73653000  0.73653000  0.46235000  1.0 -0.1012402035
C  C206  1  0.46235000  0.73653000  0.06459000  1.0 -0.1012402035
C  C207  1  0.06459000  0.46235000  0.73653000  1.0 -0.1012402035
C  C208  1  0.06459000  0.73653000  0.46235000  1.0 -0.1012402035
C  C209  1  0.73653000  0.46235000  0.73653000  1.0 -0.1012402035
C  C210  1  0.46235000  0.06459000  0.73653000  1.0 -0.1012402035
C  C211  1  0.93541000  0.26347000  0.53765000  1.0 -0.1012402035
C  C212  1  0.26347000  0.93541000  0.26347000  1.0 -0.1012402035
C  C213  1  0.53765000  0.26347000  0.26347000  1.0 -0.1061435587
C  C214  1  0.93541000  0.26347000  0.26347000  1.0 -0.1012402035
C  C215  1  0.93541000  0.53765000  0.26347000  1.0 -0.1012402035
C  C216  1  0.26347000  0.26347000  0.93541000  1.0 -0.1012402035
C  C217  1  0.02740000  0.75548000  0.75548000  1.0 -0.0537352895
C  C218  1  0.53836000  0.24452000  0.97260000  1.0 -0.0573749789
C  C219  1  0.75548000  0.02740000  0.46164000  1.0 -0.0537352895
C  C220  1  0.24452000  0.53836000  0.24452000  1.0 -0.0537352895
C  C221  1  0.24452000  0.53836000  0.97260000  1.0 -0.0573749789
C  C222  1  0.46164000  0.75548000  0.75548000  1.0 -0.0537352895
C  C223  1  0.24452000  0.97260000  0.53836000  1.0 -0.0537352895
C  C224  1  0.24452000  0.24452000  0.53836000  1.0 -0.0537352895
C  C225  1  0.75548000  0.46164000  0.02740000  1.0 -0.0537352895
C  C226  1  0.53836000  0.97260000  0.24452000  1.0 -0.0573749789
C  C227  1  0.75548000  0.02740000  0.75548000  1.0 -0.0537352895
C  C228  1  0.75548000  0.75548000  0.02740000  1.0 -0.0573749789
C  C229  1  0.75548000  0.75548000  0.46164000  1.0 -0.0537352895
C  C230  1  0.46164000  0.75548000  0.02740000  1.0 -0.0573749789
C  C231  1  0.02740000  0.46164000  0.75548000  1.0 -0.0537352895
C  C232  1  0.02740000  0.75548000  0.46164000  1.0 -0.0573749789
C  C233  1  0.75548000  0.46164000  0.75548000  1.0 -0.0537352895
C  C234  1  0.46164000  0.02740000  0.75548000  1.0 -0.0537352895
C  C235  1  0.97260000  0.24452000  0.53836000  1.0 -0.0537352895
C  C236  1  0.24452000  0.97260000  0.24452000  1.0 -0.0537352895
C  C237  1  0.53836000  0.24452000  0.24452000  1.0 -0.0537352895
C  C238  1  0.97260000  0.24452000  0.24452000  1.0 -0.0537352895
C  C239  1  0.97260000  0.53836000  0.24452000  1.0 -0.0537352895
C  C240  1  0.24452000  0.24452000  0.97260000  1.0 -0.0537352895
C  C241  1  0.97846000  0.78034000  0.78034000  1.0 0.0928674131
C  C242  1  0.53914000  0.21966000  0.02154000  1.0 0.0928674131
C  C243  1  0.78034000  0.97846000  0.46086000  1.0 0.0957126408
C  C244  1  0.21966000  0.53914000  0.21966000  1.0 0.0928674131
C  C245  1  0.21966000  0.53914000  0.02154000  1.0 0.0928674131
C  C246  1  0.46086000  0.78034000  0.78034000  1.0 0.0928674131
C  C247  1  0.21966000  0.02154000  0.53914000  1.0 0.0928674131
C  C248  1  0.21966000  0.21966000  0.53914000  1.0 0.0928674131
C  C249  1  0.78034000  0.46086000  0.97846000  1.0 0.0928674131
C  C250  1  0.53914000  0.02154000  0.21966000  1.0 0.0928674131
C  C251  1  0.78034000  0.97846000  0.78034000  1.0 0.0928674131
C  C252  1  0.78034000  0.78034000  0.97846000  1.0 0.0928674131
C  C253  1  0.78034000  0.78034000  0.46086000  1.0 0.0928674131
C  C254  1  0.46086000  0.78034000  0.97846000  1.0 0.0928674131
C  C255  1  0.97846000  0.46086000  0.78034000  1.0 0.0928674131
C  C256  1  0.97846000  0.78034000  0.46086000  1.0 0.0957126408
C  C257  1  0.78034000  0.46086000  0.78034000  1.0 0.0928674131
C  C258  1  0.46086000  0.97846000  0.78034000  1.0 0.0928674131
C  C259  1  0.02154000  0.21966000  0.53914000  1.0 0.0928674131
C  C260  1  0.21966000  0.02154000  0.21966000  1.0 0.0928674131
C  C261  1  0.53914000  0.21966000  0.21966000  1.0 0.0928674131
C  C262  1  0.02154000  0.21966000  0.21966000  1.0 0.0928674131
C  C263  1  0.02154000  0.53914000  0.21966000  1.0 0.0928674131
C  C264  1  0.21966000  0.21966000  0.02154000  1.0 0.0928674131
C  C265  1  0.94897000  0.75409000  0.80085000  1.0 -0.1061435587
C  C266  1  0.50391000  0.19915000  0.05103000  1.0 -0.1061435587
C  C267  1  0.75409000  0.94897000  0.49609000  1.0 -0.1061435587
C  C268  1  0.19915000  0.50391000  0.24591000  1.0 -0.1061435587
C  C269  1  0.24591000  0.50391000  0.05103000  1.0 -0.1061435587
C  C270  1  0.49609000  0.80085000  0.75409000  1.0 -0.1061435587
C  C271  1  0.19915000  0.05103000  0.50391000  1.0 -0.1061435587
C  C272  1  0.24591000  0.19915000  0.50391000  1.0 -0.1061435587
C  C273  1  0.80085000  0.49609000  0.94897000  1.0 -0.1012402035
C  C274  1  0.50391000  0.05103000  0.24591000  1.0 -0.1061435587
C  C275  1  0.80085000  0.94897000  0.75409000  1.0 -0.1061435587
C  C276  1  0.75409000  0.80085000  0.94897000  1.0 -0.1012402035
C  C277  1  0.80085000  0.75409000  0.49609000  1.0 -0.1061435587
C  C278  1  0.49609000  0.75409000  0.94897000  1.0 -0.1012402035
C  C279  1  0.94897000  0.49609000  0.75409000  1.0 -0.1061435587
C  C280  1  0.94897000  0.80085000  0.49609000  1.0 -0.1061435587
C  C281  1  0.75409000  0.49609000  0.80085000  1.0 -0.1012402035
C  C282  1  0.49609000  0.94897000  0.80085000  1.0 -0.1061435587
C  C283  1  0.05103000  0.24591000  0.50391000  1.0 -0.1061435587
C  C284  1  0.24591000  0.05103000  0.19915000  1.0 -0.1061435587
C  C285  1  0.50391000  0.24591000  0.19915000  1.0 -0.1061435587
C  C286  1  0.05103000  0.19915000  0.24591000  1.0 -0.1061435587
C  C287  1  0.05103000  0.50391000  0.19915000  1.0 -0.1061435587
C  C288  1  0.19915000  0.24591000  0.05103000  1.0 -0.1061435587
C  C289  1  0.05103000  0.24591000  0.19915000  1.0 -0.1061435587
C  C290  1  0.49609000  0.80085000  0.94897000  1.0 -0.1012402035
C  C291  1  0.24591000  0.05103000  0.50391000  1.0 -0.1061435587
C  C292  1  0.80085000  0.49609000  0.75409000  1.0 -0.1061435587
C  C293  1  0.75409000  0.49609000  0.94897000  1.0 -0.1012402035
C  C294  1  0.50391000  0.19915000  0.24591000  1.0 -0.1012402035
C  C295  1  0.80085000  0.94897000  0.49609000  1.0 -0.1061435587
C  C296  1  0.75409000  0.80085000  0.49609000  1.0 -0.1061435587
C  C297  1  0.19915000  0.50391000  0.05103000  1.0 -0.1061435587
C  C298  1  0.49609000  0.94897000  0.75409000  1.0 -0.1061435587
C  C299  1  0.19915000  0.05103000  0.24591000  1.0 -0.1061435587
C  C300  1  0.24591000  0.19915000  0.05103000  1.0 -0.1061435587
C  C301  1  0.19915000  0.24591000  0.50391000  1.0 -0.1061435587
C  C302  1  0.50391000  0.24591000  0.05103000  1.0 -0.1061435587
C  C303  1  0.05103000  0.50391000  0.24591000  1.0 -0.1061435587
C  C304  1  0.05103000  0.19915000  0.50391000  1.0 -0.1061435587
C  C305  1  0.24591000  0.50391000  0.19915000  1.0 -0.1061435587
C  C306  1  0.50391000  0.05103000  0.19915000  1.0 -0.1061435587
C  C307  1  0.94897000  0.75409000  0.49609000  1.0 -0.1061435587
C  C308  1  0.75409000  0.94897000  0.80085000  1.0 -0.1012402035
C  C309  1  0.49609000  0.75409000  0.80085000  1.0 -0.1012402035
C  C310  1  0.94897000  0.80085000  0.75409000  1.0 -0.1061435587
C  C311  1  0.94897000  0.49609000  0.80085000  1.0 -0.1012402035
C  C312  1  0.80085000  0.75409000  0.94897000  1.0 -0.1012402035
C  C313  1  0.90316000  0.77824000  0.82402000  1.0 -0.1012402035
C  C314  1  0.50542000  0.17598000  0.09684000  1.0 -0.1012402035
C  C315  1  0.77824000  0.90316000  0.49458000  1.0 -0.1012402035
C  C316  1  0.17598000  0.50542000  0.22176000  1.0 -0.1012402035
C  C317  1  0.22176000  0.50542000  0.09684000  1.0 -0.1012402035
C  C318  1  0.49458000  0.82402000  0.77824000  1.0 -0.1012402035
C  C319  1  0.17598000  0.09684000  0.50542000  1.0 -0.1012402035
C  C320  1  0.22176000  0.17598000  0.50542000  1.0 -0.1012402035
C  C321  1  0.82402000  0.49458000  0.90316000  1.0 -0.1012402035
C  C322  1  0.50542000  0.09684000  0.22176000  1.0 -0.1012402035
C  C323  1  0.82402000  0.90316000  0.77824000  1.0 -0.1012402035
C  C324  1  0.77824000  0.82402000  0.90316000  1.0 -0.1012402035
C  C325  1  0.82402000  0.77824000  0.49458000  1.0 -0.1012402035
C  C326  1  0.49458000  0.77824000  0.90316000  1.0 -0.1012402035
C  C327  1  0.90316000  0.49458000  0.77824000  1.0 -0.1012402035
C  C328  1  0.90316000  0.82402000  0.49458000  1.0 -0.1012402035
C  C329  1  0.77824000  0.49458000  0.82402000  1.0 -0.1012402035
C  C330  1  0.49458000  0.90316000  0.82402000  1.0 -0.1012402035
C  C331  1  0.09684000  0.22176000  0.50542000  1.0 -0.1012402035
C  C332  1  0.22176000  0.09684000  0.17598000  1.0 -0.1012402035
C  C333  1  0.50542000  0.22176000  0.17598000  1.0 -0.1012402035
C  C334  1  0.09684000  0.17598000  0.22176000  1.0 -0.1012402035
C  C335  1  0.09684000  0.50542000  0.17598000  1.0 -0.1012402035
C  C336  1  0.17598000  0.22176000  0.09684000  1.0 -0.1012402035
C  C337  1  0.09684000  0.22176000  0.17598000  1.0 -0.1012402035
C  C338  1  0.49458000  0.82402000  0.90316000  1.0 -0.1012402035
C  C339  1  0.22176000  0.09684000  0.50542000  1.0 -0.1012402035
C  C340  1  0.82402000  0.49458000  0.77824000  1.0 -0.1012402035
C  C341  1  0.77824000  0.49458000  0.90316000  1.0 -0.1012402035
C  C342  1  0.50542000  0.17598000  0.22176000  1.0 -0.1012402035
C  C343  1  0.82402000  0.90316000  0.49458000  1.0 -0.1012402035
C  C344  1  0.77824000  0.82402000  0.49458000  1.0 -0.1012402035
C  C345  1  0.17598000  0.50542000  0.09684000  1.0 -0.1012402035
C  C346  1  0.49458000  0.90316000  0.77824000  1.0 -0.1012402035
C  C347  1  0.17598000  0.09684000  0.22176000  1.0 -0.1012402035
C  C348  1  0.22176000  0.17598000  0.09684000  1.0 -0.1012402035
C  C349  1  0.17598000  0.22176000  0.50542000  1.0 -0.1012402035
C  C350  1  0.50542000  0.22176000  0.09684000  1.0 -0.1012402035
C  C351  1  0.09684000  0.50542000  0.22176000  1.0 -0.1012402035
C  C352  1  0.09684000  0.17598000  0.50542000  1.0 -0.1012402035
C  C353  1  0.22176000  0.50542000  0.17598000  1.0 -0.1012402035
C  C354  1  0.50542000  0.09684000  0.17598000  1.0 -0.1012402035
C  C355  1  0.90316000  0.77824000  0.49458000  1.0 -0.1012402035
C  C356  1  0.77824000  0.90316000  0.82402000  1.0 -0.1012402035
C  C357  1  0.49458000  0.77824000  0.82402000  1.0 -0.1012402035
C  C358  1  0.90316000  0.82402000  0.77824000  1.0 -0.1012402035
C  C359  1  0.90316000  0.49458000  0.82402000  1.0 -0.1012402035
C  C360  1  0.82402000  0.77824000  0.90316000  1.0 -0.1012402035
C  C361  1  0.89686000  0.82200000  0.82200000  1.0 0.1090554006
C  C362  1  0.54086000  0.17800000  0.10314000  1.0 0.1090554006
C  C363  1  0.82200000  0.89686000  0.45914000  1.0 0.1150254249
C  C364  1  0.17800000  0.54086000  0.17800000  1.0 0.1090554006
C  C365  1  0.17800000  0.54086000  0.10314000  1.0 0.1090554006
C  C366  1  0.45914000  0.82200000  0.82200000  1.0 0.1090554006
C  C367  1  0.17800000  0.10314000  0.54086000  1.0 0.1090554006
C  C368  1  0.17800000  0.17800000  0.54086000  1.0 0.1090554006
C  C369  1  0.82200000  0.45914000  0.89686000  1.0 0.1090554006
C  C370  1  0.54086000  0.10314000  0.17800000  1.0 0.1090554006
C  C371  1  0.82200000  0.89686000  0.82200000  1.0 0.1090554006
C  C372  1  0.82200000  0.82200000  0.89686000  1.0 0.1090554006
C  C373  1  0.82200000  0.82200000  0.45914000  1.0 0.1090554006
C  C374  1  0.45914000  0.82200000  0.89686000  1.0 0.1090554006
C  C375  1  0.89686000  0.45914000  0.82200000  1.0 0.1090554006
C  C376  1  0.89686000  0.82200000  0.45914000  1.0 0.1150254249
C  C377  1  0.82200000  0.45914000  0.82200000  1.0 0.1090554006
C  C378  1  0.45914000  0.89686000  0.82200000  1.0 0.1090554006
C  C379  1  0.10314000  0.17800000  0.54086000  1.0 0.1090554006
C  C380  1  0.17800000  0.10314000  0.17800000  1.0 0.1090554006
C  C381  1  0.54086000  0.17800000  0.17800000  1.0 0.1090554006
C  C382  1  0.10314000  0.17800000  0.17800000  1.0 0.1090554006
C  C383  1  0.10314000  0.54086000  0.17800000  1.0 0.1090554006
C  C384  1  0.17800000  0.17800000  0.10314000  1.0 0.1090554006
C  C385  1  0.92361000  0.85159000  0.80221000  1.0 -0.1361919143
C  C386  1  0.57741000  0.19779000  0.07639000  1.0 -0.1335103729
C  C387  1  0.85159000  0.92361000  0.42259000  1.0 -0.1361919143
C  C388  1  0.19779000  0.57741000  0.14841000  1.0 -0.1361919143
C  C389  1  0.14841000  0.57741000  0.07639000  1.0 -0.1335103729
C  C390  1  0.42259000  0.80221000  0.85159000  1.0 -0.1335103729
C  C391  1  0.19779000  0.07639000  0.57741000  1.0 -0.1335103729
C  C392  1  0.14841000  0.19779000  0.57741000  1.0 -0.1335103729
C  C393  1  0.80221000  0.42259000  0.92361000  1.0 -0.1335103729
C  C394  1  0.57741000  0.07639000  0.14841000  1.0 -0.1361919143
C  C395  1  0.80221000  0.92361000  0.85159000  1.0 -0.1335103729
C  C396  1  0.85159000  0.80221000  0.92361000  1.0 -0.1335103729
C  C397  1  0.80221000  0.85159000  0.42259000  1.0 -0.1361919143
C  C398  1  0.42259000  0.85159000  0.92361000  1.0 -0.1335103729
C  C399  1  0.92361000  0.42259000  0.85159000  1.0 -0.1335103729
C  C400  1  0.92361000  0.80221000  0.42259000  1.0 -0.1361919143
C  C401  1  0.85159000  0.42259000  0.80221000  1.0 -0.1335103729
C  C402  1  0.42259000  0.92361000  0.80221000  1.0 -0.1361919143
C  C403  1  0.07639000  0.14841000  0.57741000  1.0 -0.1361919143
C  C404  1  0.14841000  0.07639000  0.19779000  1.0 -0.1361919143
C  C405  1  0.57741000  0.14841000  0.19779000  1.0 -0.1335103729
C  C406  1  0.07639000  0.19779000  0.14841000  1.0 -0.1335103729
C  C407  1  0.07639000  0.57741000  0.19779000  1.0 -0.1361919143
C  C408  1  0.19779000  0.14841000  0.07639000  1.0 -0.1361919143
C  C409  1  0.07639000  0.14841000  0.19779000  1.0 -0.1335103729
C  C410  1  0.42259000  0.80221000  0.92361000  1.0 -0.1361919143
C  C411  1  0.14841000  0.07639000  0.57741000  1.0 -0.1361919143
C  C412  1  0.80221000  0.42259000  0.85159000  1.0 -0.1335103729
C  C413  1  0.85159000  0.42259000  0.92361000  1.0 -0.1335103729
C  C414  1  0.57741000  0.19779000  0.14841000  1.0 -0.1361919143
C  C415  1  0.80221000  0.92361000  0.42259000  1.0 -0.1361919143
C  C416  1  0.85159000  0.80221000  0.42259000  1.0 -0.1361919143
C  C417  1  0.19779000  0.57741000  0.07639000  1.0 -0.1335103729
C  C418  1  0.42259000  0.92361000  0.85159000  1.0 -0.1335103729
C  C419  1  0.19779000  0.07639000  0.14841000  1.0 -0.1361919143
C  C420  1  0.14841000  0.19779000  0.07639000  1.0 -0.1361919143
C  C421  1  0.19779000  0.14841000  0.57741000  1.0 -0.1335103729
C  C422  1  0.57741000  0.14841000  0.07639000  1.0 -0.1361919143
C  C423  1  0.07639000  0.57741000  0.14841000  1.0 -0.1361919143
C  C424  1  0.07639000  0.19779000  0.57741000  1.0 -0.1335103729
C  C425  1  0.14841000  0.57741000  0.19779000  1.0 -0.1361919143
C  C426  1  0.57741000  0.07639000  0.19779000  1.0 -0.1335103729
C  C427  1  0.92361000  0.85159000  0.42259000  1.0 -0.1361919143
C  C428  1  0.85159000  0.92361000  0.80221000  1.0 -0.1361919143
C  C429  1  0.42259000  0.85159000  0.80221000  1.0 -0.1361919143
C  C430  1  0.92361000  0.80221000  0.85159000  1.0 -0.1335103729
C  C431  1  0.92361000  0.42259000  0.80221000  1.0 -0.1335103729
C  C432  1  0.80221000  0.85159000  0.92361000  1.0 -0.1335103729
C  C433  1  0.97074000  0.82486000  0.77894000  1.0 -0.1012402035
C  C434  1  0.57454000  0.22106000  0.02926000  1.0 -0.1012402035
C  C435  1  0.82486000  0.97074000  0.42546000  1.0 -0.1012402035
C  C436  1  0.22106000  0.57454000  0.17514000  1.0 -0.1012402035
C  C437  1  0.17514000  0.57454000  0.02926000  1.0 -0.1012402035
C  C438  1  0.42546000  0.77894000  0.82486000  1.0 -0.1012402035
C  C439  1  0.22106000  0.02926000  0.57454000  1.0 -0.1012402035
C  C440  1  0.17514000  0.22106000  0.57454000  1.0 -0.1012402035
C  C441  1  0.77894000  0.42546000  0.97074000  1.0 -0.1012402035
C  C442  1  0.57454000  0.02926000  0.17514000  1.0 -0.1012402035
C  C443  1  0.77894000  0.97074000  0.82486000  1.0 -0.1012402035
C  C444  1  0.82486000  0.77894000  0.97074000  1.0 -0.1012402035
C  C445  1  0.77894000  0.82486000  0.42546000  1.0 -0.1012402035
C  C446  1  0.42546000  0.82486000  0.97074000  1.0 -0.1012402035
C  C447  1  0.97074000  0.42546000  0.82486000  1.0 -0.1012402035
C  C448  1  0.97074000  0.77894000  0.42546000  1.0 -0.1012402035
C  C449  1  0.82486000  0.42546000  0.77894000  1.0 -0.1012402035
C  C450  1  0.42546000  0.97074000  0.77894000  1.0 -0.1012402035
C  C451  1  0.02926000  0.17514000  0.57454000  1.0 -0.1012402035
C  C452  1  0.17514000  0.02926000  0.22106000  1.0 -0.1012402035
C  C453  1  0.57454000  0.17514000  0.22106000  1.0 -0.1012402035
C  C454  1  0.02926000  0.22106000  0.17514000  1.0 -0.1012402035
C  C455  1  0.02926000  0.57454000  0.22106000  1.0 -0.1012402035
C  C456  1  0.22106000  0.17514000  0.02926000  1.0 -0.1012402035
C  C457  1  0.02926000  0.17514000  0.22106000  1.0 -0.1012402035
C  C458  1  0.42546000  0.77894000  0.97074000  1.0 -0.1012402035
C  C459  1  0.17514000  0.02926000  0.57454000  1.0 -0.1012402035
C  C460  1  0.77894000  0.42546000  0.82486000  1.0 -0.1012402035
C  C461  1  0.82486000  0.42546000  0.97074000  1.0 -0.1012402035
C  C462  1  0.57454000  0.22106000  0.17514000  1.0 -0.1012402035
C  C463  1  0.77894000  0.97074000  0.42546000  1.0 -0.1012402035
C  C464  1  0.82486000  0.77894000  0.42546000  1.0 -0.1012402035
C  C465  1  0.22106000  0.57454000  0.02926000  1.0 -0.1012402035
C  C466  1  0.42546000  0.97074000  0.82486000  1.0 -0.1012402035
C  C467  1  0.22106000  0.02926000  0.17514000  1.0 -0.1012402035
C  C468  1  0.17514000  0.22106000  0.02926000  1.0 -0.1012402035
C  C469  1  0.22106000  0.17514000  0.57454000  1.0 -0.1012402035
C  C470  1  0.57454000  0.17514000  0.02926000  1.0 -0.1012402035
C  C471  1  0.02926000  0.57454000  0.17514000  1.0 -0.1012402035
C  C472  1  0.02926000  0.22106000  0.57454000  1.0 -0.1012402035
C  C473  1  0.17514000  0.57454000  0.22106000  1.0 -0.1012402035
C  C474  1  0.57454000  0.02926000  0.22106000  1.0 -0.1012402035
C  C475  1  0.97074000  0.82486000  0.42546000  1.0 -0.1012402035
C  C476  1  0.82486000  0.97074000  0.77894000  1.0 -0.1012402035
C  C477  1  0.42546000  0.82486000  0.77894000  1.0 -0.1012402035
C  C478  1  0.97074000  0.77894000  0.82486000  1.0 -0.1012402035
C  C479  1  0.97074000  0.42546000  0.77894000  1.0 -0.1012402035
C  C480  1  0.77894000  0.82486000  0.97074000  1.0 -0.1012402035
N  N1  1  0.84700000  0.84700000  0.84700000  1.0 -0.1813899395
N  N2  1  0.54100000  0.15300000  0.15300000  1.0 -0.1813899395
N  N3  1  0.84700000  0.84700000  0.45900000  1.0 -0.1813899395
N  N4  1  0.15300000  0.54100000  0.15300000  1.0 -0.1813899395
N  N5  1  0.45900000  0.84700000  0.84700000  1.0 -0.1813899395
N  N6  1  0.15300000  0.15300000  0.54100000  1.0 -0.1813899395
N  N7  1  0.84700000  0.45900000  0.84700000  1.0 -0.1813899395
N  N8  1  0.15300000  0.15300000  0.15300000  1.0 -0.1813899395
O  O1  1  0.24246000  0.70362000  0.56404000  1.0 -0.4084213846
O  O2  1  0.51012000  0.43596000  0.75754000  1.0 -0.40332575
O  O3  1  0.70362000  0.24246000  0.48988000  1.0 -0.40332575
O  O4  1  0.43596000  0.51012000  0.29638000  1.0 -0.40332575
O  O5  1  0.29638000  0.51012000  0.75754000  1.0 -0.40332575
O  O6  1  0.48988000  0.56404000  0.70362000  1.0 -0.4084213846
O  O7  1  0.43596000  0.75754000  0.51012000  1.0 -0.4084213846
O  O8  1  0.29638000  0.43596000  0.51012000  1.0 -0.4084213846
O  O9  1  0.56404000  0.48988000  0.24246000  1.0 -0.4084213846
O  O10  1  0.51012000  0.75754000  0.29638000  1.0 -0.40332575
O  O11  1  0.56404000  0.24246000  0.70362000  1.0 -0.4084213846
O  O12  1  0.70362000  0.56404000  0.24246000  1.0 -0.40332575
O  O13  1  0.56404000  0.70362000  0.48988000  1.0 -0.40332575
O  O14  1  0.48988000  0.70362000  0.24246000  1.0 -0.40332575
O  O15  1  0.24246000  0.48988000  0.70362000  1.0 -0.4084213846
O  O16  1  0.24246000  0.56404000  0.48988000  1.0 -0.4084213846
O  O17  1  0.70362000  0.48988000  0.56404000  1.0 -0.4084213846
O  O18  1  0.48988000  0.24246000  0.56404000  1.0 -0.4084213846
O  O19  1  0.75754000  0.29638000  0.51012000  1.0 -0.4084213846
O  O20  1  0.29638000  0.75754000  0.43596000  1.0 -0.4084213846
O  O21  1  0.51012000  0.29638000  0.43596000  1.0 -0.4084213846
O  O22  1  0.75754000  0.43596000  0.29638000  1.0 -0.4084213846
O  O23  1  0.75754000  0.51012000  0.43596000  1.0 -0.4084213846
O  O24  1  0.43596000  0.29638000  0.75754000  1.0 -0.40332575
O  O25  1  0.75754000  0.29638000  0.43596000  1.0 -0.4084213846
O  O26  1  0.48988000  0.56404000  0.24246000  1.0 -0.4084213846
O  O27  1  0.29638000  0.75754000  0.51012000  1.0 -0.4084213846
O  O28  1  0.56404000  0.48988000  0.70362000  1.0 -0.4084213846
O  O29  1  0.70362000  0.48988000  0.24246000  1.0 -0.4084213846
O  O30  1  0.51012000  0.43596000  0.29638000  1.0 -0.4084213846
O  O31  1  0.56404000  0.24246000  0.48988000  1.0 -0.40332575
O  O32  1  0.70362000  0.56404000  0.48988000  1.0 -0.4084213846
O  O33  1  0.43596000  0.51012000  0.75754000  1.0 -0.40332575
O  O34  1  0.48988000  0.24246000  0.70362000  1.0 -0.4084213846
O  O35  1  0.43596000  0.75754000  0.29638000  1.0 -0.40332575
O  O36  1  0.29638000  0.43596000  0.75754000  1.0 -0.4084213846
O  O37  1  0.43596000  0.29638000  0.51012000  1.0 -0.4084213846
O  O38  1  0.51012000  0.29638000  0.75754000  1.0 -0.40332575
O  O39  1  0.75754000  0.51012000  0.29638000  1.0 -0.40332575
O  O40  1  0.75754000  0.43596000  0.51012000  1.0 -0.4084213846
O  O41  1  0.29638000  0.51012000  0.43596000  1.0 -0.4084213846
O  O42  1  0.51012000  0.75754000  0.43596000  1.0 -0.4084213846
O  O43  1  0.24246000  0.70362000  0.48988000  1.0 -0.40332575
O  O44  1  0.70362000  0.24246000  0.56404000  1.0 -0.4084213846
O  O45  1  0.48988000  0.70362000  0.56404000  1.0 -0.4084213846
O  O46  1  0.24246000  0.56404000  0.70362000  1.0 -0.4084213846
O  O47  1  0.24246000  0.48988000  0.56404000  1.0 -0.4084213846
O  O48  1  0.56404000  0.70362000  0.24246000  1.0 -0.40332575
O  O49  1  0.17141000  0.77287000  0.56595000  1.0 -0.6215694309
O  O50  1  0.51023000  0.43405000  0.82859000  1.0 -0.6215694309
O  O51  1  0.77287000  0.17141000  0.48977000  1.0 -0.6215694309
O  O52  1  0.43405000  0.51023000  0.22713000  1.0 -0.6215694309
O  O53  1  0.22713000  0.51023000  0.82859000  1.0 -0.6215694309
O  O54  1  0.48977000  0.56595000  0.77287000  1.0 -0.6215694309
O  O55  1  0.43405000  0.82859000  0.51023000  1.0 -0.6215694309
O  O56  1  0.22713000  0.43405000  0.51023000  1.0 -0.6215694309
O  O57  1  0.56595000  0.48977000  0.17141000  1.0 -0.6215694309
O  O58  1  0.51023000  0.82859000  0.22713000  1.0 -0.6215694309
O  O59  1  0.56595000  0.17141000  0.77287000  1.0 -0.6215694309
O  O60  1  0.77287000  0.56595000  0.17141000  1.0 -0.6215694309
O  O61  1  0.56595000  0.77287000  0.48977000  1.0 -0.6215694309
O  O62  1  0.48977000  0.77287000  0.17141000  1.0 -0.6215694309
O  O63  1  0.17141000  0.48977000  0.77287000  1.0 -0.6215694309
O  O64  1  0.17141000  0.56595000  0.48977000  1.0 -0.6215694309
O  O65  1  0.77287000  0.48977000  0.56595000  1.0 -0.6215694309
O  O66  1  0.48977000  0.17141000  0.56595000  1.0 -0.6215694309
O  O67  1  0.82859000  0.22713000  0.51023000  1.0 -0.6215694309
O  O68  1  0.22713000  0.82859000  0.43405000  1.0 -0.6215694309
O  O69  1  0.51023000  0.22713000  0.43405000  1.0 -0.6215694309
O  O70  1  0.82859000  0.43405000  0.22713000  1.0 -0.6215694309
O  O71  1  0.82859000  0.51023000  0.43405000  1.0 -0.6215694309
O  O72  1  0.43405000  0.22713000  0.82859000  1.0 -0.6215694309
O  O73  1  0.82859000  0.22713000  0.43405000  1.0 -0.6215694309
O  O74  1  0.48977000  0.56595000  0.17141000  1.0 -0.6215694309
O  O75  1  0.22713000  0.82859000  0.51023000  1.0 -0.6215694309
O  O76  1  0.56595000  0.48977000  0.77287000  1.0 -0.6215694309
O  O77  1  0.77287000  0.48977000  0.17141000  1.0 -0.6215694309
O  O78  1  0.51023000  0.43405000  0.22713000  1.0 -0.6215694309
O  O79  1  0.56595000  0.17141000  0.48977000  1.0 -0.6215694309
O  O80  1  0.77287000  0.56595000  0.48977000  1.0 -0.6215694309
O  O81  1  0.43405000  0.51023000  0.82859000  1.0 -0.6215694309
O  O82  1  0.48977000  0.17141000  0.77287000  1.0 -0.6215694309
O  O83  1  0.43405000  0.82859000  0.22713000  1.0 -0.6215694309
O  O84  1  0.22713000  0.43405000  0.82859000  1.0 -0.6215694309
O  O85  1  0.43405000  0.22713000  0.51023000  1.0 -0.6215694309
O  O86  1  0.51023000  0.22713000  0.82859000  1.0 -0.6215694309
O  O87  1  0.82859000  0.51023000  0.22713000  1.0 -0.6215694309
O  O88  1  0.82859000  0.43405000  0.51023000  1.0 -0.6215694309
O  O89  1  0.22713000  0.51023000  0.43405000  1.0 -0.6215694309
O  O90  1  0.51023000  0.82859000  0.43405000  1.0 -0.6215694309
O  O91  1  0.17141000  0.77287000  0.48977000  1.0 -0.6215694309
O  O92  1  0.77287000  0.17141000  0.56595000  1.0 -0.6215694309
O  O93  1  0.48977000  0.77287000  0.56595000  1.0 -0.6215694309
O  O94  1  0.17141000  0.56595000  0.77287000  1.0 -0.6215694309
O  O95  1  0.17141000  0.48977000  0.56595000  1.0 -0.6215694309
O  O96  1  0.56595000  0.77287000  0.17141000  1.0 -0.6215694309
