# DDEC6 charges by PACMAN v1.1 (https://github.com/mtap-research/PACMAN-charge/)
data_VUJBIM_ASR_pacman
_symmetry_space_group_name_H-M   'P 1'
_cell_length_a   30.26120000
_cell_length_b   30.26120000
_cell_length_c   30.26120000
_cell_angle_alpha   60.00000000
_cell_angle_beta   60.00000000
_cell_angle_gamma   60.00000000
_symmetry_Int_Tables_number   1
_chemical_formula_structural   CuH4(C3O)4
_chemical_formula_sum   'Cu24 H96 C288 O96'
_cell_volume   19594.91751980
_cell_formula_units_Z   24
loop_
 _symmetry_equiv_pos_site_id
 _symmetry_equiv_pos_as_xyz
  1  'x, y, z'
loop_
 _atom_site_type_symbol
 _atom_site_label
 _atom_site_symmetry_multiplicity
 _atom_site_fract_x
 _atom_site_fract_y
 _atom_site_fract_z
 _atom_site_occupancy
 _atom_site_charge
Cu  Cu1  1  0.50000000  0.23740000  0.50000000  1.0 0.9167599225
Cu  Cu2  1  0.23740000  0.50000000  0.50000000  1.0 0.9147819887
Cu  Cu3  1  0.23740000  0.50000000  0.76260000  1.0 0.9167599225
Cu  Cu4  1  0.50000000  0.23740000  0.76260000  1.0 0.9167599225
Cu  Cu5  1  0.76260000  0.23740000  0.50000000  1.0 0.9167599225
Cu  Cu6  1  0.76260000  0.50000000  0.23740000  1.0 0.9167599225
Cu  Cu7  1  0.50000000  0.50000000  0.23740000  1.0 0.9167599225
Cu  Cu8  1  0.50000000  0.76260000  0.50000000  1.0 0.9167599225
Cu  Cu9  1  0.50000000  0.76260000  0.23740000  1.0 0.9147819887
Cu  Cu10  1  0.50000000  0.50000000  0.76260000  1.0 0.9147819887
Cu  Cu11  1  0.23740000  0.76260000  0.50000000  1.0 0.9167599225
Cu  Cu12  1  0.76260000  0.50000000  0.50000000  1.0 0.9167599225
Cu  Cu13  1  0.85021000  0.14979000  0.50000000  1.0 0.8996959041
Cu  Cu14  1  0.50000000  0.50000000  0.14979000  1.0 0.8996959041
Cu  Cu15  1  0.14979000  0.85021000  0.50000000  1.0 0.8996959041
Cu  Cu16  1  0.50000000  0.50000000  0.85021000  1.0 0.8996959041
Cu  Cu17  1  0.85021000  0.50000000  0.14979000  1.0 0.8996959041
Cu  Cu18  1  0.50000000  0.14979000  0.50000000  1.0 0.8996959041
Cu  Cu19  1  0.85021000  0.50000000  0.50000000  1.0 0.8996959041
Cu  Cu20  1  0.50000000  0.14979000  0.85021000  1.0 0.8996959041
Cu  Cu21  1  0.50000000  0.85021000  0.14979000  1.0 0.8996959041
Cu  Cu22  1  0.14979000  0.50000000  0.85021000  1.0 0.8996959041
Cu  Cu23  1  0.14979000  0.50000000  0.50000000  1.0 0.8996959041
Cu  Cu24  1  0.50000000  0.85021000  0.50000000  1.0 0.8996959041
H  H1  1  0.66565000  0.66565000  0.47755000  1.0 0.1504590224
H  H2  1  0.80885000  0.52245000  0.33435000  1.0 0.1504590224
H  H3  1  0.66565000  0.66565000  0.19115000  1.0 0.1504590224
H  H4  1  0.52245000  0.80885000  0.33435000  1.0 0.1504590224
H  H5  1  0.33435000  0.80885000  0.33435000  1.0 0.1504590224
H  H6  1  0.19115000  0.47755000  0.66565000  1.0 0.1504590224
H  H7  1  0.52245000  0.33435000  0.80885000  1.0 0.1504590224
H  H8  1  0.33435000  0.52245000  0.80885000  1.0 0.1504590224
H  H9  1  0.47755000  0.19115000  0.66565000  1.0 0.1504590224
H  H10  1  0.80885000  0.33435000  0.33435000  1.0 0.1504590224
H  H11  1  0.47755000  0.66565000  0.66565000  1.0 0.1504590224
H  H12  1  0.66565000  0.47755000  0.66565000  1.0 0.1504590224
H  H13  1  0.47755000  0.66565000  0.19115000  1.0 0.1504590224
H  H14  1  0.19115000  0.66565000  0.66565000  1.0 0.1504590224
H  H15  1  0.66565000  0.19115000  0.66565000  1.0 0.1504590224
H  H16  1  0.66565000  0.47755000  0.19115000  1.0 0.1504590224
H  H17  1  0.66565000  0.19115000  0.47755000  1.0 0.1504590224
H  H18  1  0.19115000  0.66565000  0.47755000  1.0 0.1504590224
H  H19  1  0.33435000  0.33435000  0.80885000  1.0 0.1504590224
H  H20  1  0.33435000  0.33435000  0.52245000  1.0 0.1504590224
H  H21  1  0.80885000  0.33435000  0.52245000  1.0 0.1504590224
H  H22  1  0.33435000  0.52245000  0.33435000  1.0 0.1504590224
H  H23  1  0.33435000  0.80885000  0.52245000  1.0 0.1504590224
H  H24  1  0.52245000  0.33435000  0.33435000  1.0 0.1504590224
H  H25  1  0.80335000  0.66995000  0.46845000  1.0 0.1407730087
H  H26  1  0.94175000  0.53155000  0.19665000  1.0 0.1407730087
H  H27  1  0.66995000  0.80335000  0.05825000  1.0 0.1407730087
H  H28  1  0.53155000  0.94175000  0.33005000  1.0 0.1407730087
H  H29  1  0.33005000  0.94175000  0.19665000  1.0 0.1407730087
H  H30  1  0.05825000  0.46845000  0.66995000  1.0 0.1407730087
H  H31  1  0.53155000  0.19665000  0.94175000  1.0 0.1407730087
H  H32  1  0.33005000  0.53155000  0.94175000  1.0 0.1407730087
H  H33  1  0.46845000  0.05825000  0.80335000  1.0 0.1407730087
H  H34  1  0.94175000  0.19665000  0.33005000  1.0 0.1407730087
H  H35  1  0.46845000  0.80335000  0.66995000  1.0 0.1407730087
H  H36  1  0.66995000  0.46845000  0.80335000  1.0 0.1407730087
H  H37  1  0.46845000  0.66995000  0.05825000  1.0 0.1407730087
H  H38  1  0.05825000  0.66995000  0.80335000  1.0 0.1407730087
H  H39  1  0.80335000  0.05825000  0.66995000  1.0 0.1407730087
H  H40  1  0.80335000  0.46845000  0.05825000  1.0 0.1407730087
H  H41  1  0.66995000  0.05825000  0.46845000  1.0 0.1407730087
H  H42  1  0.05825000  0.80335000  0.46845000  1.0 0.1407730087
H  H43  1  0.19665000  0.33005000  0.94175000  1.0 0.1407730087
H  H44  1  0.33005000  0.19665000  0.53155000  1.0 0.1407730087
H  H45  1  0.94175000  0.33005000  0.53155000  1.0 0.1407730087
H  H46  1  0.19665000  0.53155000  0.33005000  1.0 0.1407730087
H  H47  1  0.19665000  0.94175000  0.53155000  1.0 0.1407730087
H  H48  1  0.53155000  0.33005000  0.19665000  1.0 0.1407730087
H  H49  1  0.19665000  0.33005000  0.53155000  1.0 0.1407730087
H  H50  1  0.05825000  0.46845000  0.80335000  1.0 0.1407730087
H  H51  1  0.33005000  0.19665000  0.94175000  1.0 0.1407730087
H  H52  1  0.46845000  0.05825000  0.66995000  1.0 0.1407730087
H  H53  1  0.66995000  0.05825000  0.80335000  1.0 0.1407730087
H  H54  1  0.94175000  0.53155000  0.33005000  1.0 0.1407730087
H  H55  1  0.46845000  0.80335000  0.05825000  1.0 0.1407730087
H  H56  1  0.66995000  0.46845000  0.05825000  1.0 0.1407730087
H  H57  1  0.53155000  0.94175000  0.19665000  1.0 0.1407730087
H  H58  1  0.05825000  0.80335000  0.66995000  1.0 0.1407730087
H  H59  1  0.53155000  0.19665000  0.33005000  1.0 0.1407730087
H  H60  1  0.33005000  0.53155000  0.19665000  1.0 0.1407730087
H  H61  1  0.53155000  0.33005000  0.94175000  1.0 0.1407730087
H  H62  1  0.94175000  0.33005000  0.19665000  1.0 0.1407730087
H  H63  1  0.19665000  0.94175000  0.33005000  1.0 0.1407730087
H  H64  1  0.19665000  0.53155000  0.94175000  1.0 0.1407730087
H  H65  1  0.33005000  0.94175000  0.53155000  1.0 0.1407730087
H  H66  1  0.94175000  0.19665000  0.53155000  1.0 0.1407730087
H  H67  1  0.80335000  0.66995000  0.05825000  1.0 0.1407730087
H  H68  1  0.66995000  0.80335000  0.46845000  1.0 0.1407730087
H  H69  1  0.05825000  0.66995000  0.46845000  1.0 0.1407730087
H  H70  1  0.80335000  0.46845000  0.66995000  1.0 0.1407730087
H  H71  1  0.80335000  0.05825000  0.46845000  1.0 0.1407730087
H  H72  1  0.46845000  0.66995000  0.80335000  1.0 0.1407730087
H  H73  1  0.89700000  0.76325000  0.44275000  1.0 0.1225338903
H  H74  1  0.10300000  0.55725000  0.10300000  1.0 0.1225338903
H  H75  1  0.76325000  0.89700000  0.89700000  1.0 0.1225338903
H  H76  1  0.55725000  0.10300000  0.23675000  1.0 0.1225338903
H  H77  1  0.23675000  0.10300000  0.10300000  1.0 0.1225338903
H  H78  1  0.89700000  0.44275000  0.76325000  1.0 0.125972421
H  H79  1  0.55725000  0.10300000  0.10300000  1.0 0.1225338903
H  H80  1  0.23675000  0.55725000  0.10300000  1.0 0.1225338903
H  H81  1  0.44275000  0.89700000  0.89700000  1.0 0.1225338903
H  H82  1  0.10300000  0.10300000  0.23675000  1.0 0.1225338903
H  H83  1  0.44275000  0.89700000  0.76325000  1.0 0.1225338903
H  H84  1  0.76325000  0.44275000  0.89700000  1.0 0.1225338903
H  H85  1  0.44275000  0.76325000  0.89700000  1.0 0.1225338903
H  H86  1  0.89700000  0.76325000  0.89700000  1.0 0.1225338903
H  H87  1  0.89700000  0.89700000  0.76325000  1.0 0.1225338903
H  H88  1  0.89700000  0.44275000  0.89700000  1.0 0.1225338903
H  H89  1  0.76325000  0.89700000  0.44275000  1.0 0.1225338903
H  H90  1  0.89700000  0.89700000  0.44275000  1.0 0.1225338903
H  H91  1  0.10300000  0.23675000  0.10300000  1.0 0.1225338903
H  H92  1  0.23675000  0.10300000  0.55725000  1.0 0.1225338903
H  H93  1  0.10300000  0.23675000  0.55725000  1.0 0.1225338903
H  H94  1  0.10300000  0.55725000  0.23675000  1.0 0.1225338903
H  H95  1  0.10300000  0.10300000  0.55725000  1.0 0.1225338903
H  H96  1  0.55725000  0.23675000  0.10300000  1.0 0.1225338903
C  C1  1  0.76175000  0.60575000  0.48265000  1.0 0.6096136431
C  C2  1  0.85015000  0.51735000  0.23825000  1.0 0.6096136431
C  C3  1  0.60575000  0.76175000  0.14985000  1.0 0.6096136431
C  C4  1  0.51735000  0.85015000  0.39425000  1.0 0.6096136431
C  C5  1  0.39425000  0.85015000  0.23825000  1.0 0.6096136431
C  C6  1  0.14985000  0.48265000  0.60575000  1.0 0.6096136431
C  C7  1  0.51735000  0.23825000  0.85015000  1.0 0.6096136431
C  C8  1  0.39425000  0.51735000  0.85015000  1.0 0.6096136431
C  C9  1  0.48265000  0.14985000  0.76175000  1.0 0.6096136431
C  C10  1  0.85015000  0.23825000  0.39425000  1.0 0.6096136431
C  C11  1  0.48265000  0.76175000  0.60575000  1.0 0.6096136431
C  C12  1  0.60575000  0.48265000  0.76175000  1.0 0.6096136431
C  C13  1  0.48265000  0.60575000  0.14985000  1.0 0.6096136431
C  C14  1  0.14985000  0.60575000  0.76175000  1.0 0.6096136431
C  C15  1  0.76175000  0.14985000  0.60575000  1.0 0.6096136431
C  C16  1  0.76175000  0.48265000  0.14985000  1.0 0.6096136431
C  C17  1  0.60575000  0.14985000  0.48265000  1.0 0.6096136431
C  C18  1  0.14985000  0.76175000  0.48265000  1.0 0.6096136431
C  C19  1  0.23825000  0.39425000  0.85015000  1.0 0.6096136431
C  C20  1  0.39425000  0.23825000  0.51735000  1.0 0.6096136431
C  C21  1  0.85015000  0.39425000  0.51735000  1.0 0.6096136431
C  C22  1  0.23825000  0.51735000  0.39425000  1.0 0.6096136431
C  C23  1  0.23825000  0.85015000  0.51735000  1.0 0.6096136431
C  C24  1  0.51735000  0.39425000  0.23825000  1.0 0.6096136431
C  C25  1  0.23825000  0.39425000  0.51735000  1.0 0.6096136431
C  C26  1  0.14985000  0.48265000  0.76175000  1.0 0.6096136431
C  C27  1  0.39425000  0.23825000  0.85015000  1.0 0.6096136431
C  C28  1  0.48265000  0.14985000  0.60575000  1.0 0.6096136431
C  C29  1  0.60575000  0.14985000  0.76175000  1.0 0.6096136431
C  C30  1  0.85015000  0.51735000  0.39425000  1.0 0.6096136431
C  C31  1  0.48265000  0.76175000  0.14985000  1.0 0.6096136431
C  C32  1  0.60575000  0.48265000  0.14985000  1.0 0.6096136431
C  C33  1  0.51735000  0.85015000  0.23825000  1.0 0.6096136431
C  C34  1  0.14985000  0.76175000  0.60575000  1.0 0.6096136431
C  C35  1  0.51735000  0.23825000  0.39425000  1.0 0.6096136431
C  C36  1  0.39425000  0.51735000  0.23825000  1.0 0.6096136431
C  C37  1  0.51735000  0.39425000  0.85015000  1.0 0.6096136431
C  C38  1  0.85015000  0.39425000  0.23825000  1.0 0.6096136431
C  C39  1  0.23825000  0.85015000  0.39425000  1.0 0.6096136431
C  C40  1  0.23825000  0.51735000  0.85015000  1.0 0.6096136431
C  C41  1  0.39425000  0.85015000  0.51735000  1.0 0.6096136431
C  C42  1  0.85015000  0.23825000  0.51735000  1.0 0.6096136431
C  C43  1  0.76175000  0.60575000  0.14985000  1.0 0.6096136431
C  C44  1  0.60575000  0.76175000  0.48265000  1.0 0.6096136431
C  C45  1  0.14985000  0.60575000  0.48265000  1.0 0.6096136431
C  C46  1  0.76175000  0.48265000  0.60575000  1.0 0.6096136431
C  C47  1  0.76175000  0.14985000  0.48265000  1.0 0.6096136431
C  C48  1  0.48265000  0.60575000  0.76175000  1.0 0.6096136431
C  C49  1  0.68415000  0.68415000  0.47645000  1.0 -0.1068698666
C  C50  1  0.84475000  0.52355000  0.31585000  1.0 -0.1068698666
C  C51  1  0.68415000  0.68415000  0.15525000  1.0 -0.1068698666
C  C52  1  0.52355000  0.84475000  0.31585000  1.0 -0.1068698666
C  C53  1  0.31585000  0.84475000  0.31585000  1.0 -0.1068698666
C  C54  1  0.15525000  0.47645000  0.68415000  1.0 -0.1068698666
C  C55  1  0.52355000  0.31585000  0.84475000  1.0 -0.1068698666
C  C56  1  0.31585000  0.52355000  0.84475000  1.0 -0.1068698666
C  C57  1  0.47645000  0.15525000  0.68415000  1.0 -0.1068698666
C  C58  1  0.84475000  0.31585000  0.31585000  1.0 -0.1068698666
C  C59  1  0.47645000  0.68415000  0.68415000  1.0 -0.1068698666
C  C60  1  0.68415000  0.47645000  0.68415000  1.0 -0.1068698666
C  C61  1  0.47645000  0.68415000  0.15525000  1.0 -0.1068698666
C  C62  1  0.15525000  0.68415000  0.68415000  1.0 -0.1068698666
C  C63  1  0.68415000  0.15525000  0.68415000  1.0 -0.1068698666
C  C64  1  0.68415000  0.47645000  0.15525000  1.0 -0.1068698666
C  C65  1  0.68415000  0.15525000  0.47645000  1.0 -0.1068698666
C  C66  1  0.15525000  0.68415000  0.47645000  1.0 -0.1068698666
C  C67  1  0.31585000  0.31585000  0.84475000  1.0 -0.1068698666
C  C68  1  0.31585000  0.31585000  0.52355000  1.0 -0.1068698666
C  C69  1  0.84475000  0.31585000  0.52355000  1.0 -0.1068698666
C  C70  1  0.31585000  0.52355000  0.31585000  1.0 -0.1068698666
C  C71  1  0.31585000  0.84475000  0.52355000  1.0 -0.1068698666
C  C72  1  0.52355000  0.31585000  0.31585000  1.0 -0.1068698666
C  C73  1  0.73585000  0.66465000  0.47535000  1.0 -0.0535457827
C  C74  1  0.87585000  0.52465000  0.26415000  1.0 -0.0535457827
C  C75  1  0.66465000  0.73585000  0.12415000  1.0 -0.0535457827
C  C76  1  0.52465000  0.87585000  0.33535000  1.0 -0.0535457827
C  C77  1  0.33535000  0.87585000  0.26415000  1.0 -0.0535457827
C  C78  1  0.12415000  0.47535000  0.66465000  1.0 -0.0535457827
C  C79  1  0.52465000  0.26415000  0.87585000  1.0 -0.0535457827
C  C80  1  0.33535000  0.52465000  0.87585000  1.0 -0.0535457827
C  C81  1  0.47535000  0.12415000  0.73585000  1.0 -0.0551574182
C  C82  1  0.87585000  0.26415000  0.33535000  1.0 -0.0535457827
C  C83  1  0.47535000  0.73585000  0.66465000  1.0 -0.0535457827
C  C84  1  0.66465000  0.47535000  0.73585000  1.0 -0.0551574182
C  C85  1  0.47535000  0.66465000  0.12415000  1.0 -0.0535457827
C  C86  1  0.12415000  0.66465000  0.73585000  1.0 -0.0535457827
C  C87  1  0.73585000  0.12415000  0.66465000  1.0 -0.0535457827
C  C88  1  0.73585000  0.47535000  0.12415000  1.0 -0.0535457827
C  C89  1  0.66465000  0.12415000  0.47535000  1.0 -0.0535457827
C  C90  1  0.12415000  0.73585000  0.47535000  1.0 -0.0535457827
C  C91  1  0.26415000  0.33535000  0.87585000  1.0 -0.0535457827
C  C92  1  0.33535000  0.26415000  0.52465000  1.0 -0.0535457827
C  C93  1  0.87585000  0.33535000  0.52465000  1.0 -0.0535457827
C  C94  1  0.26415000  0.52465000  0.33535000  1.0 -0.0535457827
C  C95  1  0.26415000  0.87585000  0.52465000  1.0 -0.0535457827
C  C96  1  0.52465000  0.33535000  0.26415000  1.0 -0.0535457827
C  C97  1  0.26415000  0.33535000  0.52465000  1.0 -0.0535457827
C  C98  1  0.12415000  0.47535000  0.73585000  1.0 -0.0535457827
C  C99  1  0.33535000  0.26415000  0.87585000  1.0 -0.0535457827
C  C100  1  0.47535000  0.12415000  0.66465000  1.0 -0.0535457827
C  C101  1  0.66465000  0.12415000  0.73585000  1.0 -0.0535457827
C  C102  1  0.87585000  0.52465000  0.33535000  1.0 -0.0535457827
C  C103  1  0.47535000  0.73585000  0.12415000  1.0 -0.0535457827
C  C104  1  0.66465000  0.47535000  0.12415000  1.0 -0.0535457827
C  C105  1  0.52465000  0.87585000  0.26415000  1.0 -0.0535457827
C  C106  1  0.12415000  0.73585000  0.66465000  1.0 -0.0535457827
C  C107  1  0.52465000  0.26415000  0.33535000  1.0 -0.0535457827
C  C108  1  0.33535000  0.52465000  0.26415000  1.0 -0.0535457827
C  C109  1  0.52465000  0.33535000  0.87585000  1.0 -0.0535457827
C  C110  1  0.87585000  0.33535000  0.26415000  1.0 -0.0535457827
C  C111  1  0.26415000  0.87585000  0.33535000  1.0 -0.0535457827
C  C112  1  0.26415000  0.52465000  0.87585000  1.0 -0.0535457827
C  C113  1  0.33535000  0.87585000  0.52465000  1.0 -0.0535457827
C  C114  1  0.87585000  0.26415000  0.52465000  1.0 -0.0535457827
C  C115  1  0.73585000  0.66465000  0.12415000  1.0 -0.0535457827
C  C116  1  0.66465000  0.73585000  0.47535000  1.0 -0.0535457827
C  C117  1  0.12415000  0.66465000  0.47535000  1.0 -0.0535457827
C  C118  1  0.73585000  0.47535000  0.66465000  1.0 -0.0551574182
C  C119  1  0.73585000  0.12415000  0.47535000  1.0 -0.0535457827
C  C120  1  0.47535000  0.66465000  0.73585000  1.0 -0.0535457827
C  C121  1  0.76695000  0.68895000  0.46885000  1.0 -0.1270499023
C  C122  1  0.92475000  0.53115000  0.23305000  1.0 -0.1270499023
C  C123  1  0.68895000  0.76695000  0.07525000  1.0 -0.1270499023
C  C124  1  0.53115000  0.92475000  0.31105000  1.0 -0.1270499023
C  C125  1  0.31105000  0.92475000  0.23305000  1.0 -0.1270499023
C  C126  1  0.07525000  0.46885000  0.68895000  1.0 -0.1270499023
C  C127  1  0.53115000  0.23305000  0.92475000  1.0 -0.1270499023
C  C128  1  0.31105000  0.53115000  0.92475000  1.0 -0.1270499023
C  C129  1  0.46885000  0.07525000  0.76695000  1.0 -0.1270499023
C  C130  1  0.92475000  0.23305000  0.31105000  1.0 -0.1270499023
C  C131  1  0.46885000  0.76695000  0.68895000  1.0 -0.1270499023
C  C132  1  0.68895000  0.46885000  0.76695000  1.0 -0.1270499023
C  C133  1  0.46885000  0.68895000  0.07525000  1.0 -0.1270499023
C  C134  1  0.07525000  0.68895000  0.76695000  1.0 -0.1270499023
C  C135  1  0.76695000  0.07525000  0.68895000  1.0 -0.1270499023
C  C136  1  0.76695000  0.46885000  0.07525000  1.0 -0.1270499023
C  C137  1  0.68895000  0.07525000  0.46885000  1.0 -0.1270499023
C  C138  1  0.07525000  0.76695000  0.46885000  1.0 -0.1270499023
C  C139  1  0.23305000  0.31105000  0.92475000  1.0 -0.1270499023
C  C140  1  0.31105000  0.23305000  0.53115000  1.0 -0.1270499023
C  C141  1  0.92475000  0.31105000  0.53115000  1.0 -0.1270499023
C  C142  1  0.23305000  0.53115000  0.31105000  1.0 -0.1270499023
C  C143  1  0.23305000  0.92475000  0.53115000  1.0 -0.1270499023
C  C144  1  0.53115000  0.31105000  0.23305000  1.0 -0.1270499023
C  C145  1  0.23305000  0.31105000  0.53115000  1.0 -0.1270499023
C  C146  1  0.07525000  0.46885000  0.76695000  1.0 -0.1270499023
C  C147  1  0.31105000  0.23305000  0.92475000  1.0 -0.1270499023
C  C148  1  0.46885000  0.07525000  0.68895000  1.0 -0.1270499023
C  C149  1  0.68895000  0.07525000  0.76695000  1.0 -0.1270499023
C  C150  1  0.92475000  0.53115000  0.31105000  1.0 -0.1270499023
C  C151  1  0.46885000  0.76695000  0.07525000  1.0 -0.1270499023
C  C152  1  0.68895000  0.46885000  0.07525000  1.0 -0.1270499023
C  C153  1  0.53115000  0.92475000  0.23305000  1.0 -0.1270499023
C  C154  1  0.07525000  0.76695000  0.68895000  1.0 -0.1270499023
C  C155  1  0.53115000  0.23305000  0.31105000  1.0 -0.1270499023
C  C156  1  0.31105000  0.53115000  0.23305000  1.0 -0.1270499023
C  C157  1  0.53115000  0.31105000  0.92475000  1.0 -0.1270499023
C  C158  1  0.92475000  0.31105000  0.23305000  1.0 -0.1270499023
C  C159  1  0.23305000  0.92475000  0.31105000  1.0 -0.1270499023
C  C160  1  0.23305000  0.53115000  0.92475000  1.0 -0.1270499023
C  C161  1  0.31105000  0.92475000  0.53115000  1.0 -0.1270499023
C  C162  1  0.92475000  0.23305000  0.53115000  1.0 -0.1270499023
C  C163  1  0.76695000  0.68895000  0.07525000  1.0 -0.1270499023
C  C164  1  0.68895000  0.76695000  0.46885000  1.0 -0.1270499023
C  C165  1  0.07525000  0.68895000  0.46885000  1.0 -0.1270499023
C  C166  1  0.76695000  0.46885000  0.68895000  1.0 -0.1270499023
C  C167  1  0.76695000  0.07525000  0.46885000  1.0 -0.1270499023
C  C168  1  0.46885000  0.68895000  0.76695000  1.0 -0.1270499023
C  C169  1  0.74245000  0.74245000  0.46275000  1.0 0.0859922682
C  C170  1  0.94765000  0.53725000  0.25755000  1.0 0.0859922682
C  C171  1  0.74245000  0.74245000  0.05235000  1.0 0.0859922682
C  C172  1  0.53725000  0.94765000  0.25755000  1.0 0.0859922682
C  C173  1  0.25755000  0.94765000  0.25755000  1.0 0.0859922682
C  C174  1  0.05235000  0.46275000  0.74245000  1.0 0.0859922682
C  C175  1  0.53725000  0.25755000  0.94765000  1.0 0.0859922682
C  C176  1  0.25755000  0.53725000  0.94765000  1.0 0.0859922682
C  C177  1  0.46275000  0.05235000  0.74245000  1.0 0.0859922682
C  C178  1  0.94765000  0.25755000  0.25755000  1.0 0.0859922682
C  C179  1  0.46275000  0.74245000  0.74245000  1.0 0.0859922682
C  C180  1  0.74245000  0.46275000  0.74245000  1.0 0.084702612
C  C181  1  0.46275000  0.74245000  0.05235000  1.0 0.0859922682
C  C182  1  0.05235000  0.74245000  0.74245000  1.0 0.0859922682
C  C183  1  0.74245000  0.05235000  0.74245000  1.0 0.0859922682
C  C184  1  0.74245000  0.46275000  0.05235000  1.0 0.0859922682
C  C185  1  0.74245000  0.05235000  0.46275000  1.0 0.0859922682
C  C186  1  0.05235000  0.74245000  0.46275000  1.0 0.0859922682
C  C187  1  0.25755000  0.25755000  0.94765000  1.0 0.0859922682
C  C188  1  0.25755000  0.25755000  0.53725000  1.0 0.0859922682
C  C189  1  0.94765000  0.25755000  0.53725000  1.0 0.084702612
C  C190  1  0.25755000  0.53725000  0.25755000  1.0 0.0859922682
C  C191  1  0.25755000  0.94765000  0.53725000  1.0 0.0859922682
C  C192  1  0.53725000  0.25755000  0.25755000  1.0 0.0859922682
C  C193  1  0.77285000  0.77285000  0.45415000  1.0 -0.0097594496
C  C194  1  0.99985000  0.54585000  0.22715000  1.0 -0.0097594496
C  C195  1  0.77285000  0.77285000  0.00015000  1.0 -0.0097594496
C  C196  1  0.54585000  0.99985000  0.22715000  1.0 -0.0097594496
C  C197  1  0.22715000  0.99985000  0.22715000  1.0 -0.0097594496
C  C198  1  0.00015000  0.45415000  0.77285000  1.0 -0.0097594496
C  C199  1  0.54585000  0.22715000  0.99985000  1.0 -0.0097594496
C  C200  1  0.22715000  0.54585000  0.99985000  1.0 -0.0097594496
C  C201  1  0.45415000  0.00015000  0.77285000  1.0 -0.0097594496
C  C202  1  0.99985000  0.22715000  0.22715000  1.0 -0.0097594496
C  C203  1  0.45415000  0.77285000  0.77285000  1.0 -0.0097594496
C  C204  1  0.77285000  0.45415000  0.77285000  1.0 -0.0097594496
C  C205  1  0.45415000  0.77285000  0.00015000  1.0 -0.0097594496
C  C206  1  0.00015000  0.77285000  0.77285000  1.0 -0.0097594496
C  C207  1  0.77285000  0.00015000  0.77285000  1.0 -0.0097594496
C  C208  1  0.77285000  0.45415000  0.00015000  1.0 -0.0097594496
C  C209  1  0.77285000  0.00015000  0.45415000  1.0 -0.0097594496
C  C210  1  0.00015000  0.77285000  0.45415000  1.0 -0.0097594496
C  C211  1  0.22715000  0.22715000  0.99985000  1.0 -0.0097594496
C  C212  1  0.22715000  0.22715000  0.54585000  1.0 -0.0097594496
C  C213  1  0.99985000  0.22715000  0.54585000  1.0 -0.0097594496
C  C214  1  0.22715000  0.54585000  0.22715000  1.0 -0.0097594496
C  C215  1  0.22715000  0.99985000  0.54585000  1.0 -0.0097594496
C  C216  1  0.54585000  0.22715000  0.22715000  1.0 -0.0097594496
C  C217  1  0.79395000  0.79395000  0.45025000  1.0 -0.0703536488
C  C218  1  0.03815000  0.54975000  0.20605000  1.0 -0.0703536488
C  C219  1  0.79395000  0.79395000  0.96185000  1.0 -0.0703536488
C  C220  1  0.54975000  0.03815000  0.20605000  1.0 -0.0703536488
C  C221  1  0.20605000  0.03815000  0.20605000  1.0 -0.0703536488
C  C222  1  0.96185000  0.45025000  0.79395000  1.0 -0.0703536488
C  C223  1  0.54975000  0.20605000  0.03815000  1.0 -0.0703536488
C  C224  1  0.20605000  0.54975000  0.03815000  1.0 -0.0703536488
C  C225  1  0.45025000  0.96185000  0.79395000  1.0 -0.0703536488
C  C226  1  0.03815000  0.20605000  0.20605000  1.0 -0.0703536488
C  C227  1  0.45025000  0.79395000  0.79395000  1.0 -0.0703536488
C  C228  1  0.79395000  0.45025000  0.79395000  1.0 -0.0703536488
C  C229  1  0.45025000  0.79395000  0.96185000  1.0 -0.0703536488
C  C230  1  0.96185000  0.79395000  0.79395000  1.0 -0.0703536488
C  C231  1  0.79395000  0.96185000  0.79395000  1.0 -0.0703536488
C  C232  1  0.79395000  0.45025000  0.96185000  1.0 -0.0703536488
C  C233  1  0.79395000  0.96185000  0.45025000  1.0 -0.0703536488
C  C234  1  0.96185000  0.79395000  0.45025000  1.0 -0.0703536488
C  C235  1  0.20605000  0.20605000  0.03815000  1.0 -0.0703536488
C  C236  1  0.20605000  0.20605000  0.54975000  1.0 -0.0703536488
C  C237  1  0.03815000  0.20605000  0.54975000  1.0 -0.0703536488
C  C238  1  0.20605000  0.54975000  0.20605000  1.0 -0.0703536488
C  C239  1  0.20605000  0.03815000  0.54975000  1.0 -0.0703536488
C  C240  1  0.54975000  0.20605000  0.20605000  1.0 -0.0703536488
C  C241  1  0.82325000  0.82325000  0.44475000  1.0 0.1407730087
C  C242  1  0.09125000  0.55525000  0.17675000  1.0 0.1407730087
C  C243  1  0.82325000  0.82325000  0.90875000  1.0 0.1407730087
C  C244  1  0.55525000  0.09125000  0.17675000  1.0 0.1407730087
C  C245  1  0.17675000  0.09125000  0.17675000  1.0 0.1407730087
C  C246  1  0.90875000  0.44475000  0.82325000  1.0 0.1407730087
C  C247  1  0.55525000  0.17675000  0.09125000  1.0 0.1407730087
C  C248  1  0.17675000  0.55525000  0.09125000  1.0 0.1407730087
C  C249  1  0.44475000  0.90875000  0.82325000  1.0 0.1407730087
C  C250  1  0.09125000  0.17675000  0.17675000  1.0 0.1407730087
C  C251  1  0.44475000  0.82325000  0.82325000  1.0 0.1407730087
C  C252  1  0.82325000  0.44475000  0.82325000  1.0 0.1407730087
C  C253  1  0.44475000  0.82325000  0.90875000  1.0 0.1407730087
C  C254  1  0.90875000  0.82325000  0.82325000  1.0 0.1407730087
C  C255  1  0.82325000  0.90875000  0.82325000  1.0 0.1407730087
C  C256  1  0.82325000  0.44475000  0.90875000  1.0 0.1407730087
C  C257  1  0.82325000  0.90875000  0.44475000  1.0 0.1407730087
C  C258  1  0.90875000  0.82325000  0.44475000  1.0 0.1407730087
C  C259  1  0.17675000  0.17675000  0.09125000  1.0 0.1407730087
C  C260  1  0.17675000  0.17675000  0.55525000  1.0 0.1407730087
C  C261  1  0.09125000  0.17675000  0.55525000  1.0 0.1407730087
C  C262  1  0.17675000  0.55525000  0.17675000  1.0 0.1407730087
C  C263  1  0.17675000  0.09125000  0.55525000  1.0 0.1407730087
C  C264  1  0.55525000  0.17675000  0.17675000  1.0 0.1407730087
C  C265  1  0.87850000  0.79895000  0.44405000  1.0 -0.2344089289
C  C266  1  0.12150000  0.55595000  0.12150000  1.0 -0.2385155379
C  C267  1  0.79895000  0.87850000  0.87850000  1.0 -0.2385155379
C  C268  1  0.55595000  0.12150000  0.20105000  1.0 -0.2385155379
C  C269  1  0.20105000  0.12150000  0.12150000  1.0 -0.2385155379
C  C270  1  0.87850000  0.44405000  0.79895000  1.0 -0.2385155379
C  C271  1  0.55595000  0.12150000  0.12150000  1.0 -0.2385155379
C  C272  1  0.20105000  0.55595000  0.12150000  1.0 -0.2385155379
C  C273  1  0.44405000  0.87850000  0.87850000  1.0 -0.2385155379
C  C274  1  0.12150000  0.12150000  0.20105000  1.0 -0.2385155379
C  C275  1  0.44405000  0.87850000  0.79895000  1.0 -0.2385155379
C  C276  1  0.79895000  0.44405000  0.87850000  1.0 -0.2385155379
C  C277  1  0.44405000  0.79895000  0.87850000  1.0 -0.2385155379
C  C278  1  0.87850000  0.79895000  0.87850000  1.0 -0.2385155379
C  C279  1  0.87850000  0.87850000  0.79895000  1.0 -0.2385155379
C  C280  1  0.87850000  0.44405000  0.87850000  1.0 -0.2385155379
C  C281  1  0.79895000  0.87850000  0.44405000  1.0 -0.2385155379
C  C282  1  0.87850000  0.87850000  0.44405000  1.0 -0.2385155379
C  C283  1  0.12150000  0.20105000  0.12150000  1.0 -0.2385155379
C  C284  1  0.20105000  0.12150000  0.55595000  1.0 -0.2385155379
C  C285  1  0.12150000  0.20105000  0.55595000  1.0 -0.2385155379
C  C286  1  0.12150000  0.55595000  0.20105000  1.0 -0.2385155379
C  C287  1  0.12150000  0.12150000  0.55595000  1.0 -0.2385155379
C  C288  1  0.55595000  0.20105000  0.12150000  1.0 -0.2385155379
O  O1  1  0.73707000  0.57725000  0.48753000  1.0 -0.5304569368
O  O2  1  0.80185000  0.51247000  0.26293000  1.0 -0.5304569368
O  O3  1  0.57725000  0.73707000  0.19815000  1.0 -0.5304569368
O  O4  1  0.51247000  0.80185000  0.42275000  1.0 -0.5304569368
O  O5  1  0.42275000  0.80185000  0.26293000  1.0 -0.5304569368
O  O6  1  0.19815000  0.48753000  0.57725000  1.0 -0.5304569368
O  O7  1  0.51247000  0.26293000  0.80185000  1.0 -0.5304569368
O  O8  1  0.42275000  0.51247000  0.80185000  1.0 -0.5304569368
O  O9  1  0.48753000  0.19815000  0.73707000  1.0 -0.5304569368
O  O10  1  0.80185000  0.26293000  0.42275000  1.0 -0.5304569368
O  O11  1  0.48753000  0.73707000  0.57725000  1.0 -0.5304569368
O  O12  1  0.57725000  0.48753000  0.73707000  1.0 -0.5304569368
O  O13  1  0.48753000  0.57725000  0.19815000  1.0 -0.5304569368
O  O14  1  0.19815000  0.57725000  0.73707000  1.0 -0.5304569368
O  O15  1  0.73707000  0.19815000  0.57725000  1.0 -0.5304569368
O  O16  1  0.73707000  0.48753000  0.19815000  1.0 -0.5304569368
O  O17  1  0.57725000  0.19815000  0.48753000  1.0 -0.5304569368
O  O18  1  0.19815000  0.73707000  0.48753000  1.0 -0.5304569368
O  O19  1  0.26293000  0.42275000  0.80185000  1.0 -0.5304569368
O  O20  1  0.42275000  0.26293000  0.51247000  1.0 -0.5304569368
O  O21  1  0.80185000  0.42275000  0.51247000  1.0 -0.5304569368
O  O22  1  0.26293000  0.51247000  0.42275000  1.0 -0.5304569368
O  O23  1  0.26293000  0.80185000  0.51247000  1.0 -0.5304569368
O  O24  1  0.51247000  0.42275000  0.26293000  1.0 -0.5304569368
O  O25  1  0.26293000  0.42275000  0.51247000  1.0 -0.5304569368
O  O26  1  0.19815000  0.48753000  0.73707000  1.0 -0.5304569368
O  O27  1  0.42275000  0.26293000  0.80185000  1.0 -0.5304569368
O  O28  1  0.48753000  0.19815000  0.57725000  1.0 -0.5304569368
O  O29  1  0.57725000  0.19815000  0.73707000  1.0 -0.5304569368
O  O30  1  0.80185000  0.51247000  0.42275000  1.0 -0.5304569368
O  O31  1  0.48753000  0.73707000  0.19815000  1.0 -0.5304569368
O  O32  1  0.57725000  0.48753000  0.19815000  1.0 -0.5304569368
O  O33  1  0.51247000  0.80185000  0.26293000  1.0 -0.5304569368
O  O34  1  0.19815000  0.73707000  0.57725000  1.0 -0.5304569368
O  O35  1  0.51247000  0.26293000  0.42275000  1.0 -0.5304569368
O  O36  1  0.42275000  0.51247000  0.26293000  1.0 -0.5304569368
O  O37  1  0.51247000  0.42275000  0.80185000  1.0 -0.5304569368
O  O38  1  0.80185000  0.42275000  0.26293000  1.0 -0.5304569368
O  O39  1  0.26293000  0.80185000  0.42275000  1.0 -0.5304569368
O  O40  1  0.26293000  0.51247000  0.80185000  1.0 -0.5304569368
O  O41  1  0.42275000  0.80185000  0.51247000  1.0 -0.5304569368
O  O42  1  0.80185000  0.26293000  0.51247000  1.0 -0.5304569368
O  O43  1  0.73707000  0.57725000  0.19815000  1.0 -0.5304569368
O  O44  1  0.57725000  0.73707000  0.48753000  1.0 -0.5304569368
O  O45  1  0.19815000  0.57725000  0.48753000  1.0 -0.5304569368
O  O46  1  0.73707000  0.48753000  0.57725000  1.0 -0.5304569368
O  O47  1  0.73707000  0.19815000  0.48753000  1.0 -0.5304569368
O  O48  1  0.48753000  0.57725000  0.73707000  1.0 -0.5304569368
O  O49  1  0.81045000  0.57865000  0.48587000  1.0 -0.5304569368
O  O50  1  0.87497000  0.51413000  0.18955000  1.0 -0.5304569368
O  O51  1  0.57865000  0.81045000  0.12503000  1.0 -0.5304569368
O  O52  1  0.51413000  0.87497000  0.42135000  1.0 -0.5304569368
O  O53  1  0.42135000  0.87497000  0.18955000  1.0 -0.5304569368
O  O54  1  0.12503000  0.48587000  0.57865000  1.0 -0.5304569368
O  O55  1  0.51413000  0.18955000  0.87497000  1.0 -0.5304569368
O  O56  1  0.42135000  0.51413000  0.87497000  1.0 -0.5304569368
O  O57  1  0.48587000  0.12503000  0.81045000  1.0 -0.5304569368
O  O58  1  0.87497000  0.18955000  0.42135000  1.0 -0.5304569368
O  O59  1  0.48587000  0.81045000  0.57865000  1.0 -0.5304569368
O  O60  1  0.57865000  0.48587000  0.81045000  1.0 -0.5304569368
O  O61  1  0.48587000  0.57865000  0.12503000  1.0 -0.5304569368
O  O62  1  0.12503000  0.57865000  0.81045000  1.0 -0.5304569368
O  O63  1  0.81045000  0.12503000  0.57865000  1.0 -0.5304569368
O  O64  1  0.81045000  0.48587000  0.12503000  1.0 -0.5304569368
O  O65  1  0.57865000  0.12503000  0.48587000  1.0 -0.5304569368
O  O66  1  0.12503000  0.81045000  0.48587000  1.0 -0.5304569368
O  O67  1  0.18955000  0.42135000  0.87497000  1.0 -0.5304569368
O  O68  1  0.42135000  0.18955000  0.51413000  1.0 -0.5304569368
O  O69  1  0.87497000  0.42135000  0.51413000  1.0 -0.5304569368
O  O70  1  0.18955000  0.51413000  0.42135000  1.0 -0.5304569368
O  O71  1  0.18955000  0.87497000  0.51413000  1.0 -0.5304569368
O  O72  1  0.51413000  0.42135000  0.18955000  1.0 -0.5304569368
O  O73  1  0.18955000  0.42135000  0.51413000  1.0 -0.5304569368
O  O74  1  0.12503000  0.48587000  0.81045000  1.0 -0.5304569368
O  O75  1  0.42135000  0.18955000  0.87497000  1.0 -0.5304569368
O  O76  1  0.48587000  0.12503000  0.57865000  1.0 -0.5304569368
O  O77  1  0.57865000  0.12503000  0.81045000  1.0 -0.5304569368
O  O78  1  0.87497000  0.51413000  0.42135000  1.0 -0.5304569368
O  O79  1  0.48587000  0.81045000  0.12503000  1.0 -0.5304569368
O  O80  1  0.57865000  0.48587000  0.12503000  1.0 -0.5304569368
O  O81  1  0.51413000  0.87497000  0.18955000  1.0 -0.5304569368
O  O82  1  0.12503000  0.81045000  0.57865000  1.0 -0.5304569368
O  O83  1  0.51413000  0.18955000  0.42135000  1.0 -0.5304569368
O  O84  1  0.42135000  0.51413000  0.18955000  1.0 -0.5304569368
O  O85  1  0.51413000  0.42135000  0.87497000  1.0 -0.5304569368
O  O86  1  0.87497000  0.42135000  0.18955000  1.0 -0.5304569368
O  O87  1  0.18955000  0.87497000  0.42135000  1.0 -0.5304569368
O  O88  1  0.18955000  0.51413000  0.87497000  1.0 -0.5304569368
O  O89  1  0.42135000  0.87497000  0.51413000  1.0 -0.5304569368
O  O90  1  0.87497000  0.18955000  0.51413000  1.0 -0.5304569368
O  O91  1  0.81045000  0.57865000  0.12503000  1.0 -0.5304569368
O  O92  1  0.57865000  0.81045000  0.48587000  1.0 -0.5304569368
O  O93  1  0.12503000  0.57865000  0.48587000  1.0 -0.5304569368
O  O94  1  0.81045000  0.48587000  0.57865000  1.0 -0.5304569368
O  O95  1  0.81045000  0.12503000  0.48587000  1.0 -0.5304569368
O  O96  1  0.48587000  0.57865000  0.81045000  1.0 -0.5304569368
