# DDEC6 charges by PACMAN v1.1 (https://github.com/mtap-research/PACMAN-charge/)
data_VUJBEI_ASR_pacman
_symmetry_space_group_name_H-M   'P 1'
_cell_length_a   30.29490000
_cell_length_b   30.29490000
_cell_length_c   30.29490000
_cell_angle_alpha   60.00000000
_cell_angle_beta   60.00000000
_cell_angle_gamma   60.00000000
_symmetry_Int_Tables_number   1
_chemical_formula_structural   ZnH4(C3O)4
_chemical_formula_sum   'Zn24 H96 C288 O96'
_cell_volume   19660.45534206
_cell_formula_units_Z   24
loop_
 _symmetry_equiv_pos_site_id
 _symmetry_equiv_pos_as_xyz
  1  'x, y, z'
loop_
 _atom_site_type_symbol
 _atom_site_label
 _atom_site_symmetry_multiplicity
 _atom_site_fract_x
 _atom_site_fract_y
 _atom_site_fract_z
 _atom_site_occupancy
 _atom_site_charge
Zn  Zn1  1  0.25774000  0.00000000  0.00000000  1.0 0.9508485323
Zn  Zn2  1  0.25774000  0.00000000  0.74226000  1.0 0.9508485323
Zn  Zn3  1  0.00000000  0.25774000  0.74226000  1.0 0.9508485323
Zn  Zn4  1  0.00000000  0.25774000  0.00000000  1.0 0.9508485323
Zn  Zn5  1  0.74226000  0.00000000  0.00000000  1.0 0.9508485323
Zn  Zn6  1  0.00000000  0.74226000  0.25774000  1.0 0.9508485323
Zn  Zn7  1  0.00000000  0.00000000  0.25774000  1.0 0.9508485323
Zn  Zn8  1  0.25774000  0.74226000  0.00000000  1.0 0.9508485323
Zn  Zn9  1  0.00000000  0.00000000  0.74226000  1.0 0.9508485323
Zn  Zn10  1  0.74226000  0.00000000  0.25774000  1.0 0.9508485323
Zn  Zn11  1  0.00000000  0.74226000  0.00000000  1.0 0.9508485323
Zn  Zn12  1  0.74226000  0.25774000  0.00000000  1.0 0.9508485323
Zn  Zn13  1  0.35780000  0.00000000  0.00000000  1.0 0.9508485323
Zn  Zn14  1  0.35780000  0.00000000  0.64220000  1.0 0.9508485323
Zn  Zn15  1  0.00000000  0.35780000  0.64220000  1.0 0.9508485323
Zn  Zn16  1  0.00000000  0.35780000  0.00000000  1.0 0.9508485323
Zn  Zn17  1  0.64220000  0.00000000  0.00000000  1.0 0.9508485323
Zn  Zn18  1  0.00000000  0.64220000  0.35780000  1.0 0.9508485323
Zn  Zn19  1  0.00000000  0.00000000  0.35780000  1.0 0.9508485323
Zn  Zn20  1  0.35780000  0.64220000  0.00000000  1.0 0.9508485323
Zn  Zn21  1  0.00000000  0.00000000  0.64220000  1.0 0.9508485323
Zn  Zn22  1  0.64220000  0.00000000  0.35780000  1.0 0.9508485323
Zn  Zn23  1  0.00000000  0.64220000  0.00000000  1.0 0.9508485323
Zn  Zn24  1  0.64220000  0.35780000  0.00000000  1.0 0.9508485323
H  H1  1  0.16550000  0.16550000  0.98250000  1.0 0.1350693531
H  H2  1  0.31350000  0.01750000  0.83450000  1.0 0.1350693531
H  H3  1  0.16550000  0.16550000  0.68650000  1.0 0.1350693531
H  H4  1  0.01750000  0.31350000  0.83450000  1.0 0.1350693531
H  H5  1  0.83450000  0.31350000  0.83450000  1.0 0.1350693531
H  H6  1  0.68650000  0.98250000  0.16550000  1.0 0.1350693531
H  H7  1  0.01750000  0.83450000  0.31350000  1.0 0.1350693531
H  H8  1  0.83450000  0.01750000  0.31350000  1.0 0.1350693531
H  H9  1  0.98250000  0.68650000  0.16550000  1.0 0.1304696968
H  H10  1  0.31350000  0.83450000  0.83450000  1.0 0.1350693531
H  H11  1  0.98250000  0.16550000  0.16550000  1.0 0.1350693531
H  H12  1  0.16550000  0.98250000  0.16550000  1.0 0.1350693531
H  H13  1  0.98250000  0.16550000  0.68650000  1.0 0.1350693531
H  H14  1  0.68650000  0.16550000  0.16550000  1.0 0.1350693531
H  H15  1  0.16550000  0.68650000  0.16550000  1.0 0.1350693531
H  H16  1  0.16550000  0.98250000  0.68650000  1.0 0.1350693531
H  H17  1  0.16550000  0.68650000  0.98250000  1.0 0.1350693531
H  H18  1  0.68650000  0.16550000  0.98250000  1.0 0.1350693531
H  H19  1  0.83450000  0.83450000  0.31350000  1.0 0.1350693531
H  H20  1  0.83450000  0.83450000  0.01750000  1.0 0.1350693531
H  H21  1  0.31350000  0.83450000  0.01750000  1.0 0.1350693531
H  H22  1  0.83450000  0.01750000  0.83450000  1.0 0.1350693531
H  H23  1  0.83450000  0.31350000  0.01750000  1.0 0.1350693531
H  H24  1  0.01750000  0.83450000  0.83450000  1.0 0.1350693531
H  H25  1  0.30490000  0.17070000  0.96610000  1.0 0.1304696968
H  H26  1  0.44170000  0.03390000  0.69510000  1.0 0.1304696968
H  H27  1  0.17070000  0.30490000  0.55830000  1.0 0.1304696968
H  H28  1  0.03390000  0.44170000  0.82930000  1.0 0.1304696968
H  H29  1  0.82930000  0.44170000  0.69510000  1.0 0.1304696968
H  H30  1  0.55830000  0.96610000  0.17070000  1.0 0.1304696968
H  H31  1  0.03390000  0.69510000  0.44170000  1.0 0.1304696968
H  H32  1  0.82930000  0.03390000  0.44170000  1.0 0.1304696968
H  H33  1  0.96610000  0.55830000  0.30490000  1.0 0.1304696968
H  H34  1  0.44170000  0.69510000  0.82930000  1.0 0.1304696968
H  H35  1  0.96610000  0.30490000  0.17070000  1.0 0.1304696968
H  H36  1  0.17070000  0.96610000  0.30490000  1.0 0.1304696968
H  H37  1  0.96610000  0.17070000  0.55830000  1.0 0.1304696968
H  H38  1  0.55830000  0.17070000  0.30490000  1.0 0.1304696968
H  H39  1  0.30490000  0.55830000  0.17070000  1.0 0.1304696968
H  H40  1  0.30490000  0.96610000  0.55830000  1.0 0.1304696968
H  H41  1  0.17070000  0.55830000  0.96610000  1.0 0.1304696968
H  H42  1  0.55830000  0.30490000  0.96610000  1.0 0.1304696968
H  H43  1  0.69510000  0.82930000  0.44170000  1.0 0.1304696968
H  H44  1  0.82930000  0.69510000  0.03390000  1.0 0.1304696968
H  H45  1  0.44170000  0.82930000  0.03390000  1.0 0.1304696968
H  H46  1  0.69510000  0.03390000  0.82930000  1.0 0.1304696968
H  H47  1  0.69510000  0.44170000  0.03390000  1.0 0.1304696968
H  H48  1  0.03390000  0.82930000  0.69510000  1.0 0.1304696968
H  H49  1  0.69510000  0.82930000  0.03390000  1.0 0.1304696968
H  H50  1  0.55830000  0.96610000  0.30490000  1.0 0.1304696968
H  H51  1  0.82930000  0.69510000  0.44170000  1.0 0.1304696968
H  H52  1  0.96610000  0.55830000  0.17070000  1.0 0.1304696968
H  H53  1  0.17070000  0.55830000  0.30490000  1.0 0.1304696968
H  H54  1  0.44170000  0.03390000  0.82930000  1.0 0.1304696968
H  H55  1  0.96610000  0.30490000  0.55830000  1.0 0.1304696968
H  H56  1  0.17070000  0.96610000  0.55830000  1.0 0.1304696968
H  H57  1  0.03390000  0.44170000  0.69510000  1.0 0.1304696968
H  H58  1  0.55830000  0.30490000  0.17070000  1.0 0.1304696968
H  H59  1  0.03390000  0.69510000  0.82930000  1.0 0.1304696968
H  H60  1  0.82930000  0.03390000  0.69510000  1.0 0.1304696968
H  H61  1  0.03390000  0.82930000  0.44170000  1.0 0.1304696968
H  H62  1  0.44170000  0.82930000  0.69510000  1.0 0.1304696968
H  H63  1  0.69510000  0.44170000  0.82930000  1.0 0.1304696968
H  H64  1  0.69510000  0.03390000  0.44170000  1.0 0.1304696968
H  H65  1  0.82930000  0.44170000  0.03390000  1.0 0.1304696968
H  H66  1  0.44170000  0.69510000  0.03390000  1.0 0.1304696968
H  H67  1  0.30490000  0.17070000  0.55830000  1.0 0.1304696968
H  H68  1  0.17070000  0.30490000  0.96610000  1.0 0.1304696968
H  H69  1  0.55830000  0.17070000  0.96610000  1.0 0.1304696968
H  H70  1  0.30490000  0.96610000  0.17070000  1.0 0.1304696968
H  H71  1  0.30490000  0.55830000  0.96610000  1.0 0.1304696968
H  H72  1  0.96610000  0.17070000  0.30490000  1.0 0.1304696968
H  H73  1  0.39940000  0.26560000  0.93560000  1.0 0.1304696968
H  H74  1  0.60060000  0.06440000  0.60060000  1.0 0.1304696968
H  H75  1  0.26560000  0.39940000  0.39940000  1.0 0.1304696968
H  H76  1  0.06440000  0.60060000  0.73440000  1.0 0.1304696968
H  H77  1  0.73440000  0.60060000  0.60060000  1.0 0.1304696968
H  H78  1  0.39940000  0.93560000  0.26560000  1.0 0.1304696968
H  H79  1  0.06440000  0.60060000  0.60060000  1.0 0.1304696968
H  H80  1  0.73440000  0.06440000  0.60060000  1.0 0.1304696968
H  H81  1  0.93560000  0.39940000  0.39940000  1.0 0.1304696968
H  H82  1  0.60060000  0.60060000  0.73440000  1.0 0.1304696968
H  H83  1  0.93560000  0.39940000  0.26560000  1.0 0.1304696968
H  H84  1  0.26560000  0.93560000  0.39940000  1.0 0.1304696968
H  H85  1  0.93560000  0.26560000  0.39940000  1.0 0.1304696968
H  H86  1  0.39940000  0.26560000  0.39940000  1.0 0.1304696968
H  H87  1  0.39940000  0.39940000  0.26560000  1.0 0.1304696968
H  H88  1  0.39940000  0.93560000  0.39940000  1.0 0.1304696968
H  H89  1  0.26560000  0.39940000  0.93560000  1.0 0.1304696968
H  H90  1  0.39940000  0.39940000  0.93560000  1.0 0.1304696968
H  H91  1  0.60060000  0.73440000  0.60060000  1.0 0.1304696968
H  H92  1  0.73440000  0.60060000  0.06440000  1.0 0.1304696968
H  H93  1  0.60060000  0.73440000  0.06440000  1.0 0.1304696968
H  H94  1  0.60060000  0.06440000  0.73440000  1.0 0.1304696968
H  H95  1  0.60060000  0.60060000  0.06440000  1.0 0.1304696968
H  H96  1  0.06440000  0.73440000  0.60060000  1.0 0.1304696968
C  C1  1  0.26427000  0.10243000  0.98363000  1.0 0.5901734246
C  C2  1  0.35033000  0.01637000  0.73573000  1.0 0.5901734246
C  C3  1  0.10243000  0.26427000  0.64967000  1.0 0.5901734246
C  C4  1  0.01637000  0.35033000  0.89757000  1.0 0.5901734246
C  C5  1  0.89757000  0.35033000  0.73573000  1.0 0.5901734246
C  C6  1  0.64967000  0.98363000  0.10243000  1.0 0.5901734246
C  C7  1  0.01637000  0.73573000  0.35033000  1.0 0.5901734246
C  C8  1  0.89757000  0.01637000  0.35033000  1.0 0.5901734246
C  C9  1  0.98363000  0.64967000  0.26427000  1.0 0.5901734246
C  C10  1  0.35033000  0.73573000  0.89757000  1.0 0.5901734246
C  C11  1  0.98363000  0.26427000  0.10243000  1.0 0.5901734246
C  C12  1  0.10243000  0.98363000  0.26427000  1.0 0.5901734246
C  C13  1  0.98363000  0.10243000  0.64967000  1.0 0.5901734246
C  C14  1  0.64967000  0.10243000  0.26427000  1.0 0.5901734246
C  C15  1  0.26427000  0.64967000  0.10243000  1.0 0.5901734246
C  C16  1  0.26427000  0.98363000  0.64967000  1.0 0.5901734246
C  C17  1  0.10243000  0.64967000  0.98363000  1.0 0.5901734246
C  C18  1  0.64967000  0.26427000  0.98363000  1.0 0.5901734246
C  C19  1  0.73573000  0.89757000  0.35033000  1.0 0.5901734246
C  C20  1  0.89757000  0.73573000  0.01637000  1.0 0.5901734246
C  C21  1  0.35033000  0.89757000  0.01637000  1.0 0.5901734246
C  C22  1  0.73573000  0.01637000  0.89757000  1.0 0.5901734246
C  C23  1  0.73573000  0.35033000  0.01637000  1.0 0.5901734246
C  C24  1  0.01637000  0.89757000  0.73573000  1.0 0.5901734246
C  C25  1  0.73573000  0.89757000  0.01637000  1.0 0.5901734246
C  C26  1  0.64967000  0.98363000  0.26427000  1.0 0.5901734246
C  C27  1  0.89757000  0.73573000  0.35033000  1.0 0.5901734246
C  C28  1  0.98363000  0.64967000  0.10243000  1.0 0.5901734246
C  C29  1  0.10243000  0.64967000  0.26427000  1.0 0.5901734246
C  C30  1  0.35033000  0.01637000  0.89757000  1.0 0.5901734246
C  C31  1  0.98363000  0.26427000  0.64967000  1.0 0.5901734246
C  C32  1  0.10243000  0.98363000  0.64967000  1.0 0.5901734246
C  C33  1  0.01637000  0.35033000  0.73573000  1.0 0.5901734246
C  C34  1  0.64967000  0.26427000  0.10243000  1.0 0.5901734246
C  C35  1  0.01637000  0.73573000  0.89757000  1.0 0.5901734246
C  C36  1  0.89757000  0.01637000  0.73573000  1.0 0.5901734246
C  C37  1  0.01637000  0.89757000  0.35033000  1.0 0.5901734246
C  C38  1  0.35033000  0.89757000  0.73573000  1.0 0.5901734246
C  C39  1  0.73573000  0.35033000  0.89757000  1.0 0.5901734246
C  C40  1  0.73573000  0.01637000  0.35033000  1.0 0.5901734246
C  C41  1  0.89757000  0.35033000  0.01637000  1.0 0.5901734246
C  C42  1  0.35033000  0.73573000  0.01637000  1.0 0.5901734246
C  C43  1  0.26427000  0.10243000  0.64967000  1.0 0.5901734246
C  C44  1  0.10243000  0.26427000  0.98363000  1.0 0.5901734246
C  C45  1  0.64967000  0.10243000  0.98363000  1.0 0.5901734246
C  C46  1  0.26427000  0.98363000  0.10243000  1.0 0.5901734246
C  C47  1  0.26427000  0.64967000  0.98363000  1.0 0.5901734246
C  C48  1  0.98363000  0.10243000  0.26427000  1.0 0.5901734246
C  C49  1  0.18454000  0.18454000  0.97952000  1.0 -0.0699004472
C  C50  1  0.34860000  0.02048000  0.81546000  1.0 -0.0699004472
C  C51  1  0.18454000  0.18454000  0.65140000  1.0 -0.0699004472
C  C52  1  0.02048000  0.34860000  0.81546000  1.0 -0.0699004472
C  C53  1  0.81546000  0.34860000  0.81546000  1.0 -0.0699004472
C  C54  1  0.65140000  0.97952000  0.18454000  1.0 -0.0699004472
C  C55  1  0.02048000  0.81546000  0.34860000  1.0 -0.0699004472
C  C56  1  0.81546000  0.02048000  0.34860000  1.0 -0.0699004472
C  C57  1  0.97952000  0.65140000  0.18454000  1.0 -0.0699004472
C  C58  1  0.34860000  0.81546000  0.81546000  1.0 -0.0699004472
C  C59  1  0.97952000  0.18454000  0.18454000  1.0 -0.0699004472
C  C60  1  0.18454000  0.97952000  0.18454000  1.0 -0.0699004472
C  C61  1  0.97952000  0.18454000  0.65140000  1.0 -0.0699004472
C  C62  1  0.65140000  0.18454000  0.18454000  1.0 -0.0699004472
C  C63  1  0.18454000  0.65140000  0.18454000  1.0 -0.0699004472
C  C64  1  0.18454000  0.97952000  0.65140000  1.0 -0.0699004472
C  C65  1  0.18454000  0.65140000  0.97952000  1.0 -0.0699004472
C  C66  1  0.65140000  0.18454000  0.97952000  1.0 -0.0699004472
C  C67  1  0.81546000  0.81546000  0.34860000  1.0 -0.0699004472
C  C68  1  0.81546000  0.81546000  0.02048000  1.0 -0.0699004472
C  C69  1  0.34860000  0.81546000  0.02048000  1.0 -0.0699004472
C  C70  1  0.81546000  0.02048000  0.81546000  1.0 -0.0699004472
C  C71  1  0.81546000  0.34860000  0.02048000  1.0 -0.0699004472
C  C72  1  0.02048000  0.81546000  0.81546000  1.0 -0.0699004472
C  C73  1  0.23804000  0.15978000  0.97734000  1.0 -0.0644431026
C  C74  1  0.37516000  0.02266000  0.76196000  1.0 -0.0644431026
C  C75  1  0.15978000  0.23804000  0.62484000  1.0 -0.0644431026
C  C76  1  0.02266000  0.37516000  0.84022000  1.0 -0.0699004472
C  C77  1  0.84022000  0.37516000  0.76196000  1.0 -0.0644431026
C  C78  1  0.62484000  0.97734000  0.15978000  1.0 -0.0644431026
C  C79  1  0.02266000  0.76196000  0.37516000  1.0 -0.0699004472
C  C80  1  0.84022000  0.02266000  0.37516000  1.0 -0.0644431026
C  C81  1  0.97734000  0.62484000  0.23804000  1.0 -0.0644431026
C  C82  1  0.37516000  0.76196000  0.84022000  1.0 -0.0699004472
C  C83  1  0.97734000  0.23804000  0.15978000  1.0 -0.0699004472
C  C84  1  0.15978000  0.97734000  0.23804000  1.0 -0.0699004472
C  C85  1  0.97734000  0.15978000  0.62484000  1.0 -0.0644431026
C  C86  1  0.62484000  0.15978000  0.23804000  1.0 -0.0644431026
C  C87  1  0.23804000  0.62484000  0.15978000  1.0 -0.0699004472
C  C88  1  0.23804000  0.97734000  0.62484000  1.0 -0.0699004472
C  C89  1  0.15978000  0.62484000  0.97734000  1.0 -0.0644431026
C  C90  1  0.62484000  0.23804000  0.97734000  1.0 -0.0644431026
C  C91  1  0.76196000  0.84022000  0.37516000  1.0 -0.0644431026
C  C92  1  0.84022000  0.76196000  0.02266000  1.0 -0.0644431026
C  C93  1  0.37516000  0.84022000  0.02266000  1.0 -0.0644431026
C  C94  1  0.76196000  0.02266000  0.84022000  1.0 -0.0644431026
C  C95  1  0.76196000  0.37516000  0.02266000  1.0 -0.0644431026
C  C96  1  0.02266000  0.84022000  0.76196000  1.0 -0.0699004472
C  C97  1  0.76196000  0.84022000  0.02266000  1.0 -0.0644431026
C  C98  1  0.62484000  0.97734000  0.23804000  1.0 -0.0644431026
C  C99  1  0.84022000  0.76196000  0.37516000  1.0 -0.0644431026
C  C100  1  0.97734000  0.62484000  0.15978000  1.0 -0.0644431026
C  C101  1  0.15978000  0.62484000  0.23804000  1.0 -0.0699004472
C  C102  1  0.37516000  0.02266000  0.84022000  1.0 -0.0644431026
C  C103  1  0.97734000  0.23804000  0.62484000  1.0 -0.0644431026
C  C104  1  0.15978000  0.97734000  0.62484000  1.0 -0.0644431026
C  C105  1  0.02266000  0.37516000  0.76196000  1.0 -0.0644431026
C  C106  1  0.62484000  0.23804000  0.15978000  1.0 -0.0644431026
C  C107  1  0.02266000  0.76196000  0.84022000  1.0 -0.0699004472
C  C108  1  0.84022000  0.02266000  0.76196000  1.0 -0.0644431026
C  C109  1  0.02266000  0.84022000  0.37516000  1.0 -0.0644431026
C  C110  1  0.37516000  0.84022000  0.76196000  1.0 -0.0644431026
C  C111  1  0.76196000  0.37516000  0.84022000  1.0 -0.0644431026
C  C112  1  0.76196000  0.02266000  0.37516000  1.0 -0.0644431026
C  C113  1  0.84022000  0.37516000  0.02266000  1.0 -0.0644431026
C  C114  1  0.37516000  0.76196000  0.02266000  1.0 -0.0699004472
C  C115  1  0.23804000  0.15978000  0.62484000  1.0 -0.0644431026
C  C116  1  0.15978000  0.23804000  0.97734000  1.0 -0.0644431026
C  C117  1  0.62484000  0.15978000  0.97734000  1.0 -0.0644431026
C  C118  1  0.23804000  0.97734000  0.15978000  1.0 -0.0644431026
C  C119  1  0.23804000  0.62484000  0.97734000  1.0 -0.0644431026
C  C120  1  0.97734000  0.15978000  0.23804000  1.0 -0.0644431026
C  C121  1  0.26800000  0.18832000  0.96844000  1.0 -0.1107470944
C  C122  1  0.42476000  0.03156000  0.73200000  1.0 -0.1107470944
C  C123  1  0.18832000  0.26800000  0.57524000  1.0 -0.1107470944
C  C124  1  0.03156000  0.42476000  0.81168000  1.0 -0.1107470944
C  C125  1  0.81168000  0.42476000  0.73200000  1.0 -0.1107470944
C  C126  1  0.57524000  0.96844000  0.18832000  1.0 -0.1107470944
C  C127  1  0.03156000  0.73200000  0.42476000  1.0 -0.1107470944
C  C128  1  0.81168000  0.03156000  0.42476000  1.0 -0.1107470944
C  C129  1  0.96844000  0.57524000  0.26800000  1.0 -0.1107470944
C  C130  1  0.42476000  0.73200000  0.81168000  1.0 -0.1107470944
C  C131  1  0.96844000  0.26800000  0.18832000  1.0 -0.1107470944
C  C132  1  0.18832000  0.96844000  0.26800000  1.0 -0.1107470944
C  C133  1  0.96844000  0.18832000  0.57524000  1.0 -0.1107470944
C  C134  1  0.57524000  0.18832000  0.26800000  1.0 -0.1107470944
C  C135  1  0.26800000  0.57524000  0.18832000  1.0 -0.1107470944
C  C136  1  0.26800000  0.96844000  0.57524000  1.0 -0.1107470944
C  C137  1  0.18832000  0.57524000  0.96844000  1.0 -0.1107470944
C  C138  1  0.57524000  0.26800000  0.96844000  1.0 -0.1107470944
C  C139  1  0.73200000  0.81168000  0.42476000  1.0 -0.1107470944
C  C140  1  0.81168000  0.73200000  0.03156000  1.0 -0.1107470944
C  C141  1  0.42476000  0.81168000  0.03156000  1.0 -0.1107470944
C  C142  1  0.73200000  0.03156000  0.81168000  1.0 -0.1107470944
C  C143  1  0.73200000  0.42476000  0.03156000  1.0 -0.1107470944
C  C144  1  0.03156000  0.81168000  0.73200000  1.0 -0.1107470944
C  C145  1  0.73200000  0.81168000  0.03156000  1.0 -0.1107470944
C  C146  1  0.57524000  0.96844000  0.26800000  1.0 -0.1107470944
C  C147  1  0.81168000  0.73200000  0.42476000  1.0 -0.1107470944
C  C148  1  0.96844000  0.57524000  0.18832000  1.0 -0.1107470944
C  C149  1  0.18832000  0.57524000  0.26800000  1.0 -0.1107470944
C  C150  1  0.42476000  0.03156000  0.81168000  1.0 -0.1107470944
C  C151  1  0.96844000  0.26800000  0.57524000  1.0 -0.1107470944
C  C152  1  0.18832000  0.96844000  0.57524000  1.0 -0.1107470944
C  C153  1  0.03156000  0.42476000  0.73200000  1.0 -0.1107470944
C  C154  1  0.57524000  0.26800000  0.18832000  1.0 -0.1107470944
C  C155  1  0.03156000  0.73200000  0.81168000  1.0 -0.1107470944
C  C156  1  0.81168000  0.03156000  0.73200000  1.0 -0.1107470944
C  C157  1  0.03156000  0.81168000  0.42476000  1.0 -0.1107470944
C  C158  1  0.42476000  0.81168000  0.73200000  1.0 -0.1107470944
C  C159  1  0.73200000  0.42476000  0.81168000  1.0 -0.1107470944
C  C160  1  0.73200000  0.03156000  0.42476000  1.0 -0.1107470944
C  C161  1  0.81168000  0.42476000  0.03156000  1.0 -0.1107470944
C  C162  1  0.42476000  0.73200000  0.03156000  1.0 -0.1107470944
C  C163  1  0.26800000  0.18832000  0.57524000  1.0 -0.1107470944
C  C164  1  0.18832000  0.26800000  0.96844000  1.0 -0.1107470944
C  C165  1  0.57524000  0.18832000  0.96844000  1.0 -0.1107470944
C  C166  1  0.26800000  0.96844000  0.18832000  1.0 -0.1107470944
C  C167  1  0.26800000  0.57524000  0.96844000  1.0 -0.1107470944
C  C168  1  0.96844000  0.18832000  0.26800000  1.0 -0.1107470944
C  C169  1  0.24280000  0.24280000  0.96316000  1.0 0.1202782952
C  C170  1  0.44876000  0.03684000  0.75720000  1.0 0.1202782952
C  C171  1  0.24280000  0.24280000  0.55124000  1.0 0.1202782952
C  C172  1  0.03684000  0.44876000  0.75720000  1.0 0.1202782952
C  C173  1  0.75720000  0.44876000  0.75720000  1.0 0.1202782952
C  C174  1  0.55124000  0.96316000  0.24280000  1.0 0.1202782952
C  C175  1  0.03684000  0.75720000  0.44876000  1.0 0.1202782952
C  C176  1  0.75720000  0.03684000  0.44876000  1.0 0.1202782952
C  C177  1  0.96316000  0.55124000  0.24280000  1.0 0.1202782952
C  C178  1  0.44876000  0.75720000  0.75720000  1.0 0.1202782952
C  C179  1  0.96316000  0.24280000  0.24280000  1.0 0.1202782952
C  C180  1  0.24280000  0.96316000  0.24280000  1.0 0.1202782952
C  C181  1  0.96316000  0.24280000  0.55124000  1.0 0.1202782952
C  C182  1  0.55124000  0.24280000  0.24280000  1.0 0.1202782952
C  C183  1  0.24280000  0.55124000  0.24280000  1.0 0.1202782952
C  C184  1  0.24280000  0.96316000  0.55124000  1.0 0.1202782952
C  C185  1  0.24280000  0.55124000  0.96316000  1.0 0.1202782952
C  C186  1  0.55124000  0.24280000  0.96316000  1.0 0.1202782952
C  C187  1  0.75720000  0.75720000  0.44876000  1.0 0.1202782952
C  C188  1  0.75720000  0.75720000  0.03684000  1.0 0.1202782952
C  C189  1  0.44876000  0.75720000  0.03684000  1.0 0.1202782952
C  C190  1  0.75720000  0.03684000  0.75720000  1.0 0.1202782952
C  C191  1  0.75720000  0.44876000  0.03684000  1.0 0.1202782952
C  C192  1  0.03684000  0.75720000  0.75720000  1.0 0.1202782952
C  C193  1  0.27090000  0.27090000  0.95506000  1.0 -0.1107470944
C  C194  1  0.49686000  0.04494000  0.72910000  1.0 -0.1107470944
C  C195  1  0.27090000  0.27090000  0.50314000  1.0 -0.1107470944
C  C196  1  0.04494000  0.49686000  0.72910000  1.0 -0.1163442333
C  C197  1  0.72910000  0.49686000  0.72910000  1.0 -0.1163442333
C  C198  1  0.50314000  0.95506000  0.27090000  1.0 -0.1163442333
C  C199  1  0.04494000  0.72910000  0.49686000  1.0 -0.1107470944
C  C200  1  0.72910000  0.04494000  0.49686000  1.0 -0.1107470944
C  C201  1  0.95506000  0.50314000  0.27090000  1.0 -0.1163442333
C  C202  1  0.49686000  0.72910000  0.72910000  1.0 -0.1107470944
C  C203  1  0.95506000  0.27090000  0.27090000  1.0 -0.1107470944
C  C204  1  0.27090000  0.95506000  0.27090000  1.0 -0.1107470944
C  C205  1  0.95506000  0.27090000  0.50314000  1.0 -0.1107470944
C  C206  1  0.50314000  0.27090000  0.27090000  1.0 -0.1107470944
C  C207  1  0.27090000  0.50314000  0.27090000  1.0 -0.1107470944
C  C208  1  0.27090000  0.95506000  0.50314000  1.0 -0.1107470944
C  C209  1  0.27090000  0.50314000  0.95506000  1.0 -0.1163442333
C  C210  1  0.50314000  0.27090000  0.95506000  1.0 -0.1107470944
C  C211  1  0.72910000  0.72910000  0.49686000  1.0 -0.1107470944
C  C212  1  0.72910000  0.72910000  0.04494000  1.0 -0.1163442333
C  C213  1  0.49686000  0.72910000  0.04494000  1.0 -0.1107470944
C  C214  1  0.72910000  0.04494000  0.72910000  1.0 -0.1107470944
C  C215  1  0.72910000  0.49686000  0.04494000  1.0 -0.1163442333
C  C216  1  0.04494000  0.72910000  0.72910000  1.0 -0.1107470944
C  C217  1  0.29610000  0.29610000  0.94810000  1.0 -0.0644431026
C  C218  1  0.54030000  0.05190000  0.70390000  1.0 -0.0644431026
C  C219  1  0.29610000  0.29610000  0.45970000  1.0 -0.0644431026
C  C220  1  0.05190000  0.54030000  0.70390000  1.0 -0.0644431026
C  C221  1  0.70390000  0.54030000  0.70390000  1.0 -0.0699004472
C  C222  1  0.45970000  0.94810000  0.29610000  1.0 -0.0644431026
C  C223  1  0.05190000  0.70390000  0.54030000  1.0 -0.0699004472
C  C224  1  0.70390000  0.05190000  0.54030000  1.0 -0.0644431026
C  C225  1  0.94810000  0.45970000  0.29610000  1.0 -0.0644431026
C  C226  1  0.54030000  0.70390000  0.70390000  1.0 -0.0644431026
C  C227  1  0.94810000  0.29610000  0.29610000  1.0 -0.0644431026
C  C228  1  0.29610000  0.94810000  0.29610000  1.0 -0.0644431026
C  C229  1  0.94810000  0.29610000  0.45970000  1.0 -0.0644431026
C  C230  1  0.45970000  0.29610000  0.29610000  1.0 -0.0644431026
C  C231  1  0.29610000  0.45970000  0.29610000  1.0 -0.0644431026
C  C232  1  0.29610000  0.94810000  0.45970000  1.0 -0.0699004472
C  C233  1  0.29610000  0.45970000  0.94810000  1.0 -0.0644431026
C  C234  1  0.45970000  0.29610000  0.94810000  1.0 -0.0644431026
C  C235  1  0.70390000  0.70390000  0.54030000  1.0 -0.0644431026
C  C236  1  0.70390000  0.70390000  0.05190000  1.0 -0.0644431026
C  C237  1  0.54030000  0.70390000  0.05190000  1.0 -0.0699004472
C  C238  1  0.70390000  0.05190000  0.70390000  1.0 -0.0644431026
C  C239  1  0.70390000  0.54030000  0.05190000  1.0 -0.0644431026
C  C240  1  0.05190000  0.70390000  0.70390000  1.0 -0.0699004472
C  C241  1  0.32730000  0.32730000  0.94014000  1.0 0.1555917677
C  C242  1  0.59474000  0.05986000  0.67270000  1.0 0.1555917677
C  C243  1  0.32730000  0.32730000  0.40526000  1.0 0.1555917677
C  C244  1  0.05986000  0.59474000  0.67270000  1.0 0.1540428202
C  C245  1  0.67270000  0.59474000  0.67270000  1.0 0.1555917677
C  C246  1  0.40526000  0.94014000  0.32730000  1.0 0.1540428202
C  C247  1  0.05986000  0.67270000  0.59474000  1.0 0.1555917677
C  C248  1  0.67270000  0.05986000  0.59474000  1.0 0.1555917677
C  C249  1  0.94014000  0.40526000  0.32730000  1.0 0.1540428202
C  C250  1  0.59474000  0.67270000  0.67270000  1.0 0.1555917677
C  C251  1  0.94014000  0.32730000  0.32730000  1.0 0.1555917677
C  C252  1  0.32730000  0.94014000  0.32730000  1.0 0.1555917677
C  C253  1  0.94014000  0.32730000  0.40526000  1.0 0.1555917677
C  C254  1  0.40526000  0.32730000  0.32730000  1.0 0.1555917677
C  C255  1  0.32730000  0.40526000  0.32730000  1.0 0.1555917677
C  C256  1  0.32730000  0.94014000  0.40526000  1.0 0.1555917677
C  C257  1  0.32730000  0.40526000  0.94014000  1.0 0.1555917677
C  C258  1  0.40526000  0.32730000  0.94014000  1.0 0.1555917677
C  C259  1  0.67270000  0.67270000  0.59474000  1.0 0.1555917677
C  C260  1  0.67270000  0.67270000  0.05986000  1.0 0.1540428202
C  C261  1  0.59474000  0.67270000  0.05986000  1.0 0.1555917677
C  C262  1  0.67270000  0.05986000  0.67270000  1.0 0.1555917677
C  C263  1  0.67270000  0.59474000  0.05986000  1.0 0.1555917677
C  C264  1  0.05986000  0.67270000  0.67270000  1.0 0.1555917677
C  C265  1  0.38050000  0.30070000  0.93830000  1.0 -0.2235464622
C  C266  1  0.61950000  0.06170000  0.61950000  1.0 -0.2235464622
C  C267  1  0.30070000  0.38050000  0.38050000  1.0 -0.2235464622
C  C268  1  0.06170000  0.61950000  0.69930000  1.0 -0.2235464622
C  C269  1  0.69930000  0.61950000  0.61950000  1.0 -0.2235464622
C  C270  1  0.38050000  0.93830000  0.30070000  1.0 -0.2235464622
C  C271  1  0.06170000  0.61950000  0.61950000  1.0 -0.2235464622
C  C272  1  0.69930000  0.06170000  0.61950000  1.0 -0.2235464622
C  C273  1  0.93830000  0.38050000  0.38050000  1.0 -0.2235464622
C  C274  1  0.61950000  0.61950000  0.69930000  1.0 -0.2235464622
C  C275  1  0.93830000  0.38050000  0.30070000  1.0 -0.2235464622
C  C276  1  0.30070000  0.93830000  0.38050000  1.0 -0.2235464622
C  C277  1  0.93830000  0.30070000  0.38050000  1.0 -0.2235464622
C  C278  1  0.38050000  0.30070000  0.38050000  1.0 -0.2235464622
C  C279  1  0.38050000  0.38050000  0.30070000  1.0 -0.2235464622
C  C280  1  0.38050000  0.93830000  0.38050000  1.0 -0.2263324794
C  C281  1  0.30070000  0.38050000  0.93830000  1.0 -0.2235464622
C  C282  1  0.38050000  0.38050000  0.93830000  1.0 -0.2235464622
C  C283  1  0.61950000  0.69930000  0.61950000  1.0 -0.2235464622
C  C284  1  0.69930000  0.61950000  0.06170000  1.0 -0.2263324794
C  C285  1  0.61950000  0.69930000  0.06170000  1.0 -0.2263324794
C  C286  1  0.61950000  0.06170000  0.69930000  1.0 -0.2235464622
C  C287  1  0.61950000  0.61950000  0.06170000  1.0 -0.2263324794
C  C288  1  0.06170000  0.69930000  0.61950000  1.0 -0.2235464622
O  O1  1  0.23813000  0.07903000  0.98667000  1.0 -0.5270853781
O  O2  1  0.30383000  0.01333000  0.76187000  1.0 -0.5270853781
O  O3  1  0.07903000  0.23813000  0.69617000  1.0 -0.5270853781
O  O4  1  0.01333000  0.30383000  0.92097000  1.0 -0.5270853781
O  O5  1  0.92097000  0.30383000  0.76187000  1.0 -0.5270853781
O  O6  1  0.69617000  0.98667000  0.07903000  1.0 -0.5270853781
O  O7  1  0.01333000  0.76187000  0.30383000  1.0 -0.5270853781
O  O8  1  0.92097000  0.01333000  0.30383000  1.0 -0.5270853781
O  O9  1  0.98667000  0.69617000  0.23813000  1.0 -0.5270853781
O  O10  1  0.30383000  0.76187000  0.92097000  1.0 -0.5270853781
O  O11  1  0.98667000  0.23813000  0.07903000  1.0 -0.5270853781
O  O12  1  0.07903000  0.98667000  0.23813000  1.0 -0.5270853781
O  O13  1  0.98667000  0.07903000  0.69617000  1.0 -0.5270853781
O  O14  1  0.69617000  0.07903000  0.23813000  1.0 -0.5270853781
O  O15  1  0.23813000  0.69617000  0.07903000  1.0 -0.5270853781
O  O16  1  0.23813000  0.98667000  0.69617000  1.0 -0.5270853781
O  O17  1  0.07903000  0.69617000  0.98667000  1.0 -0.5270853781
O  O18  1  0.69617000  0.23813000  0.98667000  1.0 -0.5270853781
O  O19  1  0.76187000  0.92097000  0.30383000  1.0 -0.5270853781
O  O20  1  0.92097000  0.76187000  0.01333000  1.0 -0.5270853781
O  O21  1  0.30383000  0.92097000  0.01333000  1.0 -0.5270853781
O  O22  1  0.76187000  0.01333000  0.92097000  1.0 -0.5270853781
O  O23  1  0.76187000  0.30383000  0.01333000  1.0 -0.5270853781
O  O24  1  0.01333000  0.92097000  0.76187000  1.0 -0.5270853781
O  O25  1  0.76187000  0.92097000  0.01333000  1.0 -0.5270853781
O  O26  1  0.69617000  0.98667000  0.23813000  1.0 -0.5270853781
O  O27  1  0.92097000  0.76187000  0.30383000  1.0 -0.5270853781
O  O28  1  0.98667000  0.69617000  0.07903000  1.0 -0.5270853781
O  O29  1  0.07903000  0.69617000  0.23813000  1.0 -0.5270853781
O  O30  1  0.30383000  0.01333000  0.92097000  1.0 -0.5270853781
O  O31  1  0.98667000  0.23813000  0.69617000  1.0 -0.5270853781
O  O32  1  0.07903000  0.98667000  0.69617000  1.0 -0.5270853781
O  O33  1  0.01333000  0.30383000  0.76187000  1.0 -0.5270853781
O  O34  1  0.69617000  0.23813000  0.07903000  1.0 -0.5270853781
O  O35  1  0.01333000  0.76187000  0.92097000  1.0 -0.5270853781
O  O36  1  0.92097000  0.01333000  0.76187000  1.0 -0.5270853781
O  O37  1  0.01333000  0.92097000  0.30383000  1.0 -0.5270853781
O  O38  1  0.30383000  0.92097000  0.76187000  1.0 -0.5270853781
O  O39  1  0.76187000  0.30383000  0.92097000  1.0 -0.5270853781
O  O40  1  0.76187000  0.01333000  0.30383000  1.0 -0.5270853781
O  O41  1  0.92097000  0.30383000  0.01333000  1.0 -0.5270853781
O  O42  1  0.30383000  0.76187000  0.01333000  1.0 -0.5270853781
O  O43  1  0.23813000  0.07903000  0.69617000  1.0 -0.5270853781
O  O44  1  0.07903000  0.23813000  0.98667000  1.0 -0.5270853781
O  O45  1  0.69617000  0.07903000  0.98667000  1.0 -0.5270853781
O  O46  1  0.23813000  0.98667000  0.07903000  1.0 -0.5270853781
O  O47  1  0.23813000  0.69617000  0.98667000  1.0 -0.5270853781
O  O48  1  0.98667000  0.07903000  0.23813000  1.0 -0.5270853781
O  O49  1  0.31107000  0.07919000  0.98603000  1.0 -0.5270853781
O  O50  1  0.37629000  0.01397000  0.68893000  1.0 -0.5270853781
O  O51  1  0.07919000  0.31107000  0.62371000  1.0 -0.5270853781
O  O52  1  0.01397000  0.37629000  0.92081000  1.0 -0.5270853781
O  O53  1  0.92081000  0.37629000  0.68893000  1.0 -0.5270853781
O  O54  1  0.62371000  0.98603000  0.07919000  1.0 -0.5270853781
O  O55  1  0.01397000  0.68893000  0.37629000  1.0 -0.5270853781
O  O56  1  0.92081000  0.01397000  0.37629000  1.0 -0.5270853781
O  O57  1  0.98603000  0.62371000  0.31107000  1.0 -0.5270853781
O  O58  1  0.37629000  0.68893000  0.92081000  1.0 -0.5270853781
O  O59  1  0.98603000  0.31107000  0.07919000  1.0 -0.5270853781
O  O60  1  0.07919000  0.98603000  0.31107000  1.0 -0.5270853781
O  O61  1  0.98603000  0.07919000  0.62371000  1.0 -0.5270853781
O  O62  1  0.62371000  0.07919000  0.31107000  1.0 -0.5270853781
O  O63  1  0.31107000  0.62371000  0.07919000  1.0 -0.5270853781
O  O64  1  0.31107000  0.98603000  0.62371000  1.0 -0.5270853781
O  O65  1  0.07919000  0.62371000  0.98603000  1.0 -0.5270853781
O  O66  1  0.62371000  0.31107000  0.98603000  1.0 -0.5270853781
O  O67  1  0.68893000  0.92081000  0.37629000  1.0 -0.5270853781
O  O68  1  0.92081000  0.68893000  0.01397000  1.0 -0.5270853781
O  O69  1  0.37629000  0.92081000  0.01397000  1.0 -0.5270853781
O  O70  1  0.68893000  0.01397000  0.92081000  1.0 -0.5270853781
O  O71  1  0.68893000  0.37629000  0.01397000  1.0 -0.5270853781
O  O72  1  0.01397000  0.92081000  0.68893000  1.0 -0.5270853781
O  O73  1  0.68893000  0.92081000  0.01397000  1.0 -0.5270853781
O  O74  1  0.62371000  0.98603000  0.31107000  1.0 -0.5270853781
O  O75  1  0.92081000  0.68893000  0.37629000  1.0 -0.5270853781
O  O76  1  0.98603000  0.62371000  0.07919000  1.0 -0.5270853781
O  O77  1  0.07919000  0.62371000  0.31107000  1.0 -0.5270853781
O  O78  1  0.37629000  0.01397000  0.92081000  1.0 -0.5270853781
O  O79  1  0.98603000  0.31107000  0.62371000  1.0 -0.5270853781
O  O80  1  0.07919000  0.98603000  0.62371000  1.0 -0.5270853781
O  O81  1  0.01397000  0.37629000  0.68893000  1.0 -0.5270853781
O  O82  1  0.62371000  0.31107000  0.07919000  1.0 -0.5270853781
O  O83  1  0.01397000  0.68893000  0.92081000  1.0 -0.5270853781
O  O84  1  0.92081000  0.01397000  0.68893000  1.0 -0.5270853781
O  O85  1  0.01397000  0.92081000  0.37629000  1.0 -0.5270853781
O  O86  1  0.37629000  0.92081000  0.68893000  1.0 -0.5270853781
O  O87  1  0.68893000  0.37629000  0.92081000  1.0 -0.5270853781
O  O88  1  0.68893000  0.01397000  0.37629000  1.0 -0.5270853781
O  O89  1  0.92081000  0.37629000  0.01397000  1.0 -0.5270853781
O  O90  1  0.37629000  0.68893000  0.01397000  1.0 -0.5270853781
O  O91  1  0.31107000  0.07919000  0.62371000  1.0 -0.5270853781
O  O92  1  0.07919000  0.31107000  0.98603000  1.0 -0.5270853781
O  O93  1  0.62371000  0.07919000  0.98603000  1.0 -0.5270853781
O  O94  1  0.31107000  0.98603000  0.07919000  1.0 -0.5270853781
O  O95  1  0.31107000  0.62371000  0.98603000  1.0 -0.5270853781
O  O96  1  0.98603000  0.07919000  0.31107000  1.0 -0.5270853781
