# DDEC6 charges by PACMAN v1.1 (https://github.com/mtap-research/PACMAN-charge/)
data_VUKRUQ_ASR_pacman
_symmetry_space_group_name_H-M   'P 1'
_cell_length_a   9.47780000
_cell_length_b   11.06570000
_cell_length_c   12.69360000
_cell_angle_alpha   101.54400000
_cell_angle_beta   92.06540000
_cell_angle_gamma   100.59100000
_symmetry_Int_Tables_number   1
_chemical_formula_structural   NiH12C15NO4
_chemical_formula_sum   'Ni2 H24 C30 N2 O8'
_cell_volume   1278.46427941
_cell_formula_units_Z   2
loop_
 _symmetry_equiv_pos_site_id
 _symmetry_equiv_pos_as_xyz
  1  'x, y, z'
loop_
 _atom_site_type_symbol
 _atom_site_label
 _atom_site_symmetry_multiplicity
 _atom_site_fract_x
 _atom_site_fract_y
 _atom_site_fract_z
 _atom_site_occupancy
 _atom_site_charge
Ni  Ni1  1  0.16762000  0.26634000  0.45472000  1.0 0.6157202541
Ni  Ni2  1  0.90480000  0.27367000  0.47709000  1.0 0.5966188728
H  H1  1  0.24731000  0.32445000  0.13339000  1.0 0.1084416068
H  H2  1  0.32876000  0.28590000  0.94832000  1.0 0.0992520029
H  H3  1  0.79504000  0.28629000  0.17470000  1.0 0.0992520029
H  H4  1  0.82540000  0.22791000  0.79666000  1.0 0.1084416068
H  H5  1  0.74303000  0.24300000  0.97901000  1.0 0.0992520029
H  H6  1  0.27664000  0.24580000  0.75412000  1.0 0.1084416068
H  H7  1  0.89144000  0.60419000  0.58449000  1.0 0.089216716
H  H8  1  0.75691000  0.76471000  0.56671000  1.0 0.0789956635
H  H9  1  0.30869000  0.59768000  0.45250000  1.0 0.0992520029
H  H10  1  0.15169000  0.95324000  0.35486000  1.0 0.1084416068
H  H11  1  0.28977000  0.79176000  0.37486000  1.0 0.089216716
H  H12  1  0.73298000  0.95489000  0.48321000  1.0 0.089216716
H  H13  1  0.43175000  0.36886000  0.63328000  1.0 0.0789956635
H  H14  1  0.45701000  0.47402000  0.53559000  1.0 0.0729943235
H  H15  1  0.38063000  0.07214000  0.42730000  1.0 0.060404007
H  H16  1  0.39154000  0.14542000  0.57344000  1.0 0.0789956635
H  H17  1  0.43893000  0.37910000  0.34436000  1.0 0.0789956635
H  H18  1  0.41147000  0.20615000  0.29831000  1.0 0.0789956635
H  H19  1  0.69802000  0.48042000  0.54791000  1.0 0.060404007
H  H20  1  0.67305000  0.37467000  0.64524000  1.0 0.0729943235
H  H21  1  0.63097000  0.15647000  0.58271000  1.0 0.0789956635
H  H22  1  0.61484000  0.08056000  0.43817000  1.0 0.0729943235
H  H23  1  0.64700000  0.21735000  0.30399000  1.0 0.0729943235
H  H24  1  0.67530000  0.38997000  0.35428000  1.0 0.0729943235
C  C1  1  0.47585000  0.38077000  0.55282000  1.0 -0.06875183
C  C2  1  0.43346000  0.15698000  0.49226000  1.0 -0.06875183
C  C3  1  0.46190000  0.28903000  0.36587000  1.0 -0.06875183
C  C4  1  0.05472000  0.33326000  0.28688000  1.0 0.5577421008
C  C5  1  0.02585000  0.30700000  0.16880000  1.0 -0.0431662401
C  C6  1  0.13788000  0.30878000  0.09943000  1.0 -0.1494124295
C  C7  1  0.10805000  0.28107000  0.98662000  1.0 0.0789956635
C  C8  1  0.21885000  0.27357000  0.91693000  1.0 -0.1494124295
C  C9  1  0.88354000  0.28607000  0.12371000  1.0 -0.0968433463
C  C10  1  0.10459000  0.47049000  0.54628000  1.0 0.4929552494
C  C11  1  0.09296000  0.59148000  0.51038000  1.0 0.0017964213
C  C12  1  0.97726000  0.64690000  0.53471000  1.0 -0.1313194663
C  C13  1  0.96685000  0.75185000  0.49904000  1.0 0.0729943235
C  C14  1  0.84413000  0.80617000  0.51735000  1.0 -0.109629207
C  C15  1  0.21003000  0.64331000  0.46055000  1.0 -0.109629207
C  C16  1  0.63982000  0.38541000  0.56091000  1.0 -0.06875183
C  C17  1  0.59511000  0.16591000  0.49853000  1.0 -0.0792485208
C  C18  1  0.62228000  0.29490000  0.37034000  1.0 -0.06875183
C  C19  1  0.02195000  0.20694000  0.64311000  1.0 0.5577421008
C  C20  1  0.04759000  0.23516000  0.76090000  1.0 -0.0431662401
C  C21  1  0.93504000  0.23866000  0.83009000  1.0 -0.1494124295
C  C22  1  0.96457000  0.26022000  0.94254000  1.0 0.0789956635
C  C23  1  0.85347000  0.26307000  0.01186000  1.0 -0.1494124295
C  C24  1  0.18887000  0.25014000  0.80551000  1.0 -0.0931151093
C  C25  1  0.95221000  0.08188000  0.38866000  1.0 0.4804360687
C  C26  1  0.94533000  0.95598000  0.42108000  1.0 0.0064655502
C  C27  1  0.06543000  0.90795000  0.40294000  1.0 -0.1494124295
C  C28  1  0.08061000  0.80479000  0.44328000  1.0 0.0789956635
C  C29  1  0.20049000  0.74998000  0.42246000  1.0 -0.1168128432
C  C30  1  0.83122000  0.90868000  0.47533000  1.0 -0.109629207
N  N1  1  0.39763000  0.27416000  0.46495000  1.0 -0.0968433463
N  N2  1  0.68241000  0.27989000  0.47625000  1.0 -0.0931151093
O  O1  1  0.17891000  0.33750000  0.33319000  1.0 -0.4619188787
O  O2  1  0.94241000  0.32701000  0.34025000  1.0 -0.5021335961
O  O3  1  0.98271000  0.42277000  0.57072000  1.0 -0.3935411156
O  O4  1  0.84994000  0.13530000  0.39358000  1.0 -0.3509390236
O  O5  1  0.89928000  0.20551000  0.59732000  1.0 -0.4489400567
O  O6  1  0.13389000  0.20893000  0.58925000  1.0 -0.4852773131
O  O7  1  0.07654000  0.11792000  0.35972000  1.0 -0.4107735039
O  O8  1  0.20942000  0.40232000  0.54307000  1.0 -0.4107735039
