# DDEC6 charges by PACMAN v1.1 (https://github.com/mtap-research/PACMAN-charge/)
data_VUKROK_ASR_pacman
_symmetry_space_group_name_H-M   'P 1'
_cell_length_a   9.34690000
_cell_length_b   16.49690000
_cell_length_c   20.40510000
_cell_angle_alpha   90.00000000
_cell_angle_beta   94.12210000
_cell_angle_gamma   90.00000000
_symmetry_Int_Tables_number   1
_chemical_formula_structural   NiH12C15NO4
_chemical_formula_sum   'Ni4 H48 C60 N4 O16'
_cell_volume   3138.22260969
_cell_formula_units_Z   4
loop_
 _symmetry_equiv_pos_site_id
 _symmetry_equiv_pos_as_xyz
  1  'x, y, z'
loop_
 _atom_site_type_symbol
 _atom_site_label
 _atom_site_symmetry_multiplicity
 _atom_site_fract_x
 _atom_site_fract_y
 _atom_site_fract_z
 _atom_site_occupancy
 _atom_site_charge
Ni  Ni1  1  0.63725000  0.25000000  0.25177000  1.0 0.6626257795
Ni  Ni2  1  0.36275000  0.75000000  0.74823000  1.0 0.6626257795
Ni  Ni3  1  0.39237000  0.25000000  0.25009000  1.0 0.6211289961
Ni  Ni4  1  0.60763000  0.75000000  0.74991000  1.0 0.6211289961
H  H1  1  0.70853000  0.07594000  0.08322000  1.0 0.1117209408
H  H2  1  0.29147000  0.57594000  0.91678000  1.0 0.1117209408
H  H3  1  0.29147000  0.92406000  0.91678000  1.0 0.1117209408
H  H4  1  0.70853000  0.42406000  0.08322000  1.0 0.1117209408
H  H5  1  0.30069000  0.06846000  0.35440000  1.0 0.1117209408
H  H6  1  0.69931000  0.56846000  0.64560000  1.0 0.1117209408
H  H7  1  0.69931000  0.93154000  0.64560000  1.0 0.1117209408
H  H8  1  0.30069000  0.43154000  0.35440000  1.0 0.1117209408
H  H9  1  0.79095000  0.98845000  0.99286000  1.0 0.1117209408
H  H10  1  0.20905000  0.48845000  0.00714000  1.0 0.1117209408
H  H11  1  0.20905000  0.01155000  0.00714000  1.0 0.1117209408
H  H12  1  0.79095000  0.51155000  0.99286000  1.0 0.1117209408
H  H13  1  0.14422000  0.30293000  0.33828000  1.0 0.0885235313
H  H14  1  0.85578000  0.80293000  0.66172000  1.0 0.0885235313
H  H15  1  0.85578000  0.69707000  0.66172000  1.0 0.0885235313
H  H16  1  0.14422000  0.19707000  0.33828000  1.0 0.0885235313
H  H17  1  0.89492000  0.19660000  0.34104000  1.0 0.0885235313
H  H18  1  0.10508000  0.69660000  0.65896000  1.0 0.0885235313
H  H19  1  0.10508000  0.80340000  0.65896000  1.0 0.0885235313
H  H20  1  0.89492000  0.30340000  0.34104000  1.0 0.0885235313
H  H21  1  0.71232000  0.10317000  0.45697000  1.0 0.1117209408
H  H22  1  0.28768000  0.60317000  0.54303000  1.0 0.1117209408
H  H23  1  0.28768000  0.89683000  0.54303000  1.0 0.1117209408
H  H24  1  0.71232000  0.39683000  0.45697000  1.0 0.1117209408
H  H25  1  0.25600000  0.10046000  0.10130000  1.0 0.1018773738
H  H26  1  0.74400000  0.60046000  0.89870000  1.0 0.1018773738
H  H27  1  0.74400000  0.89954000  0.89870000  1.0 0.1018773738
H  H28  1  0.25600000  0.39954000  0.10130000  1.0 0.1018773738
H  H29  1  0.22909000  0.98140000  0.44335000  1.0 0.1117209408
H  H30  1  0.77091000  0.48140000  0.55665000  1.0 0.1117209408
H  H31  1  0.77091000  0.01860000  0.55665000  1.0 0.1117209408
H  H32  1  0.22909000  0.51860000  0.44335000  1.0 0.1117209408
H  H33  1  0.12470000  0.12142000  0.23459000  1.0 0.0792251542
H  H34  1  0.87530000  0.62142000  0.76541000  1.0 0.0792251542
H  H35  1  0.87530000  0.87858000  0.76541000  1.0 0.0792251542
H  H36  1  0.12470000  0.37858000  0.23459000  1.0 0.0792251542
H  H37  1  0.11061000  0.17498000  0.15982000  1.0 0.0885235313
H  H38  1  0.88939000  0.67498000  0.84018000  1.0 0.0885235313
H  H39  1  0.88939000  0.82502000  0.84018000  1.0 0.0885235313
H  H40  1  0.11061000  0.32502000  0.15982000  1.0 0.0885235313
H  H41  1  0.86328000  0.17680000  0.16082000  1.0 0.0885235313
H  H42  1  0.13672000  0.67680000  0.83918000  1.0 0.0885235313
H  H43  1  0.13672000  0.82320000  0.83918000  1.0 0.0885235313
H  H44  1  0.86328000  0.32320000  0.16082000  1.0 0.0885235313
H  H45  1  0.87236000  0.12145000  0.23456000  1.0 0.0885235313
H  H46  1  0.12764000  0.62145000  0.76544000  1.0 0.0885235313
H  H47  1  0.12764000  0.87855000  0.76544000  1.0 0.0885235313
H  H48  1  0.87236000  0.37855000  0.23456000  1.0 0.0885235313
C  C1  1  0.50369000  0.14783000  0.15819000  1.0 0.5385625261
C  C2  1  0.49631000  0.64783000  0.84181000  1.0 0.5385625261
C  C3  1  0.49631000  0.85217000  0.84181000  1.0 0.5385625261
C  C4  1  0.50369000  0.35217000  0.15819000  1.0 0.5385625261
C  C5  1  0.48581000  0.09762000  0.10037000  1.0 -0.0687202502
C  C6  1  0.51419000  0.59762000  0.89963000  1.0 -0.0687202502
C  C7  1  0.51419000  0.90238000  0.89963000  1.0 -0.0687202502
C  C8  1  0.48581000  0.40238000  0.10037000  1.0 -0.0687202502
C  C9  1  0.59893000  0.06204000  0.06680000  1.0 -0.1415672217
C  C10  1  0.40107000  0.56204000  0.93320000  1.0 -0.1415672217
C  C11  1  0.40107000  0.93796000  0.93320000  1.0 -0.1415672217
C  C12  1  0.59893000  0.43796000  0.06680000  1.0 -0.1415672217
C  C13  1  0.37775000  0.05575000  0.39476000  1.0 -0.0995620888
C  C14  1  0.62225000  0.55575000  0.60524000  1.0 -0.0995620888
C  C15  1  0.62225000  0.94425000  0.60524000  1.0 -0.0995620888
C  C16  1  0.37775000  0.44425000  0.39476000  1.0 -0.0995620888
C  C17  1  0.68183000  0.97445000  0.97776000  1.0 -0.1585713664
C  C18  1  0.31817000  0.47445000  0.02224000  1.0 -0.1585713664
C  C19  1  0.31817000  0.02555000  0.02224000  1.0 -0.1585713664
C  C20  1  0.68183000  0.52555000  0.97776000  1.0 -0.1585713664
C  C21  1  0.57092000  0.00879000  0.01163000  1.0 0.0745923543
C  C22  1  0.42908000  0.50879000  0.98837000  1.0 0.0745923543
C  C23  1  0.42908000  0.99121000  0.98837000  1.0 0.0792251542
C  C24  1  0.57092000  0.49121000  0.01163000  1.0 0.0745923543
C  C25  1  0.52833000  0.15043000  0.34182000  1.0 0.5518926877
C  C26  1  0.47167000  0.65043000  0.65818000  1.0 0.5518926877
C  C27  1  0.47167000  0.84957000  0.65818000  1.0 0.5518926877
C  C28  1  0.52833000  0.34957000  0.34182000  1.0 0.5518926877
C  C29  1  0.51464000  0.09175000  0.39611000  1.0 -0.0400643599
C  C30  1  0.48536000  0.59175000  0.60389000  1.0 -0.0400643599
C  C31  1  0.48536000  0.90825000  0.60389000  1.0 -0.0400643599
C  C32  1  0.51464000  0.40825000  0.39611000  1.0 -0.0400643599
C  C33  1  0.60905000  0.07328000  0.45174000  1.0 -0.1585713664
C  C34  1  0.39095000  0.57328000  0.54826000  1.0 -0.1585713664
C  C35  1  0.39095000  0.92672000  0.54826000  1.0 -0.1585713664
C  C36  1  0.60905000  0.42672000  0.45174000  1.0 -0.1585713664
C  C37  1  0.34568000  0.07689000  0.07688000  1.0 -0.0822100598
C  C38  1  0.65432000  0.57689000  0.92312000  1.0 -0.0822100598
C  C39  1  0.65432000  0.92311000  0.92312000  1.0 -0.0822100598
C  C40  1  0.34568000  0.42311000  0.07688000  1.0 -0.0822100598
C  C41  1  0.33706000  0.00335000  0.44484000  1.0 -0.1585713664
C  C42  1  0.66294000  0.50335000  0.55516000  1.0 -0.1585713664
C  C43  1  0.66294000  0.99665000  0.55516000  1.0 -0.1585713664
C  C44  1  0.33706000  0.49665000  0.44484000  1.0 -0.1585713664
C  C45  1  0.56855000  0.01785000  0.50173000  1.0 0.0792251542
C  C46  1  0.43145000  0.51785000  0.49827000  1.0 0.0792251542
C  C47  1  0.43145000  0.98215000  0.49827000  1.0 0.0792251542
C  C48  1  0.56855000  0.48215000  0.50173000  1.0 0.0792251542
C  C49  1  0.08085000  0.17773000  0.21110000  1.0 -0.0822100598
C  C50  1  0.91915000  0.67773000  0.78890000  1.0 -0.0822100598
C  C51  1  0.91915000  0.82227000  0.78890000  1.0 -0.0822100598
C  C52  1  0.08085000  0.32227000  0.21110000  1.0 -0.0822100598
C  C53  1  0.90965000  0.17814000  0.21210000  1.0 -0.0822100598
C  C54  1  0.09035000  0.67814000  0.78790000  1.0 -0.0822100598
C  C55  1  0.09035000  0.82186000  0.78790000  1.0 -0.0822100598
C  C56  1  0.90965000  0.32186000  0.21210000  1.0 -0.0822100598
C  C57  1  0.09954000  0.25000000  0.31115000  1.0 -0.0898650724
C  C58  1  0.90046000  0.75000000  0.68885000  1.0 -0.0898650724
C  C59  1  0.92841000  0.25000000  0.31301000  1.0 -0.0898650724
C  C60  1  0.07159000  0.75000000  0.68699000  1.0 -0.0898650724
N  N1  1  0.85199000  0.25000000  0.24650000  1.0 -0.0644217346
N  N2  1  0.14801000  0.75000000  0.75350000  1.0 -0.0644217346
N  N3  1  0.15064000  0.25000000  0.24362000  1.0 -0.1118963908
N  N4  1  0.84936000  0.75000000  0.75638000  1.0 -0.1118963908
O  O1  1  0.40871000  0.17296000  0.31153000  1.0 -0.4435242615
O  O2  1  0.59129000  0.67296000  0.68847000  1.0 -0.4454812329
O  O3  1  0.59129000  0.82704000  0.68847000  1.0 -0.4435242615
O  O4  1  0.40871000  0.32704000  0.31153000  1.0 -0.4435242615
O  O5  1  0.62729000  0.16981000  0.18491000  1.0 -0.4690012139
O  O6  1  0.37271000  0.66981000  0.81509000  1.0 -0.4690012139
O  O7  1  0.37271000  0.83019000  0.81509000  1.0 -0.4690012139
O  O8  1  0.62729000  0.33019000  0.18491000  1.0 -0.4690012139
O  O9  1  0.38810000  0.17090000  0.18445000  1.0 -0.4454812329
O  O10  1  0.61190000  0.67090000  0.81555000  1.0 -0.4454812329
O  O11  1  0.61190000  0.82910000  0.81555000  1.0 -0.4454812329
O  O12  1  0.38810000  0.32910000  0.18445000  1.0 -0.4454812329
O  O13  1  0.64922000  0.17510000  0.32059000  1.0 -0.4608549129
O  O14  1  0.35078000  0.67510000  0.67941000  1.0 -0.4608549129
O  O15  1  0.35078000  0.82490000  0.67941000  1.0 -0.4608549129
O  O16  1  0.64922000  0.32490000  0.32059000  1.0 -0.4608549129
