# DDEC6 charges by PACMAN v1.1 (https://github.com/mtap-research/PACMAN-charge/)
data_VUKSAX_FSR_pacman
_symmetry_space_group_name_H-M   'P 1'
_cell_length_a   9.43310000
_cell_length_b   18.73590000
_cell_length_c   18.65690000
_cell_angle_alpha   90.00000000
_cell_angle_beta   94.42430000
_cell_angle_gamma   90.00000000
_symmetry_Int_Tables_number   1
_chemical_formula_structural   NiH12C15NO4
_chemical_formula_sum   'Ni4 H48 C60 N4 O16'
_cell_volume   3287.55030171
_cell_formula_units_Z   4
loop_
 _symmetry_equiv_pos_site_id
 _symmetry_equiv_pos_as_xyz
  1  'x, y, z'
loop_
 _atom_site_type_symbol
 _atom_site_label
 _atom_site_symmetry_multiplicity
 _atom_site_fract_x
 _atom_site_fract_y
 _atom_site_fract_z
 _atom_site_occupancy
 _atom_site_charge
Ni  Ni1  1  0.38128000  0.25000000  0.76245000  1.0 0.7038261532
Ni  Ni2  1  0.61872000  0.75000000  0.23755000  1.0 0.7038261532
Ni  Ni3  1  0.65013000  0.25000000  0.74449000  1.0 0.6944121658
Ni  Ni4  1  0.34987000  0.75000000  0.25551000  1.0 0.6944121658
H  H1  1  0.31644000  0.10361000  0.93642000  1.0 0.1074800245
H  H2  1  0.68356000  0.60361000  0.06358000  1.0 0.1074800245
H  H3  1  0.68356000  0.89639000  0.06358000  1.0 0.1074800245
H  H4  1  0.31644000  0.39639000  0.93642000  1.0 0.1074800245
H  H5  1  0.23235000  0.07283000  0.60682000  1.0 0.1004366237
H  H6  1  0.76765000  0.57283000  0.39318000  1.0 0.1004366237
H  H7  1  0.76765000  0.92717000  0.39318000  1.0 0.1004366237
H  H8  1  0.23235000  0.42717000  0.60682000  1.0 0.1004366237
H  H9  1  0.22375000  0.02589000  0.03204000  1.0 0.1074800245
H  H10  1  0.77625000  0.52589000  0.96796000  1.0 0.1074800245
H  H11  1  0.77625000  0.97411000  0.96796000  1.0 0.1074800245
H  H12  1  0.22375000  0.47411000  0.03204000  1.0 0.1074800245
H  H13  1  0.89232000  0.29726000  0.64977000  1.0 0.0877629359
H  H14  1  0.10768000  0.79726000  0.35023000  1.0 0.0877629359
H  H15  1  0.10768000  0.70274000  0.35023000  1.0 0.0877629359
H  H16  1  0.89232000  0.20274000  0.64977000  1.0 0.0877629359
H  H17  1  0.13948000  0.20273000  0.65036000  1.0 0.1004366237
H  H18  1  0.86052000  0.70273000  0.34964000  1.0 0.1004366237
H  H19  1  0.86052000  0.79727000  0.34964000  1.0 0.1004366237
H  H20  1  0.13948000  0.29727000  0.65036000  1.0 0.1004366237
H  H21  1  0.68466000  0.07921000  0.59445000  1.0 0.1164017706
H  H22  1  0.31534000  0.57921000  0.40555000  1.0 0.1164017706
H  H23  1  0.31534000  0.92079000  0.40555000  1.0 0.1164017706
H  H24  1  0.68466000  0.42079000  0.59445000  1.0 0.1164017706
H  H25  1  0.74948000  0.07476000  0.88391000  1.0 0.1004366237
H  H26  1  0.25052000  0.57476000  0.11609000  1.0 0.1004366237
H  H27  1  0.25052000  0.92524000  0.11609000  1.0 0.1004366237
H  H28  1  0.74948000  0.42524000  0.88391000  1.0 0.1004366237
H  H29  1  0.20921000  0.98921000  0.50586000  1.0 0.1074800245
H  H30  1  0.79079000  0.48921000  0.49414000  1.0 0.1074800245
H  H31  1  0.79079000  0.01079000  0.49414000  1.0 0.1074800245
H  H32  1  0.20921000  0.51079000  0.50586000  1.0 0.1074800245
H  H33  1  0.90767000  0.13682000  0.76562000  1.0 0.0877629359
H  H34  1  0.09233000  0.63682000  0.23438000  1.0 0.0877629359
H  H35  1  0.09233000  0.86318000  0.23438000  1.0 0.0877629359
H  H36  1  0.90767000  0.36318000  0.76562000  1.0 0.0877629359
H  H37  1  0.92151000  0.18492000  0.84785000  1.0 0.0877629359
H  H38  1  0.07849000  0.68492000  0.15215000  1.0 0.0877629359
H  H39  1  0.07849000  0.81508000  0.15215000  1.0 0.0877629359
H  H40  1  0.92151000  0.31508000  0.84785000  1.0 0.0877629359
H  H41  1  0.16621000  0.18568000  0.84939000  1.0 0.1004366237
H  H42  1  0.83379000  0.68568000  0.15061000  1.0 0.1004366237
H  H43  1  0.83379000  0.81432000  0.15061000  1.0 0.1004366237
H  H44  1  0.16621000  0.31432000  0.84939000  1.0 0.1004366237
H  H45  1  0.15990000  0.13721000  0.76778000  1.0 0.1074800245
H  H46  1  0.84010000  0.63721000  0.23222000  1.0 0.1074800245
H  H47  1  0.84010000  0.86279000  0.23222000  1.0 0.1074800245
H  H48  1  0.15990000  0.36279000  0.76778000  1.0 0.1074800245
C  C1  1  0.52206000  0.15029000  0.84650000  1.0 0.5588787733
C  C2  1  0.47794000  0.65029000  0.15350000  1.0 0.5588787733
C  C3  1  0.47794000  0.84971000  0.15350000  1.0 0.5588787733
C  C4  1  0.52206000  0.34971000  0.84650000  1.0 0.5588787733
C  C5  1  0.53106000  0.09838000  0.90244000  1.0 -0.0824078643
C  C6  1  0.46894000  0.59838000  0.09756000  1.0 -0.0824078643
C  C7  1  0.46894000  0.90162000  0.09756000  1.0 -0.0824078643
C  C8  1  0.53106000  0.40162000  0.90244000  1.0 -0.0824078643
C  C9  1  0.41771000  0.07613000  0.94382000  1.0 -0.1318542422
C  C10  1  0.58229000  0.57613000  0.05618000  1.0 -0.1318542422
C  C11  1  0.58229000  0.92387000  0.05618000  1.0 -0.1318542422
C  C12  1  0.41771000  0.42387000  0.94382000  1.0 -0.1318542422
C  C13  1  0.32763000  0.05685000  0.58240000  1.0 -0.1318542422
C  C14  1  0.67237000  0.55685000  0.41760000  1.0 -0.1318542422
C  C15  1  0.67237000  0.94315000  0.41760000  1.0 -0.1318542422
C  C16  1  0.32763000  0.44315000  0.58240000  1.0 -0.1318542422
C  C17  1  0.32399000  0.99761000  0.03719000  1.0 -0.1589423628
C  C18  1  0.67601000  0.49761000  0.96281000  1.0 -0.1589423628
C  C19  1  0.67601000  0.00239000  0.96281000  1.0 -0.1589423628
C  C20  1  0.32399000  0.50239000  0.03719000  1.0 -0.1589423628
C  C21  1  0.43486000  0.01872000  0.99520000  1.0 0.0775393159
C  C22  1  0.56514000  0.51872000  0.00480000  1.0 0.0775393159
C  C23  1  0.56514000  0.98128000  0.00480000  1.0 0.0775393159
C  C24  1  0.43486000  0.48128000  0.99520000  1.0 0.0775393159
C  C25  1  0.48420000  0.14871000  0.66501000  1.0 0.5719885169
C  C26  1  0.51580000  0.64871000  0.33499000  1.0 0.5719885169
C  C27  1  0.51580000  0.85129000  0.33499000  1.0 0.5719885169
C  C28  1  0.48420000  0.35129000  0.66501000  1.0 0.5719885169
C  C29  1  0.46012000  0.08547000  0.60897000  1.0 -0.0063006412
C  C30  1  0.53988000  0.58547000  0.39103000  1.0 -0.0063006412
C  C31  1  0.53988000  0.91453000  0.39103000  1.0 -0.0063006412
C  C32  1  0.46012000  0.41453000  0.60897000  1.0 -0.0063006412
C  C33  1  0.58080000  0.06088000  0.57413000  1.0 -0.1696796925
C  C34  1  0.41920000  0.56088000  0.42587000  1.0 -0.1696796925
C  C35  1  0.41920000  0.93912000  0.42587000  1.0 -0.1696796925
C  C36  1  0.58080000  0.43912000  0.57413000  1.0 -0.1696796925
C  C37  1  0.65994000  0.06015000  0.91378000  1.0 -0.0824078643
C  C38  1  0.34006000  0.56015000  0.08622000  1.0 -0.0824078643
C  C39  1  0.34006000  0.93985000  0.08622000  1.0 -0.0824078643
C  C40  1  0.65994000  0.43985000  0.91378000  1.0 -0.0824078643
C  C41  1  0.31407000  0.00876000  0.52344000  1.0 -0.1458255262
C  C42  1  0.68593000  0.50876000  0.47656000  1.0 -0.1458255262
C  C43  1  0.68593000  0.99124000  0.47656000  1.0 -0.1458255262
C  C44  1  0.31407000  0.49124000  0.52344000  1.0 -0.1458255262
C  C45  1  0.56739000  0.01308000  0.51301000  1.0 0.0775393159
C  C46  1  0.43261000  0.51308000  0.48699000  1.0 0.0775393159
C  C47  1  0.43261000  0.98692000  0.48699000  1.0 0.0775393159
C  C48  1  0.56739000  0.48692000  0.51301000  1.0 0.0775393159
C  C49  1  0.95089000  0.18669000  0.79115000  1.0 -0.072493671
C  C50  1  0.04911000  0.68669000  0.20885000  1.0 -0.072493671
C  C51  1  0.04911000  0.81331000  0.20885000  1.0 -0.072493671
C  C52  1  0.95089000  0.31331000  0.79115000  1.0 -0.072493671
C  C53  1  0.12184000  0.18694000  0.79218000  1.0 -0.0905856104
C  C54  1  0.87816000  0.68694000  0.20782000  1.0 -0.0905856104
C  C55  1  0.87816000  0.81306000  0.20782000  1.0 -0.0905856104
C  C56  1  0.12184000  0.31306000  0.79218000  1.0 -0.0905856104
C  C57  1  0.93511000  0.25000000  0.68023000  1.0 -0.0824078643
C  C58  1  0.06489000  0.75000000  0.31977000  1.0 -0.0824078643
C  C59  1  0.10580000  0.25000000  0.68080000  1.0 -0.0824078643
C  C60  1  0.89420000  0.75000000  0.31920000  1.0 -0.0824078643
N  N1  1  0.18054000  0.25000000  0.75497000  1.0 -0.0414181412
N  N2  1  0.81946000  0.75000000  0.24503000  1.0 -0.0414181412
N  N3  1  0.88150000  0.25000000  0.75383000  1.0 -0.1458255262
N  N4  1  0.11850000  0.75000000  0.24617000  1.0 -0.1458255262
O  O1  1  0.60815000  0.17891000  0.67778000  1.0 -0.484484768
O  O2  1  0.39185000  0.67891000  0.32222000  1.0 -0.484484768
O  O3  1  0.39185000  0.82109000  0.32222000  1.0 -0.484484768
O  O4  1  0.60815000  0.32109000  0.67778000  1.0 -0.484484768
O  O5  1  0.39579000  0.17423000  0.82692000  1.0 -0.468793428
O  O6  1  0.60421000  0.67423000  0.17308000  1.0 -0.468793428
O  O7  1  0.60421000  0.82577000  0.17308000  1.0 -0.468793428
O  O8  1  0.39579000  0.32577000  0.82692000  1.0 -0.468793428
O  O9  1  0.63121000  0.17502000  0.81575000  1.0 -0.5007890523
O  O10  1  0.36879000  0.67502000  0.18425000  1.0 -0.5007890523
O  O11  1  0.36879000  0.82498000  0.18425000  1.0 -0.5007890523
O  O12  1  0.63121000  0.32498000  0.81575000  1.0 -0.5007890523
O  O13  1  0.37511000  0.17346000  0.69636000  1.0 -0.4939735891
O  O14  1  0.62489000  0.67346000  0.30364000  1.0 -0.4939735891
O  O15  1  0.62489000  0.82654000  0.30364000  1.0 -0.4939735891
O  O16  1  0.37511000  0.32654000  0.69636000  1.0 -0.4939735891
