# DDEC6 charges by PACMAN v1.1 (https://github.com/mtap-research/PACMAN-charge/)
data_VUKYOR_FSR_pacman
_symmetry_space_group_name_H-M   'P 1'
_cell_length_a   18.48250000
_cell_length_b   18.48250000
_cell_length_c   33.78700000
_cell_angle_alpha   76.30140000
_cell_angle_beta   103.69900000
_cell_angle_gamma   133.50700000
_symmetry_Int_Tables_number   1
_chemical_formula_structural   Zn6H24C36Br13N12
_chemical_formula_sum   'Zn24 H96 C144 Br52 N48'
_cell_volume   8088.27802839
_cell_formula_units_Z   4
loop_
 _symmetry_equiv_pos_site_id
 _symmetry_equiv_pos_as_xyz
  1  'x, y, z'
loop_
 _atom_site_type_symbol
 _atom_site_label
 _atom_site_symmetry_multiplicity
 _atom_site_fract_x
 _atom_site_fract_y
 _atom_site_fract_z
 _atom_site_occupancy
 _atom_site_charge
Zn  Zn1  1  0.71542000  0.93708000  0.69126000  1.0 0.3395468915
Zn  Zn2  1  0.28200000  0.89480000  0.54160000  1.0 0.2229981332
Zn  Zn3  1  0.92970000  0.15224000  0.18888000  1.0 0.5231319874
Zn  Zn4  1  0.43582000  0.19244000  0.33664000  1.0 0.2255138665
Zn  Zn5  1  0.97054000  0.59626000  0.03260000  1.0 -0.0268457717
Zn  Zn6  1  0.65810000  0.44710000  0.83600000  1.0 0.4171565384
Zn  Zn7  1  0.29010000  0.88390000  0.55080000  1.0 0.1887116193
Zn  Zn8  1  0.26460000  0.90400000  0.52820000  1.0 -0.0503801558
Zn  Zn9  1  0.41830000  0.20770000  0.33830000  1.0 0.2062225848
Zn  Zn10  1  0.99280000  0.58440000  0.05610000  1.0 0.2977995932
Zn  Zn11  1  0.98450000  0.58890000  0.04580000  1.0 0.2977995932
Zn  Zn12  1  0.67470000  0.45130000  0.83780000  1.0 0.3702086269
Zn  Zn13  1  0.93708000  0.71542000  0.30874000  1.0 0.3395468915
Zn  Zn14  1  0.89480000  0.28200000  0.45840000  1.0 0.2229981332
Zn  Zn15  1  0.15224000  0.92970000  0.81112000  1.0 0.5231319874
Zn  Zn16  1  0.19244000  0.43582000  0.66336000  1.0 0.2255138665
Zn  Zn17  1  0.59626000  0.97054000  0.96740000  1.0 -0.0268457717
Zn  Zn18  1  0.44710000  0.65810000  0.16400000  1.0 0.4171565384
Zn  Zn19  1  0.88390000  0.29010000  0.44920000  1.0 0.1887116193
Zn  Zn20  1  0.90400000  0.26460000  0.47180000  1.0 -0.0503801558
Zn  Zn21  1  0.20770000  0.41830000  0.66170000  1.0 0.2062225848
Zn  Zn22  1  0.58440000  0.99280000  0.94390000  1.0 0.2977995932
Zn  Zn23  1  0.58890000  0.98450000  0.95420000  1.0 0.2977995932
Zn  Zn24  1  0.45130000  0.67470000  0.16220000  1.0 0.3702086269
H  H1  1  0.80240000  0.88820000  0.65060000  1.0 0.0779002093
H  H2  1  0.95400000  0.93520000  0.64640000  1.0 0.1286282896
H  H3  1  0.07040000  0.10100000  0.74130000  1.0 0.1198513818
H  H4  1  0.91390000  0.04410000  0.74420000  1.0 0.0779002093
H  H5  1  0.37230000  0.97970000  0.62210000  1.0 0.059227001
H  H6  1  0.35950000  0.04970000  0.66320000  1.0 0.1198513818
H  H7  1  0.12560000  0.99180000  0.59090000  1.0 0.1104593918
H  H8  1  0.14740000  0.93720000  0.54370000  1.0 0.0906287789
H  H9  1  0.46740000  0.39460000  0.79960000  1.0 0.0779002093
H  H10  1  0.32840000  0.28720000  0.75510000  1.0 0.1286282896
H  H11  1  0.45820000  0.18540000  0.73980000  1.0 0.1286282896
H  H12  1  0.59270000  0.29730000  0.78540000  1.0 0.0710553621
H  H13  1  0.17300000  0.69560000  0.59460000  1.0 0.0779002093
H  H14  1  0.03100000  0.52900000  0.59390000  1.0 0.1104593918
H  H15  1  0.94200000  0.60520000  0.48200000  1.0 0.1286282896
H  H16  1  0.09770000  0.76570000  0.48540000  1.0 0.0710553621
H  H17  1  0.60770000  0.96150000  0.61540000  1.0 0.059227001
H  H18  1  0.91280000  0.26440000  0.11200000  1.0 0.0779002093
H  H19  1  0.62580000  0.08420000  0.56720000  1.0 0.1104593918
H  H20  1  0.90800000  0.28720000  0.62000000  1.0 0.098812807
H  H21  1  0.87820000  0.15980000  0.66750000  1.0 0.0779002093
H  H22  1  0.63270000  0.38270000  0.37080000  1.0 0.0710553621
H  H23  1  0.73830000  0.43510000  0.43000000  1.0 0.1104593918
H  H24  1  0.54770000  0.15090000  0.48300000  1.0 0.1198513818
H  H25  1  0.43770000  0.10750000  0.42230000  1.0 0.0710553621
H  H26  1  0.47360000  0.38480000  0.29880000  1.0 0.0779002093
H  H27  1  0.57390000  0.52310000  0.25190000  1.0 0.1198513818
H  H28  1  0.68750000  0.41110000  0.23510000  1.0 0.1286282896
H  H29  1  0.59260000  0.27840000  0.28460000  1.0 0.0779002093
H  H30  1  0.99230000  0.07090000  0.15630000  1.0 0.098812807
H  H31  1  0.94610000  0.91830000  0.15500000  1.0 0.1286282896
H  H32  1  0.74250000  0.78670000  0.23350000  1.0 0.1198513818
H  H33  1  0.79790000  0.94430000  0.23390000  1.0 0.098812807
H  H34  1  0.88570000  0.49590000  0.11330000  1.0 0.0501342052
H  H35  1  0.83160000  0.51560000  0.16320000  1.0 0.1286282896
H  H36  1  0.91450000  0.76730000  0.09780000  1.0 0.1198513818
H  H37  1  0.95380000  0.73080000  0.04850000  1.0 0.098812807
H  H38  1  0.10140000  0.78620000  0.98250000  1.0 0.0779002093
H  H39  1  0.26860000  0.93820000  0.98170000  1.0 0.1286282896
H  H40  1  0.34040000  0.84080000  0.08840000  1.0 0.1198513818
H  H41  1  0.17300000  0.68820000  0.08830000  1.0 0.059227001
H  H42  1  0.75580000  0.43540000  0.91970000  1.0 0.0710553621
H  H43  1  0.71850000  0.33270000  0.97990000  1.0 0.1198513818
H  H44  1  0.43380000  0.12940000  0.92730000  1.0 0.1104593918
H  H45  1  0.48140000  0.24420000  0.86820000  1.0 0.0906287789
H  H46  1  0.70610000  0.99670000  0.16900000  1.0 0.0779002093
H  H47  1  0.58140000  0.96900000  0.12030000  1.0 0.098812807
H  H48  1  0.79130000  0.24570000  0.06350000  1.0 0.098812807
H  H49  1  0.88820000  0.80240000  0.34940000  1.0 0.0779002093
H  H50  1  0.93520000  0.95400000  0.35360000  1.0 0.1286282896
H  H51  1  0.10100000  0.07040000  0.25870000  1.0 0.1198513818
H  H52  1  0.04410000  0.91390000  0.25580000  1.0 0.0779002093
H  H53  1  0.97970000  0.37230000  0.37790000  1.0 0.059227001
H  H54  1  0.04970000  0.35950000  0.33680000  1.0 0.1198513818
H  H55  1  0.99180000  0.12560000  0.40910000  1.0 0.1104593918
H  H56  1  0.93720000  0.14740000  0.45630000  1.0 0.0906287789
H  H57  1  0.39460000  0.46740000  0.20040000  1.0 0.0779002093
H  H58  1  0.28720000  0.32840000  0.24490000  1.0 0.1286282896
H  H59  1  0.18540000  0.45820000  0.26020000  1.0 0.1286282896
H  H60  1  0.29730000  0.59270000  0.21460000  1.0 0.0710553621
H  H61  1  0.69560000  0.17300000  0.40540000  1.0 0.0779002093
H  H62  1  0.52900000  0.03100000  0.40610000  1.0 0.1104593918
H  H63  1  0.60520000  0.94200000  0.51800000  1.0 0.1286282896
H  H64  1  0.76570000  0.09770000  0.51460000  1.0 0.0710553621
H  H65  1  0.96150000  0.60770000  0.38460000  1.0 0.059227001
H  H66  1  0.26440000  0.91280000  0.88800000  1.0 0.0779002093
H  H67  1  0.08420000  0.62580000  0.43280000  1.0 0.1104593918
H  H68  1  0.28720000  0.90800000  0.38000000  1.0 0.098812807
H  H69  1  0.15980000  0.87820000  0.33250000  1.0 0.0779002093
H  H70  1  0.38270000  0.63270000  0.62920000  1.0 0.0710553621
H  H71  1  0.43510000  0.73830000  0.57000000  1.0 0.1104593918
H  H72  1  0.15090000  0.54770000  0.51700000  1.0 0.1198513818
H  H73  1  0.10750000  0.43770000  0.57770000  1.0 0.0710553621
H  H74  1  0.38480000  0.47360000  0.70120000  1.0 0.0779002093
H  H75  1  0.52310000  0.57390000  0.74810000  1.0 0.1198513818
H  H76  1  0.41110000  0.68750000  0.76490000  1.0 0.1286282896
H  H77  1  0.27840000  0.59260000  0.71540000  1.0 0.0779002093
H  H78  1  0.07090000  0.99230000  0.84370000  1.0 0.098812807
H  H79  1  0.91830000  0.94610000  0.84500000  1.0 0.1286282896
H  H80  1  0.78670000  0.74250000  0.76650000  1.0 0.1198513818
H  H81  1  0.94430000  0.79790000  0.76610000  1.0 0.098812807
H  H82  1  0.49590000  0.88570000  0.88670000  1.0 0.0501342052
H  H83  1  0.51560000  0.83160000  0.83680000  1.0 0.1286282896
H  H84  1  0.76730000  0.91450000  0.90220000  1.0 0.1198513818
H  H85  1  0.73080000  0.95380000  0.95150000  1.0 0.0906287789
H  H86  1  0.78620000  0.10140000  0.01750000  1.0 0.0779002093
H  H87  1  0.93820000  0.26860000  0.01830000  1.0 0.1286282896
H  H88  1  0.84080000  0.34040000  0.91160000  1.0 0.1198513818
H  H89  1  0.68820000  0.17300000  0.91170000  1.0 0.059227001
H  H90  1  0.43540000  0.75580000  0.08030000  1.0 0.0710553621
H  H91  1  0.33270000  0.71850000  0.02010000  1.0 0.1198513818
H  H92  1  0.12940000  0.43380000  0.07270000  1.0 0.1104593918
H  H93  1  0.24420000  0.48140000  0.13180000  1.0 0.0906287789
H  H94  1  0.99670000  0.70610000  0.83100000  1.0 0.0779002093
H  H95  1  0.96900000  0.58140000  0.87970000  1.0 0.098812807
H  H96  1  0.24570000  0.79130000  0.93650000  1.0 0.098812807
C  C1  1  0.85860000  0.93320000  0.66890000  1.0 0.0710553621
C  C2  1  0.94860000  0.96120000  0.66550000  1.0 -0.1603640222
C  C3  1  0.03010000  0.02950000  0.69160000  1.0 0.0501342052
C  C4  1  0.01590000  0.05830000  0.72200000  1.0 -0.1603640222
C  C5  1  0.92330000  0.02490000  0.72360000  1.0 0.0086652635
C  C6  1  0.32160000  0.98300000  0.61510000  1.0 -0.0027646246
C  C7  1  0.31180000  0.02100000  0.63990000  1.0 -0.1499219838
C  C8  1  0.23690000  0.02030000  0.63330000  1.0 0.0415454874
C  C9  1  0.17670000  0.98930000  0.59700000  1.0 -0.1499219838
C  C10  1  0.18820000  0.95580000  0.56920000  1.0 0.0171308921
C  C11  1  0.46440000  0.35180000  0.78690000  1.0 -0.0027646246
C  C12  1  0.38240000  0.28880000  0.76050000  1.0 -0.1389111132
C  C13  1  0.37900000  0.22640000  0.74150000  1.0 0.0710553621
C  C14  1  0.45880000  0.22800000  0.75130000  1.0 -0.1499219838
C  C15  1  0.53840000  0.29520000  0.77870000  1.0 0.0779002093
C  C16  1  0.12830000  0.06290000  0.68990000  1.0 0.3272565896
C  C17  1  0.22470000  0.06130000  0.66190000  1.0 0.362606278
C  C18  1  0.29200000  0.15640000  0.71370000  1.0 0.3395468915
C  C19  1  0.12540000  0.67500000  0.57110000  1.0 0.0025100912
C  C20  1  0.04140000  0.57680000  0.57160000  1.0 -0.1603640222
C  C21  1  0.97020000  0.54920000  0.53700000  1.0 0.059227001
C  C22  1  0.98980000  0.62120000  0.50520000  1.0 -0.1603640222
C  C23  1  0.08130000  0.71690000  0.50820000  1.0 -0.0083436528
C  C24  1  0.66960000  0.02900000  0.61660000  1.0 0.0318214119
C  C25  1  0.84470000  0.20390000  0.11340000  1.0 0.0501342052
C  C26  1  0.67960000  0.10100000  0.58740000  1.0 -0.1603640222
C  C27  1  0.76970000  0.19730000  0.58860000  1.0 0.0501342052
C  C28  1  0.84510000  0.22050000  0.61860000  1.0 -0.1700476068
C  C29  1  0.82620000  0.14380000  0.64640000  1.0 0.0318214119
C  C30  1  0.61340000  0.33520000  0.39440000  1.0 0.0415454874
C  C31  1  0.67830000  0.36670000  0.42890000  1.0 -0.1791886231
C  C32  1  0.65540000  0.29640000  0.46290000  1.0 0.0415454874
C  C33  1  0.56590000  0.20030000  0.46030000  1.0 -0.1389111132
C  C34  1  0.50030000  0.17450000  0.42390000  1.0 -0.0392828781
C  C35  1  0.87390000  0.44070000  0.53450000  1.0 0.3395468915
C  C36  1  0.78400000  0.27660000  0.55760000  1.0 0.3272565896
C  C37  1  0.73020000  0.32480000  0.49940000  1.0 0.3272565896
C  C38  1  0.51790000  0.39030000  0.28600000  1.0 0.0086652635
C  C39  1  0.57830000  0.47330000  0.25850000  1.0 -0.1700476068
C  C40  1  0.64470000  0.48270000  0.24080000  1.0 0.059227001
C  C41  1  0.64610000  0.40790000  0.24890000  1.0 -0.1603640222
C  C42  1  0.58670000  0.32730000  0.27740000  1.0 0.0415454874
C  C43  1  0.94050000  0.01270000  0.17180000  1.0 0.0906287789
C  C44  1  0.91270000  0.92130000  0.17120000  1.0 -0.1791886231
C  C45  1  0.83930000  0.83630000  0.19300000  1.0 0.059227001
C  C46  1  0.79370000  0.84350000  0.21730000  1.0 -0.1876724378
C  C47  1  0.82650000  0.93730000  0.21670000  1.0 0.0501342052
C  C48  1  0.88970000  0.55110000  0.10950000  1.0 0.0501342052
C  C49  1  0.85360000  0.56040000  0.13880000  1.0 -0.1499219838
C  C50  1  0.85050000  0.63310000  0.13200000  1.0 0.0318214119
C  C51  1  0.90040000  0.70640000  0.10070000  1.0 -0.1389111132
C  C52  1  0.93000000  0.68700000  0.07300000  1.0 0.0501342052
C  C53  1  0.71590000  0.57290000  0.21220000  1.0 0.3395468915
C  C54  1  0.80450000  0.73590000  0.19000000  1.0 0.3233176976
C  C55  1  0.80900000  0.64220000  0.16130000  1.0 0.3395468915
C  C56  1  0.15040000  0.79740000  0.00430000  1.0 0.0086652635
C  C57  1  0.25060000  0.88780000  0.00390000  1.0 -0.1389111132
C  C58  1  0.32260000  0.90560000  0.03410000  1.0 0.0415454874
C  C59  1  0.29260000  0.83060000  0.06620000  1.0 -0.1389111132
C  C60  1  0.19260000  0.74000000  0.06660000  1.0 -0.0587527432
C  C61  1  0.68930000  0.37210000  0.92130000  1.0 -0.0186174486
C  C62  1  0.66850000  0.31150000  0.95730000  1.0 -0.1499219838
C  C63  1  0.57270000  0.21870000  0.95990000  1.0 0.059227001
C  C64  1  0.50080000  0.19220000  0.92630000  1.0 -0.1499219838
C  C65  1  0.53010000  0.26110000  0.89110000  1.0 0.0501342052
C  C66  1  0.72330000  0.04630000  0.14650000  1.0 0.059227001
C  C67  1  0.64870000  0.03050000  0.11800000  1.0 -0.1791886231
C  C68  1  0.66970000  0.10250000  0.08580000  1.0 0.0501342052
C  C69  1  0.77270000  0.19290000  0.08450000  1.0 -0.1700476068
C  C70  1  0.42860000  0.99960000  0.03170000  1.0 0.3395468915
C  C71  1  0.54670000  0.14630000  0.99660000  1.0 0.3233176976
C  C72  1  0.59210000  0.09150000  0.05490000  1.0 0.3272565896
C  C73  1  0.93320000  0.85860000  0.33110000  1.0 0.0710553621
C  C74  1  0.96120000  0.94860000  0.33450000  1.0 -0.1603640222
C  C75  1  0.02950000  0.03010000  0.30840000  1.0 0.0501342052
C  C76  1  0.05830000  0.01590000  0.27800000  1.0 -0.1603640222
C  C77  1  0.02490000  0.92330000  0.27640000  1.0 0.0086652635
C  C78  1  0.98300000  0.32160000  0.38490000  1.0 -0.0027646246
C  C79  1  0.02100000  0.31180000  0.36010000  1.0 -0.1499219838
C  C80  1  0.02030000  0.23690000  0.36670000  1.0 0.0501342052
C  C81  1  0.98930000  0.17670000  0.40300000  1.0 -0.1499219838
C  C82  1  0.95580000  0.18820000  0.43080000  1.0 0.0171308921
C  C83  1  0.35180000  0.46440000  0.21310000  1.0 -0.0027646246
C  C84  1  0.28880000  0.38240000  0.23950000  1.0 -0.1389111132
C  C85  1  0.22640000  0.37900000  0.25850000  1.0 0.0710553621
C  C86  1  0.22800000  0.45880000  0.24870000  1.0 -0.1499219838
C  C87  1  0.29520000  0.53840000  0.22130000  1.0 0.0779002093
C  C88  1  0.06290000  0.12830000  0.31010000  1.0 0.3233176976
C  C89  1  0.06130000  0.22470000  0.33810000  1.0 0.362606278
C  C90  1  0.15640000  0.29200000  0.28630000  1.0 0.3395468915
C  C91  1  0.67500000  0.12540000  0.42890000  1.0 0.0086652635
C  C92  1  0.57680000  0.04140000  0.42840000  1.0 -0.1603640222
C  C93  1  0.54920000  0.97020000  0.46300000  1.0 0.059227001
C  C94  1  0.62120000  0.98980000  0.49480000  1.0 -0.1603640222
C  C95  1  0.71690000  0.08130000  0.49180000  1.0 -0.0027646246
C  C96  1  0.02900000  0.66960000  0.38340000  1.0 0.0318214119
C  C97  1  0.20390000  0.84470000  0.88660000  1.0 0.0501342052
C  C98  1  0.10100000  0.67960000  0.41260000  1.0 -0.1603640222
C  C99  1  0.19730000  0.76970000  0.41140000  1.0 0.0501342052
C  C100  1  0.22050000  0.84510000  0.38140000  1.0 -0.1700476068
C  C101  1  0.14380000  0.82620000  0.35360000  1.0 0.0318214119
C  C102  1  0.33520000  0.61340000  0.60560000  1.0 0.0415454874
C  C103  1  0.36670000  0.67830000  0.57110000  1.0 -0.1791886231
C  C104  1  0.29640000  0.65540000  0.53710000  1.0 0.0415454874
C  C105  1  0.20030000  0.56590000  0.53970000  1.0 -0.1389111132
C  C106  1  0.17450000  0.50030000  0.57610000  1.0 -0.0392828781
C  C107  1  0.44070000  0.87390000  0.46550000  1.0 0.3395468915
C  C108  1  0.27660000  0.78400000  0.44240000  1.0 0.3395468915
C  C109  1  0.32480000  0.73020000  0.50060000  1.0 0.3272565896
C  C110  1  0.39030000  0.51790000  0.71400000  1.0 0.0086652635
C  C111  1  0.47330000  0.57830000  0.74150000  1.0 -0.1700476068
C  C112  1  0.48270000  0.64470000  0.75920000  1.0 0.059227001
C  C113  1  0.40790000  0.64610000  0.75110000  1.0 -0.1603640222
C  C114  1  0.32730000  0.58670000  0.72260000  1.0 0.0415454874
C  C115  1  0.01270000  0.94050000  0.82820000  1.0 0.0906287789
C  C116  1  0.92130000  0.91270000  0.82880000  1.0 -0.1791886231
C  C117  1  0.83630000  0.83930000  0.80700000  1.0 0.059227001
C  C118  1  0.84350000  0.79370000  0.78270000  1.0 -0.1876724378
C  C119  1  0.93730000  0.82650000  0.78330000  1.0 0.0501342052
C  C120  1  0.55110000  0.88970000  0.89050000  1.0 0.0501342052
C  C121  1  0.56040000  0.85360000  0.86120000  1.0 -0.1499219838
C  C122  1  0.63310000  0.85050000  0.86800000  1.0 0.0318214119
C  C123  1  0.70640000  0.90040000  0.89930000  1.0 -0.1389111132
C  C124  1  0.68700000  0.93000000  0.92700000  1.0 0.0501342052
C  C125  1  0.57290000  0.71590000  0.78780000  1.0 0.3395468915
C  C126  1  0.73590000  0.80450000  0.81000000  1.0 0.3233176976
C  C127  1  0.64220000  0.80900000  0.83870000  1.0 0.3395468915
C  C128  1  0.79740000  0.15040000  0.99570000  1.0 0.0086652635
C  C129  1  0.88780000  0.25060000  0.99610000  1.0 -0.1389111132
C  C130  1  0.90560000  0.32260000  0.96590000  1.0 0.0415454874
C  C131  1  0.83060000  0.29260000  0.93380000  1.0 -0.1389111132
C  C132  1  0.74000000  0.19260000  0.93340000  1.0 -0.0503801558
C  C133  1  0.37210000  0.68930000  0.07870000  1.0 -0.0186174486
C  C134  1  0.31150000  0.66850000  0.04270000  1.0 -0.1499219838
C  C135  1  0.21870000  0.57270000  0.04010000  1.0 0.059227001
C  C136  1  0.19220000  0.50080000  0.07370000  1.0 -0.1499219838
C  C137  1  0.26110000  0.53010000  0.10890000  1.0 0.0501342052
C  C138  1  0.04630000  0.72330000  0.85350000  1.0 0.059227001
C  C139  1  0.03050000  0.64870000  0.88200000  1.0 -0.1791886231
C  C140  1  0.10250000  0.66970000  0.91420000  1.0 0.0501342052
C  C141  1  0.19290000  0.77270000  0.91550000  1.0 -0.1700476068
C  C142  1  0.99960000  0.42860000  0.96830000  1.0 0.3395468915
C  C143  1  0.14630000  0.54670000  0.00340000  1.0 0.3272565896
C  C144  1  0.09150000  0.59210000  0.94510000  1.0 0.3272565896
Br  Br1  1  0.72524000  0.98576000  0.75224000  1.0 0.1104593918
Br  Br2  1  0.58467000  0.78533000  0.66260000  1.0 -0.0913657003
Br  Br3  1  0.41200000  0.90000000  0.57390000  1.0 -0.0268457717
Br  Br4  1  0.28460000  0.96980000  0.47510000  1.0 -0.072892673
Br  Br5  1  0.08208000  0.27674000  0.15920000  1.0 -0.497625509
Br  Br6  1  0.89238000  0.15796000  0.24886000  1.0 -0.4821579844
Br  Br7  1  0.43585000  0.07125000  0.32522000  1.0 0.059227001
Br  Br8  1  0.28997000  0.15971000  0.33795000  1.0 -0.1026121692
Br  Br9  1  0.95922000  0.45958000  0.05910000  1.0 -0.0796345689
Br  Br10  1  0.89570000  0.60350000  0.96745000  1.0 -0.0587527432
Br  Br11  1  0.80290000  0.49730000  0.81410000  1.0 -0.0186174486
Br  Br12  1  0.65720000  0.56460000  0.84990000  1.0 0.0415454874
Br  Br13  1  0.69010000  0.95790000  0.74850000  1.0 0.059227001
Br  Br14  1  0.59270000  0.79430000  0.65380000  1.0 -0.0913657003
Br  Br15  1  0.40160000  0.86900000  0.59320000  1.0 0.0318214119
Br  Br16  1  0.31700000  0.96260000  0.48490000  1.0 -0.0913657003
Br  Br17  1  0.41010000  0.92930000  0.54980000  1.0 -0.1026121692
Br  Br18  1  0.25080000  0.97700000  0.46380000  1.0 -0.0027646246
Br  Br19  1  0.38170000  0.07110000  0.31530000  1.0 -0.0083436528
Br  Br20  1  0.31170000  0.22830000  0.35120000  1.0 0.0086652635
Br  Br21  1  0.99840000  0.47520000  0.10530000  1.0 -0.0186174486
Br  Br22  1  0.90830000  0.54570000  0.99000000  1.0 -0.1026121692
Br  Br23  1  0.98650000  0.46550000  0.08210000  1.0 -0.0392828781
Br  Br24  1  0.90740000  0.57160000  0.97950000  1.0 -0.0796345689
Br  Br25  1  0.79750000  0.46210000  0.82280000  1.0 0.0025100912
Br  Br26  1  0.66550000  0.57050000  0.83790000  1.0 0.0171308921
Br  Br27  1  0.98576000  0.72524000  0.24776000  1.0 0.098812807
Br  Br28  1  0.78533000  0.58467000  0.33740000  1.0 -0.0913657003
Br  Br29  1  0.90000000  0.41200000  0.42610000  1.0 -0.0268457717
Br  Br30  1  0.96980000  0.28460000  0.52490000  1.0 -0.072892673
Br  Br31  1  0.27674000  0.08208000  0.84080000  1.0 -0.497625509
Br  Br32  1  0.15796000  0.89238000  0.75114000  1.0 -0.4821579844
Br  Br33  1  0.07125000  0.43585000  0.67478000  1.0 0.0710553621
Br  Br34  1  0.15971000  0.28997000  0.66205000  1.0 -0.1026121692
Br  Br35  1  0.45958000  0.95922000  0.94090000  1.0 -0.0796345689
Br  Br36  1  0.60350000  0.89570000  0.03255000  1.0 -0.0587527432
Br  Br37  1  0.49730000  0.80290000  0.18590000  1.0 -0.0186174486
Br  Br38  1  0.56460000  0.65720000  0.15010000  1.0 0.0415454874
Br  Br39  1  0.95790000  0.69010000  0.25150000  1.0 0.0501342052
Br  Br40  1  0.79430000  0.59270000  0.34620000  1.0 -0.0796345689
Br  Br41  1  0.86900000  0.40160000  0.40680000  1.0 0.0318214119
Br  Br42  1  0.96260000  0.31700000  0.51510000  1.0 -0.0913657003
Br  Br43  1  0.92930000  0.41010000  0.45020000  1.0 -0.0913657003
Br  Br44  1  0.97700000  0.25080000  0.53620000  1.0 -0.0027646246
Br  Br45  1  0.07110000  0.38170000  0.68470000  1.0 -0.0083436528
Br  Br46  1  0.22830000  0.31170000  0.64880000  1.0 0.0025100912
Br  Br47  1  0.47520000  0.99840000  0.89470000  1.0 -0.0186174486
Br  Br48  1  0.54570000  0.90830000  0.01000000  1.0 -0.1026121692
Br  Br49  1  0.46550000  0.98650000  0.91790000  1.0 -0.0392828781
Br  Br50  1  0.57160000  0.90740000  0.02050000  1.0 -0.0796345689
Br  Br51  1  0.46210000  0.79750000  0.17720000  1.0 0.0025100912
Br  Br52  1  0.57050000  0.66550000  0.16210000  1.0 0.0171308921
N  N1  1  0.84400000  0.96360000  0.69540000  1.0 -0.2195551485
N  N2  1  0.26050000  0.94870000  0.57970000  1.0 -0.1700476068
N  N3  1  0.54370000  0.35430000  0.79530000  1.0 -0.2370593787
N  N4  1  0.13570000  0.03190000  0.66050000  1.0 -0.4012984723
N  N5  1  0.30690000  0.12430000  0.68680000  1.0 -0.4012984723
N  N6  1  0.20420000  0.12740000  0.71700000  1.0 -0.4232477735
N  N7  1  0.14720000  0.74540000  0.54050000  1.0 -0.1990534068
N  N8  1  0.74040000  0.04780000  0.64630000  1.0 -0.2098275215
N  N9  1  0.52550000  0.24370000  0.39110000  1.0 -0.1791886231
N  N10  1  0.86790000  0.37270000  0.56310000  1.0 -0.4232477735
N  N11  1  0.71290000  0.24990000  0.52510000  1.0 -0.4092450232
N  N12  1  0.80930000  0.42250000  0.50250000  1.0 -0.4232477735
N  N13  1  0.52110000  0.31610000  0.29510000  1.0 -0.1990534068
N  N14  1  0.89620000  0.01880000  0.19350000  1.0 -0.2098275215
N  N15  1  0.92650000  0.61390000  0.07890000  1.0 -0.1700476068
N  N16  1  0.74060000  0.65860000  0.21680000  1.0 -0.4925836266
N  N17  1  0.83900000  0.73180000  0.16160000  1.0 -0.4092450232
N  N18  1  0.74750000  0.56090000  0.18590000  1.0 -0.4092450232
N  N19  1  0.12480000  0.72720000  0.03600000  1.0 -0.2098275215
N  N20  1  0.62390000  0.34970000  0.88850000  1.0 -0.2370593787
N  N21  1  0.82060000  0.13020000  0.14380000  1.0 -0.1876724378
N  N22  1  0.44840000  0.06680000  0.99900000  1.0 -0.4294567397
N  N23  1  0.62190000  0.16130000  0.02390000  1.0 -0.4232477735
N  N24  1  0.49680000  0.00780000  0.06090000  1.0 -0.4388796777
N  N25  1  0.96360000  0.84400000  0.30460000  1.0 -0.2195551485
N  N26  1  0.94870000  0.26050000  0.42030000  1.0 -0.1700476068
N  N27  1  0.35430000  0.54370000  0.20470000  1.0 -0.2370593787
N  N28  1  0.03190000  0.13570000  0.33950000  1.0 -0.4012984723
N  N29  1  0.12430000  0.30690000  0.31320000  1.0 -0.4012984723
N  N30  1  0.12740000  0.20420000  0.28300000  1.0 -0.4294567397
N  N31  1  0.74540000  0.14720000  0.45950000  1.0 -0.1990534068
N  N32  1  0.04780000  0.74040000  0.35370000  1.0 -0.1990534068
N  N33  1  0.24370000  0.52550000  0.60890000  1.0 -0.1791886231
N  N34  1  0.37270000  0.86790000  0.43690000  1.0 -0.4294567397
N  N35  1  0.24990000  0.71290000  0.47490000  1.0 -0.4092450232
N  N36  1  0.42250000  0.80930000  0.49750000  1.0 -0.4232477735
N  N37  1  0.31610000  0.52110000  0.70490000  1.0 -0.1990534068
N  N38  1  0.01880000  0.89620000  0.80650000  1.0 -0.2098275215
N  N39  1  0.61390000  0.92650000  0.92110000  1.0 -0.1791886231
N  N40  1  0.65860000  0.74060000  0.78320000  1.0 -0.4925836266
N  N41  1  0.73180000  0.83900000  0.83840000  1.0 -0.4092450232
N  N42  1  0.56090000  0.74750000  0.81410000  1.0 -0.4092450232
N  N43  1  0.72720000  0.12480000  0.96400000  1.0 -0.2098275215
N  N44  1  0.34970000  0.62390000  0.11150000  1.0 -0.2370593787
N  N45  1  0.13020000  0.82060000  0.85620000  1.0 -0.1876724378
N  N46  1  0.06680000  0.44840000  0.00100000  1.0 -0.4388796777
N  N47  1  0.16130000  0.62190000  0.97610000  1.0 -0.4232477735
N  N48  1  0.00780000  0.49680000  0.93910000  1.0 -0.4388796777
