# DDEC6 charges by PACMAN v1.1 (https://github.com/mtap-research/PACMAN-charge/)
data_VUNHAO_FSR_pacman
_symmetry_space_group_name_H-M   'P 1'
_cell_length_a   12.09000000
_cell_length_b   21.31000000
_cell_length_c   29.84600000
_cell_angle_alpha   90.00000000
_cell_angle_beta   90.00000000
_cell_angle_gamma   90.00000000
_symmetry_Int_Tables_number   1
_chemical_formula_structural   Fe3Cu2H72C52N38O3
_chemical_formula_sum   'Fe12 Cu8 H288 C208 N152 O12'
_cell_volume   7689.46076340
_cell_formula_units_Z   4
loop_
 _symmetry_equiv_pos_site_id
 _symmetry_equiv_pos_as_xyz
  1  'x, y, z'
loop_
 _atom_site_type_symbol
 _atom_site_label
 _atom_site_symmetry_multiplicity
 _atom_site_fract_x
 _atom_site_fract_y
 _atom_site_fract_z
 _atom_site_occupancy
 _atom_site_charge
Fe  Fe1  1  0.15566000  0.24062000  0.47485000  1.0 1.0007298888
Fe  Fe2  1  0.65566000  0.75938000  0.52515000  1.0 1.0007298888
Fe  Fe3  1  0.15566000  0.75938000  0.97485000  1.0 1.0007298888
Fe  Fe4  1  0.65566000  0.24062000  0.02515000  1.0 1.0007298888
Fe  Fe5  1  0.66380000  0.11245000  0.64892000  1.0 0.9676882328
Fe  Fe6  1  0.16380000  0.88755000  0.35108000  1.0 0.9676882328
Fe  Fe7  1  0.66380000  0.88755000  0.14892000  1.0 0.9676882328
Fe  Fe8  1  0.16380000  0.11245000  0.85108000  1.0 0.9676882328
Fe  Fe9  1  0.16011000  0.54653000  0.65784000  1.0 0.9924222233
Fe  Fe10  1  0.66011000  0.45347000  0.34216000  1.0 0.9924222233
Fe  Fe11  1  0.16011000  0.45347000  0.15784000  1.0 0.9924222233
Fe  Fe12  1  0.66011000  0.54653000  0.84216000  1.0 0.9924222233
Cu  Cu1  1  0.17080000  0.62095000  0.38684000  1.0 0.5793695898
Cu  Cu2  1  0.67080000  0.37905000  0.61316000  1.0 0.5793695898
Cu  Cu3  1  0.17080000  0.37905000  0.88684000  1.0 0.5793695898
Cu  Cu4  1  0.67080000  0.62095000  0.11316000  1.0 0.5793695898
Cu  Cu5  1  0.14635000  0.93092000  0.63749000  1.0 0.5793695898
Cu  Cu6  1  0.64635000  0.06908000  0.36251000  1.0 0.5793695898
Cu  Cu7  1  0.14635000  0.06908000  0.13749000  1.0 0.5793695898
Cu  Cu8  1  0.64635000  0.93092000  0.86251000  1.0 0.5793695898
H  H1  1  0.17220000  0.73140000  0.40630000  1.0 0.2503761531
H  H2  1  0.67220000  0.26860000  0.59370000  1.0 0.2503761531
H  H3  1  0.17220000  0.26860000  0.90630000  1.0 0.2503761531
H  H4  1  0.67220000  0.73140000  0.09370000  1.0 0.2503761531
H  H5  1  0.33170000  0.70280000  0.43450000  1.0 0.1118504794
H  H6  1  0.83170000  0.29720000  0.56550000  1.0 0.1118504794
H  H7  1  0.33170000  0.29720000  0.93450000  1.0 0.1118504794
H  H8  1  0.83170000  0.70280000  0.06550000  1.0 0.1118504794
H  H9  1  0.26430000  0.72760000  0.47620000  1.0 0.1118504794
H  H10  1  0.76430000  0.27240000  0.52380000  1.0 0.1118504794
H  H11  1  0.26430000  0.27240000  0.97620000  1.0 0.1118504794
H  H12  1  0.76430000  0.72760000  0.02380000  1.0 0.1118504794
H  H13  1  0.19920000  0.62100000  0.48970000  1.0 0.1118504794
H  H14  1  0.69920000  0.37900000  0.51030000  1.0 0.1118504794
H  H15  1  0.19920000  0.37900000  0.98970000  1.0 0.1118504794
H  H16  1  0.69920000  0.62100000  0.01030000  1.0 0.1118504794
H  H17  1  0.32930000  0.62350000  0.49350000  1.0 0.1118504794
H  H18  1  0.82930000  0.37650000  0.50650000  1.0 0.1118504794
H  H19  1  0.32930000  0.37650000  0.99350000  1.0 0.1118504794
H  H20  1  0.82930000  0.62350000  0.00650000  1.0 0.1118504794
H  H21  1  0.34620000  0.58910000  0.42250000  1.0 0.2503761531
H  H22  1  0.84620000  0.41090000  0.57750000  1.0 0.2503761531
H  H23  1  0.34620000  0.41090000  0.92250000  1.0 0.2503761531
H  H24  1  0.84620000  0.58910000  0.07750000  1.0 0.2503761531
H  H25  1  0.27440000  0.43380000  0.41290000  1.0 0.1298691439
H  H26  1  0.77440000  0.56620000  0.58710000  1.0 0.1298691439
H  H27  1  0.27440000  0.56620000  0.91290000  1.0 0.1298691439
H  H28  1  0.77440000  0.43380000  0.08710000  1.0 0.1298691439
H  H29  1  0.33560000  0.48840000  0.38850000  1.0 0.1298691439
H  H30  1  0.83560000  0.51160000  0.61150000  1.0 0.1298691439
H  H31  1  0.33560000  0.51160000  0.88850000  1.0 0.1298691439
H  H32  1  0.83560000  0.48840000  0.11150000  1.0 0.1298691439
H  H33  1  0.10540000  0.47870000  0.38800000  1.0 0.0796315274
H  H34  1  0.60540000  0.52130000  0.61200000  1.0 0.0796315274
H  H35  1  0.10540000  0.52130000  0.88800000  1.0 0.0796315274
H  H36  1  0.60540000  0.47870000  0.11200000  1.0 0.0796315274
H  H37  1  0.24980000  0.54640000  0.33480000  1.0 0.2422348647
H  H38  1  0.74980000  0.45360000  0.66520000  1.0 0.2422348647
H  H39  1  0.24980000  0.45360000  0.83480000  1.0 0.2422348647
H  H40  1  0.74980000  0.54640000  0.16520000  1.0 0.2422348647
H  H41  1  0.08290000  0.51940000  0.29620000  1.0 0.1197512966
H  H42  1  0.58290000  0.48060000  0.70380000  1.0 0.1197512966
H  H43  1  0.08290000  0.48060000  0.79620000  1.0 0.1197512966
H  H44  1  0.58290000  0.51940000  0.20380000  1.0 0.1197512966
H  H45  1  0.13620000  0.58550000  0.28940000  1.0 0.1298691439
H  H46  1  0.63620000  0.41450000  0.71060000  1.0 0.1298691439
H  H47  1  0.13620000  0.41450000  0.78940000  1.0 0.1298691439
H  H48  1  0.63620000  0.58550000  0.21060000  1.0 0.1298691439
H  H49  1  0.95430000  0.60490000  0.29930000  1.0 0.1197512966
H  H50  1  0.45430000  0.39510000  0.70070000  1.0 0.1197512966
H  H51  1  0.95430000  0.39510000  0.79930000  1.0 0.1197512966
H  H52  1  0.45430000  0.60490000  0.20070000  1.0 0.1197512966
H  H53  1  0.94720000  0.55950000  0.34100000  1.0 0.1118504794
H  H54  1  0.44720000  0.44050000  0.65900000  1.0 0.1118504794
H  H55  1  0.94720000  0.44050000  0.84100000  1.0 0.1118504794
H  H56  1  0.44720000  0.55950000  0.15900000  1.0 0.1118504794
H  H57  1  0.04450000  0.67510000  0.33750000  1.0 0.2503761531
H  H58  1  0.54450000  0.32490000  0.66250000  1.0 0.2503761531
H  H59  1  0.04450000  0.32490000  0.83750000  1.0 0.2503761531
H  H60  1  0.54450000  0.67510000  0.16250000  1.0 0.2503761531
H  H61  1  0.98530000  0.74730000  0.39260000  1.0 0.1298691439
H  H62  1  0.48530000  0.25270000  0.60740000  1.0 0.1298691439
H  H63  1  0.98530000  0.25270000  0.89260000  1.0 0.1298691439
H  H64  1  0.48530000  0.74730000  0.10740000  1.0 0.1298691439
H  H65  1  0.89920000  0.72620000  0.42840000  1.0 0.1298691439
H  H66  1  0.39920000  0.27380000  0.57160000  1.0 0.1298691439
H  H67  1  0.89920000  0.27380000  0.92840000  1.0 0.1298691439
H  H68  1  0.39920000  0.72620000  0.07160000  1.0 0.1298691439
H  H69  1  0.04560000  0.66950000  0.46630000  1.0 0.0714005392
H  H70  1  0.54560000  0.33050000  0.53370000  1.0 0.0714005392
H  H71  1  0.04560000  0.33050000  0.96630000  1.0 0.0714005392
H  H72  1  0.54560000  0.66950000  0.03370000  1.0 0.0714005392
H  H73  1  0.36310000  0.45420000  0.48650000  1.0 0.1494321928
H  H74  1  0.86310000  0.54580000  0.51350000  1.0 0.1494321928
H  H75  1  0.36310000  0.54580000  0.98650000  1.0 0.1494321928
H  H76  1  0.86310000  0.45420000  0.01350000  1.0 0.1494321928
H  H77  1  0.43580000  0.50570000  0.46330000  1.0 0.1396288713
H  H78  1  0.93580000  0.49430000  0.53670000  1.0 0.1396288713
H  H79  1  0.43580000  0.49430000  0.96330000  1.0 0.1396288713
H  H80  1  0.93580000  0.50570000  0.03670000  1.0 0.1396288713
H  H81  1  0.36580000  0.52260000  0.50580000  1.0 0.1396288713
H  H82  1  0.86580000  0.47740000  0.49420000  1.0 0.1396288713
H  H83  1  0.36580000  0.47740000  0.00580000  1.0 0.1396288713
H  H84  1  0.86580000  0.52260000  0.99420000  1.0 0.1396288713
H  H85  1  0.10140000  0.52120000  0.45670000  1.0 0.1298691439
H  H86  1  0.60140000  0.47880000  0.54330000  1.0 0.1298691439
H  H87  1  0.10140000  0.47880000  0.95670000  1.0 0.1298691439
H  H88  1  0.60140000  0.52120000  0.04330000  1.0 0.1298691439
H  H89  1  0.15260000  0.45820000  0.47420000  1.0 0.1494321928
H  H90  1  0.65260000  0.54180000  0.52580000  1.0 0.1494321928
H  H91  1  0.15260000  0.54180000  0.97420000  1.0 0.1494321928
H  H92  1  0.65260000  0.45820000  0.02580000  1.0 0.1494321928
H  H93  1  0.16740000  0.52010000  0.50190000  1.0 0.1396288713
H  H94  1  0.66740000  0.47990000  0.49810000  1.0 0.1396288713
H  H95  1  0.16740000  0.47990000  0.00190000  1.0 0.1396288713
H  H96  1  0.66740000  0.52010000  0.99810000  1.0 0.1396288713
H  H97  1  0.20000000  0.38880000  0.35560000  1.0 0.1396288713
H  H98  1  0.70000000  0.61120000  0.64440000  1.0 0.1396288713
H  H99  1  0.20000000  0.61120000  0.85560000  1.0 0.1396288713
H  H100  1  0.70000000  0.38880000  0.14440000  1.0 0.1396288713
H  H101  1  0.12790000  0.42420000  0.31990000  1.0 0.1298691439
H  H102  1  0.62790000  0.57580000  0.68010000  1.0 0.1298691439
H  H103  1  0.12790000  0.57580000  0.81990000  1.0 0.1298691439
H  H104  1  0.62790000  0.42420000  0.18010000  1.0 0.1298691439
H  H105  1  0.25640000  0.43420000  0.32110000  1.0 0.1298691439
H  H106  1  0.75640000  0.56580000  0.67890000  1.0 0.1298691439
H  H107  1  0.25640000  0.56580000  0.82110000  1.0 0.1298691439
H  H108  1  0.75640000  0.43420000  0.17890000  1.0 0.1298691439
H  H109  1  0.94190000  0.60500000  0.44220000  1.0 0.1298691439
H  H110  1  0.44190000  0.39500000  0.55780000  1.0 0.1298691439
H  H111  1  0.94190000  0.39500000  0.94220000  1.0 0.1298691439
H  H112  1  0.44190000  0.60500000  0.05780000  1.0 0.1298691439
H  H113  1  0.82220000  0.60890000  0.42220000  1.0 0.1494321928
H  H114  1  0.32220000  0.39110000  0.57780000  1.0 0.1494321928
H  H115  1  0.82220000  0.39110000  0.92220000  1.0 0.1494321928
H  H116  1  0.32220000  0.60890000  0.07780000  1.0 0.1494321928
H  H117  1  0.91050000  0.56480000  0.40010000  1.0 0.1396288713
H  H118  1  0.41050000  0.43520000  0.59990000  1.0 0.1396288713
H  H119  1  0.91050000  0.43520000  0.90010000  1.0 0.1396288713
H  H120  1  0.41050000  0.56480000  0.09990000  1.0 0.1396288713
H  H121  1  0.79930000  0.64820000  0.34370000  1.0 0.1494321928
H  H122  1  0.29930000  0.35180000  0.65630000  1.0 0.1494321928
H  H123  1  0.79930000  0.35180000  0.84370000  1.0 0.1494321928
H  H124  1  0.29930000  0.64820000  0.15630000  1.0 0.1494321928
H  H125  1  0.79250000  0.70830000  0.37380000  1.0 0.1396288713
H  H126  1  0.29250000  0.29170000  0.62620000  1.0 0.1396288713
H  H127  1  0.79250000  0.29170000  0.87380000  1.0 0.1396288713
H  H128  1  0.29250000  0.70830000  0.12620000  1.0 0.1396288713
H  H129  1  0.86950000  0.70770000  0.33160000  1.0 0.1396288713
H  H130  1  0.36950000  0.29230000  0.66840000  1.0 0.1396288713
H  H131  1  0.86950000  0.29230000  0.83160000  1.0 0.1396288713
H  H132  1  0.36950000  0.70770000  0.16840000  1.0 0.1396288713
H  H133  1  0.07200000  0.80350000  0.46160000  1.0 0.1396288713
H  H134  1  0.57200000  0.19650000  0.53840000  1.0 0.1396288713
H  H135  1  0.07200000  0.19650000  0.96160000  1.0 0.1396288713
H  H136  1  0.57200000  0.80350000  0.03840000  1.0 0.1396288713
H  H137  1  0.98890000  0.76980000  0.49390000  1.0 0.1396288713
H  H138  1  0.48890000  0.23020000  0.50610000  1.0 0.1396288713
H  H139  1  0.98890000  0.23020000  0.99390000  1.0 0.1396288713
H  H140  1  0.48890000  0.76980000  0.00610000  1.0 0.1396288713
H  H141  1  0.11660000  0.76270000  0.50140000  1.0 0.1298691439
H  H142  1  0.61660000  0.23730000  0.49860000  1.0 0.1298691439
H  H143  1  0.11660000  0.23730000  0.00140000  1.0 0.1298691439
H  H144  1  0.61660000  0.76270000  0.99860000  1.0 0.1298691439
H  H145  1  0.07550000  0.02640000  0.67000000  1.0 0.2422348647
H  H146  1  0.57550000  0.97360000  0.33000000  1.0 0.2422348647
H  H147  1  0.07550000  0.97360000  0.17000000  1.0 0.2422348647
H  H148  1  0.57550000  0.02640000  0.83000000  1.0 0.2422348647
H  H149  1  0.20060000  0.01930000  0.71790000  1.0 0.1298691439
H  H150  1  0.70060000  0.98070000  0.28210000  1.0 0.1298691439
H  H151  1  0.20060000  0.98070000  0.21790000  1.0 0.1298691439
H  H152  1  0.70060000  0.01930000  0.78210000  1.0 0.1298691439
H  H153  1  0.24960000  0.07420000  0.68940000  1.0 0.1118504794
H  H154  1  0.74960000  0.92580000  0.31060000  1.0 0.1118504794
H  H155  1  0.24960000  0.92580000  0.18940000  1.0 0.1118504794
H  H156  1  0.74960000  0.07420000  0.81060000  1.0 0.1118504794
H  H157  1  0.37190000  0.01340000  0.65740000  1.0 0.1197512966
H  H158  1  0.87190000  0.98660000  0.34260000  1.0 0.1197512966
H  H159  1  0.37190000  0.98660000  0.15740000  1.0 0.1197512966
H  H160  1  0.87190000  0.01340000  0.84260000  1.0 0.1197512966
H  H161  1  0.37290000  0.99310000  0.70800000  1.0 0.1197512966
H  H162  1  0.87290000  0.00690000  0.29200000  1.0 0.1197512966
H  H163  1  0.37290000  0.00690000  0.20800000  1.0 0.1197512966
H  H164  1  0.87290000  0.99310000  0.79200000  1.0 0.1197512966
H  H165  1  0.29070000  0.90750000  0.69390000  1.0 0.2503761531
H  H166  1  0.79070000  0.09250000  0.30610000  1.0 0.2503761531
H  H167  1  0.29070000  0.09250000  0.19390000  1.0 0.2503761531
H  H168  1  0.79070000  0.90750000  0.80610000  1.0 0.2503761531
H  H169  1  0.41750000  0.80250000  0.62330000  1.0 0.1396288713
H  H170  1  0.91750000  0.19750000  0.37670000  1.0 0.1396288713
H  H171  1  0.41750000  0.19750000  0.12330000  1.0 0.1396288713
H  H172  1  0.91750000  0.80250000  0.87670000  1.0 0.1396288713
H  H173  1  0.33870000  0.80740000  0.66480000  1.0 0.1197512966
H  H174  1  0.83870000  0.19260000  0.33520000  1.0 0.1197512966
H  H175  1  0.33870000  0.19260000  0.16480000  1.0 0.1197512966
H  H176  1  0.83870000  0.80740000  0.83520000  1.0 0.1197512966
H  H177  1  0.26690000  0.84020000  0.57730000  1.0 0.0796315274
H  H178  1  0.76690000  0.15980000  0.42270000  1.0 0.0796315274
H  H179  1  0.26690000  0.15980000  0.07730000  1.0 0.0796315274
H  H180  1  0.76690000  0.84020000  0.92270000  1.0 0.0796315274
H  H181  1  0.14070000  0.81700000  0.65060000  1.0 0.2503761531
H  H182  1  0.64070000  0.18300000  0.34940000  1.0 0.2503761531
H  H183  1  0.14070000  0.18300000  0.15060000  1.0 0.2503761531
H  H184  1  0.64070000  0.81700000  0.84940000  1.0 0.2503761531
H  H185  1  0.05610000  0.78870000  0.58140000  1.0 0.1118504794
H  H186  1  0.55610000  0.21130000  0.41860000  1.0 0.1118504794
H  H187  1  0.05610000  0.21130000  0.08140000  1.0 0.1118504794
H  H188  1  0.55610000  0.78870000  0.91860000  1.0 0.1118504794
H  H189  1  0.98670000  0.82900000  0.61510000  1.0 0.1197512966
H  H190  1  0.48670000  0.17100000  0.38490000  1.0 0.1197512966
H  H191  1  0.98670000  0.17100000  0.11510000  1.0 0.1197512966
H  H192  1  0.48670000  0.82900000  0.88490000  1.0 0.1197512966
H  H193  1  0.97010000  0.87510000  0.54490000  1.0 0.1118504794
H  H194  1  0.47010000  0.12490000  0.45510000  1.0 0.1118504794
H  H195  1  0.97010000  0.12490000  0.04490000  1.0 0.1118504794
H  H196  1  0.47010000  0.87510000  0.95510000  1.0 0.1118504794
H  H197  1  0.09970000  0.87820000  0.53960000  1.0 0.1118504794
H  H198  1  0.59970000  0.12180000  0.46040000  1.0 0.1118504794
H  H199  1  0.09970000  0.12180000  0.03960000  1.0 0.1118504794
H  H200  1  0.59970000  0.87820000  0.96040000  1.0 0.1118504794
H  H201  1  0.97320000  0.94140000  0.59900000  1.0 0.2422348647
H  H202  1  0.47320000  0.05860000  0.40100000  1.0 0.2422348647
H  H203  1  0.97320000  0.05860000  0.09900000  1.0 0.2422348647
H  H204  1  0.47320000  0.94140000  0.90100000  1.0 0.2422348647
H  H205  1  0.97860000  0.05350000  0.60580000  1.0 0.1197512966
H  H206  1  0.47860000  0.94650000  0.39420000  1.0 0.1197512966
H  H207  1  0.97860000  0.94650000  0.10580000  1.0 0.1197512966
H  H208  1  0.47860000  0.05350000  0.89420000  1.0 0.1197512966
H  H209  1  0.03820000  0.09280000  0.56910000  1.0 0.1298691439
H  H210  1  0.53820000  0.90720000  0.43090000  1.0 0.1298691439
H  H211  1  0.03820000  0.90720000  0.06910000  1.0 0.1298691439
H  H212  1  0.53820000  0.09280000  0.93090000  1.0 0.1298691439
H  H213  1  0.20940000  0.06410000  0.60330000  1.0 0.0796315274
H  H214  1  0.70940000  0.93590000  0.39670000  1.0 0.0796315274
H  H215  1  0.20940000  0.93590000  0.10330000  1.0 0.0796315274
H  H216  1  0.70940000  0.06410000  0.89670000  1.0 0.0796315274
H  H217  1  0.48930000  0.91260000  0.58790000  1.0 0.1494321928
H  H218  1  0.98930000  0.08740000  0.41210000  1.0 0.1494321928
H  H219  1  0.48930000  0.08740000  0.08790000  1.0 0.1494321928
H  H220  1  0.98930000  0.91260000  0.91210000  1.0 0.1494321928
H  H221  1  0.36290000  0.91800000  0.57680000  1.0 0.1298691439
H  H222  1  0.86290000  0.08200000  0.42320000  1.0 0.1298691439
H  H223  1  0.36290000  0.08200000  0.07680000  1.0 0.1298691439
H  H224  1  0.86290000  0.91800000  0.92320000  1.0 0.1298691439
H  H225  1  0.42230000  0.97160000  0.60360000  1.0 0.1298691439
H  H226  1  0.92230000  0.02840000  0.39640000  1.0 0.1298691439
H  H227  1  0.42230000  0.02840000  0.10360000  1.0 0.1298691439
H  H228  1  0.92230000  0.97160000  0.89640000  1.0 0.1298691439
H  H229  1  0.51330000  0.93270000  0.68040000  1.0 0.1494321928
H  H230  1  0.01330000  0.06730000  0.31960000  1.0 0.1494321928
H  H231  1  0.51330000  0.06730000  0.18040000  1.0 0.1494321928
H  H232  1  0.01330000  0.93270000  0.81960000  1.0 0.1494321928
H  H233  1  0.46820000  0.86980000  0.70080000  1.0 0.1396288713
H  H234  1  0.96820000  0.13020000  0.29920000  1.0 0.1396288713
H  H235  1  0.46820000  0.13020000  0.20080000  1.0 0.1396288713
H  H236  1  0.96820000  0.86980000  0.79920000  1.0 0.1396288713
H  H237  1  0.54770000  0.86820000  0.65930000  1.0 0.1494321928
H  H238  1  0.04770000  0.13180000  0.34070000  1.0 0.1494321928
H  H239  1  0.54770000  0.13180000  0.15930000  1.0 0.1494321928
H  H240  1  0.04770000  0.86820000  0.84070000  1.0 0.1494321928
H  H241  1  0.21210000  0.72020000  0.61400000  1.0 0.1396288713
H  H242  1  0.71210000  0.27980000  0.38600000  1.0 0.1396288713
H  H243  1  0.21210000  0.27980000  0.11400000  1.0 0.1396288713
H  H244  1  0.71210000  0.72020000  0.88600000  1.0 0.1396288713
H  H245  1  0.21570000  0.73830000  0.56310000  1.0 0.1197512966
H  H246  1  0.71570000  0.26170000  0.43690000  1.0 0.1197512966
H  H247  1  0.21570000  0.26170000  0.06310000  1.0 0.1197512966
H  H248  1  0.71570000  0.73830000  0.93690000  1.0 0.1197512966
H  H249  1  0.32620000  0.72780000  0.58960000  1.0 0.1298691439
H  H250  1  0.82620000  0.27220000  0.41040000  1.0 0.1298691439
H  H251  1  0.32620000  0.27220000  0.08960000  1.0 0.1298691439
H  H252  1  0.82620000  0.72780000  0.91040000  1.0 0.1298691439
H  H253  1  0.92460000  0.95960000  0.51640000  1.0 0.1298691439
H  H254  1  0.42460000  0.04040000  0.48360000  1.0 0.1298691439
H  H255  1  0.92460000  0.04040000  0.01640000  1.0 0.1298691439
H  H256  1  0.42460000  0.95960000  0.98360000  1.0 0.1298691439
H  H257  1  0.88330000  0.02000000  0.54120000  1.0 0.1396288713
H  H258  1  0.38330000  0.98000000  0.45880000  1.0 0.1396288713
H  H259  1  0.88330000  0.98000000  0.04120000  1.0 0.1396288713
H  H260  1  0.38330000  0.02000000  0.95880000  1.0 0.1396288713
H  H261  1  0.96170000  0.02600000  0.49960000  1.0 0.1494321928
H  H262  1  0.46170000  0.97400000  0.50040000  1.0 0.1494321928
H  H263  1  0.96170000  0.97400000  0.99960000  1.0 0.1494321928
H  H264  1  0.46170000  0.02600000  0.00040000  1.0 0.1494321928
H  H265  1  0.13640000  0.02860000  0.50450000  1.0 0.1494321928
H  H266  1  0.63640000  0.97140000  0.49550000  1.0 0.1494321928
H  H267  1  0.13640000  0.97140000  0.00450000  1.0 0.1494321928
H  H268  1  0.63640000  0.02860000  0.99550000  1.0 0.1494321928
H  H269  1  0.20870000  0.00850000  0.54570000  1.0 0.1298691439
H  H270  1  0.70870000  0.99150000  0.45430000  1.0 0.1298691439
H  H271  1  0.20870000  0.99150000  0.04570000  1.0 0.1298691439
H  H272  1  0.70870000  0.00850000  0.95430000  1.0 0.1298691439
H  H273  1  0.15430000  0.95730000  0.51510000  1.0 0.1396288713
H  H274  1  0.65430000  0.04270000  0.48490000  1.0 0.1396288713
H  H275  1  0.15430000  0.04270000  0.01510000  1.0 0.1396288713
H  H276  1  0.65430000  0.95730000  0.98490000  1.0 0.1396288713
H  H277  1  0.08710000  0.13960000  0.66110000  1.0 0.1396288713
H  H278  1  0.58710000  0.86040000  0.33890000  1.0 0.1396288713
H  H279  1  0.08710000  0.86040000  0.16110000  1.0 0.1396288713
H  H280  1  0.58710000  0.13960000  0.83890000  1.0 0.1396288713
H  H281  1  0.20640000  0.15150000  0.64230000  1.0 0.1396288713
H  H282  1  0.70640000  0.84850000  0.35770000  1.0 0.1396288713
H  H283  1  0.20640000  0.84850000  0.14230000  1.0 0.1396288713
H  H284  1  0.70640000  0.15150000  0.85770000  1.0 0.1396288713
H  H285  1  0.10310000  0.16150000  0.61140000  1.0 0.1396288713
H  H286  1  0.60310000  0.83850000  0.38860000  1.0 0.1396288713
H  H287  1  0.10310000  0.83850000  0.11140000  1.0 0.1396288713
H  H288  1  0.60310000  0.16150000  0.88860000  1.0 0.1396288713
C  C1  1  0.37570000  0.68800000  0.32470000  1.0 0.4394875873
C  C2  1  0.87570000  0.31200000  0.67530000  1.0 0.4394875873
C  C3  1  0.37570000  0.31200000  0.82470000  1.0 0.4394875873
C  C4  1  0.87570000  0.68800000  0.17530000  1.0 0.4394875873
C  C5  1  0.49360000  0.72510000  0.27050000  1.0 0.3909620681
C  C6  1  0.99360000  0.27490000  0.72950000  1.0 0.3909620681
C  C7  1  0.49360000  0.27490000  0.77050000  1.0 0.3909620681
C  C8  1  0.99360000  0.72510000  0.22950000  1.0 0.3909620681
C  C9  1  0.26660000  0.69600000  0.45280000  1.0 -0.1092478703
C  C10  1  0.76660000  0.30400000  0.54720000  1.0 -0.1092478703
C  C11  1  0.26660000  0.30400000  0.95280000  1.0 -0.1092478703
C  C12  1  0.76660000  0.69600000  0.04720000  1.0 -0.1092478703
C  C13  1  0.26710000  0.62880000  0.47330000  1.0 -0.1092478703
C  C14  1  0.76710000  0.37120000  0.52670000  1.0 -0.1092478703
C  C15  1  0.26710000  0.37120000  0.97330000  1.0 -0.1092478703
C  C16  1  0.76710000  0.62880000  0.02670000  1.0 -0.1092478703
C  C17  1  0.26600000  0.51640000  0.44770000  1.0 0.3753285335
C  C18  1  0.76600000  0.48360000  0.55230000  1.0 0.3753285335
C  C19  1  0.26600000  0.48360000  0.94770000  1.0 0.3753285335
C  C20  1  0.76600000  0.51640000  0.05230000  1.0 0.3753285335
C  C21  1  0.26820000  0.47760000  0.40430000  1.0 -0.3299085752
C  C22  1  0.76820000  0.52240000  0.59570000  1.0 -0.3299085752
C  C23  1  0.26820000  0.52240000  0.90430000  1.0 -0.3299085752
C  C24  1  0.76820000  0.47760000  0.09570000  1.0 -0.3299085752
C  C25  1  0.17630000  0.48260000  0.37230000  1.0 0.1685413061
C  C26  1  0.67630000  0.51740000  0.62770000  1.0 0.1685413061
C  C27  1  0.17630000  0.51740000  0.87230000  1.0 0.1685413061
C  C28  1  0.67630000  0.48260000  0.12770000  1.0 0.1685413061
C  C29  1  0.10040000  0.55850000  0.31120000  1.0 -0.099492181
C  C30  1  0.60040000  0.44150000  0.68880000  1.0 -0.099492181
C  C31  1  0.10040000  0.44150000  0.81120000  1.0 -0.099492181
C  C32  1  0.60040000  0.55850000  0.18880000  1.0 -0.099492181
C  C33  1  0.99420000  0.58890000  0.32510000  1.0 -0.1185537258
C  C34  1  0.49420000  0.41110000  0.67490000  1.0 -0.1185537258
C  C35  1  0.99420000  0.41110000  0.82510000  1.0 -0.1185537258
C  C36  1  0.49420000  0.58890000  0.17490000  1.0 -0.1185537258
C  C37  1  0.93580000  0.65810000  0.38440000  1.0 0.3584647552
C  C38  1  0.43580000  0.34190000  0.61560000  1.0 0.3584647552
C  C39  1  0.93580000  0.34190000  0.88440000  1.0 0.3584647552
C  C40  1  0.43580000  0.65810000  0.11560000  1.0 0.3584647552
C  C41  1  0.96550000  0.71320000  0.41260000  1.0 -0.3222775637
C  C42  1  0.46550000  0.28680000  0.58740000  1.0 -0.3222775637
C  C43  1  0.96550000  0.28680000  0.91260000  1.0 -0.3222775637
C  C44  1  0.46550000  0.71320000  0.08740000  1.0 -0.3222775637
C  C45  1  0.06020000  0.70660000  0.44790000  1.0 0.1685413061
C  C46  1  0.56020000  0.29340000  0.55210000  1.0 0.1685413061
C  C47  1  0.06020000  0.29340000  0.94790000  1.0 0.1685413061
C  C48  1  0.56020000  0.70660000  0.05210000  1.0 0.1685413061
C  C49  1  0.36780000  0.49790000  0.47890000  1.0 -0.4913151454
C  C50  1  0.86780000  0.50210000  0.52110000  1.0 -0.4913151454
C  C51  1  0.36780000  0.50210000  0.97890000  1.0 -0.4913151454
C  C52  1  0.86780000  0.49790000  0.02110000  1.0 -0.4913151454
C  C53  1  0.16280000  0.50280000  0.47230000  1.0 -0.4992948488
C  C54  1  0.66280000  0.49720000  0.52770000  1.0 -0.4992948488
C  C55  1  0.16280000  0.49720000  0.97230000  1.0 -0.4992948488
C  C56  1  0.66280000  0.50280000  0.02770000  1.0 -0.4992948488
C  C57  1  0.19160000  0.42710000  0.33900000  1.0 -0.4288487813
C  C58  1  0.69160000  0.57290000  0.66100000  1.0 -0.4288487813
C  C59  1  0.19160000  0.57290000  0.83900000  1.0 -0.4288487813
C  C60  1  0.69160000  0.42710000  0.16100000  1.0 -0.4288487813
C  C61  1  0.89920000  0.60420000  0.41510000  1.0 -0.4913151454
C  C62  1  0.39920000  0.39580000  0.58490000  1.0 -0.4913151454
C  C63  1  0.89920000  0.39580000  0.91510000  1.0 -0.4913151454
C  C64  1  0.39920000  0.60420000  0.08490000  1.0 -0.4913151454
C  C65  1  0.84040000  0.68290000  0.35570000  1.0 -0.4711836393
C  C66  1  0.34040000  0.31710000  0.64430000  1.0 -0.4711836393
C  C67  1  0.84040000  0.31710000  0.85570000  1.0 -0.4711836393
C  C68  1  0.34040000  0.68290000  0.14430000  1.0 -0.4711836393
C  C69  1  0.05930000  0.76660000  0.47930000  1.0 -0.4518344661
C  C70  1  0.55930000  0.23340000  0.52070000  1.0 -0.4518344661
C  C71  1  0.05930000  0.23340000  0.97930000  1.0 -0.4518344661
C  C72  1  0.55930000  0.76660000  0.02070000  1.0 -0.4518344661
C  C73  1  0.93900000  0.90340000  0.70560000  1.0 0.4394875873
C  C74  1  0.43900000  0.09660000  0.29440000  1.0 0.4323689475
C  C75  1  0.93900000  0.09660000  0.20560000  1.0 0.4323689475
C  C76  1  0.43900000  0.90340000  0.79440000  1.0 0.4394875873
C  C77  1  0.77900000  0.85140000  0.72400000  1.0 0.3909620681
C  C78  1  0.27900000  0.14860000  0.27600000  1.0 0.3909620681
C  C79  1  0.77900000  0.14860000  0.22400000  1.0 0.3909620681
C  C80  1  0.27900000  0.85140000  0.77600000  1.0 0.3909620681
C  C81  1  0.22960000  0.03020000  0.68860000  1.0 -0.1092478703
C  C82  1  0.72960000  0.96980000  0.31140000  1.0 -0.1092478703
C  C83  1  0.22960000  0.96980000  0.18860000  1.0 -0.1092478703
C  C84  1  0.72960000  0.03020000  0.81140000  1.0 -0.1092478703
C  C85  1  0.32850000  0.99380000  0.68090000  1.0 -0.1092478703
C  C86  1  0.82850000  0.00620000  0.31910000  1.0 -0.1092478703
C  C87  1  0.32850000  0.00620000  0.18090000  1.0 -0.1092478703
C  C88  1  0.82850000  0.99380000  0.81910000  1.0 -0.1092478703
C  C89  1  0.39110000  0.89390000  0.64270000  1.0 0.3668875845
C  C90  1  0.89110000  0.10610000  0.35730000  1.0 0.3668875845
C  C91  1  0.39110000  0.10610000  0.14270000  1.0 0.3668875845
C  C92  1  0.89110000  0.89390000  0.85730000  1.0 0.3668875845
C  C93  1  0.35550000  0.82550000  0.63580000  1.0 -0.3299085752
C  C94  1  0.85550000  0.17450000  0.36420000  1.0 -0.3299085752
C  C95  1  0.35550000  0.17450000  0.13580000  1.0 -0.3299085752
C  C96  1  0.85550000  0.82550000  0.86420000  1.0 -0.3299085752
C  C97  1  0.25400000  0.81600000  0.60470000  1.0 0.1685413061
C  C98  1  0.75400000  0.18400000  0.39530000  1.0 0.1685413061
C  C99  1  0.25400000  0.18400000  0.10470000  1.0 0.1685413061
C  C100  1  0.75400000  0.81600000  0.89530000  1.0 0.1685413061
C  C101  1  0.05180000  0.82920000  0.59610000  1.0 -0.1092478703
C  C102  1  0.55180000  0.17080000  0.40390000  1.0 -0.1092478703
C  C103  1  0.05180000  0.17080000  0.09610000  1.0 -0.1092478703
C  C104  1  0.55180000  0.82920000  0.90390000  1.0 -0.1092478703
C  C105  1  0.03930000  0.87990000  0.56090000  1.0 -0.1092478703
C  C106  1  0.53930000  0.12010000  0.43910000  1.0 -0.1092478703
C  C107  1  0.03930000  0.12010000  0.06090000  1.0 -0.1092478703
C  C108  1  0.53930000  0.87990000  0.93910000  1.0 -0.1092478703
C  C109  1  0.04580000  0.99850000  0.55670000  1.0 0.3668875845
C  C110  1  0.54580000  0.00150000  0.44330000  1.0 0.3668875845
C  C111  1  0.04580000  0.00150000  0.05670000  1.0 0.3668875845
C  C112  1  0.54580000  0.99850000  0.94330000  1.0 0.3668875845
C  C113  1  0.04550000  0.05600000  0.58800000  1.0 -0.3222775637
C  C114  1  0.54550000  0.94400000  0.41200000  1.0 -0.3222775637
C  C115  1  0.04550000  0.94400000  0.08800000  1.0 -0.3222775637
C  C116  1  0.54550000  0.05600000  0.91200000  1.0 -0.3299085752
C  C117  1  0.14040000  0.06890000  0.62030000  1.0 0.162430525
C  C118  1  0.64040000  0.93110000  0.37970000  1.0 0.162430525
C  C119  1  0.14040000  0.93110000  0.12030000  1.0 0.162430525
C  C120  1  0.64040000  0.06890000  0.87970000  1.0 0.162430525
C  C121  1  0.41900000  0.92720000  0.59860000  1.0 -0.4992948488
C  C122  1  0.91900000  0.07280000  0.40140000  1.0 -0.4992948488
C  C123  1  0.41900000  0.07280000  0.09860000  1.0 -0.4992948488
C  C124  1  0.91900000  0.92720000  0.90140000  1.0 -0.4992948488
C  C125  1  0.48890000  0.89090000  0.67360000  1.0 -0.4825509301
C  C126  1  0.98890000  0.10910000  0.32640000  1.0 -0.4825509301
C  C127  1  0.48890000  0.10910000  0.17360000  1.0 -0.4825509301
C  C128  1  0.98890000  0.89090000  0.82640000  1.0 -0.4825509301
C  C129  1  0.25180000  0.74330000  0.59150000  1.0 -0.4518344661
C  C130  1  0.75180000  0.25670000  0.40850000  1.0 -0.4518344661
C  C131  1  0.25180000  0.25670000  0.09150000  1.0 -0.4518344661
C  C132  1  0.75180000  0.74330000  0.90850000  1.0 -0.4518344661
C  C133  1  0.94430000  0.00130000  0.52550000  1.0 -0.4825509301
C  C134  1  0.44430000  0.99870000  0.47450000  1.0 -0.4825509301
C  C135  1  0.94430000  0.99870000  0.02550000  1.0 -0.4825509301
C  C136  1  0.44430000  0.00130000  0.97450000  1.0 -0.4825509301
C  C137  1  0.14490000  0.99820000  0.52800000  1.0 -0.4913151454
C  C138  1  0.64490000  0.00180000  0.47200000  1.0 -0.4913151454
C  C139  1  0.14490000  0.00180000  0.02800000  1.0 -0.4913151454
C  C140  1  0.64490000  0.99820000  0.97200000  1.0 -0.4913151454
C  C141  1  0.13360000  0.13650000  0.63510000  1.0 -0.4385336338
C  C142  1  0.63360000  0.86350000  0.36490000  1.0 -0.4385336338
C  C143  1  0.13360000  0.86350000  0.13510000  1.0 -0.4385336338
C  C144  1  0.63360000  0.13650000  0.86490000  1.0 -0.4385336338
C  C145  1  0.30980000  0.14660000  0.53720000  1.0 0.422893949
C  C146  1  0.80980000  0.85340000  0.46280000  1.0 0.422893949
C  C147  1  0.30980000  0.85340000  0.03720000  1.0 0.422893949
C  C148  1  0.80980000  0.14660000  0.96280000  1.0 0.422893949
C  C149  1  0.44530000  0.11390000  0.58440000  1.0 0.422893949
C  C150  1  0.94530000  0.88610000  0.41560000  1.0 0.422893949
C  C151  1  0.44530000  0.88610000  0.08440000  1.0 0.422893949
C  C152  1  0.94530000  0.11390000  0.91560000  1.0 0.422893949
C  C153  1  0.08260000  0.34160000  0.55220000  1.0 0.4394875873
C  C154  1  0.58260000  0.65840000  0.44780000  1.0 0.4394875873
C  C155  1  0.08260000  0.65840000  0.05220000  1.0 0.4394875873
C  C156  1  0.58260000  0.34160000  0.94780000  1.0 0.4394875873
C  C157  1  0.08930000  0.42490000  0.59860000  1.0 0.4323689475
C  C158  1  0.58930000  0.57510000  0.40140000  1.0 0.4323689475
C  C159  1  0.08930000  0.57510000  0.09860000  1.0 0.4394875873
C  C160  1  0.58930000  0.42490000  0.90140000  1.0 0.4323689475
C  C161  1  0.00780000  0.34540000  0.42640000  1.0 0.422893949
C  C162  1  0.50780000  0.65460000  0.57360000  1.0 0.422893949
C  C163  1  0.00780000  0.65460000  0.92640000  1.0 0.422893949
C  C164  1  0.50780000  0.34540000  0.07360000  1.0 0.422893949
C  C165  1  0.88290000  0.41030000  0.39990000  1.0 0.4092970194
C  C166  1  0.38290000  0.58970000  0.60010000  1.0 0.4092970194
C  C167  1  0.88290000  0.58970000  0.89990000  1.0 0.4092970194
C  C168  1  0.38290000  0.41030000  0.10010000  1.0 0.4092970194
C  C169  1  0.92770000  0.17340000  0.50340000  1.0 0.4394875873
C  C170  1  0.42770000  0.82660000  0.49660000  1.0 0.4394875873
C  C171  1  0.92770000  0.82660000  0.00340000  1.0 0.4394875873
C  C172  1  0.42770000  0.17340000  0.99660000  1.0 0.4394875873
C  C173  1  0.79030000  0.14730000  0.55540000  1.0 0.4323689475
C  C174  1  0.29030000  0.85270000  0.44460000  1.0 0.4323689475
C  C175  1  0.79030000  0.85270000  0.05540000  1.0 0.4323689475
C  C176  1  0.29030000  0.14730000  0.94460000  1.0 0.4323689475
C  C177  1  0.23060000  0.13010000  0.40610000  1.0 0.4394875873
C  C178  1  0.73060000  0.86990000  0.59390000  1.0 0.4394875873
C  C179  1  0.23060000  0.86990000  0.90610000  1.0 0.4394875873
C  C180  1  0.73060000  0.13010000  0.09390000  1.0 0.4394875873
C  C181  1  0.23400000  0.03020000  0.37690000  1.0 0.4394875873
C  C182  1  0.73400000  0.96980000  0.62310000  1.0 0.4394875873
C  C183  1  0.23400000  0.96980000  0.87690000  1.0 0.4394875873
C  C184  1  0.73400000  0.03020000  0.12310000  1.0 0.4394875873
C  C185  1  0.38950000  0.31460000  0.45080000  1.0 0.422893949
C  C186  1  0.88950000  0.68540000  0.54920000  1.0 0.422893949
C  C187  1  0.38950000  0.68540000  0.95080000  1.0 0.422893949
C  C188  1  0.88950000  0.31460000  0.04920000  1.0 0.422893949
C  C189  1  0.51830000  0.36920000  0.41290000  1.0 0.4394875873
C  C190  1  0.01830000  0.63080000  0.58710000  1.0 0.4394875873
C  C191  1  0.51830000  0.63080000  0.91290000  1.0 0.4394875873
C  C192  1  0.01830000  0.36920000  0.08710000  1.0 0.4394875873
C  C193  1  0.88980000  0.09280000  0.70630000  1.0 0.4394875873
C  C194  1  0.38980000  0.90720000  0.29370000  1.0 0.4394875873
C  C195  1  0.88980000  0.90720000  0.20630000  1.0 0.4394875873
C  C196  1  0.38980000  0.09280000  0.79370000  1.0 0.4394875873
C  C197  1  0.02060000  0.08280000  0.76120000  1.0 0.4394875873
C  C198  1  0.52060000  0.91720000  0.23880000  1.0 0.4394875873
C  C199  1  0.02060000  0.91720000  0.26120000  1.0 0.4394875873
C  C200  1  0.52060000  0.08280000  0.73880000  1.0 0.4394875873
C  C201  1  0.30830000  0.48710000  0.73490000  1.0 0.4394875873
C  C202  1  0.80830000  0.51290000  0.26510000  1.0 0.4394875873
C  C203  1  0.30830000  0.51290000  0.23490000  1.0 0.4394875873
C  C204  1  0.80830000  0.48710000  0.76510000  1.0 0.4394875873
C  C205  1  0.45220000  0.49630000  0.78770000  1.0 0.4527150096
C  C206  1  0.95220000  0.50370000  0.21230000  1.0 0.4527150096
C  C207  1  0.45220000  0.50370000  0.28770000  1.0 0.4527150096
C  C208  1  0.95220000  0.49630000  0.71230000  1.0 0.4527150096
N  N1  1  0.30580000  0.66800000  0.34610000  1.0 -0.505855888
N  N2  1  0.80580000  0.33200000  0.65390000  1.0 -0.4992948488
N  N3  1  0.30580000  0.33200000  0.84610000  1.0 -0.4992948488
N  N4  1  0.80580000  0.66800000  0.15390000  1.0 -0.505855888
N  N5  1  0.47910000  0.69120000  0.30830000  1.0 -0.4288487813
N  N6  1  0.97910000  0.30880000  0.69170000  1.0 -0.4288487813
N  N7  1  0.47910000  0.30880000  0.80830000  1.0 -0.4288487813
N  N8  1  0.97910000  0.69120000  0.19170000  1.0 -0.4288487813
N  N9  1  0.52300000  0.73470000  0.23430000  1.0 -0.4288487813
N  N10  1  0.02300000  0.26530000  0.76570000  1.0 -0.4175249337
N  N11  1  0.52300000  0.26530000  0.73430000  1.0 -0.4288487813
N  N12  1  0.02300000  0.73470000  0.26570000  1.0 -0.4288487813
N  N13  1  0.16450000  0.69810000  0.42510000  1.0 -0.3222775637
N  N14  1  0.66450000  0.30190000  0.57490000  1.0 -0.3222775637
N  N15  1  0.16450000  0.30190000  0.92510000  1.0 -0.3222775637
N  N16  1  0.66450000  0.69810000  0.07490000  1.0 -0.3222775637
N  N17  1  0.27660000  0.58440000  0.43360000  1.0 -0.3662892876
N  N18  1  0.77660000  0.41560000  0.56640000  1.0 -0.3662892876
N  N19  1  0.27660000  0.41560000  0.93360000  1.0 -0.3662892876
N  N20  1  0.77660000  0.58440000  0.06640000  1.0 -0.3662892876
N  N21  1  0.18170000  0.54480000  0.34780000  1.0 -0.3222775637
N  N22  1  0.68170000  0.45520000  0.65220000  1.0 -0.3222775637
N  N23  1  0.18170000  0.45520000  0.84780000  1.0 -0.3222775637
N  N24  1  0.68170000  0.54480000  0.15220000  1.0 -0.3222775637
N  N25  1  0.03060000  0.64130000  0.35530000  1.0 -0.3299085752
N  N26  1  0.53060000  0.35870000  0.64470000  1.0 -0.3299085752
N  N27  1  0.03060000  0.35870000  0.85530000  1.0 -0.3299085752
N  N28  1  0.53060000  0.64130000  0.14470000  1.0 -0.3299085752
N  N29  1  0.02520000  0.90940000  0.69110000  1.0 -0.5181757732
N  N30  1  0.52520000  0.09060000  0.30890000  1.0 -0.5181757732
N  N31  1  0.02520000  0.09060000  0.19110000  1.0 -0.5181757732
N  N32  1  0.52520000  0.90940000  0.80890000  1.0 -0.5181757732
N  N33  1  0.83940000  0.90580000  0.72610000  1.0 -0.4711836393
N  N34  1  0.33940000  0.09420000  0.27390000  1.0 -0.4611576009
N  N35  1  0.83940000  0.09420000  0.22610000  1.0 -0.4611576009
N  N36  1  0.33940000  0.90580000  0.77390000  1.0 -0.4711836393
N  N37  1  0.70950000  0.81470000  0.73350000  1.0 -0.4611576009
N  N38  1  0.20950000  0.18530000  0.26650000  1.0 -0.4611576009
N  N39  1  0.70950000  0.18530000  0.23350000  1.0 -0.4611576009
N  N40  1  0.20950000  0.81470000  0.76650000  1.0 -0.4611576009
N  N41  1  0.14020000  0.02140000  0.65490000  1.0 -0.3299085752
N  N42  1  0.64020000  0.97860000  0.34510000  1.0 -0.3299085752
N  N43  1  0.14020000  0.97860000  0.15490000  1.0 -0.3299085752
N  N44  1  0.64020000  0.02140000  0.84510000  1.0 -0.3299085752
N  N45  1  0.30030000  0.92880000  0.66770000  1.0 -0.3491449429
N  N46  1  0.80030000  0.07120000  0.33230000  1.0 -0.3491449429
N  N47  1  0.30030000  0.07120000  0.16770000  1.0 -0.3491449429
N  N48  1  0.80030000  0.92880000  0.83230000  1.0 -0.3491449429
N  N49  1  0.15140000  0.83800000  0.62440000  1.0 -0.3299085752
N  N50  1  0.65140000  0.16200000  0.37560000  1.0 -0.3299085752
N  N51  1  0.15140000  0.16200000  0.12440000  1.0 -0.3299085752
N  N52  1  0.65140000  0.83800000  0.87560000  1.0 -0.3299085752
N  N53  1  0.04100000  0.93950000  0.58580000  1.0 -0.3491449429
N  N54  1  0.54100000  0.06050000  0.41420000  1.0 -0.3491449429
N  N55  1  0.04100000  0.06050000  0.08580000  1.0 -0.3491449429
N  N56  1  0.54100000  0.93950000  0.91420000  1.0 -0.3491449429
N  N57  1  0.25600000  0.17970000  0.51750000  1.0 -0.4825509301
N  N58  1  0.75600000  0.82030000  0.48250000  1.0 -0.4825509301
N  N59  1  0.25600000  0.82030000  0.01750000  1.0 -0.4825509301
N  N60  1  0.75600000  0.17970000  0.98250000  1.0 -0.4825509301
N  N61  1  0.37020000  0.10490000  0.55650000  1.0 -0.399549648
N  N62  1  0.87020000  0.89510000  0.44350000  1.0 -0.399549648
N  N63  1  0.37020000  0.89510000  0.05650000  1.0 -0.399549648
N  N64  1  0.87020000  0.10490000  0.94350000  1.0 -0.399549648
N  N65  1  0.51280000  0.11400000  0.60870000  1.0 -0.4913151454
N  N66  1  0.01280000  0.88600000  0.39130000  1.0 -0.4913151454
N  N67  1  0.51280000  0.88600000  0.10870000  1.0 -0.4913151454
N  N68  1  0.01280000  0.11400000  0.89130000  1.0 -0.4913151454
N  N69  1  0.12070000  0.30250000  0.53040000  1.0 -0.5291355698
N  N70  1  0.62070000  0.69750000  0.46960000  1.0 -0.5291355698
N  N71  1  0.12070000  0.69750000  0.03040000  1.0 -0.5291355698
N  N72  1  0.62070000  0.30250000  0.96960000  1.0 -0.5291355698
N  N73  1  0.02880000  0.38020000  0.57580000  1.0 -0.399549648
N  N74  1  0.52880000  0.61980000  0.42420000  1.0 -0.399549648
N  N75  1  0.02880000  0.61980000  0.07580000  1.0 -0.399549648
N  N76  1  0.52880000  0.38020000  0.92420000  1.0 -0.399549648
N  N77  1  0.12110000  0.46540000  0.61790000  1.0 -0.4711836393
N  N78  1  0.62110000  0.53460000  0.38210000  1.0 -0.4711836393
N  N79  1  0.12110000  0.53460000  0.11790000  1.0 -0.4711836393
N  N80  1  0.62110000  0.46540000  0.88210000  1.0 -0.4711836393
N  N81  1  0.06340000  0.30070000  0.43210000  1.0 -0.4992948488
N  N82  1  0.56340000  0.69930000  0.56790000  1.0 -0.4992948488
N  N83  1  0.06340000  0.69930000  0.93210000  1.0 -0.4992948488
N  N84  1  0.56340000  0.30070000  0.06790000  1.0 -0.4992948488
N  N85  1  0.96260000  0.40160000  0.42780000  1.0 -0.4175249337
N  N86  1  0.46260000  0.59840000  0.57220000  1.0 -0.4175249337
N  N87  1  0.96260000  0.59840000  0.92780000  1.0 -0.4175249337
N  N88  1  0.46260000  0.40160000  0.07220000  1.0 -0.4175249337
N  N89  1  0.80960000  0.42940000  0.38110000  1.0 -0.4913151454
N  N90  1  0.30960000  0.57060000  0.61890000  1.0 -0.4913151454
N  N91  1  0.80960000  0.57060000  0.88110000  1.0 -0.4913151454
N  N92  1  0.30960000  0.42940000  0.11890000  1.0 -0.4913151454
N  N93  1  0.01030000  0.19170000  0.49060000  1.0 -0.4611576009
N  N94  1  0.51030000  0.80830000  0.50940000  1.0 -0.4611576009
N  N95  1  0.01030000  0.80830000  0.99060000  1.0 -0.4611576009
N  N96  1  0.51030000  0.19170000  0.00940000  1.0 -0.4611576009
N  N97  1  0.82330000  0.15160000  0.51260000  1.0 -0.4825509301
N  N98  1  0.32330000  0.84840000  0.48740000  1.0 -0.4825509301
N  N99  1  0.82330000  0.84840000  0.01260000  1.0 -0.4825509301
N  N100  1  0.32330000  0.15160000  0.98740000  1.0 -0.4825509301
N  N101  1  0.75080000  0.14310000  0.58970000  1.0 -0.4611576009
N  N102  1  0.25080000  0.85690000  0.41030000  1.0 -0.4611576009
N  N103  1  0.75080000  0.85690000  0.08970000  1.0 -0.4611576009
N  N104  1  0.25080000  0.14310000  0.91030000  1.0 -0.4611576009
N  N105  1  0.19270000  0.17560000  0.42140000  1.0 -0.4992948488
N  N106  1  0.69270000  0.82440000  0.57860000  1.0 -0.4992948488
N  N107  1  0.19270000  0.82440000  0.92140000  1.0 -0.4992948488
N  N108  1  0.69270000  0.17560000  0.07860000  1.0 -0.4992948488
N  N109  1  0.28270000  0.08160000  0.38780000  1.0 -0.3921797796
N  N110  1  0.78270000  0.91840000  0.61220000  1.0 -0.3921797796
N  N111  1  0.28270000  0.91840000  0.88780000  1.0 -0.3921797796
N  N112  1  0.78270000  0.08160000  0.11220000  1.0 -0.3921797796
N  N113  1  0.19160000  0.98360000  0.36660000  1.0 -0.5181757732
N  N114  1  0.69160000  0.01640000  0.63340000  1.0 -0.5181757732
N  N115  1  0.19160000  0.01640000  0.86660000  1.0 -0.5181757732
N  N116  1  0.69160000  0.98360000  0.13340000  1.0 -0.5181757732
N  N117  1  0.30460000  0.29540000  0.45770000  1.0 -0.4913151454
N  N118  1  0.80460000  0.70460000  0.54230000  1.0 -0.4913151454
N  N119  1  0.30460000  0.70460000  0.95770000  1.0 -0.4913151454
N  N120  1  0.80460000  0.29540000  0.04230000  1.0 -0.4913151454
N  N121  1  0.48470000  0.34140000  0.44970000  1.0 -0.4175249337
N  N122  1  0.98470000  0.65860000  0.55030000  1.0 -0.4175249337
N  N123  1  0.48470000  0.65860000  0.94970000  1.0 -0.4175249337
N  N124  1  0.98470000  0.34140000  0.05030000  1.0 -0.4175249337
N  N125  1  0.56700000  0.39720000  0.38350000  1.0 -0.5436474828
N  N126  1  0.06700000  0.60280000  0.61650000  1.0 -0.5436474828
N  N127  1  0.56700000  0.60280000  0.88350000  1.0 -0.5436474828
N  N128  1  0.06700000  0.39720000  0.11650000  1.0 -0.5436474828
N  N129  1  0.81180000  0.11160000  0.68990000  1.0 -0.4711836393
N  N130  1  0.31180000  0.88840000  0.31010000  1.0 -0.4711836393
N  N131  1  0.81180000  0.88840000  0.18990000  1.0 -0.4711836393
N  N132  1  0.31180000  0.11160000  0.81010000  1.0 -0.4711836393
N  N133  1  0.97140000  0.06500000  0.72500000  1.0 -0.399549648
N  N134  1  0.47140000  0.93500000  0.27500000  1.0 -0.399549648
N  N135  1  0.97140000  0.93500000  0.22500000  1.0 -0.399549648
N  N136  1  0.47140000  0.06500000  0.77500000  1.0 -0.399549648
N  N137  1  0.07100000  0.09160000  0.79360000  1.0 -0.4913151454
N  N138  1  0.57100000  0.90840000  0.20640000  1.0 -0.4913151454
N  N139  1  0.07100000  0.90840000  0.29360000  1.0 -0.4913151454
N  N140  1  0.57100000  0.09160000  0.70640000  1.0 -0.4913151454
N  N141  1  0.26150000  0.49470000  0.70220000  1.0 -0.4711836393
N  N142  1  0.76150000  0.50530000  0.29780000  1.0 -0.4711836393
N  N143  1  0.26150000  0.50530000  0.20220000  1.0 -0.4711836393
N  N144  1  0.76150000  0.49470000  0.79780000  1.0 -0.4711836393
N  N145  1  0.35910000  0.46600000  0.77260000  1.0 -0.4611576009
N  N146  1  0.85910000  0.53400000  0.22740000  1.0 -0.4611576009
N  N147  1  0.35910000  0.53400000  0.27260000  1.0 -0.4611576009
N  N148  1  0.85910000  0.46600000  0.72740000  1.0 -0.4611576009
N  N149  1  0.52080000  0.52450000  0.80010000  1.0 -0.4611576009
N  N150  1  0.02080000  0.47550000  0.19990000  1.0 -0.4611576009
N  N151  1  0.52080000  0.47550000  0.30010000  1.0 -0.4611576009
N  N152  1  0.02080000  0.52450000  0.69990000  1.0 -0.4611576009
O  O1  1  0.65010000  0.21410000  0.66851000  1.0 -0.2941761313
O  O2  1  0.15010000  0.78590000  0.33149000  1.0 -0.2941761313
O  O3  1  0.65010000  0.78590000  0.16851000  1.0 -0.2941761313
O  O4  1  0.15010000  0.21410000  0.83149000  1.0 -0.2941761313
O  O5  1  0.19580000  0.62940000  0.70110000  1.0 -0.2402120566
O  O6  1  0.69580000  0.37060000  0.29890000  1.0 -0.2402120566
O  O7  1  0.19580000  0.37060000  0.20110000  1.0 -0.2402120566
O  O8  1  0.69580000  0.62940000  0.79890000  1.0 -0.2402120566
O  O9  1  0.60360000  0.74600000  0.80010000  1.0 0.0714005392
O  O10  1  0.10360000  0.25400000  0.19990000  1.0 0.0714005392
O  O11  1  0.60360000  0.25400000  0.30010000  1.0 0.0714005392
O  O12  1  0.10360000  0.74600000  0.69990000  1.0 0.0714005392
