# DDEC6 charges by PACMAN v1.1 (https://github.com/mtap-research/PACMAN-charge/)
data_VUNLIC_FSR_pacman
_symmetry_space_group_name_H-M   'P 1'
_cell_length_a   15.62740000
_cell_length_b   14.97550000
_cell_length_c   18.61870000
_cell_angle_alpha   90.00000000
_cell_angle_beta   110.96500000
_cell_angle_gamma   90.00000000
_symmetry_Int_Tables_number   1
_chemical_formula_structural   Mg3H60C58(N5O8)2
_chemical_formula_sum   'Mg6 H120 C116 N20 O32'
_cell_volume   4068.84266120
_cell_formula_units_Z   2
loop_
 _symmetry_equiv_pos_site_id
 _symmetry_equiv_pos_as_xyz
  1  'x, y, z'
loop_
 _atom_site_type_symbol
 _atom_site_label
 _atom_site_symmetry_multiplicity
 _atom_site_fract_x
 _atom_site_fract_y
 _atom_site_fract_z
 _atom_site_occupancy
 _atom_site_charge
Mg  Mg1  1  0.06124000  0.51208000  0.83482000  1.0 1.3452737203
Mg  Mg2  1  0.93876000  0.01208000  0.66518000  1.0 1.3452737203
Mg  Mg3  1  0.93876000  0.48792000  0.16518000  1.0 1.3452737203
Mg  Mg4  1  0.06124000  0.98792000  0.33482000  1.0 1.3452737203
Mg  Mg5  1  0.00000000  0.50000000  0.00000000  1.0 1.4141538611
Mg  Mg6  1  0.00000000  0.00000000  0.50000000  1.0 1.4141538611
H  H1  1  0.22780000  0.70646000  0.79031000  1.0 0.1502122714
H  H2  1  0.14033000  0.72693000  0.71488000  1.0 0.1502122714
H  H3  1  0.12678000  0.69512000  0.79218000  1.0 0.1697214751
H  H4  1  0.27765000  0.60880000  0.62283000  1.0 0.1307951758
H  H5  1  0.23526000  0.69002000  0.65500000  1.0 0.1205640385
H  H6  1  0.32647000  0.64146000  0.70983000  1.0 0.1373994391
H  H7  1  0.21892000  0.47396000  0.61979000  1.0 0.1307951758
H  H8  1  0.26272000  0.44537000  0.70831000  1.0 0.1373994391
H  H9  1  0.15375000  0.44901000  0.66637000  1.0 0.1373994391
H  H10  1  0.97718000  0.29416000  0.66808000  1.0 0.159471581
H  H11  1  0.98809000  0.37900000  0.61981000  1.0 0.1502122714
H  H12  1  0.05234000  0.36883000  0.70827000  1.0 0.1753890386
H  H13  1  0.74600000  0.30719000  0.58485000  1.0 0.1307951758
H  H14  1  0.77646000  0.38245000  0.53784000  1.0 0.1307951758
H  H15  1  0.84603000  0.30408000  0.57974000  1.0 0.1307951758
H  H16  1  0.71987000  0.40570000  0.67954000  1.0 0.1307951758
H  H17  1  0.79580000  0.47872000  0.72228000  1.0 0.1502122714
H  H18  1  0.73480000  0.49062000  0.63317000  1.0 0.1307951758
H  H19  1  0.17890000  0.22337000  0.91891000  1.0 0.1205640385
H  H20  1  0.16143000  0.07803000  0.95640000  1.0 0.1307951758
H  H21  1  0.92226000  0.14904000  0.97935000  1.0 0.1205640385
H  H22  1  0.94361000  0.29585000  0.94782000  1.0 0.1307951758
H  H23  1  0.87531000  0.71635000  0.72937000  1.0 0.1307951758
H  H24  1  0.73895000  0.78780000  0.65678000  1.0 0.1307951758
H  H25  1  0.62639000  0.71353000  0.81236000  1.0 0.1205640385
H  H26  1  0.76400000  0.64636000  0.88651000  1.0 0.1307951758
H  H27  1  0.23688000  0.88580000  0.63724000  1.0 0.1373994391
H  H28  1  0.37596000  0.82709000  0.71976000  1.0 0.1205640385
H  H29  1  0.46935000  0.81867000  0.54323000  1.0 0.1205640385
H  H30  1  0.32686000  0.86708000  0.45976000  1.0 0.1307951758
H  H31  1  0.77220000  0.20646000  0.70969000  1.0 0.1502122714
H  H32  1  0.85967000  0.22693000  0.78512000  1.0 0.1502122714
H  H33  1  0.87322000  0.19512000  0.70782000  1.0 0.1697214751
H  H34  1  0.72235000  0.10880000  0.87717000  1.0 0.1307951758
H  H35  1  0.76474000  0.19002000  0.84500000  1.0 0.1205640385
H  H36  1  0.67353000  0.14146000  0.79017000  1.0 0.1307951758
H  H37  1  0.78108000  0.97396000  0.88021000  1.0 0.1307951758
H  H38  1  0.73728000  0.94537000  0.79169000  1.0 0.1373994391
H  H39  1  0.84625000  0.94901000  0.83363000  1.0 0.1373994391
H  H40  1  0.02282000  0.79416000  0.83192000  1.0 0.159471581
H  H41  1  0.01191000  0.87900000  0.88019000  1.0 0.1502122714
H  H42  1  0.94766000  0.86883000  0.79173000  1.0 0.1753890386
H  H43  1  0.25400000  0.80719000  0.91515000  1.0 0.1307951758
H  H44  1  0.22354000  0.88245000  0.96216000  1.0 0.1307951758
H  H45  1  0.15397000  0.80408000  0.92026000  1.0 0.1307951758
H  H46  1  0.28013000  0.90570000  0.82046000  1.0 0.1307951758
H  H47  1  0.20420000  0.97872000  0.77772000  1.0 0.1502122714
H  H48  1  0.26520000  0.99062000  0.86683000  1.0 0.1307951758
H  H49  1  0.82110000  0.72337000  0.58109000  1.0 0.1205640385
H  H50  1  0.83857000  0.57803000  0.54360000  1.0 0.1307951758
H  H51  1  0.07774000  0.64904000  0.52065000  1.0 0.1205640385
H  H52  1  0.05639000  0.79585000  0.55218000  1.0 0.1307951758
H  H53  1  0.12469000  0.21635000  0.77063000  1.0 0.1307951758
H  H54  1  0.26105000  0.28780000  0.84322000  1.0 0.1307951758
H  H55  1  0.37361000  0.21353000  0.68764000  1.0 0.1205640385
H  H56  1  0.23600000  0.14636000  0.61349000  1.0 0.1307951758
H  H57  1  0.76312000  0.38580000  0.86276000  1.0 0.1373994391
H  H58  1  0.62404000  0.32709000  0.78024000  1.0 0.1205640385
H  H59  1  0.53065000  0.31867000  0.95677000  1.0 0.1205640385
H  H60  1  0.67314000  0.36708000  0.04024000  1.0 0.1307951758
H  H61  1  0.77220000  0.29354000  0.20969000  1.0 0.1502122714
H  H62  1  0.85967000  0.27307000  0.28512000  1.0 0.1502122714
H  H63  1  0.87322000  0.30488000  0.20782000  1.0 0.1697214751
H  H64  1  0.72235000  0.39120000  0.37717000  1.0 0.1307951758
H  H65  1  0.76474000  0.30998000  0.34500000  1.0 0.1205640385
H  H66  1  0.67353000  0.35854000  0.29017000  1.0 0.1373994391
H  H67  1  0.78108000  0.52604000  0.38021000  1.0 0.1307951758
H  H68  1  0.73728000  0.55463000  0.29169000  1.0 0.1373994391
H  H69  1  0.84625000  0.55099000  0.33363000  1.0 0.1373994391
H  H70  1  0.02282000  0.70584000  0.33192000  1.0 0.159471581
H  H71  1  0.01191000  0.62100000  0.38019000  1.0 0.1502122714
H  H72  1  0.94766000  0.63117000  0.29173000  1.0 0.1753890386
H  H73  1  0.25400000  0.69281000  0.41515000  1.0 0.1307951758
H  H74  1  0.22354000  0.61755000  0.46216000  1.0 0.1307951758
H  H75  1  0.15397000  0.69592000  0.42026000  1.0 0.1307951758
H  H76  1  0.28013000  0.59430000  0.32046000  1.0 0.1307951758
H  H77  1  0.20420000  0.52128000  0.27772000  1.0 0.1502122714
H  H78  1  0.26520000  0.50938000  0.36683000  1.0 0.1307951758
H  H79  1  0.82110000  0.77663000  0.08109000  1.0 0.1205640385
H  H80  1  0.83857000  0.92197000  0.04360000  1.0 0.1307951758
H  H81  1  0.07774000  0.85096000  0.02065000  1.0 0.1205640385
H  H82  1  0.05639000  0.70415000  0.05218000  1.0 0.1307951758
H  H83  1  0.12469000  0.28365000  0.27063000  1.0 0.1307951758
H  H84  1  0.26105000  0.21220000  0.34322000  1.0 0.1307951758
H  H85  1  0.37361000  0.28647000  0.18764000  1.0 0.1205640385
H  H86  1  0.23600000  0.35364000  0.11349000  1.0 0.1307951758
H  H87  1  0.76312000  0.11420000  0.36276000  1.0 0.1373994391
H  H88  1  0.62404000  0.17291000  0.28024000  1.0 0.1205640385
H  H89  1  0.53065000  0.18133000  0.45677000  1.0 0.1205640385
H  H90  1  0.67314000  0.13292000  0.54024000  1.0 0.1307951758
H  H91  1  0.22780000  0.79354000  0.29031000  1.0 0.1502122714
H  H92  1  0.14033000  0.77307000  0.21488000  1.0 0.1502122714
H  H93  1  0.12678000  0.80488000  0.29218000  1.0 0.1697214751
H  H94  1  0.27765000  0.89120000  0.12283000  1.0 0.1307951758
H  H95  1  0.23526000  0.80998000  0.15500000  1.0 0.1205640385
H  H96  1  0.32647000  0.85854000  0.20983000  1.0 0.1373994391
H  H97  1  0.21892000  0.02604000  0.11979000  1.0 0.1307951758
H  H98  1  0.26272000  0.05463000  0.20831000  1.0 0.1373994391
H  H99  1  0.15375000  0.05099000  0.16637000  1.0 0.1373994391
H  H100  1  0.97718000  0.20584000  0.16808000  1.0 0.159471581
H  H101  1  0.98809000  0.12100000  0.11981000  1.0 0.1502122714
H  H102  1  0.05234000  0.13117000  0.20827000  1.0 0.1753890386
H  H103  1  0.74600000  0.19281000  0.08485000  1.0 0.1307951758
H  H104  1  0.77646000  0.11755000  0.03784000  1.0 0.1307951758
H  H105  1  0.84603000  0.19592000  0.07974000  1.0 0.1307951758
H  H106  1  0.71987000  0.09430000  0.17954000  1.0 0.1307951758
H  H107  1  0.79580000  0.02128000  0.22228000  1.0 0.1502122714
H  H108  1  0.73480000  0.00938000  0.13317000  1.0 0.1307951758
H  H109  1  0.17890000  0.27663000  0.41891000  1.0 0.1205640385
H  H110  1  0.16143000  0.42197000  0.45640000  1.0 0.1307951758
H  H111  1  0.92226000  0.35096000  0.47935000  1.0 0.1205640385
H  H112  1  0.94361000  0.20415000  0.44782000  1.0 0.1307951758
H  H113  1  0.87531000  0.78365000  0.22937000  1.0 0.1307951758
H  H114  1  0.73895000  0.71220000  0.15678000  1.0 0.1307951758
H  H115  1  0.62639000  0.78647000  0.31236000  1.0 0.1205640385
H  H116  1  0.76400000  0.85364000  0.38651000  1.0 0.1307951758
H  H117  1  0.23688000  0.61420000  0.13724000  1.0 0.1373994391
H  H118  1  0.37596000  0.67291000  0.21976000  1.0 0.1205640385
H  H119  1  0.46935000  0.68133000  0.04323000  1.0 0.1205640385
H  H120  1  0.32686000  0.63292000  0.95976000  1.0 0.1307951758
C  C1  1  0.16336000  0.59287000  0.73564000  1.0 0.5424815288
C  C2  1  0.16470000  0.68870000  0.76041000  1.0 -0.6029250303
C  C3  1  0.26740000  0.63270000  0.66810000  1.0 -0.3459758588
C  C4  1  0.21180000  0.47700000  0.66990000  1.0 -0.3331328609
C  C5  1  0.99083000  0.35820000  0.67048000  1.0 -0.6029250303
C  C6  1  0.92198000  0.40793000  0.69382000  1.0 0.5424815288
C  C7  1  0.79744000  0.34339000  0.58304000  1.0 -0.3388803332
C  C8  1  0.76537000  0.44720000  0.67364000  1.0 -0.3388803332
C  C9  1  0.07120000  0.36513000  0.90092000  1.0 0.5866630545
C  C10  1  0.06299000  0.27350000  0.92944000  1.0 -0.0142076167
C  C11  1  0.12722000  0.20844000  0.93200000  1.0 -0.0904674373
C  C12  1  0.11649000  0.12201000  0.95349000  1.0 -0.1520480101
C  C13  1  0.04003000  0.09979000  0.97075000  1.0 0.1697214751
C  C14  1  0.97492000  0.16454000  0.96789000  1.0 -0.1605838367
C  C15  1  0.98707000  0.25125000  0.94836000  1.0 -0.0825533948
C  C16  1  0.91848000  0.62233000  0.85958000  1.0 0.6118171981
C  C17  1  0.83250000  0.67301000  0.81416000  1.0 -0.0196585268
C  C18  1  0.82474000  0.71565000  0.74631000  1.0 -0.0825533948
C  C19  1  0.74351000  0.75744000  0.70281000  1.0 -0.1520480101
C  C20  1  0.66937000  0.75490000  0.72640000  1.0 0.159471581
C  C21  1  0.67695000  0.71390000  0.79540000  1.0 -0.1605838367
C  C22  1  0.75839000  0.67377000  0.83902000  1.0 -0.0904674373
C  C23  1  0.17772000  0.91790000  0.48719000  1.0 0.6118171981
C  C24  1  0.26864000  0.88232000  0.54081000  1.0 -0.0196585268
C  C25  1  0.28362000  0.87086000  0.61786000  1.0 -0.1018104644
C  C26  1  0.36679000  0.83754000  0.66719000  1.0 -0.1605838367
C  C27  1  0.43592000  0.81969000  0.63976000  1.0 0.159471581
C  C28  1  0.42168000  0.83122000  0.56217000  1.0 -0.1605838367
C  C29  1  0.33768000  0.86103000  0.51309000  1.0 -0.0904674373
C  C30  1  0.83664000  0.09287000  0.76436000  1.0 0.5424815288
C  C31  1  0.83530000  0.18870000  0.73959000  1.0 -0.6029250303
C  C32  1  0.73260000  0.13270000  0.83190000  1.0 -0.3459758588
C  C33  1  0.78820000  0.97700000  0.83010000  1.0 -0.3331328609
C  C34  1  0.00917000  0.85820000  0.82952000  1.0 -0.6029250303
C  C35  1  0.07802000  0.90793000  0.80618000  1.0 0.5424815288
C  C36  1  0.20256000  0.84339000  0.91696000  1.0 -0.3388803332
C  C37  1  0.23463000  0.94720000  0.82636000  1.0 -0.3388803332
C  C38  1  0.92880000  0.86513000  0.59908000  1.0 0.5866630545
C  C39  1  0.93701000  0.77350000  0.57056000  1.0 -0.0142076167
C  C40  1  0.87278000  0.70844000  0.56800000  1.0 -0.0904674373
C  C41  1  0.88351000  0.62201000  0.54651000  1.0 -0.1520480101
C  C42  1  0.95997000  0.59979000  0.52925000  1.0 0.1697214751
C  C43  1  0.02508000  0.66454000  0.53211000  1.0 -0.1605838367
C  C44  1  0.01293000  0.75125000  0.55164000  1.0 -0.0825533948
C  C45  1  0.08152000  0.12233000  0.64042000  1.0 0.6118171981
C  C46  1  0.16750000  0.17301000  0.68584000  1.0 -0.0196585268
C  C47  1  0.17526000  0.21565000  0.75369000  1.0 -0.0825533948
C  C48  1  0.25649000  0.25744000  0.79719000  1.0 -0.1520480101
C  C49  1  0.33063000  0.25490000  0.77360000  1.0 0.159471581
C  C50  1  0.32305000  0.21390000  0.70460000  1.0 -0.1605838367
C  C51  1  0.24161000  0.17377000  0.66098000  1.0 -0.0904674373
C  C52  1  0.82228000  0.41790000  0.01281000  1.0 0.6118171981
C  C53  1  0.73136000  0.38232000  0.95919000  1.0 -0.0196585268
C  C54  1  0.71638000  0.37086000  0.88214000  1.0 -0.1018104644
C  C55  1  0.63321000  0.33754000  0.83281000  1.0 -0.1605838367
C  C56  1  0.56408000  0.31969000  0.86024000  1.0 0.159471581
C  C57  1  0.57832000  0.33122000  0.93783000  1.0 -0.1605838367
C  C58  1  0.66232000  0.36103000  0.98691000  1.0 -0.0904674373
C  C59  1  0.83664000  0.40713000  0.26436000  1.0 0.5424815288
C  C60  1  0.83530000  0.31130000  0.23959000  1.0 -0.6029250303
C  C61  1  0.73260000  0.36730000  0.33190000  1.0 -0.3459758588
C  C62  1  0.78820000  0.52300000  0.33010000  1.0 -0.3331328609
C  C63  1  0.00917000  0.64180000  0.32952000  1.0 -0.6029250303
C  C64  1  0.07802000  0.59207000  0.30618000  1.0 0.5424815288
C  C65  1  0.20256000  0.65661000  0.41696000  1.0 -0.3459758588
C  C66  1  0.23463000  0.55280000  0.32636000  1.0 -0.3388803332
C  C67  1  0.92880000  0.63487000  0.09908000  1.0 0.5866630545
C  C68  1  0.93701000  0.72650000  0.07056000  1.0 -0.0142076167
C  C69  1  0.87278000  0.79156000  0.06800000  1.0 -0.0904674373
C  C70  1  0.88351000  0.87799000  0.04651000  1.0 -0.1520480101
C  C71  1  0.95997000  0.90021000  0.02925000  1.0 0.1697214751
C  C72  1  0.02508000  0.83546000  0.03211000  1.0 -0.1605838367
C  C73  1  0.01293000  0.74875000  0.05164000  1.0 -0.0825533948
C  C74  1  0.08152000  0.37767000  0.14042000  1.0 0.6118171981
C  C75  1  0.16750000  0.32699000  0.18584000  1.0 -0.0196585268
C  C76  1  0.17526000  0.28435000  0.25369000  1.0 -0.0825533948
C  C77  1  0.25649000  0.24256000  0.29719000  1.0 -0.1520480101
C  C78  1  0.33063000  0.24510000  0.27360000  1.0 0.159471581
C  C79  1  0.32305000  0.28610000  0.20460000  1.0 -0.1605838367
C  C80  1  0.24161000  0.32623000  0.16098000  1.0 -0.0904674373
C  C81  1  0.82228000  0.08210000  0.51281000  1.0 0.6118171981
C  C82  1  0.73136000  0.11768000  0.45919000  1.0 -0.0196585268
C  C83  1  0.71638000  0.12914000  0.38214000  1.0 -0.1018104644
C  C84  1  0.63321000  0.16246000  0.33281000  1.0 -0.1605838367
C  C85  1  0.56408000  0.18031000  0.36024000  1.0 0.159471581
C  C86  1  0.57832000  0.16878000  0.43783000  1.0 -0.1605838367
C  C87  1  0.66232000  0.13897000  0.48691000  1.0 -0.0904674373
C  C88  1  0.16336000  0.90713000  0.23564000  1.0 0.5424815288
C  C89  1  0.16470000  0.81130000  0.26041000  1.0 -0.6029250303
C  C90  1  0.26740000  0.86730000  0.16810000  1.0 -0.3459758588
C  C91  1  0.21180000  0.02300000  0.16990000  1.0 -0.3331328609
C  C92  1  0.99083000  0.14180000  0.17048000  1.0 -0.6029250303
C  C93  1  0.92198000  0.09207000  0.19382000  1.0 0.5424815288
C  C94  1  0.79744000  0.15661000  0.08304000  1.0 -0.3459758588
C  C95  1  0.76537000  0.05280000  0.17364000  1.0 -0.3388803332
C  C96  1  0.07120000  0.13487000  0.40092000  1.0 0.5866630545
C  C97  1  0.06299000  0.22650000  0.42944000  1.0 -0.0142076167
C  C98  1  0.12722000  0.29156000  0.43200000  1.0 -0.0904674373
C  C99  1  0.11649000  0.37799000  0.45349000  1.0 -0.1520480101
C  C100  1  0.04003000  0.40021000  0.47075000  1.0 0.1697214751
C  C101  1  0.97492000  0.33546000  0.46789000  1.0 -0.1605838367
C  C102  1  0.98707000  0.24875000  0.44836000  1.0 -0.0825533948
C  C103  1  0.91848000  0.87767000  0.35958000  1.0 0.6118171981
C  C104  1  0.83250000  0.82699000  0.31416000  1.0 -0.0196585268
C  C105  1  0.82474000  0.78435000  0.24631000  1.0 -0.0825533948
C  C106  1  0.74351000  0.74256000  0.20281000  1.0 -0.1520480101
C  C107  1  0.66937000  0.74510000  0.22640000  1.0 0.159471581
C  C108  1  0.67695000  0.78610000  0.29540000  1.0 -0.1605838367
C  C109  1  0.75839000  0.82623000  0.33902000  1.0 -0.0904674373
C  C110  1  0.17772000  0.58210000  0.98719000  1.0 0.6118171981
C  C111  1  0.26864000  0.61768000  0.04081000  1.0 -0.0196585268
C  C112  1  0.28362000  0.62914000  0.11786000  1.0 -0.1018104644
C  C113  1  0.36679000  0.66246000  0.16719000  1.0 -0.1605838367
C  C114  1  0.43592000  0.68031000  0.13976000  1.0 0.159471581
C  C115  1  0.42168000  0.66878000  0.06217000  1.0 -0.1605838367
C  C116  1  0.33768000  0.63897000  0.01309000  1.0 -0.0904674373
N  N1  1  0.21195000  0.56993000  0.69274000  1.0 -0.0196585268
N  N2  1  0.83300000  0.39783000  0.65277000  1.0 -0.0196585268
N  N3  1  0.03408000  0.00839000  0.99057000  1.0 -0.132480975
N  N4  1  0.58700000  0.79384000  0.67422000  1.0 -0.132480975
N  N5  1  0.51926000  0.78478000  0.69404000  1.0 -0.1369381377
N  N6  1  0.78805000  0.06993000  0.80726000  1.0 -0.0196585268
N  N7  1  0.16700000  0.89783000  0.84723000  1.0 -0.0196585268
N  N8  1  0.96592000  0.50839000  0.50943000  1.0 -0.132480975
N  N9  1  0.41300000  0.29384000  0.82578000  1.0 -0.132480975
N  N10  1  0.48074000  0.28478000  0.80596000  1.0 -0.1369381377
N  N11  1  0.78805000  0.43007000  0.30726000  1.0 -0.0196585268
N  N12  1  0.16700000  0.60217000  0.34723000  1.0 -0.0196585268
N  N13  1  0.96592000  0.99161000  0.00943000  1.0 -0.132480975
N  N14  1  0.41300000  0.20616000  0.32578000  1.0 -0.132480975
N  N15  1  0.48074000  0.21522000  0.30596000  1.0 -0.1369381377
N  N16  1  0.21195000  0.93007000  0.19274000  1.0 -0.0196585268
N  N17  1  0.83300000  0.10217000  0.15277000  1.0 -0.0196585268
N  N18  1  0.03408000  0.49161000  0.49057000  1.0 -0.132480975
N  N19  1  0.58700000  0.70616000  0.17422000  1.0 -0.132480975
N  N20  1  0.51926000  0.71522000  0.19404000  1.0 -0.1369381377
O  O1  1  0.11768000  0.53678000  0.75458000  1.0 -0.5859287509
O  O2  1  0.94665000  0.45802000  0.75073000  1.0 -0.5859287509
O  O3  1  0.12064000  0.37781000  0.86191000  1.0 -0.566940082
O  O4  1  0.02340000  0.42865000  0.91276000  1.0 -0.6993523964
O  O5  1  0.98124000  0.61910000  0.83227000  1.0 -0.6432020792
O  O6  1  0.91873000  0.58616000  0.92022000  1.0 -0.6287543902
O  O7  1  0.11682000  0.92761000  0.51504000  1.0 -0.6287543902
O  O8  1  0.17195000  0.93542000  0.41928000  1.0 -0.6287543902
O  O9  1  0.88232000  0.03678000  0.74542000  1.0 -0.5859287509
O  O10  1  0.05335000  0.95802000  0.74927000  1.0 -0.5859287509
O  O11  1  0.87936000  0.87781000  0.63809000  1.0 -0.566940082
O  O12  1  0.97660000  0.92865000  0.58724000  1.0 -0.6993523964
O  O13  1  0.01876000  0.11910000  0.66773000  1.0 -0.6432020792
O  O14  1  0.08127000  0.08616000  0.57978000  1.0 -0.6287543902
O  O15  1  0.88318000  0.42761000  0.98496000  1.0 -0.6287543902
O  O16  1  0.82805000  0.43542000  0.08072000  1.0 -0.6287543902
O  O17  1  0.88232000  0.46322000  0.24542000  1.0 -0.5859287509
O  O18  1  0.05335000  0.54198000  0.24927000  1.0 -0.5859287509
O  O19  1  0.87936000  0.62219000  0.13809000  1.0 -0.566940082
O  O20  1  0.97660000  0.57135000  0.08724000  1.0 -0.6993523964
O  O21  1  0.01876000  0.38090000  0.16773000  1.0 -0.6432020792
O  O22  1  0.08127000  0.41384000  0.07978000  1.0 -0.6287543902
O  O23  1  0.88318000  0.07239000  0.48496000  1.0 -0.6287543902
O  O24  1  0.82805000  0.06458000  0.58072000  1.0 -0.6287543902
O  O25  1  0.11768000  0.96322000  0.25458000  1.0 -0.5859287509
O  O26  1  0.94665000  0.04198000  0.25073000  1.0 -0.5859287509
O  O27  1  0.12064000  0.12219000  0.36191000  1.0 -0.566940082
O  O28  1  0.02340000  0.07135000  0.41276000  1.0 -0.6993523964
O  O29  1  0.98124000  0.88090000  0.33227000  1.0 -0.6432020792
O  O30  1  0.91873000  0.91384000  0.42022000  1.0 -0.6287543902
O  O31  1  0.11682000  0.57239000  0.01504000  1.0 -0.6287543902
O  O32  1  0.17195000  0.56458000  0.91928000  1.0 -0.6287543902
