# DDEC6 charges by PACMAN v1.1 (https://github.com/mtap-research/PACMAN-charge/)
data_VUNMOI_ASR_pacman
_symmetry_space_group_name_H-M   'P 1'
_cell_length_a   8.70220000
_cell_length_b   8.95200000
_cell_length_c   12.66980000
_cell_angle_alpha   106.80700000
_cell_angle_beta   90.98300000
_cell_angle_gamma   110.05400000
_symmetry_Int_Tables_number   1
_chemical_formula_structural   Cu5H10(C8O9)2
_chemical_formula_sum   'Cu5 H10 C16 O18'
_cell_volume   880.10229974
_cell_formula_units_Z   1
loop_
 _symmetry_equiv_pos_site_id
 _symmetry_equiv_pos_as_xyz
  1  'x, y, z'
loop_
 _atom_site_type_symbol
 _atom_site_label
 _atom_site_symmetry_multiplicity
 _atom_site_fract_x
 _atom_site_fract_y
 _atom_site_fract_z
 _atom_site_occupancy
 _atom_site_charge
Cu  Cu1  1  0.00000000  0.00000000  0.00000000  1.0 0.7271469216
Cu  Cu2  1  0.01194000  0.04353000  0.33241000  1.0 0.9673748294
Cu  Cu3  1  0.98806000  0.95647000  0.66759000  1.0 0.9673748294
Cu  Cu4  1  0.66065000  0.05522000  0.34359000  1.0 0.988932846
Cu  Cu5  1  0.33935000  0.94478000  0.65641000  1.0 0.988932846
H  H1  1  0.89760000  0.51500000  0.25590000  1.0 0.1251456271
H  H2  1  0.10240000  0.48500000  0.74410000  1.0 0.1251456271
H  H3  1  0.10900000  0.57630000  0.15480000  1.0 0.1184685769
H  H4  1  0.89100000  0.42370000  0.84520000  1.0 0.1184685769
H  H5  1  0.31350000  0.54840000  0.31820000  1.0 0.1184685769
H  H6  1  0.68650000  0.45160000  0.68180000  1.0 0.1184685769
H  H7  1  0.12750000  0.59070000  0.43860000  1.0 0.1068797427
H  H8  1  0.87250000  0.40930000  0.56140000  1.0 0.1068797427
H  H9  1  0.74200000  0.83620000  0.24800000  1.0 0.4289898852
H  H10  1  0.25800000  0.16380000  0.75200000  1.0 0.4289898852
C  C1  1  0.98870000  0.48410000  0.27660000  1.0 -0.1419730877
C  C2  1  0.01130000  0.51590000  0.72340000  1.0 -0.1419730877
C  C3  1  0.93030000  0.31940000  0.29990000  1.0 0.6530993561
C  C4  1  0.06970000  0.68060000  0.70010000  1.0 0.6530993561
C  C5  1  0.12360000  0.50670000  0.19830000  1.0 -0.1316470375
C  C6  1  0.87640000  0.49330000  0.80170000  1.0 -0.1316470375
C  C7  1  0.14650000  0.35500000  0.12220000  1.0 0.5961809735
C  C8  1  0.85350000  0.64500000  0.87780000  1.0 0.5961809735
C  C9  1  0.25740000  0.61620000  0.29800000  1.0 -0.1213389506
C  C10  1  0.74260000  0.38380000  0.70200000  1.0 -0.1213389506
C  C11  1  0.38390000  0.77570000  0.28900000  1.0 0.5880090575
C  C12  1  0.61610000  0.22430000  0.71100000  1.0 0.5880090575
C  C13  1  0.11660000  0.62640000  0.37360000  1.0 -0.1316470375
C  C14  1  0.88340000  0.37360000  0.62640000  1.0 -0.1316470375
C  C15  1  0.09680000  0.79430000  0.40440000  1.0 0.6334587316
C  C16  1  0.90320000  0.20570000  0.59560000  1.0 0.6334587316
O  O1  1  0.77750000  0.25110000  0.30030000  1.0 -0.5392125269
O  O2  1  0.22250000  0.74890000  0.69970000  1.0 -0.5392125269
O  O3  1  0.03700000  0.26360000  0.32070000  1.0 -0.559004726
O  O4  1  0.96300000  0.73640000  0.67930000  1.0 -0.559004726
O  O5  1  0.01670000  0.23120000  0.07410000  1.0 -0.559004726
O  O6  1  0.98330000  0.76880000  0.92590000  1.0 -0.559004726
O  O7  1  0.28970000  0.36070000  0.10860000  1.0 -0.4797045906
O  O8  1  0.71030000  0.63930000  0.89140000  1.0 -0.4797045906
O  O9  1  0.37420000  0.82470000  0.20880000  1.0 -0.5007225891
O  O10  1  0.62580000  0.17530000  0.79120000  1.0 -0.5007225891
O  O11  1  0.50210000  0.85540000  0.36950000  1.0 -0.5392125269
O  O12  1  0.49790000  0.14460000  0.63050000  1.0 -0.5392125269
O  O13  1  0.78850000  0.93640000  0.25930000  1.0 -0.7959349771
O  O14  1  0.21150000  0.06360000  0.74070000  1.0 -0.7949258705
O  O15  1  0.01890000  0.82470000  0.33327000  1.0 -0.5535554012
O  O16  1  0.98110000  0.17530000  0.66666667  1.0 -0.5535554012
O  O17  1  0.16420000  0.89750000  0.49817000  1.0 -0.6361280402
O  O18  1  0.83580000  0.10250000  0.50183000  1.0 -0.6361280402
