# DDEC6 charges by PACMAN v1.1 (https://github.com/mtap-research/PACMAN-charge/)
data_VUNPUS_FSR_pacman
_symmetry_space_group_name_H-M   'P 1'
_cell_length_a   12.29320000
_cell_length_b   30.82940000
_cell_length_c   26.23970000
_cell_angle_alpha   90.00000000
_cell_angle_beta   110.59200000
_cell_angle_gamma   90.00000000
_symmetry_Int_Tables_number   1
_chemical_formula_structural   Co2H31C33N5O9
_chemical_formula_sum   'Co16 H248 C264 N40 O72'
_cell_volume   9309.25967897
_cell_formula_units_Z   8
loop_
 _symmetry_equiv_pos_site_id
 _symmetry_equiv_pos_as_xyz
  1  'x, y, z'
loop_
 _atom_site_type_symbol
 _atom_site_label
 _atom_site_symmetry_multiplicity
 _atom_site_fract_x
 _atom_site_fract_y
 _atom_site_fract_z
 _atom_site_occupancy
 _atom_site_charge
Co  Co1  1  0.36989000  0.74534000  0.78575000  1.0 0.8101998128
Co  Co2  1  0.14215000  0.73568000  0.74053000  1.0 0.8101998128
Co  Co3  1  0.21893000  0.36907000  0.42336000  1.0 0.7899431743
Co  Co4  1  0.27158000  0.36079000  0.56744000  1.0 0.7710978694
Co  Co5  1  0.63011000  0.24534000  0.71425000  1.0 0.8101998128
Co  Co6  1  0.85785000  0.23568000  0.75947000  1.0 0.8101998128
Co  Co7  1  0.78107000  0.86907000  0.07664000  1.0 0.7899431743
Co  Co8  1  0.72842000  0.86079000  0.93256000  1.0 0.7710978694
Co  Co9  1  0.63011000  0.25466000  0.21425000  1.0 0.8101998128
Co  Co10  1  0.85785000  0.26432000  0.25947000  1.0 0.8101998128
Co  Co11  1  0.78107000  0.63093000  0.57664000  1.0 0.7899431743
Co  Co12  1  0.72842000  0.63921000  0.43256000  1.0 0.7710978694
Co  Co13  1  0.36989000  0.75466000  0.28575000  1.0 0.8101998128
Co  Co14  1  0.14215000  0.76432000  0.24053000  1.0 0.8101998128
Co  Co15  1  0.21893000  0.13093000  0.92336000  1.0 0.7899431743
Co  Co16  1  0.27158000  0.13921000  0.06744000  1.0 0.7710978694
H  H1  1  0.97185000  0.66373000  0.68330000  1.0 0.1101844991
H  H2  1  0.97831000  0.69652000  0.63715000  1.0 0.1101844991
H  H3  1  0.68137000  0.72282000  0.58513000  1.0 0.1018145813
H  H4  1  0.80353000  0.73260000  0.57844000  1.0 0.1018145813
H  H5  1  0.64531000  0.74814000  0.66474000  1.0 0.0903949435
H  H6  1  0.74283000  0.77568000  0.70983000  1.0 0.0903949435
H  H7  1  0.91427000  0.74183000  0.76799000  1.0 0.1018145813
H  H8  1  0.93367000  0.69096000  0.76218000  1.0 0.1101844991
H  H9  1  0.94717000  0.77378000  0.64505000  1.0 0.1101844991
H  H10  1  0.92295000  0.79206000  0.69720000  1.0 0.1101844991
H  H11  1  0.78929000  0.64933000  0.69502000  1.0 0.1018145813
H  H12  1  0.67248000  0.67200000  0.65603000  1.0 0.1018145813
H  H13  1  0.53059000  0.79482000  0.88165000  1.0 0.1101844991
H  H14  1  0.54361000  0.82007000  0.83081000  1.0 0.1101844991
H  H15  1  0.58545000  0.69017000  0.84188000  1.0 0.1101844991
H  H16  1  0.55591000  0.71590000  0.88840000  1.0 0.1101844991
H  H17  1  0.58755000  0.78054000  0.76033000  1.0 0.1018145813
H  H18  1  0.60308000  0.72892000  0.76442000  1.0 0.1018145813
H  H19  1  0.84397000  0.80626000  0.86600000  1.0 0.1018145813
H  H20  1  0.73096000  0.82651000  0.82087000  1.0 0.1018145813
H  H21  1  0.86579000  0.72796000  0.87427000  1.0 0.0903949435
H  H22  1  0.76853000  0.69747000  0.83344000  1.0 0.1018145813
H  H23  1  0.69938000  0.76221000  0.94958000  1.0 0.1101844991
H  H24  1  0.82442000  0.76681000  0.94401000  1.0 0.1018145813
H  H25  1  0.02936000  0.86680000  0.75699000  1.0 0.1101844991
H  H26  1  0.00145000  0.93738000  0.77842000  1.0 0.119855049
H  H27  1  0.08421000  0.00891000  0.81713000  1.0 0.119855049
H  H28  1  0.43313000  0.02561000  0.87721000  1.0 0.1101844991
H  H29  1  0.46047000  0.95553000  0.85270000  1.0 0.1101844991
H  H30  1  0.37806000  0.88422000  0.81348000  1.0 0.1282806735
H  H31  1  0.11121000  0.75666000  0.56833000  1.0 0.119855049
H  H32  1  0.02682000  0.76356000  0.46733000  1.0 0.1101844991
H  H33  1  0.05151000  0.76801000  0.38498000  1.0 0.1101844991
H  H34  1  0.39931000  0.76070000  0.45818000  1.0 0.119855049
H  H35  1  0.48457000  0.75455000  0.55943000  1.0 0.1101844991
H  H36  1  0.45959000  0.74852000  0.64171000  1.0 0.1101844991
H  H37  1  0.13406000  0.60235000  0.69621000  1.0 0.1282806735
H  H38  1  0.05144000  0.53613000  0.64245000  1.0 0.1101844991
H  H39  1  0.07733000  0.46754000  0.61399000  1.0 0.1101844991
H  H40  1  0.42017000  0.47209000  0.70304000  1.0 0.119855049
H  H41  1  0.50341000  0.53901000  0.75690000  1.0 0.119855049
H  H42  1  0.47878000  0.60923000  0.78078000  1.0 0.119855049
H  H43  1  0.63891000  0.34961000  0.60000000  1.0 0.119855049
H  H44  1  0.82879000  0.34964000  0.60257000  1.0 0.119855049
H  H45  1  0.96867000  0.35004000  0.55340000  1.0 0.119855049
H  H46  1  0.84978000  0.36074000  0.38932000  1.0 0.119855049
H  H47  1  0.65902000  0.36393000  0.38694000  1.0 0.119855049
H  H48  1  0.51829000  0.35836000  0.43536000  1.0 0.119855049
H  H49  1  0.11452000  0.44809000  0.45460000  1.0 0.1018145813
H  H50  1  0.34807000  0.50956000  0.57083000  1.0 0.0903949435
H  H51  1  0.38647000  0.46920000  0.54269000  1.0 0.0632031009
H  H52  1  0.37957000  0.51673000  0.51722000  1.0 0.0456883356
H  H53  1  0.17067000  0.54928000  0.47669000  1.0 0.0903949435
H  H54  1  0.06705000  0.51686000  0.47387000  1.0 0.0713944256
H  H55  1  0.14858000  0.53610000  0.53124000  1.0 0.0713944256
H  H56  1  0.37913000  0.44118000  0.54145000  1.0 0.1101844991
H  H57  1  0.35215000  0.54415000  0.53300000  1.0 0.0903949435
H  H58  1  0.44045000  0.51182000  0.51966000  1.0 0.0827473393
H  H59  1  0.34646000  0.53813000  0.47154000  1.0 0.0632031009
H  H60  1  0.14713000  0.51879000  0.44418000  1.0 0.0827473393
H  H61  1  0.11531000  0.47144000  0.45969000  1.0 0.0827473393
H  H62  1  0.12928000  0.51099000  0.50103000  1.0 0.1018145813
H  H63  1  0.02815000  0.16373000  0.81670000  1.0 0.1101844991
H  H64  1  0.02169000  0.19652000  0.86285000  1.0 0.1101844991
H  H65  1  0.31863000  0.22282000  0.91487000  1.0 0.1018145813
H  H66  1  0.19647000  0.23260000  0.92156000  1.0 0.1018145813
H  H67  1  0.35469000  0.24814000  0.83526000  1.0 0.0903949435
H  H68  1  0.25717000  0.27568000  0.79017000  1.0 0.0903949435
H  H69  1  0.08573000  0.24183000  0.73201000  1.0 0.1018145813
H  H70  1  0.06633000  0.19096000  0.73782000  1.0 0.1101844991
H  H71  1  0.05283000  0.27378000  0.85495000  1.0 0.1101844991
H  H72  1  0.07705000  0.29206000  0.80280000  1.0 0.1101844991
H  H73  1  0.21071000  0.14933000  0.80498000  1.0 0.1018145813
H  H74  1  0.32752000  0.17200000  0.84397000  1.0 0.1018145813
H  H75  1  0.46941000  0.29482000  0.61835000  1.0 0.1101844991
H  H76  1  0.45639000  0.32007000  0.66919000  1.0 0.1101844991
H  H77  1  0.41455000  0.19017000  0.65812000  1.0 0.1101844991
H  H78  1  0.44409000  0.21590000  0.61160000  1.0 0.1101844991
H  H79  1  0.41245000  0.28054000  0.73967000  1.0 0.1018145813
H  H80  1  0.39692000  0.22892000  0.73558000  1.0 0.1018145813
H  H81  1  0.15603000  0.30626000  0.63400000  1.0 0.1018145813
H  H82  1  0.26904000  0.32651000  0.67913000  1.0 0.1018145813
H  H83  1  0.13421000  0.22796000  0.62573000  1.0 0.0903949435
H  H84  1  0.23147000  0.19747000  0.66656000  1.0 0.1018145813
H  H85  1  0.30062000  0.26221000  0.55042000  1.0 0.1101844991
H  H86  1  0.17558000  0.26681000  0.55599000  1.0 0.1018145813
H  H87  1  0.97064000  0.36680000  0.74301000  1.0 0.1101844991
H  H88  1  0.99855000  0.43738000  0.72158000  1.0 0.119855049
H  H89  1  0.91579000  0.50891000  0.68287000  1.0 0.119855049
H  H90  1  0.56687000  0.52561000  0.62279000  1.0 0.1101844991
H  H91  1  0.53953000  0.45553000  0.64730000  1.0 0.1101844991
H  H92  1  0.62194000  0.38422000  0.68652000  1.0 0.1282806735
H  H93  1  0.88879000  0.25666000  0.93167000  1.0 0.119855049
H  H94  1  0.97318000  0.26356000  0.03267000  1.0 0.1101844991
H  H95  1  0.94849000  0.26801000  0.11502000  1.0 0.1101844991
H  H96  1  0.60069000  0.26070000  0.04182000  1.0 0.119855049
H  H97  1  0.51543000  0.25455000  0.94057000  1.0 0.1101844991
H  H98  1  0.54041000  0.24852000  0.85829000  1.0 0.1101844991
H  H99  1  0.86594000  0.10235000  0.80379000  1.0 0.1282806735
H  H100  1  0.94856000  0.03613000  0.85755000  1.0 0.1101844991
H  H101  1  0.92267000  0.96754000  0.88601000  1.0 0.1101844991
H  H102  1  0.57983000  0.97209000  0.79696000  1.0 0.119855049
H  H103  1  0.49659000  0.03901000  0.74310000  1.0 0.119855049
H  H104  1  0.52122000  0.10923000  0.71922000  1.0 0.119855049
H  H105  1  0.36109000  0.84961000  0.90000000  1.0 0.119855049
H  H106  1  0.17121000  0.84964000  0.89743000  1.0 0.119855049
H  H107  1  0.03133000  0.85004000  0.94660000  1.0 0.119855049
H  H108  1  0.15022000  0.86074000  0.11068000  1.0 0.119855049
H  H109  1  0.34098000  0.86393000  0.11306000  1.0 0.119855049
H  H110  1  0.48171000  0.85836000  0.06464000  1.0 0.119855049
H  H111  1  0.88548000  0.94809000  0.04540000  1.0 0.1018145813
H  H112  1  0.65193000  0.00956000  0.92917000  1.0 0.0903949435
H  H113  1  0.61353000  0.96920000  0.95731000  1.0 0.0632031009
H  H114  1  0.62043000  0.01673000  0.98278000  1.0 0.0456883356
H  H115  1  0.82933000  0.04928000  0.02331000  1.0 0.0903949435
H  H116  1  0.93295000  0.01686000  0.02613000  1.0 0.0713944256
H  H117  1  0.85142000  0.03610000  0.96876000  1.0 0.0713944256
H  H118  1  0.62087000  0.94118000  0.95855000  1.0 0.1101844991
H  H119  1  0.64785000  0.04415000  0.96700000  1.0 0.0903949435
H  H120  1  0.55955000  0.01182000  0.98034000  1.0 0.0827473393
H  H121  1  0.65354000  0.03813000  0.02846000  1.0 0.0632031009
H  H122  1  0.85287000  0.01879000  0.05582000  1.0 0.0827473393
H  H123  1  0.88469000  0.97144000  0.04031000  1.0 0.0827473393
H  H124  1  0.87072000  0.01099000  0.99897000  1.0 0.1018145813
H  H125  1  0.02815000  0.33627000  0.31670000  1.0 0.1101844991
H  H126  1  0.02169000  0.30348000  0.36285000  1.0 0.1101844991
H  H127  1  0.31863000  0.27718000  0.41487000  1.0 0.1018145813
H  H128  1  0.19647000  0.26740000  0.42156000  1.0 0.1018145813
H  H129  1  0.35469000  0.25186000  0.33526000  1.0 0.0903949435
H  H130  1  0.25717000  0.22432000  0.29017000  1.0 0.0903949435
H  H131  1  0.08573000  0.25817000  0.23201000  1.0 0.1018145813
H  H132  1  0.06633000  0.30904000  0.23782000  1.0 0.1101844991
H  H133  1  0.05283000  0.22622000  0.35495000  1.0 0.1101844991
H  H134  1  0.07705000  0.20794000  0.30280000  1.0 0.1101844991
H  H135  1  0.21071000  0.35067000  0.30498000  1.0 0.1018145813
H  H136  1  0.32752000  0.32800000  0.34397000  1.0 0.1018145813
H  H137  1  0.46941000  0.20518000  0.11835000  1.0 0.1101844991
H  H138  1  0.45639000  0.17993000  0.16919000  1.0 0.1101844991
H  H139  1  0.41455000  0.30983000  0.15812000  1.0 0.1101844991
H  H140  1  0.44409000  0.28410000  0.11160000  1.0 0.1101844991
H  H141  1  0.41245000  0.21946000  0.23967000  1.0 0.1018145813
H  H142  1  0.39692000  0.27108000  0.23558000  1.0 0.1018145813
H  H143  1  0.15603000  0.19374000  0.13400000  1.0 0.1018145813
H  H144  1  0.26904000  0.17349000  0.17913000  1.0 0.1018145813
H  H145  1  0.13421000  0.27204000  0.12573000  1.0 0.0903949435
H  H146  1  0.23147000  0.30253000  0.16656000  1.0 0.1018145813
H  H147  1  0.30062000  0.23779000  0.05042000  1.0 0.1101844991
H  H148  1  0.17558000  0.23319000  0.05599000  1.0 0.1018145813
H  H149  1  0.97064000  0.13320000  0.24301000  1.0 0.1101844991
H  H150  1  0.99855000  0.06262000  0.22158000  1.0 0.119855049
H  H151  1  0.91579000  0.99109000  0.18287000  1.0 0.119855049
H  H152  1  0.56687000  0.97439000  0.12279000  1.0 0.1101844991
H  H153  1  0.53953000  0.04447000  0.14730000  1.0 0.1101844991
H  H154  1  0.62194000  0.11578000  0.18652000  1.0 0.1282806735
H  H155  1  0.88879000  0.24334000  0.43167000  1.0 0.119855049
H  H156  1  0.97318000  0.23644000  0.53267000  1.0 0.1101844991
H  H157  1  0.94849000  0.23199000  0.61502000  1.0 0.1101844991
H  H158  1  0.60069000  0.23930000  0.54182000  1.0 0.119855049
H  H159  1  0.51543000  0.24545000  0.44057000  1.0 0.1101844991
H  H160  1  0.54041000  0.25148000  0.35829000  1.0 0.1101844991
H  H161  1  0.86594000  0.39765000  0.30379000  1.0 0.1282806735
H  H162  1  0.94856000  0.46387000  0.35755000  1.0 0.1101844991
H  H163  1  0.92267000  0.53246000  0.38601000  1.0 0.1101844991
H  H164  1  0.57983000  0.52791000  0.29696000  1.0 0.119855049
H  H165  1  0.49659000  0.46099000  0.24310000  1.0 0.119855049
H  H166  1  0.52122000  0.39077000  0.21922000  1.0 0.119855049
H  H167  1  0.36109000  0.65039000  0.40000000  1.0 0.119855049
H  H168  1  0.17121000  0.65036000  0.39743000  1.0 0.119855049
H  H169  1  0.03133000  0.64996000  0.44660000  1.0 0.119855049
H  H170  1  0.15022000  0.63926000  0.61068000  1.0 0.119855049
H  H171  1  0.34098000  0.63607000  0.61306000  1.0 0.119855049
H  H172  1  0.48171000  0.64164000  0.56464000  1.0 0.119855049
H  H173  1  0.88548000  0.55191000  0.54540000  1.0 0.1018145813
H  H174  1  0.65193000  0.49044000  0.42917000  1.0 0.0903949435
H  H175  1  0.61353000  0.53080000  0.45731000  1.0 0.0632031009
H  H176  1  0.62043000  0.48327000  0.48278000  1.0 0.0456883356
H  H177  1  0.82933000  0.45072000  0.52331000  1.0 0.0903949435
H  H178  1  0.93295000  0.48314000  0.52613000  1.0 0.0713944256
H  H179  1  0.85142000  0.46390000  0.46876000  1.0 0.0713944256
H  H180  1  0.62087000  0.55882000  0.45855000  1.0 0.1101844991
H  H181  1  0.64785000  0.45585000  0.46700000  1.0 0.0903949435
H  H182  1  0.55955000  0.48818000  0.48034000  1.0 0.0827473393
H  H183  1  0.65354000  0.46187000  0.52846000  1.0 0.0632031009
H  H184  1  0.85287000  0.48121000  0.55582000  1.0 0.0903949435
H  H185  1  0.88469000  0.52856000  0.54031000  1.0 0.0827473393
H  H186  1  0.87072000  0.48901000  0.49897000  1.0 0.1018145813
H  H187  1  0.97185000  0.83627000  0.18330000  1.0 0.1101844991
H  H188  1  0.97831000  0.80348000  0.13715000  1.0 0.1101844991
H  H189  1  0.68137000  0.77718000  0.08513000  1.0 0.1018145813
H  H190  1  0.80353000  0.76740000  0.07844000  1.0 0.1018145813
H  H191  1  0.64531000  0.75186000  0.16474000  1.0 0.0903949435
H  H192  1  0.74283000  0.72432000  0.20983000  1.0 0.0903949435
H  H193  1  0.91427000  0.75817000  0.26799000  1.0 0.1018145813
H  H194  1  0.93367000  0.80904000  0.26218000  1.0 0.1101844991
H  H195  1  0.94717000  0.72622000  0.14505000  1.0 0.1101844991
H  H196  1  0.92295000  0.70794000  0.19720000  1.0 0.1101844991
H  H197  1  0.78929000  0.85067000  0.19502000  1.0 0.1018145813
H  H198  1  0.67248000  0.82800000  0.15603000  1.0 0.1018145813
H  H199  1  0.53059000  0.70518000  0.38165000  1.0 0.1101844991
H  H200  1  0.54361000  0.67993000  0.33081000  1.0 0.1101844991
H  H201  1  0.58545000  0.80983000  0.34188000  1.0 0.1101844991
H  H202  1  0.55591000  0.78410000  0.38840000  1.0 0.1101844991
H  H203  1  0.58755000  0.71946000  0.26033000  1.0 0.1018145813
H  H204  1  0.60308000  0.77108000  0.26442000  1.0 0.1018145813
H  H205  1  0.84397000  0.69374000  0.36600000  1.0 0.1018145813
H  H206  1  0.73096000  0.67349000  0.32087000  1.0 0.1018145813
H  H207  1  0.86579000  0.77204000  0.37427000  1.0 0.0903949435
H  H208  1  0.76853000  0.80253000  0.33344000  1.0 0.1018145813
H  H209  1  0.69938000  0.73779000  0.44958000  1.0 0.1101844991
H  H210  1  0.82442000  0.73319000  0.44401000  1.0 0.1018145813
H  H211  1  0.02936000  0.63320000  0.25699000  1.0 0.119855049
H  H212  1  0.00145000  0.56262000  0.27842000  1.0 0.119855049
H  H213  1  0.08421000  0.49109000  0.31713000  1.0 0.1101844991
H  H214  1  0.43313000  0.47439000  0.37721000  1.0 0.1101844991
H  H215  1  0.46047000  0.54447000  0.35270000  1.0 0.1101844991
H  H216  1  0.37806000  0.61578000  0.31348000  1.0 0.1282806735
H  H217  1  0.11121000  0.74334000  0.06833000  1.0 0.119855049
H  H218  1  0.02682000  0.73644000  0.96733000  1.0 0.1101844991
H  H219  1  0.05151000  0.73199000  0.88498000  1.0 0.1101844991
H  H220  1  0.39931000  0.73930000  0.95818000  1.0 0.119855049
H  H221  1  0.48457000  0.74545000  0.05943000  1.0 0.1101844991
H  H222  1  0.45959000  0.75148000  0.14171000  1.0 0.1101844991
H  H223  1  0.13406000  0.89765000  0.19621000  1.0 0.1282806735
H  H224  1  0.05144000  0.96387000  0.14245000  1.0 0.1101844991
H  H225  1  0.07733000  0.03246000  0.11399000  1.0 0.1101844991
H  H226  1  0.42017000  0.02791000  0.20304000  1.0 0.119855049
H  H227  1  0.50341000  0.96099000  0.25690000  1.0 0.119855049
H  H228  1  0.47878000  0.89077000  0.28078000  1.0 0.119855049
H  H229  1  0.63891000  0.15039000  0.10000000  1.0 0.119855049
H  H230  1  0.82879000  0.15036000  0.10257000  1.0 0.119855049
H  H231  1  0.96867000  0.14996000  0.05340000  1.0 0.119855049
H  H232  1  0.84978000  0.13926000  0.88932000  1.0 0.119855049
H  H233  1  0.65902000  0.13607000  0.88694000  1.0 0.119855049
H  H234  1  0.51829000  0.14164000  0.93536000  1.0 0.119855049
H  H235  1  0.11452000  0.05191000  0.95460000  1.0 0.1018145813
H  H236  1  0.34807000  0.99044000  0.07083000  1.0 0.0903949435
H  H237  1  0.38647000  0.03080000  0.04269000  1.0 0.0632031009
H  H238  1  0.37957000  0.98327000  0.01722000  1.0 0.0456883356
H  H239  1  0.17067000  0.95072000  0.97669000  1.0 0.0903949435
H  H240  1  0.06705000  0.98314000  0.97387000  1.0 0.0713944256
H  H241  1  0.14858000  0.96390000  0.03124000  1.0 0.0713944256
H  H242  1  0.37913000  0.05882000  0.04145000  1.0 0.1101844991
H  H243  1  0.35215000  0.95585000  0.03300000  1.0 0.0903949435
H  H244  1  0.44045000  0.98818000  0.01966000  1.0 0.0827473393
H  H245  1  0.34646000  0.96187000  0.97154000  1.0 0.0632031009
H  H246  1  0.14713000  0.98121000  0.94418000  1.0 0.0827473393
H  H247  1  0.11531000  0.02856000  0.95969000  1.0 0.0827473393
H  H248  1  0.12928000  0.98901000  0.00103000  1.0 0.1018145813
C  C1  1  0.93875000  0.69073000  0.66345000  1.0 -0.0296571003
C  C2  1  0.76575000  0.72607000  0.60525000  1.0 -0.0296571003
C  C3  1  0.73016000  0.75142000  0.68366000  1.0 -0.0365744623
C  C4  1  0.90100000  0.71770000  0.74160000  1.0 -0.0296571003
C  C5  1  0.90902000  0.76727000  0.67172000  1.0 -0.0296571003
C  C6  1  0.75702000  0.67626000  0.67482000  1.0 -0.0296571003
C  C7  1  0.57323000  0.79532000  0.85593000  1.0 -0.0365744623
C  C8  1  0.59817000  0.71771000  0.86257000  1.0 -0.0365744623
C  C9  1  0.61635000  0.75604000  0.78595000  1.0 -0.0296571003
C  C10  1  0.75974000  0.80198000  0.84644000  1.0 -0.0296571003
C  C11  1  0.78130000  0.72497000  0.85420000  1.0 -0.0365744623
C  C12  1  0.74040000  0.76338000  0.92320000  1.0 -0.0296571003
C  C13  1  0.22488000  0.82263000  0.77188000  1.0 0.5737239055
C  C14  1  0.20846000  0.86902000  0.78336000  1.0 -0.0296571003
C  C15  1  0.09452000  0.88519000  0.77292000  1.0 -0.1276562919
C  C16  1  0.07810000  0.92688000  0.78560000  1.0 -0.1525562398
C  C17  1  0.17461000  0.95492000  0.80951000  1.0 0.0827473393
C  C18  1  0.16024000  0.99776000  0.82444000  1.0 -0.1588536554
C  C19  1  0.25475000  0.02367000  0.84945000  1.0 -0.0175313618
C  C20  1  0.36778000  0.00760000  0.85998000  1.0 -0.209739621
C  C21  1  0.38388000  0.96606000  0.84548000  1.0 -0.187329911
C  C22  1  0.28805000  0.93872000  0.81995000  1.0 0.0903949435
C  C23  1  0.30201000  0.89532000  0.80641000  1.0 -0.1525562398
C  C24  1  0.23828000  0.06768000  0.86888000  1.0 0.5065638877
C  C25  1  0.26976000  0.74919000  0.66746000  1.0 0.5760422058
C  C26  1  0.28176000  0.75290000  0.61276000  1.0 -0.0175313618
C  C27  1  0.18680000  0.75650000  0.56620000  1.0 -0.1525562398
C  C28  1  0.19948000  0.75997000  0.51508000  1.0 0.0827473393
C  C29  1  0.10309000  0.76317000  0.46609000  1.0 -0.1588536554
C  C30  1  0.11767000  0.76569000  0.41737000  1.0 -0.1276562919
C  C31  1  0.22947000  0.76490000  0.41407000  1.0 -0.0175313618
C  C32  1  0.32387000  0.76148000  0.46047000  1.0 -0.1525562398
C  C33  1  0.31221000  0.75906000  0.51191000  1.0 0.0827473393
C  C34  1  0.40829000  0.75499000  0.56069000  1.0 -0.1525562398
C  C35  1  0.39362000  0.75169000  0.60942000  1.0 -0.1276562919
C  C36  1  0.24238000  0.76586000  0.35938000  1.0 0.5760422058
C  C37  1  0.28683000  0.65878000  0.75363000  1.0 0.5737239055
C  C38  1  0.30247000  0.61275000  0.73917000  1.0 -0.0175313618
C  C39  1  0.20913000  0.58959000  0.70723000  1.0 -0.1588536554
C  C40  1  0.22125000  0.54702000  0.69005000  1.0 0.0827473393
C  C41  1  0.12679000  0.52356000  0.65469000  1.0 -0.1999708556
C  C42  1  0.14207000  0.48304000  0.63777000  1.0 -0.2170274511
C  C43  1  0.25301000  0.46390000  0.65521000  1.0 -0.009793678
C  C44  1  0.34595000  0.48555000  0.69055000  1.0 -0.1588536554
C  C45  1  0.33295000  0.52780000  0.70885000  1.0 0.0827473393
C  C46  1  0.42850000  0.55188000  0.74360000  1.0 -0.1588536554
C  C47  1  0.41375000  0.59329000  0.75795000  1.0 -0.1276562919
C  C48  1  0.26980000  0.42100000  0.63240000  1.0 0.5065638877
C  C49  1  0.43931000  0.35032000  0.51571000  1.0 0.5489293791
C  C50  1  0.56087000  0.35281000  0.51607000  1.0 -0.0365744623
C  C51  1  0.65459000  0.35104000  0.56709000  1.0 -0.1123628609
C  C52  1  0.76647000  0.35140000  0.56867000  1.0 -0.1588536554
C  C53  1  0.78925000  0.35438000  0.52015000  1.0 0.0713944256
C  C54  1  0.90547000  0.35243000  0.51987000  1.0 -0.187329911
C  C55  1  0.92689000  0.35394000  0.47279000  1.0 -0.0365744623
C  C56  1  0.83385000  0.35878000  0.42215000  1.0 -0.1193162587
C  C57  1  0.72110000  0.36062000  0.42070000  1.0 -0.1588536554
C  C58  1  0.69830000  0.35760000  0.46910000  1.0 0.0713944256
C  C59  1  0.58160000  0.35649000  0.46890000  1.0 -0.1803133302
C  C60  1  0.04818000  0.35079000  0.47328000  1.0 0.5489293791
C  C61  1  0.18840000  0.45046000  0.48270000  1.0 0.2091522187
C  C62  1  0.34420000  0.49680000  0.53600000  1.0 -0.0175313618
C  C63  1  0.14630000  0.52584000  0.49550000  1.0 -0.2278154634
C  C64  1  0.31110000  0.44790000  0.51120000  1.0 0.2091522187
C  C65  1  0.36110000  0.52340000  0.50640000  1.0 -0.2170274511
C  C66  1  0.15820000  0.49820000  0.47400000  1.0 -0.0296571003
C  C67  1  0.06125000  0.19073000  0.83655000  1.0 -0.0296571003
C  C68  1  0.23425000  0.22607000  0.89475000  1.0 -0.0296571003
C  C69  1  0.26984000  0.25142000  0.81634000  1.0 -0.0365744623
C  C70  1  0.09900000  0.21770000  0.75840000  1.0 -0.0296571003
C  C71  1  0.09098000  0.26727000  0.82828000  1.0 -0.0365744623
C  C72  1  0.24298000  0.17626000  0.82518000  1.0 -0.0296571003
C  C73  1  0.42677000  0.29532000  0.64407000  1.0 -0.0365744623
C  C74  1  0.40183000  0.21771000  0.63743000  1.0 -0.0365744623
C  C75  1  0.38365000  0.25604000  0.71405000  1.0 -0.0296571003
C  C76  1  0.24026000  0.30198000  0.65356000  1.0 -0.0296571003
C  C77  1  0.21870000  0.22497000  0.64580000  1.0 -0.0365744623
C  C78  1  0.25960000  0.26338000  0.57680000  1.0 -0.0296571003
C  C79  1  0.77512000  0.32263000  0.72812000  1.0 0.5737239055
C  C80  1  0.79154000  0.36902000  0.71664000  1.0 -0.0296571003
C  C81  1  0.90548000  0.38519000  0.72708000  1.0 -0.1276562919
C  C82  1  0.92190000  0.42688000  0.71440000  1.0 -0.1525562398
C  C83  1  0.82539000  0.45492000  0.69049000  1.0 0.0827473393
C  C84  1  0.83976000  0.49776000  0.67556000  1.0 -0.1588536554
C  C85  1  0.74525000  0.52367000  0.65055000  1.0 -0.0175313618
C  C86  1  0.63222000  0.50760000  0.64002000  1.0 -0.209739621
C  C87  1  0.61612000  0.46606000  0.65452000  1.0 -0.187329911
C  C88  1  0.71195000  0.43872000  0.68005000  1.0 0.0903949435
C  C89  1  0.69799000  0.39532000  0.69359000  1.0 -0.1525562398
C  C90  1  0.76172000  0.56768000  0.63112000  1.0 0.5065638877
C  C91  1  0.73024000  0.24919000  0.83254000  1.0 0.5760422058
C  C92  1  0.71824000  0.25290000  0.88724000  1.0 -0.0175313618
C  C93  1  0.81320000  0.25650000  0.93380000  1.0 -0.1525562398
C  C94  1  0.80052000  0.25997000  0.98492000  1.0 0.0827473393
C  C95  1  0.89691000  0.26317000  0.03391000  1.0 -0.1588536554
C  C96  1  0.88233000  0.26569000  0.08263000  1.0 -0.1276562919
C  C97  1  0.77053000  0.26490000  0.08593000  1.0 -0.0175313618
C  C98  1  0.67613000  0.26148000  0.03953000  1.0 -0.1525562398
C  C99  1  0.68779000  0.25906000  0.98809000  1.0 0.0827473393
C  C100  1  0.59171000  0.25499000  0.93931000  1.0 -0.1525562398
C  C101  1  0.60638000  0.25169000  0.89058000  1.0 -0.1276562919
C  C102  1  0.75762000  0.26586000  0.14062000  1.0 0.5760422058
C  C103  1  0.71317000  0.15878000  0.74637000  1.0 0.5737239055
C  C104  1  0.69753000  0.11275000  0.76083000  1.0 -0.0175313618
C  C105  1  0.79087000  0.08959000  0.79277000  1.0 -0.1525562398
C  C106  1  0.77875000  0.04702000  0.80995000  1.0 0.0827473393
C  C107  1  0.87321000  0.02356000  0.84531000  1.0 -0.1999708556
C  C108  1  0.85793000  0.98304000  0.86223000  1.0 -0.2170274511
C  C109  1  0.74699000  0.96390000  0.84479000  1.0 -0.009793678
C  C110  1  0.65405000  0.98555000  0.80945000  1.0 -0.1588536554
C  C111  1  0.66705000  0.02780000  0.79115000  1.0 0.0903949435
C  C112  1  0.57150000  0.05188000  0.75640000  1.0 -0.1588536554
C  C113  1  0.58625000  0.09329000  0.74205000  1.0 -0.1276562919
C  C114  1  0.73020000  0.92100000  0.86760000  1.0 0.5065638877
C  C115  1  0.56069000  0.85032000  0.98429000  1.0 0.5489293791
C  C116  1  0.43913000  0.85281000  0.98393000  1.0 -0.0365744623
C  C117  1  0.34541000  0.85104000  0.93291000  1.0 -0.1123628609
C  C118  1  0.23353000  0.85140000  0.93133000  1.0 -0.1588536554
C  C119  1  0.21075000  0.85438000  0.97985000  1.0 0.0713944256
C  C120  1  0.09453000  0.85243000  0.98013000  1.0 -0.187329911
C  C121  1  0.07311000  0.85394000  0.02721000  1.0 -0.0365744623
C  C122  1  0.16615000  0.85878000  0.07785000  1.0 -0.1193162587
C  C123  1  0.27890000  0.86062000  0.07930000  1.0 -0.1588536554
C  C124  1  0.30170000  0.85760000  0.03090000  1.0 0.0713944256
C  C125  1  0.41840000  0.85649000  0.03110000  1.0 -0.1803133302
C  C126  1  0.95182000  0.85079000  0.02672000  1.0 0.5489293791
C  C127  1  0.81160000  0.95046000  0.01730000  1.0 0.2091522187
C  C128  1  0.65580000  0.99680000  0.96400000  1.0 -0.0175313618
C  C129  1  0.85370000  0.02584000  0.00450000  1.0 -0.2278154634
C  C130  1  0.68890000  0.94790000  0.98880000  1.0 0.2091522187
C  C131  1  0.63890000  0.02340000  0.99360000  1.0 -0.2170274511
C  C132  1  0.84180000  0.99820000  0.02600000  1.0 -0.0296571003
C  C133  1  0.06125000  0.30927000  0.33655000  1.0 -0.0296571003
C  C134  1  0.23425000  0.27393000  0.39475000  1.0 -0.0296571003
C  C135  1  0.26984000  0.24858000  0.31634000  1.0 -0.0365744623
C  C136  1  0.09900000  0.28230000  0.25840000  1.0 -0.0296571003
C  C137  1  0.09098000  0.23273000  0.32828000  1.0 -0.0296571003
C  C138  1  0.24298000  0.32374000  0.32518000  1.0 -0.0296571003
C  C139  1  0.42677000  0.20468000  0.14407000  1.0 -0.0296571003
C  C140  1  0.40183000  0.28229000  0.13743000  1.0 -0.0365744623
C  C141  1  0.38365000  0.24396000  0.21405000  1.0 -0.0296571003
C  C142  1  0.24026000  0.19802000  0.15356000  1.0 -0.0296571003
C  C143  1  0.21870000  0.27503000  0.14580000  1.0 -0.0365744623
C  C144  1  0.25960000  0.23662000  0.07680000  1.0 -0.0296571003
C  C145  1  0.77512000  0.17737000  0.22812000  1.0 0.5737239055
C  C146  1  0.79154000  0.13098000  0.21664000  1.0 -0.0296571003
C  C147  1  0.90548000  0.11481000  0.22708000  1.0 -0.1276562919
C  C148  1  0.92190000  0.07312000  0.21440000  1.0 -0.1525562398
C  C149  1  0.82539000  0.04508000  0.19049000  1.0 0.0827473393
C  C150  1  0.83976000  0.00224000  0.17556000  1.0 -0.1588536554
C  C151  1  0.74525000  0.97633000  0.15055000  1.0 -0.0175313618
C  C152  1  0.63222000  0.99240000  0.14002000  1.0 -0.209739621
C  C153  1  0.61612000  0.03394000  0.15452000  1.0 -0.1803133302
C  C154  1  0.71195000  0.06128000  0.18005000  1.0 0.0903949435
C  C155  1  0.69799000  0.10468000  0.19359000  1.0 -0.1525562398
C  C156  1  0.76172000  0.93232000  0.13112000  1.0 0.5065638877
C  C157  1  0.73024000  0.25081000  0.33254000  1.0 0.5760422058
C  C158  1  0.71824000  0.24710000  0.38724000  1.0 -0.0175313618
C  C159  1  0.81320000  0.24350000  0.43380000  1.0 -0.1525562398
C  C160  1  0.80052000  0.24003000  0.48492000  1.0 0.0827473393
C  C161  1  0.89691000  0.23683000  0.53391000  1.0 -0.1588536554
C  C162  1  0.88233000  0.23431000  0.58263000  1.0 -0.1276562919
C  C163  1  0.77053000  0.23510000  0.58593000  1.0 -0.0175313618
C  C164  1  0.67613000  0.23852000  0.53953000  1.0 -0.1525562398
C  C165  1  0.68779000  0.24094000  0.48809000  1.0 0.0827473393
C  C166  1  0.59171000  0.24501000  0.43931000  1.0 -0.1525562398
C  C167  1  0.60638000  0.24831000  0.39058000  1.0 -0.1276562919
C  C168  1  0.75762000  0.23414000  0.64062000  1.0 0.5760422058
C  C169  1  0.71317000  0.34122000  0.24637000  1.0 0.5737239055
C  C170  1  0.69753000  0.38725000  0.26083000  1.0 -0.0175313618
C  C171  1  0.79087000  0.41041000  0.29277000  1.0 -0.1588536554
C  C172  1  0.77875000  0.45298000  0.30995000  1.0 0.0827473393
C  C173  1  0.87321000  0.47644000  0.34531000  1.0 -0.1999708556
C  C174  1  0.85793000  0.51696000  0.36223000  1.0 -0.2170274511
C  C175  1  0.74699000  0.53610000  0.34479000  1.0 -0.009793678
C  C176  1  0.65405000  0.51445000  0.30945000  1.0 -0.1588536554
C  C177  1  0.66705000  0.47220000  0.29115000  1.0 0.0903949435
C  C178  1  0.57150000  0.44812000  0.25640000  1.0 -0.1588536554
C  C179  1  0.58625000  0.40671000  0.24205000  1.0 -0.1276562919
C  C180  1  0.73020000  0.57900000  0.36760000  1.0 0.5065638877
C  C181  1  0.56069000  0.64968000  0.48429000  1.0 0.5489293791
C  C182  1  0.43913000  0.64719000  0.48393000  1.0 -0.0365744623
C  C183  1  0.34541000  0.64896000  0.43291000  1.0 -0.1123628609
C  C184  1  0.23353000  0.64860000  0.43133000  1.0 -0.1588536554
C  C185  1  0.21075000  0.64562000  0.47985000  1.0 0.0713944256
C  C186  1  0.09453000  0.64757000  0.48013000  1.0 -0.187329911
C  C187  1  0.07311000  0.64606000  0.52721000  1.0 -0.0365744623
C  C188  1  0.16615000  0.64122000  0.57785000  1.0 -0.1193162587
C  C189  1  0.27890000  0.63938000  0.57930000  1.0 -0.1588536554
C  C190  1  0.30170000  0.64240000  0.53090000  1.0 0.0713944256
C  C191  1  0.41840000  0.64351000  0.53110000  1.0 -0.1803133302
C  C192  1  0.95182000  0.64921000  0.52672000  1.0 0.5489293791
C  C193  1  0.81160000  0.54954000  0.51730000  1.0 0.2091522187
C  C194  1  0.65580000  0.50320000  0.46400000  1.0 -0.0175313618
C  C195  1  0.85370000  0.47416000  0.50450000  1.0 -0.2278154634
C  C196  1  0.68890000  0.55210000  0.48880000  1.0 0.2091522187
C  C197  1  0.63890000  0.47660000  0.49360000  1.0 -0.2170274511
C  C198  1  0.84180000  0.50180000  0.52600000  1.0 -0.0296571003
C  C199  1  0.93875000  0.80927000  0.16345000  1.0 -0.0296571003
C  C200  1  0.76575000  0.77393000  0.10525000  1.0 -0.0296571003
C  C201  1  0.73016000  0.74858000  0.18366000  1.0 -0.0365744623
C  C202  1  0.90100000  0.78230000  0.24160000  1.0 -0.0296571003
C  C203  1  0.90902000  0.73273000  0.17172000  1.0 -0.0296571003
C  C204  1  0.75702000  0.82374000  0.17482000  1.0 -0.0296571003
C  C205  1  0.57323000  0.70468000  0.35593000  1.0 -0.0296571003
C  C206  1  0.59817000  0.78229000  0.36257000  1.0 -0.0365744623
C  C207  1  0.61635000  0.74396000  0.28595000  1.0 -0.0296571003
C  C208  1  0.75974000  0.69802000  0.34644000  1.0 -0.0296571003
C  C209  1  0.78130000  0.77503000  0.35420000  1.0 -0.0365744623
C  C210  1  0.74040000  0.73662000  0.42320000  1.0 -0.0296571003
C  C211  1  0.22488000  0.67737000  0.27188000  1.0 0.5737239055
C  C212  1  0.20846000  0.63098000  0.28336000  1.0 -0.0296571003
C  C213  1  0.09452000  0.61481000  0.27292000  1.0 -0.1276562919
C  C214  1  0.07810000  0.57312000  0.28560000  1.0 -0.1525562398
C  C215  1  0.17461000  0.54508000  0.30951000  1.0 0.0827473393
C  C216  1  0.16024000  0.50224000  0.32444000  1.0 -0.1588536554
C  C217  1  0.25475000  0.47633000  0.34945000  1.0 -0.0175313618
C  C218  1  0.36778000  0.49240000  0.35998000  1.0 -0.209739621
C  C219  1  0.38388000  0.53394000  0.34548000  1.0 -0.187329911
C  C220  1  0.28805000  0.56128000  0.31995000  1.0 0.0903949435
C  C221  1  0.30201000  0.60468000  0.30641000  1.0 -0.1525562398
C  C222  1  0.23828000  0.43232000  0.36888000  1.0 0.5065638877
C  C223  1  0.26976000  0.75081000  0.16746000  1.0 0.5760422058
C  C224  1  0.28176000  0.74710000  0.11276000  1.0 -0.0175313618
C  C225  1  0.18680000  0.74350000  0.06620000  1.0 -0.1525562398
C  C226  1  0.19948000  0.74003000  0.01508000  1.0 0.0827473393
C  C227  1  0.10309000  0.73683000  0.96609000  1.0 -0.1588536554
C  C228  1  0.11767000  0.73431000  0.91737000  1.0 -0.1276562919
C  C229  1  0.22947000  0.73510000  0.91407000  1.0 -0.0175313618
C  C230  1  0.32387000  0.73852000  0.96047000  1.0 -0.1525562398
C  C231  1  0.31221000  0.74094000  0.01191000  1.0 0.0827473393
C  C232  1  0.40829000  0.74501000  0.06069000  1.0 -0.1525562398
C  C233  1  0.39362000  0.74831000  0.10942000  1.0 -0.1276562919
C  C234  1  0.24238000  0.73414000  0.85938000  1.0 0.5760422058
C  C235  1  0.28683000  0.84122000  0.25363000  1.0 0.5737239055
C  C236  1  0.30247000  0.88725000  0.23917000  1.0 -0.0175313618
C  C237  1  0.20913000  0.91041000  0.20723000  1.0 -0.1588536554
C  C238  1  0.22125000  0.95298000  0.19005000  1.0 0.0827473393
C  C239  1  0.12679000  0.97644000  0.15469000  1.0 -0.1999708556
C  C240  1  0.14207000  0.01696000  0.13777000  1.0 -0.2170274511
C  C241  1  0.25301000  0.03610000  0.15521000  1.0 -0.009793678
C  C242  1  0.34595000  0.01445000  0.19055000  1.0 -0.1588536554
C  C243  1  0.33295000  0.97220000  0.20885000  1.0 0.0903949435
C  C244  1  0.42850000  0.94812000  0.24360000  1.0 -0.1588536554
C  C245  1  0.41375000  0.90671000  0.25795000  1.0 -0.1276562919
C  C246  1  0.26980000  0.07900000  0.13240000  1.0 0.5065638877
C  C247  1  0.43931000  0.14968000  0.01571000  1.0 0.5489293791
C  C248  1  0.56087000  0.14719000  0.01607000  1.0 -0.0365744623
C  C249  1  0.65459000  0.14896000  0.06709000  1.0 -0.1123628609
C  C250  1  0.76647000  0.14860000  0.06867000  1.0 -0.1588536554
C  C251  1  0.78925000  0.14562000  0.02015000  1.0 0.0713944256
C  C252  1  0.90547000  0.14757000  0.01987000  1.0 -0.1803133302
C  C253  1  0.92689000  0.14606000  0.97279000  1.0 -0.0365744623
C  C254  1  0.83385000  0.14122000  0.92215000  1.0 -0.1193162587
C  C255  1  0.72110000  0.13938000  0.92070000  1.0 -0.1588536554
C  C256  1  0.69830000  0.14240000  0.96910000  1.0 0.0713944256
C  C257  1  0.58160000  0.14351000  0.96890000  1.0 -0.1803133302
C  C258  1  0.04818000  0.14921000  0.97328000  1.0 0.5489293791
C  C259  1  0.18840000  0.04954000  0.98270000  1.0 0.2091522187
C  C260  1  0.34420000  0.00320000  0.03600000  1.0 -0.0175313618
C  C261  1  0.14630000  0.97416000  0.99550000  1.0 -0.2278154634
C  C262  1  0.31110000  0.05210000  0.01120000  1.0 0.2091522187
C  C263  1  0.36110000  0.97660000  0.00640000  1.0 -0.2170274511
C  C264  1  0.15820000  0.00180000  0.97400000  1.0 -0.0296571003
N  N1  1  0.96165000  0.72719000  0.70277000  1.0 -0.187329911
N  N2  1  0.81291000  0.68441000  0.63334000  1.0 -0.1999708556
N  N3  1  0.77601000  0.71207000  0.71311000  1.0 -0.1728087246
N  N4  1  0.78483000  0.76218000  0.64323000  1.0 -0.1525562398
N  N5  1  0.55013000  0.75432000  0.82405000  1.0 -0.1803133302
N  N6  1  0.69806000  0.80184000  0.88668000  1.0 -0.1999708556
N  N7  1  0.72149000  0.72295000  0.89289000  1.0 -0.1388697021
N  N8  1  0.74135000  0.76148000  0.81575000  1.0 -0.187329911
N  N9  1  0.22420000  0.48933000  0.50260000  1.0 0.119855049
N  N10  1  0.27970000  0.48850000  0.49930000  1.0 0.1475947656
N  N11  1  0.03835000  0.22719000  0.79723000  1.0 -0.187329911
N  N12  1  0.18709000  0.18441000  0.86666000  1.0 -0.1999708556
N  N13  1  0.22399000  0.21207000  0.78689000  1.0 -0.1728087246
N  N14  1  0.21517000  0.26218000  0.85677000  1.0 -0.1525562398
N  N15  1  0.44987000  0.25432000  0.67595000  1.0 -0.1803133302
N  N16  1  0.30194000  0.30184000  0.61332000  1.0 -0.1999708556
N  N17  1  0.27851000  0.22295000  0.60711000  1.0 -0.1388697021
N  N18  1  0.25865000  0.26148000  0.68425000  1.0 -0.187329911
N  N19  1  0.77580000  0.98933000  0.99740000  1.0 0.119855049
N  N20  1  0.72030000  0.98850000  0.00070000  1.0 0.1475947656
N  N21  1  0.03835000  0.27281000  0.29723000  1.0 -0.187329911
N  N22  1  0.18709000  0.31559000  0.36666000  1.0 -0.1999708556
N  N23  1  0.22399000  0.28793000  0.28689000  1.0 -0.1728087246
N  N24  1  0.21517000  0.23782000  0.35677000  1.0 -0.1525562398
N  N25  1  0.44987000  0.24568000  0.17595000  1.0 -0.1803133302
N  N26  1  0.30194000  0.19816000  0.11332000  1.0 -0.1999708556
N  N27  1  0.27851000  0.27705000  0.10711000  1.0 -0.1388697021
N  N28  1  0.25865000  0.23852000  0.18425000  1.0 -0.187329911
N  N29  1  0.77580000  0.51067000  0.49740000  1.0 0.119855049
N  N30  1  0.72030000  0.51150000  0.50070000  1.0 0.1475947656
N  N31  1  0.96165000  0.77281000  0.20277000  1.0 -0.187329911
N  N32  1  0.81291000  0.81559000  0.13334000  1.0 -0.1999708556
N  N33  1  0.77601000  0.78793000  0.21311000  1.0 -0.1728087246
N  N34  1  0.78483000  0.73782000  0.14323000  1.0 -0.1525562398
N  N35  1  0.55013000  0.74568000  0.32405000  1.0 -0.1803133302
N  N36  1  0.69806000  0.69816000  0.38668000  1.0 -0.1999708556
N  N37  1  0.72149000  0.77705000  0.39289000  1.0 -0.1388697021
N  N38  1  0.74135000  0.73852000  0.31575000  1.0 -0.187329911
N  N39  1  0.22420000  0.01067000  0.00260000  1.0 0.1282806735
N  N40  1  0.27970000  0.01150000  0.99930000  1.0 0.1475947656
O  O1  1  0.32707000  0.80891000  0.78471000  1.0 -0.5403901212
O  O2  1  0.13503000  0.80012000  0.75077000  1.0 -0.5516712926
O  O3  1  0.32517000  0.08909000  0.89737000  1.0 -0.5403901212
O  O4  1  0.13770000  0.08204000  0.85989000  1.0 -0.5322393395
O  O5  1  0.16906000  0.74576000  0.66932000  1.0 -0.5516712926
O  O6  1  0.36242000  0.74980000  0.70833000  1.0 -0.5589308433
O  O7  1  0.34240000  0.76031000  0.35733000  1.0 -0.5516712926
O  O8  1  0.15129000  0.77180000  0.31880000  1.0 -0.5516712926
O  O9  1  0.18514000  0.67309000  0.73773000  1.0 -0.5403901212
O  O10  1  0.37690000  0.68000000  0.77928000  1.0 -0.5516712926
O  O11  1  0.18449000  0.40499000  0.59469000  1.0 -0.5403901212
O  O12  1  0.36531000  0.40349000  0.64641000  1.0 -0.5027079426
O  O13  1  0.35906000  0.33841000  0.47297000  1.0 -0.567121803
O  O14  1  0.42540000  0.35914000  0.55964000  1.0 -0.5403901212
O  O15  1  0.06394000  0.36179000  0.43036000  1.0 -0.5322393395
O  O16  1  0.12664000  0.33643000  0.51499000  1.0 -0.5589308433
O  O17  1  0.24500000  0.41730000  0.49830000  1.0 -0.1999708556
O  O18  1  0.25390000  0.41950000  0.48390000  1.0 -0.1999708556
O  O19  1  0.67293000  0.30891000  0.71529000  1.0 -0.5403901212
O  O20  1  0.86497000  0.30012000  0.74923000  1.0 -0.5516712926
O  O21  1  0.67483000  0.58909000  0.60263000  1.0 -0.5403901212
O  O22  1  0.86230000  0.58204000  0.64011000  1.0 -0.5322393395
O  O23  1  0.83094000  0.24576000  0.83068000  1.0 -0.5516712926
O  O24  1  0.63758000  0.24980000  0.79167000  1.0 -0.5589308433
O  O25  1  0.65760000  0.26031000  0.14267000  1.0 -0.5516712926
O  O26  1  0.84871000  0.27180000  0.18120000  1.0 -0.5516712926
O  O27  1  0.81486000  0.17309000  0.76227000  1.0 -0.5403901212
O  O28  1  0.62310000  0.18000000  0.72072000  1.0 -0.5516712926
O  O29  1  0.81551000  0.90499000  0.90531000  1.0 -0.5403901212
O  O30  1  0.63469000  0.90349000  0.85359000  1.0 -0.5027079426
O  O31  1  0.64094000  0.83841000  0.02703000  1.0 -0.567121803
O  O32  1  0.57460000  0.85914000  0.94036000  1.0 -0.5403901212
O  O33  1  0.93606000  0.86179000  0.06964000  1.0 -0.5322393395
O  O34  1  0.87336000  0.83643000  0.98501000  1.0 -0.5589308433
O  O35  1  0.75500000  0.91730000  0.00170000  1.0 -0.1999708556
O  O36  1  0.74610000  0.91950000  0.01610000  1.0 -0.1999708556
O  O37  1  0.67293000  0.19109000  0.21529000  1.0 -0.5403901212
O  O38  1  0.86497000  0.19988000  0.24923000  1.0 -0.5516712926
O  O39  1  0.67483000  0.91091000  0.10263000  1.0 -0.5403901212
O  O40  1  0.86230000  0.91796000  0.14011000  1.0 -0.5322393395
O  O41  1  0.83094000  0.25424000  0.33068000  1.0 -0.5516712926
O  O42  1  0.63758000  0.25020000  0.29167000  1.0 -0.5589308433
O  O43  1  0.65760000  0.23969000  0.64267000  1.0 -0.5516712926
O  O44  1  0.84871000  0.22820000  0.68120000  1.0 -0.5516712926
O  O45  1  0.81486000  0.32691000  0.26227000  1.0 -0.5403901212
O  O46  1  0.62310000  0.32000000  0.22072000  1.0 -0.5516712926
O  O47  1  0.81551000  0.59501000  0.40531000  1.0 -0.5403901212
O  O48  1  0.63469000  0.59651000  0.35359000  1.0 -0.5027079426
O  O49  1  0.64094000  0.66159000  0.52703000  1.0 -0.567121803
O  O50  1  0.57460000  0.64086000  0.44036000  1.0 -0.5403901212
O  O51  1  0.93606000  0.63821000  0.56964000  1.0 -0.5322393395
O  O52  1  0.87336000  0.66357000  0.48501000  1.0 -0.5589308433
O  O53  1  0.75500000  0.58270000  0.50170000  1.0 -0.1999708556
O  O54  1  0.74610000  0.58050000  0.51610000  1.0 -0.1999708556
O  O55  1  0.32707000  0.69109000  0.28471000  1.0 -0.5403901212
O  O56  1  0.13503000  0.69988000  0.25077000  1.0 -0.5516712926
O  O57  1  0.32517000  0.41091000  0.39737000  1.0 -0.5403901212
O  O58  1  0.13770000  0.41796000  0.35989000  1.0 -0.5322393395
O  O59  1  0.16906000  0.75424000  0.16932000  1.0 -0.5516712926
O  O60  1  0.36242000  0.75020000  0.20833000  1.0 -0.5589308433
O  O61  1  0.34240000  0.73969000  0.85733000  1.0 -0.5516712926
O  O62  1  0.15129000  0.72820000  0.81880000  1.0 -0.5516712926
O  O63  1  0.18514000  0.82691000  0.23773000  1.0 -0.5403901212
O  O64  1  0.37690000  0.82000000  0.27928000  1.0 -0.5516712926
O  O65  1  0.18449000  0.09501000  0.09469000  1.0 -0.5403901212
O  O66  1  0.36531000  0.09651000  0.14641000  1.0 -0.5027079426
O  O67  1  0.35906000  0.16159000  0.97297000  1.0 -0.567121803
O  O68  1  0.42540000  0.14086000  0.05964000  1.0 -0.5403901212
O  O69  1  0.06394000  0.13821000  0.93036000  1.0 -0.5322393395
O  O70  1  0.12664000  0.16357000  0.01499000  1.0 -0.5589308433
O  O71  1  0.24500000  0.08270000  0.99830000  1.0 -0.1999708556
O  O72  1  0.25390000  0.08050000  0.98390000  1.0 -0.1999708556
