# DDEC6 charges by PACMAN v1.1 (https://github.com/mtap-research/PACMAN-charge/)
data_VUPZOY_FSR_pacman
_symmetry_space_group_name_H-M   'P 1'
_cell_length_a   10.18890000
_cell_length_b   10.18890000
_cell_length_c   37.48000000
_cell_angle_alpha   90.00000000
_cell_angle_beta   90.00000000
_cell_angle_gamma   137.85800000
_symmetry_Int_Tables_number   1
_chemical_formula_structural   CdH14(C2O)7
_chemical_formula_sum   'Cd6 H84 C84 O42'
_cell_volume   2610.70320138
_cell_formula_units_Z   6
loop_
 _symmetry_equiv_pos_site_id
 _symmetry_equiv_pos_as_xyz
  1  'x, y, z'
loop_
 _atom_site_type_symbol
 _atom_site_label
 _atom_site_symmetry_multiplicity
 _atom_site_fract_x
 _atom_site_fract_y
 _atom_site_fract_z
 _atom_site_occupancy
 _atom_site_charge
Cd  Cd1  1  0.34842000  0.92158000  0.94511000  1.0 0.9594262227
Cd  Cd2  1  0.92158000  0.34842000  0.05489000  1.0 0.9594262227
Cd  Cd3  1  0.97260000  0.97260000  0.50000000  1.0 0.9140083179
Cd  Cd4  1  0.42158000  0.84842000  0.44511000  1.0 0.9594262227
Cd  Cd5  1  0.84842000  0.42158000  0.55489000  1.0 0.9594262227
Cd  Cd6  1  0.47260000  0.47260000  0.00000000  1.0 0.9140083179
H  H1  1  0.52960000  0.28840000  0.94680000  1.0 0.3460614667
H  H2  1  0.66360000  0.30320000  0.93120000  1.0 0.3338565573
H  H3  1  0.23180000  0.85660000  0.01290000  1.0 0.35894624
H  H4  1  0.30810000  0.78730000  0.00990000  1.0 0.3338565573
H  H5  1  0.01980000  0.53300000  0.93980000  1.0 0.3364654864
H  H6  1  0.14590000  0.55430000  0.96110000  1.0 0.35894624
H  H7  1  0.58780000  0.67160000  0.49780000  1.0 0.1944011844
H  H8  1  0.28600000  0.07000000  0.52380000  1.0 0.3364654864
H  H9  1  0.29340000  0.06260000  0.48700000  1.0 0.35894624
H  H10  1  0.85940000  0.94040000  0.94290000  1.0 0.1304435641
H  H11  1  0.04240000  0.91940000  0.85050000  1.0 0.1197857376
H  H12  1  0.68300000  0.96440000  0.85050000  1.0 0.1197857376
H  H13  1  0.88350000  0.75670000  0.79680000  1.0 0.1128175695
H  H14  1  0.88180000  0.75260000  0.73640000  1.0 0.1128175695
H  H15  1  0.84280000  0.11980000  0.73460000  1.0 0.1197857376
H  H16  1  0.82960000  0.10980000  0.79450000  1.0 0.1197857376
H  H17  1  0.03100000  0.89480000  0.68180000  1.0 0.1128175695
H  H18  1  0.04400000  0.90220000  0.62140000  1.0 0.1197857376
H  H19  1  0.71170000  0.98190000  0.61940000  1.0 0.1304435641
H  H20  1  0.70930000  0.98330000  0.67850000  1.0 0.1128175695
H  H21  1  0.64690000  0.61250000  0.51950000  1.0 0.2028788611
H  H22  1  0.28840000  0.52960000  0.05320000  1.0 0.3460614667
H  H23  1  0.30320000  0.66360000  0.06880000  1.0 0.3338565573
H  H24  1  0.85660000  0.23180000  0.98710000  1.0 0.35894624
H  H25  1  0.78730000  0.30810000  0.99010000  1.0 0.3338565573
H  H26  1  0.53300000  0.01980000  0.06020000  1.0 0.3338565573
H  H27  1  0.55430000  0.14590000  0.03890000  1.0 0.35894624
H  H28  1  0.67160000  0.58780000  0.50220000  1.0 0.1944011844
H  H29  1  0.07000000  0.28600000  0.47620000  1.0 0.3364654864
H  H30  1  0.06260000  0.29340000  0.51300000  1.0 0.35894624
H  H31  1  0.94040000  0.85940000  0.05710000  1.0 0.1304435641
H  H32  1  0.91940000  0.04240000  0.14950000  1.0 0.1197857376
H  H33  1  0.96440000  0.68300000  0.14950000  1.0 0.1197857376
H  H34  1  0.75670000  0.88350000  0.20320000  1.0 0.1128175695
H  H35  1  0.75260000  0.88180000  0.26360000  1.0 0.1128175695
H  H36  1  0.11980000  0.84280000  0.26540000  1.0 0.1197857376
H  H37  1  0.10980000  0.82960000  0.20550000  1.0 0.1197857376
H  H38  1  0.89480000  0.03100000  0.31820000  1.0 0.1128175695
H  H39  1  0.90220000  0.04400000  0.37860000  1.0 0.1197857376
H  H40  1  0.98190000  0.71170000  0.38060000  1.0 0.1304435641
H  H41  1  0.98330000  0.70930000  0.32150000  1.0 0.1128175695
H  H42  1  0.61250000  0.64690000  0.48050000  1.0 0.2028788611
H  H43  1  0.78840000  0.02960000  0.44680000  1.0 0.3460614667
H  H44  1  0.80320000  0.16360000  0.43120000  1.0 0.3338565573
H  H45  1  0.35660000  0.73180000  0.51290000  1.0 0.35894624
H  H46  1  0.28730000  0.80810000  0.50990000  1.0 0.3338565573
H  H47  1  0.03300000  0.51980000  0.43980000  1.0 0.3364654864
H  H48  1  0.05430000  0.64590000  0.46110000  1.0 0.35894624
H  H49  1  0.17160000  0.08780000  0.99780000  1.0 0.1944011844
H  H50  1  0.57000000  0.78600000  0.02380000  1.0 0.3364654864
H  H51  1  0.56260000  0.79340000  0.98700000  1.0 0.35894624
H  H52  1  0.44040000  0.35940000  0.44290000  1.0 0.1304435641
H  H53  1  0.41940000  0.54240000  0.35050000  1.0 0.1197857376
H  H54  1  0.46440000  0.18300000  0.35050000  1.0 0.1197857376
H  H55  1  0.25670000  0.38350000  0.29680000  1.0 0.1128175695
H  H56  1  0.25260000  0.38180000  0.23640000  1.0 0.1128175695
H  H57  1  0.61980000  0.34280000  0.23460000  1.0 0.1197857376
H  H58  1  0.60980000  0.32960000  0.29450000  1.0 0.1197857376
H  H59  1  0.39480000  0.53100000  0.18180000  1.0 0.1128175695
H  H60  1  0.40220000  0.54400000  0.12140000  1.0 0.1197857376
H  H61  1  0.48190000  0.21170000  0.11940000  1.0 0.1304435641
H  H62  1  0.48330000  0.20930000  0.17850000  1.0 0.1128175695
H  H63  1  0.11250000  0.14690000  0.01950000  1.0 0.2028788611
H  H64  1  0.02960000  0.78840000  0.55320000  1.0 0.3460614667
H  H65  1  0.16360000  0.80320000  0.56880000  1.0 0.3338565573
H  H66  1  0.73180000  0.35660000  0.48710000  1.0 0.35894624
H  H67  1  0.80810000  0.28730000  0.49010000  1.0 0.3338565573
H  H68  1  0.51980000  0.03300000  0.56020000  1.0 0.3338565573
H  H69  1  0.64590000  0.05430000  0.53890000  1.0 0.35894624
H  H70  1  0.08780000  0.17160000  0.00220000  1.0 0.1944011844
H  H71  1  0.78600000  0.57000000  0.97620000  1.0 0.3364654864
H  H72  1  0.79340000  0.56260000  0.01300000  1.0 0.35894624
H  H73  1  0.35940000  0.44040000  0.55710000  1.0 0.1304435641
H  H74  1  0.54240000  0.41940000  0.64950000  1.0 0.1197857376
H  H75  1  0.18300000  0.46440000  0.64950000  1.0 0.1197857376
H  H76  1  0.38350000  0.25670000  0.70320000  1.0 0.1128175695
H  H77  1  0.38180000  0.25260000  0.76360000  1.0 0.1128175695
H  H78  1  0.34280000  0.61980000  0.76540000  1.0 0.1197857376
H  H79  1  0.32960000  0.60980000  0.70550000  1.0 0.1197857376
H  H80  1  0.53100000  0.39480000  0.81820000  1.0 0.1128175695
H  H81  1  0.54400000  0.40220000  0.87860000  1.0 0.1197857376
H  H82  1  0.21170000  0.48190000  0.88060000  1.0 0.1304435641
H  H83  1  0.20930000  0.48330000  0.82150000  1.0 0.1128175695
H  H84  1  0.14690000  0.11250000  0.98050000  1.0 0.2028788611
C  C1  1  0.63290000  0.96510000  0.91810000  1.0 0.5642012044
C  C2  1  0.75260000  0.95340000  0.89850000  1.0 -0.0098759782
C  C3  1  0.86160000  0.94240000  0.91810000  1.0 -0.1123155054
C  C4  1  0.97390000  0.93410000  0.89890000  1.0 -0.0029357851
C  C5  1  0.97110000  0.93090000  0.86240000  1.0 -0.1401394121
C  C6  1  0.86710000  0.94490000  0.84250000  1.0 0.0612116407
C  C7  1  0.75570000  0.95550000  0.86270000  1.0 -0.1401394121
C  C8  1  0.86640000  0.94560000  0.80350000  1.0 0.0671390101
C  C9  1  0.87610000  0.82990000  0.78420000  1.0 -0.1401394121
C  C10  1  0.87480000  0.82760000  0.74820000  1.0 -0.1401394121
C  C11  1  0.86280000  0.93720000  0.72740000  1.0 0.0612116407
C  C12  1  0.84960000  0.04540000  0.74680000  1.0 -0.1401394121
C  C13  1  0.84700000  0.04300000  0.78280000  1.0 -0.1401394121
C  C14  1  0.86870000  0.93930000  0.68900000  1.0 0.0612116407
C  C15  1  0.96770000  0.91430000  0.66920000  1.0 -0.1452928797
C  C16  1  0.97680000  0.91920000  0.63310000  1.0 -0.103094475
C  C17  1  0.88400000  0.95000000  0.61320000  1.0 -0.0098759782
C  C18  1  0.77970000  0.96810000  0.63190000  1.0 -0.0859472692
C  C19  1  0.77680000  0.96580000  0.66720000  1.0 -0.1401394121
C  C20  1  0.89020000  0.95380000  0.57300000  1.0 0.5492272362
C  C21  1  0.09760000  0.92440000  0.91900000  1.0 0.5342838153
C  C22  1  0.96510000  0.63290000  0.08190000  1.0 0.5642012044
C  C23  1  0.95340000  0.75260000  0.10150000  1.0 -0.0098759782
C  C24  1  0.94240000  0.86160000  0.08190000  1.0 -0.1123155054
C  C25  1  0.93410000  0.97390000  0.10110000  1.0 -0.0029357851
C  C26  1  0.93090000  0.97110000  0.13760000  1.0 -0.1401394121
C  C27  1  0.94490000  0.86710000  0.15750000  1.0 0.0671390101
C  C28  1  0.95550000  0.75570000  0.13730000  1.0 -0.1401394121
C  C29  1  0.94560000  0.86640000  0.19650000  1.0 0.0671390101
C  C30  1  0.82990000  0.87610000  0.21580000  1.0 -0.1401394121
C  C31  1  0.82760000  0.87480000  0.25180000  1.0 -0.1401394121
C  C32  1  0.93720000  0.86280000  0.27260000  1.0 0.0612116407
C  C33  1  0.04540000  0.84960000  0.25320000  1.0 -0.1401394121
C  C34  1  0.04300000  0.84700000  0.21720000  1.0 -0.1401394121
C  C35  1  0.93930000  0.86870000  0.31100000  1.0 0.0612116407
C  C36  1  0.91430000  0.96770000  0.33080000  1.0 -0.1452928797
C  C37  1  0.91920000  0.97680000  0.36690000  1.0 -0.103094475
C  C38  1  0.95000000  0.88400000  0.38680000  1.0 -0.0098759782
C  C39  1  0.96810000  0.77970000  0.36810000  1.0 -0.0859472692
C  C40  1  0.96580000  0.77680000  0.33280000  1.0 -0.1401394121
C  C41  1  0.95380000  0.89020000  0.42700000  1.0 0.5492272362
C  C42  1  0.92440000  0.09760000  0.08100000  1.0 0.5342838153
C  C43  1  0.46510000  0.13290000  0.41810000  1.0 0.5642012044
C  C44  1  0.45340000  0.25260000  0.39850000  1.0 -0.0098759782
C  C45  1  0.44240000  0.36160000  0.41810000  1.0 -0.1123155054
C  C46  1  0.43410000  0.47390000  0.39890000  1.0 -0.0029357851
C  C47  1  0.43090000  0.47110000  0.36240000  1.0 -0.1401394121
C  C48  1  0.44490000  0.36710000  0.34250000  1.0 0.0612116407
C  C49  1  0.45550000  0.25570000  0.36270000  1.0 -0.1401394121
C  C50  1  0.44560000  0.36640000  0.30350000  1.0 0.0671390101
C  C51  1  0.32990000  0.37610000  0.28420000  1.0 -0.1401394121
C  C52  1  0.32760000  0.37480000  0.24820000  1.0 -0.1401394121
C  C53  1  0.43720000  0.36280000  0.22740000  1.0 0.0612116407
C  C54  1  0.54540000  0.34960000  0.24680000  1.0 -0.1401394121
C  C55  1  0.54300000  0.34700000  0.28280000  1.0 -0.1401394121
C  C56  1  0.43930000  0.36870000  0.18900000  1.0 0.0612116407
C  C57  1  0.41430000  0.46770000  0.16920000  1.0 -0.1452928797
C  C58  1  0.41920000  0.47680000  0.13310000  1.0 -0.103094475
C  C59  1  0.45000000  0.38400000  0.11320000  1.0 -0.0098759782
C  C60  1  0.46810000  0.27970000  0.13190000  1.0 -0.0859472692
C  C61  1  0.46580000  0.27680000  0.16720000  1.0 -0.1401394121
C  C62  1  0.45380000  0.39020000  0.07300000  1.0 0.5492272362
C  C63  1  0.42440000  0.59760000  0.41900000  1.0 0.5342838153
C  C64  1  0.13290000  0.46510000  0.58190000  1.0 0.5642012044
C  C65  1  0.25260000  0.45340000  0.60150000  1.0 -0.0098759782
C  C66  1  0.36160000  0.44240000  0.58190000  1.0 -0.1123155054
C  C67  1  0.47390000  0.43410000  0.60110000  1.0 -0.0029357851
C  C68  1  0.47110000  0.43090000  0.63760000  1.0 -0.1401394121
C  C69  1  0.36710000  0.44490000  0.65750000  1.0 0.0612116407
C  C70  1  0.25570000  0.45550000  0.63730000  1.0 -0.1401394121
C  C71  1  0.36640000  0.44560000  0.69650000  1.0 0.0671390101
C  C72  1  0.37610000  0.32990000  0.71580000  1.0 -0.1401394121
C  C73  1  0.37480000  0.32760000  0.75180000  1.0 -0.1401394121
C  C74  1  0.36280000  0.43720000  0.77260000  1.0 0.0612116407
C  C75  1  0.34960000  0.54540000  0.75320000  1.0 -0.1401394121
C  C76  1  0.34700000  0.54300000  0.71720000  1.0 -0.1401394121
C  C77  1  0.36870000  0.43930000  0.81100000  1.0 0.0612116407
C  C78  1  0.46770000  0.41430000  0.83080000  1.0 -0.1452928797
C  C79  1  0.47680000  0.41920000  0.86690000  1.0 -0.103094475
C  C80  1  0.38400000  0.45000000  0.88680000  1.0 -0.0098759782
C  C81  1  0.27970000  0.46810000  0.86810000  1.0 -0.0859472692
C  C82  1  0.27680000  0.46580000  0.83280000  1.0 -0.1401394121
C  C83  1  0.39020000  0.45380000  0.92700000  1.0 0.5492272362
C  C84  1  0.59760000  0.42440000  0.58100000  1.0 0.5342838153
O  O1  1  0.63680000  0.97700000  0.95110000  1.0 -0.5704169289
O  O2  1  0.51600000  0.94620000  0.89940000  1.0 -0.5419507439
O  O3  1  0.58380000  0.25380000  0.94830000  1.0 -0.6898725048
O  O4  1  0.32740000  0.88220000  0.00520000  1.0 -0.7046616986
O  O5  1  0.13630000  0.59150000  0.94200000  1.0 -0.6745482251
O  O6  1  0.08540000  0.90280000  0.95190000  1.0 -0.559713842
O  O7  1  0.20140000  0.92740000  0.90070000  1.0 -0.5262711063
O  O8  1  0.82980000  0.00700000  0.55560000  1.0 -0.5450152174
O  O9  1  0.97710000  0.92490000  0.55720000  1.0 -0.5787447706
O  O10  1  0.27840000  0.10520000  0.50410000  1.0 -0.6898725048
O  O11  1  0.97700000  0.63680000  0.04890000  1.0 -0.5704169289
O  O12  1  0.94620000  0.51600000  0.10060000  1.0 -0.5419507439
O  O13  1  0.25380000  0.58380000  0.05170000  1.0 -0.6898725048
O  O14  1  0.88220000  0.32740000  0.99480000  1.0 -0.7046616986
O  O15  1  0.59150000  0.13630000  0.05800000  1.0 -0.6745482251
O  O16  1  0.90280000  0.08540000  0.04810000  1.0 -0.559713842
O  O17  1  0.92740000  0.20140000  0.09930000  1.0 -0.5262711063
O  O18  1  0.00700000  0.82980000  0.44440000  1.0 -0.5450152174
O  O19  1  0.92490000  0.97710000  0.44280000  1.0 -0.5787447706
O  O20  1  0.10520000  0.27840000  0.49590000  1.0 -0.6898725048
O  O21  1  0.66800000  0.66800000  0.50000000  1.0 -0.5143105999
O  O22  1  0.47700000  0.13680000  0.45110000  1.0 -0.5704169289
O  O23  1  0.44620000  0.01600000  0.39940000  1.0 -0.5419507439
O  O24  1  0.75380000  0.08380000  0.44830000  1.0 -0.6898725048
O  O25  1  0.38220000  0.82740000  0.50520000  1.0 -0.7046616986
O  O26  1  0.09150000  0.63630000  0.44200000  1.0 -0.6745482251
O  O27  1  0.40280000  0.58540000  0.45190000  1.0 -0.559713842
O  O28  1  0.42740000  0.70140000  0.40070000  1.0 -0.5262711063
O  O29  1  0.50700000  0.32980000  0.05560000  1.0 -0.5419507439
O  O30  1  0.42490000  0.47710000  0.05720000  1.0 -0.5787447706
O  O31  1  0.60520000  0.77840000  0.00410000  1.0 -0.6898725048
O  O32  1  0.13680000  0.47700000  0.54890000  1.0 -0.5704169289
O  O33  1  0.01600000  0.44620000  0.60060000  1.0 -0.5419507439
O  O34  1  0.08380000  0.75380000  0.55170000  1.0 -0.6898725048
O  O35  1  0.82740000  0.38220000  0.49480000  1.0 -0.7046616986
O  O36  1  0.63630000  0.09150000  0.55800000  1.0 -0.6745482251
O  O37  1  0.58540000  0.40280000  0.54810000  1.0 -0.559713842
O  O38  1  0.70140000  0.42740000  0.59930000  1.0 -0.5262711063
O  O39  1  0.32980000  0.50700000  0.94440000  1.0 -0.5419507439
O  O40  1  0.47710000  0.42490000  0.94280000  1.0 -0.5787447706
O  O41  1  0.77840000  0.60520000  0.99590000  1.0 -0.6898725048
O  O42  1  0.16800000  0.16800000  0.00000000  1.0 -0.5143105999
