# DDEC6 charges by PACMAN v1.1 (https://github.com/mtap-research/PACMAN-charge/)
data_VUQJUN_FSR_pacman
_symmetry_space_group_name_H-M   'P 1'
_cell_length_a   13.81900000
_cell_length_b   15.38200000
_cell_length_c   24.38300000
_cell_angle_alpha   100.41000000
_cell_angle_beta   95.25000000
_cell_angle_gamma   101.09000000
_symmetry_Int_Tables_number   1
_chemical_formula_structural   Mn4H53C65N3O19
_chemical_formula_sum   'Mn8 H106 C130 N6 O38'
_cell_volume   4959.45516844
_cell_formula_units_Z   2
loop_
 _symmetry_equiv_pos_site_id
 _symmetry_equiv_pos_as_xyz
  1  'x, y, z'
loop_
 _atom_site_type_symbol
 _atom_site_label
 _atom_site_symmetry_multiplicity
 _atom_site_fract_x
 _atom_site_fract_y
 _atom_site_fract_z
 _atom_site_occupancy
 _atom_site_charge
Mn  Mn1  1  0.82539000  0.35644000  0.67661000  1.0 1.0018918062
Mn  Mn2  1  0.17461000  0.64356000  0.32339000  1.0 1.0018918062
Mn  Mn3  1  0.63213000  0.44387000  0.72616000  1.0 1.0291327978
Mn  Mn4  1  0.36787000  0.55613000  0.27384000  1.0 1.0291327978
Mn  Mn5  1  0.39124000  0.34591000  0.67524000  1.0 0.98815228
Mn  Mn6  1  0.60876000  0.65409000  0.32476000  1.0 0.98815228
Mn  Mn7  1  0.18142000  0.30163000  0.73737000  1.0 1.0467627789
Mn  Mn8  1  0.81858000  0.69837000  0.26263000  1.0 1.0467627789
H  H1  1  0.71200000  0.64700000  0.68740000  1.0 0.1198982219
H  H2  1  0.28800000  0.35300000  0.31260000  1.0 0.1198982219
H  H3  1  0.73880000  0.80040000  0.68940000  1.0 0.1112967084
H  H4  1  0.26120000  0.19960000  0.31060000  1.0 0.1112967084
H  H5  1  0.01940000  0.80400000  0.66490000  1.0 0.1112967084
H  H6  1  0.98060000  0.19600000  0.33510000  1.0 0.1112967084
H  H7  1  0.99360000  0.65220000  0.66700000  1.0 0.1198982219
H  H8  1  0.00640000  0.34780000  0.33300000  1.0 0.1198982219
H  H9  1  0.76090000  0.92290000  0.65000000  1.0 0.1112967084
H  H10  1  0.23910000  0.07710000  0.35000000  1.0 0.1112967084
H  H11  1  0.78850000  0.07500000  0.65270000  1.0 0.1112967084
H  H12  1  0.21150000  0.92500000  0.34730000  1.0 0.1112967084
H  H13  1  0.06720000  0.10310000  0.71560000  1.0 0.1297253621
H  H14  1  0.93280000  0.89690000  0.28440000  1.0 0.1297253621
H  H15  1  0.04130000  0.95030000  0.71110000  1.0 0.1112967084
H  H16  1  0.95870000  0.04970000  0.28890000  1.0 0.1112967084
H  H17  1  0.77930000  0.52490000  0.89910000  1.0 0.1112967084
H  H18  1  0.22070000  0.47510000  0.10090000  1.0 0.1112967084
H  H19  1  0.86420000  0.55600000  0.98860000  1.0 0.1112967084
H  H20  1  0.13580000  0.44400000  0.01140000  1.0 0.1112967084
H  H21  1  0.06590000  0.42400000  0.93070000  1.0 0.1112967084
H  H22  1  0.93410000  0.57600000  0.06930000  1.0 0.1112967084
H  H23  1  0.97910000  0.38830000  0.84380000  1.0 0.1198982219
H  H24  1  0.02090000  0.61170000  0.15620000  1.0 0.1198982219
H  H25  1  0.44950000  0.23620000  0.55740000  1.0 0.1297253621
H  H26  1  0.55050000  0.76380000  0.44260000  1.0 0.1297253621
H  H27  1  0.40970000  0.10340000  0.49150000  1.0 0.1112967084
H  H28  1  0.59030000  0.89660000  0.50850000  1.0 0.1112967084
H  H29  1  0.62970000  0.01540000  0.56550000  1.0 0.1112967084
H  H30  1  0.37030000  0.98460000  0.43450000  1.0 0.1112967084
H  H31  1  0.67280000  0.14940000  0.63010000  1.0 0.1112967084
H  H32  1  0.32720000  0.85060000  0.36990000  1.0 0.1112967084
H  H33  1  0.31390000  0.41170000  0.86460000  1.0 0.1112967084
H  H34  1  0.68610000  0.58830000  0.13540000  1.0 0.1112967084
H  H35  1  0.34370000  0.46740000  0.96010000  1.0 0.1112967084
H  H36  1  0.65630000  0.53260000  0.03990000  1.0 0.1112967084
H  H37  1  0.62970000  0.47890000  0.95560000  1.0 0.1112967084
H  H38  1  0.37030000  0.52110000  0.04440000  1.0 0.1112967084
H  H39  1  0.60320000  0.43480000  0.86130000  1.0 0.1297253621
H  H40  1  0.39680000  0.56520000  0.13870000  1.0 0.1297253621
H  H41  1  0.30650000  0.59270000  0.68650000  1.0 0.1198982219
H  H42  1  0.69350000  0.40730000  0.31350000  1.0 0.1198982219
H  H43  1  0.25980000  0.72740000  0.68080000  1.0 0.1112967084
H  H44  1  0.74020000  0.27260000  0.31920000  1.0 0.1112967084
H  H45  1  0.54020000  0.86130000  0.73740000  1.0 0.1198982219
H  H46  1  0.45980000  0.13870000  0.26260000  1.0 0.1198982219
H  H47  1  0.58650000  0.72750000  0.74130000  1.0 0.1198982219
H  H48  1  0.41350000  0.27250000  0.25870000  1.0 0.1198982219
H  H49  1  0.24640000  0.88340000  0.74000000  1.0 0.1198982219
H  H50  1  0.75360000  0.11660000  0.26000000  1.0 0.1198982219
H  H51  1  0.21220000  0.02280000  0.73670000  1.0 0.1198982219
H  H52  1  0.78780000  0.97720000  0.26330000  1.0 0.1198982219
H  H53  1  0.44060000  0.07460000  0.65070000  1.0 0.1112967084
H  H54  1  0.55940000  0.92540000  0.34930000  1.0 0.1112967084
H  H55  1  0.48000000  0.94010000  0.65930000  1.0 0.1198982219
H  H56  1  0.52000000  0.05990000  0.34070000  1.0 0.1198982219
H  H57  1  0.23310000  0.39820000  0.51410000  1.0 0.1198982219
H  H58  1  0.76690000  0.60180000  0.48590000  1.0 0.1198982219
H  H59  1  0.13430000  0.46910000  0.46300000  1.0 0.1112967084
H  H60  1  0.86570000  0.53090000  0.53700000  1.0 0.1112967084
H  H61  1  0.96020000  0.47790000  0.58240000  1.0 0.1112967084
H  H62  1  0.03980000  0.52210000  0.41760000  1.0 0.1112967084
H  H63  1  0.06470000  0.41750000  0.63540000  1.0 0.1198982219
H  H64  1  0.93530000  0.58250000  0.36460000  1.0 0.1198982219
H  H65  1  0.84460000  0.23460000  0.55840000  1.0 0.1112967084
H  H66  1  0.15540000  0.76540000  0.44160000  1.0 0.1112967084
H  H67  1  0.65750000  0.31910000  0.51030000  1.0 0.1405368111
H  H68  1  0.34250000  0.68090000  0.48970000  1.0 0.1405368111
H  H69  1  0.64750000  0.26190000  0.44910000  1.0 0.1198982219
H  H70  1  0.35250000  0.73810000  0.55090000  1.0 0.1198982219
H  H71  1  0.71860000  0.35780000  0.46570000  1.0 0.1405368111
H  H72  1  0.28140000  0.64220000  0.53430000  1.0 0.1405368111
H  H73  1  0.74900000  0.21330000  0.41810000  1.0 0.1198982219
H  H74  1  0.25100000  0.78670000  0.58190000  1.0 0.1198982219
H  H75  1  0.74810000  0.14400000  0.45810000  1.0 0.1297253621
H  H76  1  0.25190000  0.85600000  0.54190000  1.0 0.1297253621
H  H77  1  0.84900000  0.20490000  0.45060000  1.0 0.1297253621
H  H78  1  0.15100000  0.79510000  0.54940000  1.0 0.1297253621
H  H79  1  0.05760000  0.45970000  0.75260000  1.0 0.1198982219
H  H80  1  0.94240000  0.54030000  0.24740000  1.0 0.1198982219
H  H81  1  0.19160000  0.60060000  0.87830000  1.0 0.1297253621
H  H82  1  0.80840000  0.39940000  0.12170000  1.0 0.1297253621
H  H83  1  0.24830000  0.65680000  0.83900000  1.0 0.1297253621
H  H84  1  0.75170000  0.34320000  0.16100000  1.0 0.1297253621
H  H85  1  0.25860000  0.55680000  0.83770000  1.0 0.1405368111
H  H86  1  0.74140000  0.44320000  0.16230000  1.0 0.1405368111
H  H87  1  0.01790000  0.58450000  0.75640000  1.0 0.1297253621
H  H88  1  0.98210000  0.41550000  0.24360000  1.0 0.1297253621
H  H89  1  0.10130000  0.67260000  0.77640000  1.0 0.1297253621
H  H90  1  0.89870000  0.32740000  0.22360000  1.0 0.1297253621
H  H91  1  0.03380000  0.63640000  0.81920000  1.0 0.1405368111
H  H92  1  0.96620000  0.36360000  0.18080000  1.0 0.1405368111
H  H93  1  0.27300000  0.25430000  0.86540000  1.0 0.1011166046
H  H94  1  0.72700000  0.74570000  0.13460000  1.0 0.1011166046
H  H95  1  0.02900000  0.18540000  0.93580000  1.0 0.1198982219
H  H96  1  0.97100000  0.81460000  0.06420000  1.0 0.1198982219
H  H97  1  0.01690000  0.20850000  0.87580000  1.0 0.1297253621
H  H98  1  0.98310000  0.79150000  0.12420000  1.0 0.1405368111
H  H99  1  0.02750000  0.28480000  0.92950000  1.0 0.1112967084
H  H100  1  0.97250000  0.71520000  0.07050000  1.0 0.1112967084
H  H101  1  0.20780000  0.35810000  0.98360000  1.0 -0.0032696368
H  H102  1  0.79220000  0.64190000  0.01640000  1.0 -0.0032696368
H  H103  1  0.27950000  0.29790000  0.97640000  1.0 0.1112967084
H  H104  1  0.72050000  0.70210000  0.02360000  1.0 0.1112967084
H  H105  1  0.18240000  0.26560000  0.00430000  1.0 0.1297253621
H  H106  1  0.81760000  0.73440000  0.99570000  1.0 0.1297253621
C  C1  1  0.21560000  0.27390000  0.97030000  1.0 -0.2887664889
C  C2  1  0.78440000  0.72610000  0.02970000  1.0 -0.2887664889
C  C3  1  0.85040000  0.63320000  0.67690000  1.0 -0.0287864313
C  C4  1  0.14960000  0.36680000  0.32310000  1.0 -0.0287864313
C  C5  1  0.77480000  0.67830000  0.68350000  1.0 -0.0909996395
C  C6  1  0.22520000  0.32170000  0.31650000  1.0 -0.0909996395
C  C7  1  0.79120000  0.77090000  0.68460000  1.0 -0.1441860055
C  C8  1  0.20880000  0.22910000  0.31540000  1.0 -0.1441860055
C  C9  1  0.88160000  0.81950000  0.67880000  1.0 0.0782100822
C  C10  1  0.11840000  0.18050000  0.32120000  1.0 0.0782100822
C  C11  1  0.95740000  0.77350000  0.67060000  1.0 -0.159921858
C  C12  1  0.04260000  0.22650000  0.32940000  1.0 -0.159921858
C  C13  1  0.94100000  0.68160000  0.67100000  1.0 -0.1091046807
C  C14  1  0.05900000  0.31840000  0.32900000  1.0 -0.1091046807
C  C15  1  0.89860000  0.91860000  0.67990000  1.0 0.0705227722
C  C16  1  0.10140000  0.08140000  0.32010000  1.0 0.0705227722
C  C17  1  0.82410000  0.95840000  0.66310000  1.0 -0.159921858
C  C18  1  0.17590000  0.04160000  0.33690000  1.0 -0.159921858
C  C19  1  0.84080000  0.05040000  0.66520000  1.0 -0.1091046807
C  C20  1  0.15920000  0.94960000  0.33480000  1.0 -0.1091046807
C  C21  1  0.93140000  0.10660000  0.68500000  1.0 -0.021206323
C  C22  1  0.06860000  0.89340000  0.31500000  1.0 -0.021206323
C  C23  1  0.00440000  0.06740000  0.70180000  1.0 -0.100215019
C  C24  1  0.99560000  0.93260000  0.29820000  1.0 -0.100215019
C  C25  1  0.98850000  0.97480000  0.69920000  1.0 -0.1441860055
C  C26  1  0.01150000  0.02520000  0.30080000  1.0 -0.1441860055
C  C27  1  0.83320000  0.53380000  0.67710000  1.0 0.5618840004
C  C28  1  0.16680000  0.46620000  0.32290000  1.0 0.5618840004
C  C29  1  0.94700000  0.20730000  0.68750000  1.0 0.5895597483
C  C30  1  0.05300000  0.79270000  0.31250000  1.0 0.5895597483
C  C31  1  0.86940000  0.45150000  0.86160000  1.0 -0.0287864313
C  C32  1  0.13060000  0.54850000  0.13840000  1.0 -0.0287864313
C  C33  1  0.83640000  0.50270000  0.90560000  1.0 -0.1091046807
C  C34  1  0.16360000  0.49730000  0.09440000  1.0 -0.1091046807
C  C35  1  0.88770000  0.52150000  0.95940000  1.0 -0.1498645892
C  C36  1  0.11230000  0.47850000  0.04060000  1.0 -0.1498645892
C  C37  1  0.97280000  0.49000000  0.97050000  1.0 0.0782100822
C  C38  1  0.02720000  0.51000000  0.02950000  1.0 0.0705227722
C  C39  1  0.00630000  0.44270000  0.92520000  1.0 -0.1498645892
C  C40  1  0.99370000  0.55730000  0.07480000  1.0 -0.1498645892
C  C41  1  0.95520000  0.42260000  0.87290000  1.0 -0.1091046807
C  C42  1  0.04480000  0.57740000  0.12710000  1.0 -0.1091046807
C  C43  1  0.81370000  0.43120000  0.80330000  1.0 0.5814993674
C  C44  1  0.18630000  0.56880000  0.19670000  1.0 0.5814993674
C  C45  1  0.56530000  0.20700000  0.60086000  1.0 -0.0287864313
C  C46  1  0.43470000  0.79300000  0.39914000  1.0 -0.0287864313
C  C47  1  0.48660000  0.19210000  0.55920000  1.0 -0.0909996395
C  C48  1  0.51340000  0.80790000  0.44080000  1.0 -0.0909996395
C  C49  1  0.46240000  0.11180000  0.51990000  1.0 -0.1498645892
C  C50  1  0.53760000  0.88820000  0.48010000  1.0 -0.1498645892
C  C51  1  0.51370000  0.04380000  0.52150000  1.0 0.0705227722
C  C52  1  0.48630000  0.95620000  0.47850000  1.0 0.0705227722
C  C53  1  0.59300000  0.05970000  0.56350000  1.0 -0.159921858
C  C54  1  0.40700000  0.94030000  0.43650000  1.0 -0.159921858
C  C55  1  0.61870000  0.14010000  0.60240000  1.0 -0.1091046807
C  C56  1  0.38130000  0.85990000  0.39760000  1.0 -0.1091046807
C  C57  1  0.59170000  0.29140000  0.64472000  1.0 0.5814993674
C  C58  1  0.40830000  0.70860000  0.35528000  1.0 0.5814993674
C  C59  1  0.45490000  0.41540000  0.85230000  1.0 -0.021206323
C  C60  1  0.54510000  0.58460000  0.14770000  1.0 -0.021206323
C  C61  1  0.37890000  0.42650000  0.88260000  1.0 -0.1273646211
C  C62  1  0.62110000  0.57350000  0.11740000  1.0 -0.1273646211
C  C63  1  0.39700000  0.45970000  0.94040000  1.0 -0.159921858
C  C64  1  0.60300000  0.54030000  0.05960000  1.0 -0.159921858
C  C65  1  0.49040000  0.48130000  0.96890000  1.0 0.0782100822
C  C66  1  0.50960000  0.51870000  0.03110000  1.0 0.0782100822
C  C67  1  0.56510000  0.46770000  0.93740000  1.0 -0.1441860055
C  C68  1  0.43490000  0.53230000  0.06260000  1.0 -0.1441860055
C  C69  1  0.54920000  0.43890000  0.88100000  1.0 -0.0909996395
C  C70  1  0.45080000  0.56110000  0.11900000  1.0 -0.100215019
C  C71  1  0.43630000  0.38130000  0.78992000  1.0 0.5814993674
C  C72  1  0.56370000  0.61870000  0.21008000  1.0 0.5814993674
C  C73  1  0.45150000  0.64580000  0.71120000  1.0 -0.021206323
C  C74  1  0.54850000  0.35420000  0.28880000  1.0 -0.021206323
C  C75  1  0.35400000  0.64660000  0.69520000  1.0 -0.1091046807
C  C76  1  0.64600000  0.35340000  0.30480000  1.0 -0.1091046807
C  C77  1  0.32610000  0.72760000  0.69190000  1.0 -0.159921858
C  C78  1  0.67390000  0.27240000  0.30810000  1.0 -0.159921858
C  C79  1  0.39490000  0.80850000  0.70480000  1.0 0.0705227722
C  C80  1  0.60510000  0.19150000  0.29520000  1.0 0.0705227722
C  C81  1  0.49360000  0.80710000  0.72550000  1.0 -0.1498645892
C  C82  1  0.50640000  0.19290000  0.27450000  1.0 -0.1498645892
C  C83  1  0.52110000  0.72750000  0.72820000  1.0 -0.100215019
C  C84  1  0.47890000  0.27250000  0.27180000  1.0 -0.100215019
C  C85  1  0.36670000  0.89600000  0.69960000  1.0 0.0627686525
C  C86  1  0.63330000  0.10400000  0.30040000  1.0 0.0627686525
C  C87  1  0.28680000  0.92250000  0.72250000  1.0 -0.159921858
C  C88  1  0.71320000  0.07750000  0.27750000  1.0 -0.159921858
C  C89  1  0.26540000  0.00580000  0.72000000  1.0 -0.100215019
C  C90  1  0.73460000  0.99420000  0.28000000  1.0 -0.100215019
C  C91  1  0.32290000  0.06400000  0.69270000  1.0 -0.021206323
C  C92  1  0.67710000  0.93600000  0.30730000  1.0 -0.021206323
C  C93  1  0.40160000  0.03680000  0.66970000  1.0 -0.100215019
C  C94  1  0.59840000  0.96320000  0.33030000  1.0 -0.100215019
C  C95  1  0.42430000  0.95540000  0.67400000  1.0 -0.159921858
C  C96  1  0.57570000  0.04460000  0.32600000  1.0 -0.159921858
C  C97  1  0.48270000  0.55620000  0.71070000  1.0 0.5814993674
C  C98  1  0.51730000  0.44380000  0.28930000  1.0 0.5814993674
C  C99  1  0.30550000  0.15720000  0.69140000  1.0 0.5895597483
C  C100  1  0.69450000  0.84280000  0.30860000  1.0 0.5895597483
C  C101  1  0.16110000  0.40290000  0.58040000  1.0 -0.012948782
C  C102  1  0.83890000  0.59710000  0.41960000  1.0 -0.012948782
C  C103  1  0.17880000  0.41620000  0.52900000  1.0 -0.1091046807
C  C104  1  0.82120000  0.58380000  0.47100000  1.0 -0.1091046807
C  C105  1  0.11760000  0.45670000  0.49730000  1.0 -0.159921858
C  C106  1  0.88240000  0.54330000  0.50270000  1.0 -0.159921858
C  C107  1  0.03300000  0.47810000  0.51650000  1.0 0.0705227722
C  C108  1  0.96700000  0.52190000  0.48350000  1.0 0.0705227722
C  C109  1  0.01620000  0.46300000  0.56800000  1.0 -0.1498645892
C  C110  1  0.98380000  0.53700000  0.43200000  1.0 -0.1498645892
C  C111  1  0.07890000  0.42630000  0.60000000  1.0 -0.100215019
C  C112  1  0.92110000  0.57370000  0.40000000  1.0 -0.100215019
C  C113  1  0.23100000  0.36420000  0.61530000  1.0 0.5895597483
C  C114  1  0.76900000  0.63580000  0.38470000  1.0 0.5895597483
C  C115  1  0.80580000  0.27440000  0.54930000  1.0 0.1787477354
C  C116  1  0.19420000  0.72560000  0.45070000  1.0 0.1787477354
C  C117  1  0.69240000  0.30390000  0.47880000  1.0 -0.2996555124
C  C118  1  0.30760000  0.69610000  0.52120000  1.0 -0.2996555124
C  C119  1  0.77900000  0.20300000  0.45260000  1.0 -0.2767518465
C  C120  1  0.22100000  0.79700000  0.54740000  1.0 -0.2767518465
C  C121  1  0.11690000  0.48210000  0.77670000  1.0 0.1682715784
C  C122  1  0.88310000  0.51790000  0.22330000  1.0 0.1682715784
C  C123  1  0.21410000  0.59770000  0.84210000  1.0 -0.2887664889
C  C124  1  0.78590000  0.40230000  0.15790000  1.0 -0.2887664889
C  C125  1  0.06650000  0.61920000  0.78710000  1.0 -0.3092088704
C  C126  1  0.93350000  0.38080000  0.21290000  1.0 -0.3092088704
C  C127  1  0.20540000  0.25410000  0.86330000  1.0 0.2942788149
C  C128  1  0.79460000  0.74590000  0.13670000  1.0 0.2942788149
C  C129  1  0.04810000  0.23050000  0.91390000  1.0 -0.3178209816
C  C130  1  0.95190000  0.76950000  0.08610000  1.0 -0.3178209816
N  N1  1  0.76890000  0.26530000  0.49510000  1.0 0.0277449856
N  N2  1  0.23110000  0.73470000  0.50490000  1.0 0.0277449856
N  N3  1  0.13370000  0.56750000  0.80070000  1.0 0.0238922531
N  N4  1  0.86630000  0.43250000  0.19930000  1.0 0.0238922531
N  N5  1  0.15620000  0.24970000  0.91500000  1.0 0.0376846115
N  N6  1  0.84380000  0.75030000  0.08500000  1.0 0.0376846115
O  O1  1  0.74560000  0.49110000  0.67715000  1.0 -0.5600113029
O  O2  1  0.25440000  0.50890000  0.32285000  1.0 -0.5600113029
O  O3  1  0.90430000  0.49490000  0.67618000  1.0 -0.5518862594
O  O4  1  0.09570000  0.50510000  0.32382000  1.0 -0.5398595019
O  O5  1  0.87270000  0.23590000  0.67051000  1.0 -0.5679925983
O  O6  1  0.12730000  0.76410000  0.32949000  1.0 -0.5679925983
O  O7  1  0.02900000  0.25720000  0.70530000  1.0 -0.5398595019
O  O8  1  0.97100000  0.74280000  0.29470000  1.0 -0.5398595019
O  O9  1  0.73630000  0.46150000  0.79668000  1.0 -0.5600113029
O  O10  1  0.26370000  0.53850000  0.20332000  1.0 -0.5600113029
O  O11  1  0.85070000  0.38750000  0.76512000  1.0 -0.5679925983
O  O12  1  0.14930000  0.61250000  0.23488000  1.0 -0.5679925983
O  O13  1  0.66640000  0.30520000  0.68164000  1.0 -0.5518862594
O  O14  1  0.33360000  0.69480000  0.31836000  1.0 -0.5518862594
O  O15  1  0.53720000  0.35010000  0.64568000  1.0 -0.5518862594
O  O16  1  0.46280000  0.64990000  0.35432000  1.0 -0.5518862594
O  O17  1  0.50900000  0.37430000  0.76341000  1.0 -0.5600113029
O  O18  1  0.49100000  0.62570000  0.23659000  1.0 -0.5600113029
O  O19  1  0.34910000  0.36130000  0.76556000  1.0 -0.5518862594
O  O20  1  0.65090000  0.63870000  0.23444000  1.0 -0.5518862594
O  O21  1  0.41900000  0.48750000  0.68906000  1.0 -0.5398595019
O  O22  1  0.58100000  0.51250000  0.31094000  1.0 -0.5398595019
O  O23  1  0.57040000  0.55840000  0.73120000  1.0 -0.5518862594
O  O24  1  0.42960000  0.44160000  0.26880000  1.0 -0.5518862594
O  O25  1  0.36810000  0.20830000  0.67134000  1.0 -0.5398595019
O  O26  1  0.63190000  0.79170000  0.32866000  1.0 -0.5398595019
O  O27  1  0.22990000  0.17830000  0.71227000  1.0 -0.5791942333
O  O28  1  0.77010000  0.82170000  0.28773000  1.0 -0.5791942333
O  O29  1  0.30770000  0.34580000  0.59540000  1.0 -0.5275394176
O  O30  1  0.69230000  0.65420000  0.40460000  1.0 -0.5275394176
O  O31  1  0.21470000  0.35630000  0.66429000  1.0 -0.5908185397
O  O32  1  0.78530000  0.64370000  0.33571000  1.0 -0.5908185397
O  O33  1  0.79120000  0.33180000  0.58696000  1.0 -0.428109691
O  O34  1  0.20880000  0.66820000  0.41304000  1.0 -0.428109691
O  O35  1  0.16670000  0.43070000  0.78160000  1.0 -0.3921757792
O  O36  1  0.83330000  0.56930000  0.21840000  1.0 -0.3921757792
O  O37  1  0.15970000  0.25750000  0.81690000  1.0 -0.4538581525
O  O38  1  0.84030000  0.74250000  0.18310000  1.0 -0.4538581525
