# DDEC6 charges by PACMAN v1.1 (https://github.com/mtap-research/PACMAN-charge/)
data_VUQKOI_ASR_pacman
_symmetry_space_group_name_H-M   'P 1'
_cell_length_a   14.19600000
_cell_length_b   15.36700000
_cell_length_c   16.61500000
_cell_angle_alpha   103.83300000
_cell_angle_beta   87.91900000
_cell_angle_gamma   115.40500000
_symmetry_Int_Tables_number   1
_chemical_formula_structural   Cd3P2H40C32N14(Cl3O2)2
_chemical_formula_sum   'Cd6 P4 H80 C64 N28 Cl12 O8'
_cell_volume   3170.01492323
_cell_formula_units_Z   2
loop_
 _symmetry_equiv_pos_site_id
 _symmetry_equiv_pos_as_xyz
  1  'x, y, z'
loop_
 _atom_site_type_symbol
 _atom_site_label
 _atom_site_symmetry_multiplicity
 _atom_site_fract_x
 _atom_site_fract_y
 _atom_site_fract_z
 _atom_site_occupancy
 _atom_site_charge
Cd  Cd1  1  0.49966000  0.55956000  0.32159000  1.0 0.772153761
Cd  Cd2  1  0.50034000  0.44044000  0.67841000  1.0 0.772153761
Cd  Cd3  1  0.65446000  0.56286000  0.50947000  1.0 0.772153761
Cd  Cd4  1  0.34554000  0.43714000  0.49053000  1.0 0.772153761
Cd  Cd5  1  0.45686000  0.43134000  0.08798000  1.0 0.7376192173
Cd  Cd6  1  0.54314000  0.56866000  0.91202000  1.0 0.7376192173
P  P1  1  0.44700000  0.97352000  0.19921000  1.0 1.2401642164
P  P2  1  0.55300000  0.02648000  0.80079000  1.0 1.2401642164
P  P3  1  0.01430000  0.00451000  0.82897000  1.0 1.2478367051
P  P4  1  0.98570000  0.99549000  0.17103000  1.0 1.2478367051
H  H1  1  0.15390000  0.83050000  0.16630000  1.0 0.1386511303
H  H2  1  0.84610000  0.16950000  0.83370000  1.0 0.1386511303
H  H3  1  0.05510000  0.82020000  0.21590000  1.0 0.1303803065
H  H4  1  0.94490000  0.17980000  0.78410000  1.0 0.1303803065
H  H5  1  0.10930000  0.75090000  0.21860000  1.0 0.1386511303
H  H6  1  0.89070000  0.24910000  0.78140000  1.0 0.1303803065
H  H7  1  0.15550000  0.86730000  0.40670000  1.0 0.1386511303
H  H8  1  0.84450000  0.13270000  0.59330000  1.0 0.1386511303
H  H9  1  0.07250000  0.88900000  0.36610000  1.0 0.1386511303
H  H10  1  0.92750000  0.11100000  0.63390000  1.0 0.1386511303
H  H11  1  0.18090000  0.97630000  0.40400000  1.0 0.1303803065
H  H12  1  0.81910000  0.02370000  0.59600000  1.0 0.1303803065
H  H13  1  0.49210000  0.20130000  0.52920000  1.0 0.1386511303
H  H14  1  0.50790000  0.79870000  0.47080000  1.0 0.1386511303
H  H15  1  0.45490000  0.08870000  0.52670000  1.0 0.1303803065
H  H16  1  0.54510000  0.91130000  0.47330000  1.0 0.1303803065
H  H17  1  0.38430000  0.12170000  0.48290000  1.0 0.1303803065
H  H18  1  0.61570000  0.87830000  0.51710000  1.0 0.1303803065
H  H19  1  0.65370000  0.16990000  0.46620000  1.0 0.1303803065
H  H20  1  0.34630000  0.83010000  0.53380000  1.0 0.1303803065
H  H21  1  0.63460000  0.25210000  0.43870000  1.0 0.1386511303
H  H22  1  0.36540000  0.74790000  0.56130000  1.0 0.1386511303
H  H23  1  0.64840000  0.16810000  0.37170000  1.0 0.1303803065
H  H24  1  0.35160000  0.83190000  0.62830000  1.0 0.1303803065
H  H25  1  0.47390000  0.17570000  0.24390000  1.0 0.1500980308
H  H26  1  0.52610000  0.82430000  0.75610000  1.0 0.1500980308
H  H27  1  0.47430000  0.31880000  0.22380000  1.0 0.1028191756
H  H28  1  0.52570000  0.68120000  0.77620000  1.0 0.1028191756
H  H29  1  0.45490000  0.22280000  0.98490000  1.0 0.1094171584
H  H30  1  0.54510000  0.77720000  0.01510000  1.0 0.1094171584
H  H31  1  0.45790000  0.07800000  0.99590000  1.0 0.1565659305
H  H32  1  0.54210000  0.92200000  0.00410000  1.0 0.1565659305
H  H33  1  0.33570000  0.75140000  0.19940000  1.0 0.1500980308
H  H34  1  0.66430000  0.24860000  0.80060000  1.0 0.1500980308
H  H35  1  0.34670000  0.63680000  0.26240000  1.0 0.1094171584
H  H36  1  0.65330000  0.36320000  0.73760000  1.0 0.1094171584
H  H37  1  0.64980000  0.76120000  0.26900000  1.0 0.1094171584
H  H38  1  0.35020000  0.23880000  0.73100000  1.0 0.1094171584
H  H39  1  0.64930000  0.87790000  0.20610000  1.0 0.1500980308
H  H40  1  0.35070000  0.12210000  0.79390000  1.0 0.1500980308
H  H41  1  0.66910000  0.76930000  0.60010000  1.0 0.1094171584
H  H42  1  0.33090000  0.23070000  0.39990000  1.0 0.1094171584
H  H43  1  0.74950000  0.90720000  0.70750000  1.0 0.1386511303
H  H44  1  0.25050000  0.09280000  0.29250000  1.0 0.1386511303
H  H45  1  0.92500000  0.78480000  0.76860000  1.0 0.1500980308
H  H46  1  0.07500000  0.21520000  0.23140000  1.0 0.1500980308
H  H47  1  0.84150000  0.65290000  0.65570000  1.0 0.1161909474
H  H48  1  0.15850000  0.34710000  0.34430000  1.0 0.1161909474
H  H49  1  0.15800000  0.24390000  0.83940000  1.0 0.1500980308
H  H50  1  0.84200000  0.75610000  0.16060000  1.0 0.1500980308
H  H51  1  0.08400000  0.12750000  0.03780000  1.0 0.1565659305
H  H52  1  0.91600000  0.87250000  0.96220000  1.0 0.1565659305
H  H53  1  0.09110000  0.01110000  0.55880000  1.0 0.1303803065
H  H54  1  0.90890000  0.98890000  0.44120000  1.0 0.1303803065
H  H55  1  0.20220000  0.10120000  0.57510000  1.0 0.1303803065
H  H56  1  0.79780000  0.89880000  0.42490000  1.0 0.1303803065
H  H57  1  0.11580000  0.10060000  0.63670000  1.0 0.1386511303
H  H58  1  0.88420000  0.89940000  0.36330000  1.0 0.1386511303
H  H59  1  0.28570000  0.96060000  0.65710000  1.0 0.1386511303
H  H60  1  0.71430000  0.03940000  0.34290000  1.0 0.1386511303
H  H61  1  0.30110000  0.01350000  0.58460000  1.0 0.1303803065
H  H62  1  0.69890000  0.98650000  0.41540000  1.0 0.1303803065
H  H63  1  0.21190000  0.90590000  0.57520000  1.0 0.1386511303
H  H64  1  0.78810000  0.09410000  0.42480000  1.0 0.1386511303
H  H65  1  0.11820000  0.91530000  0.98130000  1.0 0.1386511303
H  H66  1  0.88180000  0.08470000  0.01870000  1.0 0.1386511303
H  H67  1  0.21460000  0.89400000  0.99340000  1.0 0.1386511303
H  H68  1  0.78540000  0.10600000  0.00660000  1.0 0.1386511303
H  H69  1  0.10850000  0.80690000  0.95060000  1.0 0.1386511303
H  H70  1  0.89150000  0.19310000  0.04940000  1.0 0.1386511303
H  H71  1  0.22350000  0.78810000  0.80760000  1.0 0.1386511303
H  H72  1  0.77650000  0.21190000  0.19240000  1.0 0.1386511303
H  H73  1  0.31060000  0.86290000  0.87790000  1.0 0.1303803065
H  H74  1  0.68940000  0.13710000  0.12210000  1.0 0.1303803065
H  H75  1  0.29780000  0.89470000  0.79760000  1.0 0.1303803065
H  H76  1  0.70220000  0.10530000  0.20240000  1.0 0.1303803065
H  H77  1  0.24100000  0.24920000  0.10490000  1.0 0.1028191756
H  H78  1  0.75900000  0.75080000  0.89510000  1.0 0.1028191756
H  H79  1  0.31570000  0.36020000  0.91180000  1.0 0.1028191756
H  H80  1  0.68430000  0.63980000  0.08820000  1.0 0.1028191756
C  C1  1  0.29350000  0.94190000  0.28350000  1.0 0.490780593
C  C2  1  0.70650000  0.05810000  0.71650000  1.0 0.490780593
C  C3  1  0.45520000  0.05270000  0.34830000  1.0 0.490780593
C  C4  1  0.54480000  0.94730000  0.65170000  1.0 0.490780593
C  C5  1  0.12090000  0.81640000  0.21610000  1.0 -0.311687004
C  C6  1  0.87910000  0.18360000  0.78390000  1.0 -0.311687004
C  C7  1  0.14580000  0.90760000  0.37470000  1.0 -0.3263346652
C  C8  1  0.85420000  0.09240000  0.62530000  1.0 -0.3204860548
C  C9  1  0.45500000  0.13440000  0.49610000  1.0 -0.3263346652
C  C10  1  0.54500000  0.86560000  0.50390000  1.0 -0.3263346652
C  C11  1  0.62090000  0.18320000  0.42410000  1.0 -0.3204860548
C  C12  1  0.37910000  0.81680000  0.57590000  1.0 -0.3204860548
C  C13  1  0.46630000  0.11080000  0.12120000  1.0 0.3114960154
C  C14  1  0.53370000  0.88920000  0.87880000  1.0 0.3114960154
C  C15  1  0.47070000  0.18380000  0.19050000  1.0 -0.2508786459
C  C16  1  0.52930000  0.81620000  0.80950000  1.0 -0.2508786459
C  C17  1  0.47010000  0.26900000  0.17740000  1.0 0.1094171584
C  C18  1  0.52990000  0.73100000  0.82260000  1.0 0.1094171584
C  C19  1  0.45930000  0.21320000  0.03760000  1.0 0.1028191756
C  C20  1  0.54070000  0.78680000  0.96240000  1.0 0.1028191756
C  C21  1  0.46070000  0.12580000  0.04340000  1.0 -0.2394793723
C  C22  1  0.53930000  0.87420000  0.95660000  1.0 -0.2394793723
C  C23  1  0.49150000  0.82680000  0.19800000  1.0 0.3040703198
C  C24  1  0.50850000  0.17320000  0.80200000  1.0 0.3040703198
C  C25  1  0.40010000  0.75470000  0.21340000  1.0 -0.2394793723
C  C26  1  0.59990000  0.24530000  0.78660000  1.0 -0.2394793723
C  C27  1  0.40800000  0.68660000  0.25100000  1.0 0.1094171584
C  C28  1  0.59200000  0.31340000  0.74900000  1.0 0.1094171584
C  C29  1  0.58610000  0.75940000  0.25490000  1.0 0.0945486834
C  C30  1  0.41390000  0.24060000  0.74510000  1.0 0.0945486834
C  C31  1  0.58690000  0.82960000  0.21780000  1.0 -0.232139585
C  C32  1  0.41310000  0.17040000  0.78220000  1.0 -0.232139585
C  C33  1  0.72240000  0.77300000  0.63360000  1.0 0.1094171584
C  C34  1  0.27760000  0.22700000  0.36640000  1.0 0.1094171584
C  C35  1  0.76950000  0.85560000  0.69850000  1.0 -0.2394793723
C  C36  1  0.23050000  0.14440000  0.30150000  1.0 -0.2394793723
C  C37  1  0.84590000  0.86090000  0.74960000  1.0 0.3114960154
C  C38  1  0.15410000  0.13910000  0.25040000  1.0 0.3040703198
C  C39  1  0.87390000  0.78420000  0.73470000  1.0 -0.2508786459
C  C40  1  0.12610000  0.21580000  0.26530000  1.0 -0.2508786459
C  C41  1  0.82280000  0.70530000  0.66690000  1.0 0.1094171584
C  C42  1  0.17720000  0.29470000  0.33310000  1.0 0.1094171584
C  C43  1  0.10780000  0.17250000  0.93160000  1.0 0.3040703198
C  C44  1  0.89220000  0.82750000  0.06840000  1.0 0.3040703198
C  C45  1  0.17480000  0.24300000  0.89270000  1.0 -0.2508786459
C  C46  1  0.82520000  0.75700000  0.10730000  1.0 -0.2508786459
C  C47  1  0.13030000  0.17390000  0.01120000  1.0 -0.232139585
C  C48  1  0.86970000  0.82610000  0.98880000  1.0 -0.232139585
C  C49  1  0.13660000  0.99310000  0.72130000  1.0 0.490780593
C  C50  1  0.86340000  0.00690000  0.27870000  1.0 0.490780593
C  C51  1  0.14080000  0.93360000  0.83560000  1.0 0.5094376167
C  C52  1  0.85920000  0.06640000  0.16440000  1.0 0.5094376167
C  C53  1  0.14400000  0.06010000  0.60090000  1.0 -0.3204860548
C  C54  1  0.85600000  0.93990000  0.39910000  1.0 -0.3204860548
C  C55  1  0.25050000  0.96920000  0.61340000  1.0 -0.3263346652
C  C56  1  0.74950000  0.03080000  0.38660000  1.0 -0.3263346652
C  C57  1  0.15440000  0.87610000  0.95740000  1.0 -0.304246966
C  C58  1  0.84560000  0.12390000  0.04260000  1.0 -0.304246966
C  C59  1  0.26120000  0.85680000  0.83650000  1.0 -0.311687004
C  C60  1  0.73880000  0.14320000  0.16350000  1.0 -0.311687004
C  C61  1  0.22470000  0.24690000  0.05050000  1.0 0.1028191756
C  C62  1  0.77530000  0.75310000  0.94950000  1.0 0.1028191756
C  C63  1  0.26850000  0.31260000  0.93700000  1.0 0.1028191756
C  C64  1  0.73150000  0.68740000  0.06300000  1.0 0.1028191756
N  N1  1  0.51350000  0.04500000  0.28380000  1.0 -0.7419242004
N  N2  1  0.48650000  0.95500000  0.71620000  1.0 -0.7419242004
N  N3  1  0.35290000  0.00370000  0.35230000  1.0 -0.5825505892
N  N4  1  0.64710000  0.99630000  0.64770000  1.0 -0.5825505892
N  N5  1  0.32600000  0.92180000  0.20630000  1.0 -0.7301103512
N  N6  1  0.67400000  0.07820000  0.79370000  1.0 -0.7243570129
N  N7  1  0.50760000  0.12130000  0.41770000  1.0 -0.0172583705
N  N8  1  0.49240000  0.87870000  0.58230000  1.0 -0.0172583705
N  N9  1  0.19110000  0.89200000  0.29140000  1.0 -0.0013565339
N  N10  1  0.80890000  0.10800000  0.70860000  1.0 -0.0013565339
N  N11  1  0.46400000  0.28460000  0.10310000  1.0 -0.2394793723
N  N12  1  0.53600000  0.71540000  0.89690000  1.0 -0.2394793723
N  N13  1  0.49900000  0.68850000  0.27180000  1.0 -0.232139585
N  N14  1  0.50100000  0.31150000  0.72820000  1.0 -0.2394793723
N  N15  1  0.74890000  0.70000000  0.61690000  1.0 -0.232139585
N  N16  1  0.25110000  0.30000000  0.38310000  1.0 -0.232139585
N  N17  1  0.06280000  0.02580000  0.74470000  1.0 -0.7419242004
N  N18  1  0.93720000  0.97420000  0.25530000  1.0 -0.7419242004
N  N19  1  0.17530000  0.94950000  0.76180000  1.0 -0.5731093326
N  N20  1  0.82470000  0.05050000  0.23820000  1.0 -0.5731093326
N  N21  1  0.06600000  0.95490000  0.87530000  1.0 -0.7301103512
N  N22  1  0.93400000  0.04510000  0.12470000  1.0 -0.7301103512
N  N23  1  0.17840000  0.01110000  0.64920000  1.0 -0.0172583705
N  N24  1  0.82160000  0.98890000  0.35080000  1.0 -0.0172583705
N  N25  1  0.18740000  0.89440000  0.87670000  1.0 -0.0136506727
N  N26  1  0.81260000  0.10560000  0.12330000  1.0 -0.0136506727
N  N27  1  0.29390000  0.31430000  0.01440000  1.0 -0.2394793723
N  N28  1  0.70610000  0.68570000  0.98560000  1.0 -0.2394793723
Cl  Cl1  1  0.66254000  0.68460000  0.42252000  1.0 -0.5114717076
Cl  Cl2  1  0.33746000  0.31540000  0.57748000  1.0 -0.5114717076
Cl  Cl3  1  0.50947000  0.42764000  0.39623000  1.0 -0.4863864223
Cl  Cl4  1  0.49053000  0.57236000  0.60377000  1.0 -0.4863864223
Cl  Cl5  1  0.61718000  0.53067000  0.20113000  1.0 -0.4841709474
Cl  Cl6  1  0.38282000  0.46933000  0.79887000  1.0 -0.4841709474
Cl  Cl7  1  0.34519000  0.43122000  0.21661000  1.0 -0.5016822556
Cl  Cl8  1  0.65481000  0.56878000  0.78339000  1.0 -0.5016822556
Cl  Cl9  1  0.35394000  0.57158000  0.42229000  1.0 -0.5114717076
Cl  Cl10  1  0.64606000  0.42842000  0.57771000  1.0 -0.5114717076
Cl  Cl11  1  0.55681000  0.42149000  0.95306000  1.0 -0.4841709474
Cl  Cl12  1  0.44319000  0.57851000  0.04694000  1.0 -0.4841709474
O  O1  1  0.47500000  0.02500000  0.12320000  1.0 -0.3840488532
O  O2  1  0.52500000  0.97500000  0.87680000  1.0 -0.3899703363
O  O3  1  0.49210000  0.89590000  0.15630000  1.0 -0.3840488532
O  O4  1  0.50790000  0.10410000  0.84370000  1.0 -0.3840488532
O  O5  1  0.88990000  0.94390000  0.81620000  1.0 -0.3987979432
O  O6  1  0.11010000  0.05610000  0.18380000  1.0 -0.3899703363
O  O7  1  0.01120000  0.10000000  0.89030000  1.0 -0.3987979432
O  O8  1  0.98880000  0.90000000  0.10970000  1.0 -0.3987979432
