# DDEC6 charges by PACMAN v1.1 (https://github.com/mtap-research/PACMAN-charge/)
data_VUQKUO_FSR_pacman
_symmetry_space_group_name_H-M   'P 1'
_cell_length_a   13.95700000
_cell_length_b   25.70400000
_cell_length_c   15.82700000
_cell_angle_alpha   90.00000000
_cell_angle_beta   93.36200000
_cell_angle_gamma   90.00000000
_symmetry_Int_Tables_number   1
_chemical_formula_structural   CdPH20C16N7(ClO)2
_chemical_formula_sum   'Cd8 P8 H160 C128 N56 Cl16 O16'
_cell_volume   5668.17569377
_cell_formula_units_Z   8
loop_
 _symmetry_equiv_pos_site_id
 _symmetry_equiv_pos_as_xyz
  1  'x, y, z'
loop_
 _atom_site_type_symbol
 _atom_site_label
 _atom_site_symmetry_multiplicity
 _atom_site_fract_x
 _atom_site_fract_y
 _atom_site_fract_z
 _atom_site_occupancy
 _atom_site_charge
Cd  Cd1  1  0.87279000  0.03460000  0.99578000  1.0 0.7429442241
Cd  Cd2  1  0.12721000  0.53460000  0.50422000  1.0 0.7429442241
Cd  Cd3  1  0.12721000  0.96540000  0.00422000  1.0 0.7429442241
Cd  Cd4  1  0.87279000  0.46540000  0.49578000  1.0 0.7429442241
Cd  Cd5  1  0.62466000  0.96860000  0.99405000  1.0 0.7429442241
Cd  Cd6  1  0.37534000  0.46860000  0.50595000  1.0 0.7429442241
Cd  Cd7  1  0.37534000  0.03140000  0.00595000  1.0 0.7429442241
Cd  Cd8  1  0.62466000  0.53140000  0.49405000  1.0 0.7429442241
P  P1  1  0.09078000  0.24069000  0.30356000  1.0 1.2264014615
P  P2  1  0.90922000  0.74069000  0.19644000  1.0 1.2264014615
P  P3  1  0.90922000  0.75931000  0.69644000  1.0 1.2264014615
P  P4  1  0.09078000  0.25931000  0.80356000  1.0 1.2264014615
P  P5  1  0.66513000  0.26432000  0.75460000  1.0 1.2350382342
P  P6  1  0.33487000  0.76432000  0.74540000  1.0 1.2350382342
P  P7  1  0.33487000  0.73568000  0.24540000  1.0 1.2350382342
P  P8  1  0.66513000  0.23568000  0.25460000  1.0 1.2350382342
H  H1  1  0.36470000  0.21870000  0.90240000  1.0 0.1295714414
H  H2  1  0.63530000  0.71870000  0.59760000  1.0 0.1295714414
H  H3  1  0.63530000  0.78130000  0.09760000  1.0 0.1295714414
H  H4  1  0.36470000  0.28130000  0.40240000  1.0 0.1295714414
H  H5  1  0.39300000  0.24020000  0.81470000  1.0 0.1398636885
H  H6  1  0.60700000  0.74020000  0.68530000  1.0 0.1398636885
H  H7  1  0.60700000  0.75980000  0.18530000  1.0 0.1398636885
H  H8  1  0.39300000  0.25980000  0.31470000  1.0 0.1398636885
H  H9  1  0.45250000  0.19500000  0.85850000  1.0 0.1295714414
H  H10  1  0.54750000  0.69500000  0.64150000  1.0 0.1295714414
H  H11  1  0.54750000  0.80500000  0.14150000  1.0 0.1295714414
H  H12  1  0.45250000  0.30500000  0.35850000  1.0 0.1295714414
H  H13  1  0.40800000  0.26870000  0.01010000  1.0 0.1398636885
H  H14  1  0.59200000  0.76870000  0.48990000  1.0 0.1398636885
H  H15  1  0.59200000  0.73130000  0.98990000  1.0 0.1398636885
H  H16  1  0.40800000  0.23130000  0.51010000  1.0 0.1398636885
H  H17  1  0.51810000  0.28030000  0.02350000  1.0 0.1398636885
H  H18  1  0.48190000  0.78030000  0.47650000  1.0 0.1398636885
H  H19  1  0.48190000  0.71970000  0.97650000  1.0 0.1398636885
H  H20  1  0.51810000  0.21970000  0.52350000  1.0 0.1398636885
H  H21  1  0.44970000  0.32140000  0.97840000  1.0 0.1398636885
H  H22  1  0.55030000  0.82140000  0.52160000  1.0 0.1398636885
H  H23  1  0.55030000  0.67860000  0.02160000  1.0 0.1398636885
H  H24  1  0.44970000  0.17860000  0.47840000  1.0 0.1398636885
H  H25  1  0.68790000  0.08010000  0.89510000  1.0 0.0971796109
H  H26  1  0.31210000  0.58010000  0.60490000  1.0 0.0971796109
H  H27  1  0.31210000  0.91990000  0.10490000  1.0 0.0971796109
H  H28  1  0.68790000  0.41990000  0.39510000  1.0 0.0971796109
H  H29  1  0.60340000  0.30780000  0.50810000  1.0 0.1398636885
H  H30  1  0.39660000  0.80780000  0.99190000  1.0 0.1398636885
H  H31  1  0.39660000  0.69220000  0.49190000  1.0 0.1398636885
H  H32  1  0.60340000  0.19220000  0.00810000  1.0 0.1398636885
H  H33  1  0.26060000  0.36000000  0.52070000  1.0 0.0971796109
H  H34  1  0.73940000  0.86000000  0.97930000  1.0 0.0971796109
H  H35  1  0.73940000  0.64000000  0.47930000  1.0 0.0971796109
H  H36  1  0.26060000  0.14000000  0.02070000  1.0 0.0971796109
H  H37  1  0.28660000  0.43840000  0.31790000  1.0 0.1091745185
H  H38  1  0.71340000  0.93840000  0.18210000  1.0 0.1091745185
H  H39  1  0.71340000  0.56160000  0.68210000  1.0 0.1091745185
H  H40  1  0.28660000  0.06160000  0.81790000  1.0 0.1091745185
H  H41  1  0.86980000  0.19380000  0.21130000  1.0 0.1502197418
H  H42  1  0.13020000  0.69380000  0.28870000  1.0 0.1502197418
H  H43  1  0.13020000  0.80620000  0.78870000  1.0 0.1502197418
H  H44  1  0.86980000  0.30620000  0.71130000  1.0 0.1502197418
H  H45  1  0.54680000  0.35260000  0.74370000  1.0 0.1398636885
H  H46  1  0.45320000  0.85260000  0.75630000  1.0 0.1398636885
H  H47  1  0.45320000  0.64740000  0.25630000  1.0 0.1398636885
H  H48  1  0.54680000  0.14740000  0.24370000  1.0 0.1398636885
H  H49  1  0.19630000  0.38090000  0.24180000  1.0 0.1555934681
H  H50  1  0.80370000  0.88090000  0.25820000  1.0 0.1555934681
H  H51  1  0.80370000  0.61910000  0.75820000  1.0 0.1555934681
H  H52  1  0.19630000  0.11910000  0.74180000  1.0 0.1555934681
H  H53  1  0.89190000  0.20330000  0.80440000  1.0 0.1502197418
H  H54  1  0.10810000  0.70330000  0.69560000  1.0 0.1502197418
H  H55  1  0.10810000  0.79670000  0.19560000  1.0 0.1502197418
H  H56  1  0.89190000  0.29670000  0.30440000  1.0 0.1502197418
H  H57  1  0.50400000  0.37090000  0.45680000  1.0 0.0971796109
H  H58  1  0.49600000  0.87090000  0.04320000  1.0 0.0971796109
H  H59  1  0.49600000  0.62910000  0.54320000  1.0 0.0971796109
H  H60  1  0.50400000  0.12910000  0.95680000  1.0 0.0971796109
H  H61  1  0.13140000  0.16720000  0.13460000  1.0 0.1502197418
H  H62  1  0.86860000  0.66720000  0.36540000  1.0 0.1502197418
H  H63  1  0.86860000  0.83280000  0.86540000  1.0 0.1502197418
H  H64  1  0.13140000  0.33280000  0.63460000  1.0 0.1502197418
H  H65  1  0.06980000  0.09540000  0.05990000  1.0 0.0971796109
H  H66  1  0.93020000  0.59540000  0.44010000  1.0 0.0971796109
H  H67  1  0.93020000  0.90460000  0.94010000  1.0 0.0971796109
H  H68  1  0.06980000  0.40460000  0.55990000  1.0 0.0971796109
H  H69  1  0.81440000  0.12320000  0.13640000  1.0 0.1091745185
H  H70  1  0.18560000  0.62320000  0.36360000  1.0 0.1091745185
H  H71  1  0.18560000  0.87680000  0.86360000  1.0 0.1091745185
H  H72  1  0.81440000  0.37680000  0.63640000  1.0 0.1091745185
H  H73  1  0.16590000  0.29870000  0.44930000  1.0 0.1398636885
H  H74  1  0.83410000  0.79870000  0.05070000  1.0 0.1398636885
H  H75  1  0.83410000  0.70130000  0.55070000  1.0 0.1398636885
H  H76  1  0.16590000  0.20130000  0.94930000  1.0 0.1398636885
H  H77  1  0.63370000  0.13980000  0.78990000  1.0 0.1555934681
H  H78  1  0.36630000  0.63980000  0.71010000  1.0 0.1555934681
H  H79  1  0.36630000  0.86020000  0.21010000  1.0 0.1555934681
H  H80  1  0.63370000  0.36020000  0.28990000  1.0 0.1555934681
H  H81  1  0.93970000  0.13770000  0.89740000  1.0 0.1091745185
H  H82  1  0.06030000  0.63770000  0.60260000  1.0 0.1091745185
H  H83  1  0.06030000  0.86230000  0.10260000  1.0 0.1091745185
H  H84  1  0.93970000  0.36230000  0.39740000  1.0 0.1091745185
H  H85  1  0.44940000  0.41480000  0.68190000  1.0 0.1091745185
H  H86  1  0.55060000  0.91480000  0.81810000  1.0 0.1091745185
H  H87  1  0.55060000  0.58520000  0.31810000  1.0 0.1091745185
H  H88  1  0.44940000  0.08520000  0.18190000  1.0 0.1091745185
H  H89  1  0.36590000  0.10510000  0.33120000  1.0 0.1228601643
H  H90  1  0.63410000  0.60510000  0.16880000  1.0 0.1228601643
H  H91  1  0.63410000  0.89490000  0.66880000  1.0 0.1228601643
H  H92  1  0.36590000  0.39490000  0.83120000  1.0 0.1228601643
H  H93  1  0.28170000  0.12200000  0.26710000  1.0 0.1398636885
H  H94  1  0.71830000  0.62200000  0.23290000  1.0 0.1398636885
H  H95  1  0.71830000  0.87800000  0.73290000  1.0 0.1398636885
H  H96  1  0.28170000  0.37800000  0.76710000  1.0 0.1398636885
H  H97  1  0.35120000  0.16400000  0.30840000  1.0 0.1228601643
H  H98  1  0.64880000  0.66400000  0.19160000  1.0 0.1228601643
H  H99  1  0.64880000  0.83600000  0.69160000  1.0 0.1228601643
H  H100  1  0.35120000  0.33600000  0.80840000  1.0 0.1228601643
H  H101  1  0.32150000  0.07870000  0.44750000  1.0 0.1228601643
H  H102  1  0.67850000  0.57870000  0.05250000  1.0 0.1228601643
H  H103  1  0.67850000  0.92130000  0.55250000  1.0 0.1228601643
H  H104  1  0.32150000  0.42130000  0.94750000  1.0 0.1228601643
H  H105  1  0.27530000  0.11850000  0.50820000  1.0 0.1228601643
H  H106  1  0.72470000  0.61850000  0.99180000  1.0 0.1228601643
H  H107  1  0.72470000  0.88150000  0.49180000  1.0 0.1228601643
H  H108  1  0.27530000  0.38150000  0.00820000  1.0 0.1228601643
H  H109  1  0.21010000  0.07910000  0.45560000  1.0 0.1295714414
H  H110  1  0.78990000  0.57910000  0.04440000  1.0 0.1295714414
H  H111  1  0.78990000  0.92090000  0.54440000  1.0 0.1295714414
H  H112  1  0.21010000  0.42090000  0.95560000  1.0 0.1295714414
H  H113  1  0.87220000  0.22260000  0.55670000  1.0 0.1295714414
H  H114  1  0.12780000  0.72260000  0.94330000  1.0 0.1295714414
H  H115  1  0.12780000  0.77740000  0.44330000  1.0 0.1295714414
H  H116  1  0.87220000  0.27740000  0.05670000  1.0 0.1295714414
H  H117  1  0.92050000  0.26710000  0.50660000  1.0 0.1295714414
H  H118  1  0.07950000  0.76710000  0.99340000  1.0 0.1295714414
H  H119  1  0.07950000  0.73290000  0.49340000  1.0 0.1295714414
H  H120  1  0.92050000  0.23290000  0.00660000  1.0 0.1295714414
H  H121  1  0.86170000  0.22350000  0.45750000  1.0 0.1228601643
H  H122  1  0.13830000  0.72350000  0.04250000  1.0 0.1228601643
H  H123  1  0.13830000  0.77650000  0.54250000  1.0 0.1228601643
H  H124  1  0.86170000  0.27650000  0.95750000  1.0 0.1228601643
H  H125  1  0.95140000  0.16590000  0.60920000  1.0 0.1295714414
H  H126  1  0.04860000  0.66590000  0.89080000  1.0 0.1295714414
H  H127  1  0.04860000  0.83410000  0.39080000  1.0 0.1295714414
H  H128  1  0.95140000  0.33410000  0.10920000  1.0 0.1295714414
H  H129  1  0.99740000  0.12730000  0.54640000  1.0 0.1295714414
H  H130  1  0.00260000  0.62730000  0.95360000  1.0 0.1295714414
H  H131  1  0.00260000  0.87270000  0.45360000  1.0 0.1295714414
H  H132  1  0.99740000  0.37270000  0.04640000  1.0 0.1295714414
H  H133  1  0.06260000  0.16630000  0.59990000  1.0 0.1398636885
H  H134  1  0.93740000  0.66630000  0.90010000  1.0 0.1295714414
H  H135  1  0.93740000  0.83370000  0.40010000  1.0 0.1398636885
H  H136  1  0.06260000  0.33370000  0.09990000  1.0 0.1398636885
H  H137  1  0.75850000  0.41220000  0.01780000  1.0 0.1295714414
H  H138  1  0.24150000  0.91220000  0.48220000  1.0 0.1295714414
H  H139  1  0.24150000  0.58780000  0.98220000  1.0 0.1295714414
H  H140  1  0.75850000  0.08780000  0.51780000  1.0 0.1295714414
H  H141  1  0.65180000  0.40160000  0.98600000  1.0 0.1295714414
H  H142  1  0.34820000  0.90160000  0.51400000  1.0 0.1295714414
H  H143  1  0.34820000  0.59840000  0.01400000  1.0 0.1295714414
H  H144  1  0.65180000  0.09840000  0.48600000  1.0 0.1295714414
H  H145  1  0.71010000  0.35880000  0.03750000  1.0 0.1295714414
H  H146  1  0.28990000  0.85880000  0.46250000  1.0 0.1295714414
H  H147  1  0.28990000  0.64120000  0.96250000  1.0 0.1295714414
H  H148  1  0.71010000  0.14120000  0.53750000  1.0 0.1295714414
H  H149  1  0.86170000  0.40980000  0.92140000  1.0 0.1295714414
H  H150  1  0.13830000  0.90980000  0.57860000  1.0 0.1295714414
H  H151  1  0.13830000  0.59020000  0.07860000  1.0 0.1295714414
H  H152  1  0.86170000  0.09020000  0.42140000  1.0 0.1295714414
H  H153  1  0.87780000  0.35580000  0.87830000  1.0 0.1228601643
H  H154  1  0.12220000  0.85580000  0.62170000  1.0 0.1228601643
H  H155  1  0.12220000  0.64420000  0.12170000  1.0 0.1228601643
H  H156  1  0.87780000  0.14420000  0.37830000  1.0 0.1228601643
H  H157  1  0.81860000  0.39930000  0.82930000  1.0 0.1398636885
H  H158  1  0.18140000  0.89930000  0.67070000  1.0 0.1398636885
H  H159  1  0.18140000  0.60070000  0.17070000  1.0 0.1398636885
H  H160  1  0.81860000  0.10070000  0.32930000  1.0 0.1398636885
C  C1  1  0.41730000  0.22630000  0.86800000  1.0 -0.2999086508
C  C2  1  0.58270000  0.72630000  0.63200000  1.0 -0.2999086508
C  C3  1  0.58270000  0.77370000  0.13200000  1.0 -0.2999086508
C  C4  1  0.41730000  0.27370000  0.36800000  1.0 -0.2999086508
C  C5  1  0.46210000  0.28490000  0.98610000  1.0 -0.2999086508
C  C6  1  0.53790000  0.78490000  0.51390000  1.0 -0.2999086508
C  C7  1  0.53790000  0.71510000  0.01390000  1.0 -0.2999086508
C  C8  1  0.46210000  0.21510000  0.48610000  1.0 -0.2999086508
C  C9  1  0.73100000  0.10380000  0.87420000  1.0 0.1295714414
C  C10  1  0.26900000  0.60380000  0.62580000  1.0 0.1295714414
C  C11  1  0.26900000  0.89620000  0.12580000  1.0 0.1295714414
C  C12  1  0.73100000  0.39620000  0.37420000  1.0 0.1295714414
C  C13  1  0.17380000  0.33300000  0.33590000  1.0 0.30060537
C  C14  1  0.82620000  0.83300000  0.16410000  1.0 0.30060537
C  C15  1  0.82620000  0.66700000  0.66410000  1.0 0.30060537
C  C16  1  0.17380000  0.16700000  0.83590000  1.0 0.30060537
C  C17  1  0.57170000  0.32910000  0.54490000  1.0 -0.2415078646
C  C18  1  0.42830000  0.82910000  0.95510000  1.0 -0.2415078646
C  C19  1  0.42830000  0.67090000  0.45510000  1.0 -0.2415078646
C  C20  1  0.57170000  0.17090000  0.04490000  1.0 -0.2415078646
C  C21  1  0.00380000  0.18780000  0.17790000  1.0 0.2903355642
C  C22  1  0.99620000  0.68780000  0.32210000  1.0 0.2903355642
C  C23  1  0.99620000  0.81220000  0.82210000  1.0 0.2903355642
C  C24  1  0.00380000  0.31220000  0.67790000  1.0 0.2903355642
C  C25  1  0.24800000  0.36400000  0.46270000  1.0 0.0971796109
C  C26  1  0.75200000  0.86400000  0.03730000  1.0 0.0971796109
C  C27  1  0.75200000  0.63600000  0.53730000  1.0 0.0971796109
C  C28  1  0.24800000  0.13600000  0.96270000  1.0 0.0971796109
C  C29  1  0.26320000  0.40940000  0.34510000  1.0 0.0904625359
C  C30  1  0.73680000  0.90940000  0.15490000  1.0 0.0904625359
C  C31  1  0.73680000  0.59060000  0.65490000  1.0 0.0904625359
C  C32  1  0.26320000  0.09060000  0.84510000  1.0 0.0904625359
C  C33  1  0.91130000  0.17450000  0.17970000  1.0 -0.2293509485
C  C34  1  0.08870000  0.67450000  0.32030000  1.0 -0.2293509485
C  C35  1  0.08870000  0.82550000  0.82030000  1.0 -0.2293509485
C  C36  1  0.91130000  0.32550000  0.67970000  1.0 -0.2293509485
C  C37  1  0.75550000  0.17750000  0.78910000  1.0 0.2903355642
C  C38  1  0.24450000  0.67750000  0.71090000  1.0 0.2903355642
C  C39  1  0.24450000  0.82250000  0.21090000  1.0 0.2903355642
C  C40  1  0.75550000  0.32250000  0.28910000  1.0 0.2903355642
C  C41  1  0.53910000  0.35520000  0.68510000  1.0 -0.2711269164
C  C42  1  0.46090000  0.85520000  0.81490000  1.0 -0.2711269164
C  C43  1  0.46090000  0.64480000  0.31490000  1.0 -0.2711269164
C  C44  1  0.53910000  0.14480000  0.18510000  1.0 -0.2711269164
C  C45  1  0.20920000  0.37520000  0.29930000  1.0 -0.2415078646
C  C46  1  0.79080000  0.87520000  0.20070000  1.0 -0.2415078646
C  C47  1  0.79080000  0.62480000  0.70070000  1.0 -0.2415078646
C  C48  1  0.20920000  0.12480000  0.79930000  1.0 -0.2415078646
C  C49  1  0.84890000  0.17790000  0.82010000  1.0 -0.2293509485
C  C50  1  0.15110000  0.67790000  0.67990000  1.0 -0.2293509485
C  C51  1  0.15110000  0.82210000  0.17990000  1.0 -0.2293509485
C  C52  1  0.84890000  0.32210000  0.32010000  1.0 -0.2293509485
C  C53  1  0.51230000  0.36650000  0.51510000  1.0 0.0822959079
C  C54  1  0.48770000  0.86650000  0.98490000  1.0 0.0822959079
C  C55  1  0.48770000  0.63350000  0.48490000  1.0 0.0822959079
C  C56  1  0.51230000  0.13350000  0.01510000  1.0 0.0822959079
C  C57  1  0.06660000  0.15880000  0.13440000  1.0 -0.2504970075
C  C58  1  0.93340000  0.65880000  0.36560000  1.0 -0.2504970075
C  C59  1  0.93340000  0.84120000  0.86560000  1.0 -0.2504970075
C  C60  1  0.06660000  0.34120000  0.63440000  1.0 -0.2504970075
C  C61  1  0.02850000  0.11590000  0.08960000  1.0 0.1091745185
C  C62  1  0.97150000  0.61590000  0.41040000  1.0 0.1091745185
C  C63  1  0.97150000  0.88410000  0.91040000  1.0 0.1091745185
C  C64  1  0.02850000  0.38410000  0.58960000  1.0 0.1091745185
C  C65  1  0.18510000  0.17200000  0.37960000  1.0 0.5046088828
C  C66  1  0.81490000  0.67200000  0.12040000  1.0 0.5046088828
C  C67  1  0.81490000  0.82800000  0.62040000  1.0 0.5046088828
C  C68  1  0.18510000  0.32800000  0.87960000  1.0 0.5046088828
C  C69  1  0.04820000  0.20200000  0.44040000  1.0 0.4886920809
C  C70  1  0.95180000  0.70200000  0.05960000  1.0 0.4886920809
C  C71  1  0.95180000  0.79800000  0.55960000  1.0 0.4886920809
C  C72  1  0.04820000  0.29800000  0.94040000  1.0 0.4886920809
C  C73  1  0.58560000  0.32240000  0.63390000  1.0 0.3354948669
C  C74  1  0.41440000  0.82240000  0.86610000  1.0 0.3354948669
C  C75  1  0.41440000  0.67760000  0.36610000  1.0 0.3354948669
C  C76  1  0.58560000  0.17760000  0.13390000  1.0 0.3354948669
C  C77  1  0.87870000  0.13230000  0.13460000  1.0 0.0904625359
C  C78  1  0.12130000  0.63230000  0.36540000  1.0 0.0904625359
C  C79  1  0.12130000  0.86770000  0.86540000  1.0 0.0904625359
C  C80  1  0.87870000  0.36770000  0.63460000  1.0 0.0904625359
C  C81  1  0.19110000  0.32670000  0.42080000  1.0 -0.2711269164
C  C82  1  0.80890000  0.82670000  0.07920000  1.0 -0.2711269164
C  C83  1  0.80890000  0.67330000  0.57920000  1.0 -0.2711269164
C  C84  1  0.19110000  0.17330000  0.92080000  1.0 -0.2711269164
C  C85  1  0.69660000  0.14120000  0.81270000  1.0 -0.2504970075
C  C86  1  0.30340000  0.64120000  0.68730000  1.0 -0.2504970075
C  C87  1  0.30340000  0.85880000  0.18730000  1.0 -0.2504970075
C  C88  1  0.69660000  0.35880000  0.31270000  1.0 -0.2504970075
C  C89  1  0.87620000  0.13830000  0.87610000  1.0 0.0904625359
C  C90  1  0.12380000  0.63830000  0.62390000  1.0 0.0904625359
C  C91  1  0.12380000  0.86170000  0.12390000  1.0 0.0904625359
C  C92  1  0.87620000  0.36170000  0.37610000  1.0 0.0904625359
C  C93  1  0.48040000  0.39200000  0.64700000  1.0 0.1091745185
C  C94  1  0.51960000  0.89200000  0.85300000  1.0 0.1091745185
C  C95  1  0.51960000  0.60800000  0.35300000  1.0 0.1091745185
C  C96  1  0.48040000  0.10800000  0.14700000  1.0 0.1091745185
C  C97  1  0.31910000  0.13170000  0.31760000  1.0 -0.317695586
C  C98  1  0.68090000  0.63170000  0.18240000  1.0 -0.317695586
C  C99  1  0.68090000  0.86830000  0.68240000  1.0 -0.317695586
C  C100  1  0.31910000  0.36830000  0.81760000  1.0 -0.317695586
C  C101  1  0.26670000  0.10040000  0.45530000  1.0 -0.3104016973
C  C102  1  0.73330000  0.60040000  0.04470000  1.0 -0.3104016973
C  C103  1  0.73330000  0.89960000  0.54470000  1.0 -0.3104016973
C  C104  1  0.26670000  0.39960000  0.95530000  1.0 -0.3104016973
C  C105  1  0.90380000  0.23090000  0.50620000  1.0 -0.3104016973
C  C106  1  0.09620000  0.73090000  0.99380000  1.0 -0.3104016973
C  C107  1  0.09620000  0.76910000  0.49380000  1.0 -0.3104016973
C  C108  1  0.90380000  0.26910000  0.00620000  1.0 -0.317695586
C  C109  1  0.00110000  0.16160000  0.57040000  1.0 -0.3104016973
C  C110  1  0.99890000  0.66160000  0.92960000  1.0 -0.3104016973
C  C111  1  0.99890000  0.83840000  0.42960000  1.0 -0.3104016973
C  C112  1  0.00110000  0.33840000  0.07040000  1.0 -0.3104016973
C  C113  1  0.69040000  0.32510000  0.88110000  1.0 0.4886920809
C  C114  1  0.30960000  0.82510000  0.61890000  1.0 0.4886920809
C  C115  1  0.30960000  0.67490000  0.11890000  1.0 0.4886920809
C  C116  1  0.69040000  0.17490000  0.38110000  1.0 0.4886920809
C  C117  1  0.56120000  0.27570000  0.87000000  1.0 0.4626950159
C  C118  1  0.43880000  0.77570000  0.63000000  1.0 0.4626950159
C  C119  1  0.43880000  0.72430000  0.13000000  1.0 0.4626950159
C  C120  1  0.56120000  0.22430000  0.37000000  1.0 0.4626950159
C  C121  1  0.71400000  0.38620000  0.99650000  1.0 -0.317695586
C  C122  1  0.28600000  0.88620000  0.50350000  1.0 -0.317695586
C  C123  1  0.28600000  0.61380000  0.00350000  1.0 -0.317695586
C  C124  1  0.71400000  0.11380000  0.49650000  1.0 -0.317695586
C  C125  1  0.83340000  0.38400000  0.88380000  1.0 -0.317695586
C  C126  1  0.16660000  0.88400000  0.61620000  1.0 -0.317695586
C  C127  1  0.16660000  0.61600000  0.11620000  1.0 -0.317695586
C  C128  1  0.83340000  0.11600000  0.38380000  1.0 -0.317695586
N  N1  1  0.93550000  0.10310000  0.08760000  1.0 -0.2415078646
N  N2  1  0.06450000  0.60310000  0.41240000  1.0 -0.2415078646
N  N3  1  0.06450000  0.89690000  0.91240000  1.0 -0.2415078646
N  N4  1  0.93550000  0.39690000  0.58760000  1.0 -0.2415078646
N  N5  1  0.81890000  0.10180000  0.90110000  1.0 -0.2184036278
N  N6  1  0.18110000  0.60180000  0.59890000  1.0 -0.2184036278
N  N7  1  0.18110000  0.89820000  0.09890000  1.0 -0.2184036278
N  N8  1  0.81890000  0.39820000  0.40110000  1.0 -0.2184036278
N  N9  1  0.46450000  0.39770000  0.56490000  1.0 -0.2293509485
N  N10  1  0.53550000  0.89770000  0.93510000  1.0 -0.2293509485
N  N11  1  0.53550000  0.60230000  0.43510000  1.0 -0.2293509485
N  N12  1  0.46450000  0.10230000  0.06490000  1.0 -0.2293509485
N  N13  1  0.28470000  0.40380000  0.42660000  1.0 -0.2293509485
N  N14  1  0.71530000  0.90380000  0.07340000  1.0 -0.2293509485
N  N15  1  0.71530000  0.59620000  0.57340000  1.0 -0.2293509485
N  N16  1  0.28470000  0.09620000  0.92660000  1.0 -0.2293509485
N  N17  1  0.25630000  0.13740000  0.38720000  1.0 -0.0138336888
N  N18  1  0.74370000  0.63740000  0.11280000  1.0 -0.0138336888
N  N19  1  0.74370000  0.86260000  0.61280000  1.0 -0.0138336888
N  N20  1  0.25630000  0.36260000  0.88720000  1.0 -0.0138336888
N  N21  1  0.98900000  0.20030000  0.50280000  1.0 -0.015457438
N  N22  1  0.01100000  0.70030000  0.99720000  1.0 -0.015457438
N  N23  1  0.01100000  0.79970000  0.49720000  1.0 -0.015457438
N  N24  1  0.98900000  0.29970000  0.00280000  1.0 -0.015457438
N  N25  1  0.74700000  0.36460000  0.91740000  1.0 -0.0044845718
N  N26  1  0.25300000  0.86460000  0.58260000  1.0 -0.0044845718
N  N27  1  0.25300000  0.63540000  0.08260000  1.0 -0.0044845718
N  N28  1  0.74700000  0.13540000  0.41740000  1.0 -0.0044845718
N  N29  1  0.47720000  0.26230000  0.90880000  1.0 0.0175592548
N  N30  1  0.52280000  0.76230000  0.59120000  1.0 0.0175592548
N  N31  1  0.52280000  0.73770000  0.09120000  1.0 0.0175592548
N  N32  1  0.47720000  0.23770000  0.40880000  1.0 0.0175592548
N  N33  1  0.02180000  0.23700000  0.37880000  1.0 -0.751850249
N  N34  1  0.97820000  0.73700000  0.12120000  1.0 -0.751850249
N  N35  1  0.97820000  0.76300000  0.62120000  1.0 -0.751850249
N  N36  1  0.02180000  0.26300000  0.87880000  1.0 -0.751850249
N  N37  1  0.18030000  0.20420000  0.31200000  1.0 -0.7317111062
N  N38  1  0.81970000  0.70420000  0.18800000  1.0 -0.7317111062
N  N39  1  0.81970000  0.79580000  0.68800000  1.0 -0.7317111062
N  N40  1  0.18030000  0.29580000  0.81200000  1.0 -0.7317111062
N  N41  1  0.12630000  0.17150000  0.44350000  1.0 -0.570675777
N  N42  1  0.87370000  0.67150000  0.05650000  1.0 -0.570675777
N  N43  1  0.87370000  0.82850000  0.55650000  1.0 -0.570675777
N  N44  1  0.12630000  0.32850000  0.94350000  1.0 -0.570675777
N  N45  1  0.72710000  0.30510000  0.80750000  1.0 -0.751850249
N  N46  1  0.27290000  0.80510000  0.69250000  1.0 -0.751850249
N  N47  1  0.27290000  0.69490000  0.19250000  1.0 -0.751850249
N  N48  1  0.72710000  0.19490000  0.30750000  1.0 -0.751850249
N  N49  1  0.56730000  0.24890000  0.79840000  1.0 -0.7241875992
N  N50  1  0.43270000  0.74890000  0.70160000  1.0 -0.7241875992
N  N51  1  0.43270000  0.75110000  0.20160000  1.0 -0.7241875992
N  N52  1  0.56730000  0.25110000  0.29840000  1.0 -0.7241875992
N  N53  1  0.60650000  0.31030000  0.91370000  1.0 -0.5101330445
N  N54  1  0.39350000  0.81030000  0.58630000  1.0 -0.5101330445
N  N55  1  0.39350000  0.68970000  0.08630000  1.0 -0.5101330445
N  N56  1  0.60650000  0.18970000  0.41370000  1.0 -0.5101330445
Cl  Cl1  1  0.71660000  0.04026000  0.07894000  1.0 -0.5101330445
Cl  Cl2  1  0.28340000  0.54026000  0.42106000  1.0 -0.5101330445
Cl  Cl3  1  0.28340000  0.95974000  0.92106000  1.0 -0.5101330445
Cl  Cl4  1  0.71660000  0.45974000  0.57894000  1.0 -0.5101330445
Cl  Cl5  1  0.76827000  0.96923000  0.89433000  1.0 -0.5319005491
Cl  Cl6  1  0.23173000  0.46923000  0.60567000  1.0 -0.5319005491
Cl  Cl7  1  0.23173000  0.03077000  0.10567000  1.0 -0.5319005491
Cl  Cl8  1  0.76827000  0.53077000  0.39433000  1.0 -0.5319005491
Cl  Cl9  1  0.96497000  0.96512000  0.08706000  1.0 -0.4970278979
Cl  Cl10  1  0.03503000  0.46512000  0.41294000  1.0 -0.4970278979
Cl  Cl11  1  0.03503000  0.03488000  0.91294000  1.0 -0.4970278979
Cl  Cl12  1  0.96497000  0.53488000  0.58706000  1.0 -0.4970278979
Cl  Cl13  1  0.51158000  0.02768000  0.89367000  1.0 -0.5319005491
Cl  Cl14  1  0.48842000  0.52768000  0.60633000  1.0 -0.5319005491
Cl  Cl15  1  0.48842000  0.97232000  0.10633000  1.0 -0.5319005491
Cl  Cl16  1  0.51158000  0.47232000  0.39367000  1.0 -0.5319005491
O  O1  1  0.03570000  0.23570000  0.21220000  1.0 -0.3850071297
O  O2  1  0.96430000  0.73570000  0.28780000  1.0 -0.3850071297
O  O3  1  0.96430000  0.76430000  0.78780000  1.0 -0.3763902778
O  O4  1  0.03570000  0.26430000  0.71220000  1.0 -0.3850071297
O  O5  1  0.11890000  0.29980000  0.28390000  1.0 -0.3763902778
O  O6  1  0.88110000  0.79980000  0.21610000  1.0 -0.3742726908
O  O7  1  0.88110000  0.70020000  0.71610000  1.0 -0.3742726908
O  O8  1  0.11890000  0.20020000  0.78390000  1.0 -0.3763902778
O  O9  1  0.64600000  0.28200000  0.65860000  1.0 -0.3763902778
O  O10  1  0.35400000  0.78200000  0.84140000  1.0 -0.3763902778
O  O11  1  0.35400000  0.71800000  0.34140000  1.0 -0.3763902778
O  O12  1  0.64600000  0.21800000  0.15860000  1.0 -0.3763902778
O  O13  1  0.72390000  0.21580000  0.72950000  1.0 -0.4016718433
O  O14  1  0.27610000  0.71580000  0.77050000  1.0 -0.4016718433
O  O15  1  0.27610000  0.78420000  0.27050000  1.0 -0.4016718433
O  O16  1  0.72390000  0.28420000  0.22950000  1.0 -0.4016718433
