# DDEC6 charges by PACMAN v1.1 (https://github.com/mtap-research/PACMAN-charge/)
data_VUSQIK_FSR_pacman
_symmetry_space_group_name_H-M   'P 1'
_cell_length_a   19.04350000
_cell_length_b   21.60230000
_cell_length_c   22.22980000
_cell_angle_alpha   90.00000000
_cell_angle_beta   90.00000000
_cell_angle_gamma   90.00000000
_symmetry_Int_Tables_number   1
_chemical_formula_structural   NiSb2H26W18C30(NO10)6
_chemical_formula_sum   'Ni4 Sb8 H104 W72 C120 N24 O240'
_cell_volume   9144.97070643
_cell_formula_units_Z   4
loop_
 _symmetry_equiv_pos_site_id
 _symmetry_equiv_pos_as_xyz
  1  'x, y, z'
loop_
 _atom_site_type_symbol
 _atom_site_label
 _atom_site_symmetry_multiplicity
 _atom_site_fract_x
 _atom_site_fract_y
 _atom_site_fract_z
 _atom_site_occupancy
 _atom_site_charge
Ni  Ni1  1  0.25000000  0.25000000  0.09618000  1.0 0.7107817266
Ni  Ni2  1  0.75000000  0.75000000  0.40382000  1.0 0.7107817266
Ni  Ni3  1  0.75000000  0.75000000  0.90382000  1.0 0.7107817266
Ni  Ni4  1  0.25000000  0.25000000  0.59618000  1.0 0.7107817266
Sb  Sb1  1  0.03459000  0.01133000  0.96318000  1.0 1.0291380319
Sb  Sb2  1  0.46541000  0.48867000  0.96318000  1.0 1.0291380319
Sb  Sb3  1  0.96541000  0.51133000  0.53682000  1.0 1.0291380319
Sb  Sb4  1  0.53459000  0.98867000  0.53682000  1.0 1.0291380319
Sb  Sb5  1  0.96541000  0.98867000  0.03682000  1.0 1.0291380319
Sb  Sb6  1  0.53459000  0.51133000  0.03682000  1.0 1.0291380319
Sb  Sb7  1  0.03459000  0.48867000  0.46318000  1.0 1.0291380319
Sb  Sb8  1  0.46541000  0.01133000  0.46318000  1.0 1.0291380319
H  H1  1  0.69380000  0.02240000  0.18110000  1.0 0.295222703
H  H2  1  0.80620000  0.47760000  0.18110000  1.0 0.295222703
H  H3  1  0.30620000  0.52240000  0.31890000  1.0 0.295222703
H  H4  1  0.19380000  0.97760000  0.31890000  1.0 0.295222703
H  H5  1  0.30620000  0.97760000  0.81890000  1.0 0.2942405674
H  H6  1  0.19380000  0.52240000  0.81890000  1.0 0.295222703
H  H7  1  0.69380000  0.47760000  0.68110000  1.0 0.295222703
H  H8  1  0.80620000  0.02240000  0.68110000  1.0 0.295222703
H  H9  1  0.51250000  0.22340000  0.12330000  1.0 0.1525788676
H  H10  1  0.98750000  0.27660000  0.12330000  1.0 0.1525788676
H  H11  1  0.48750000  0.72340000  0.37670000  1.0 0.1525788676
H  H12  1  0.01250000  0.77660000  0.37670000  1.0 0.1525788676
H  H13  1  0.48750000  0.77660000  0.87670000  1.0 0.1525788676
H  H14  1  0.01250000  0.72340000  0.87670000  1.0 0.1525788676
H  H15  1  0.51250000  0.27660000  0.62330000  1.0 0.1525788676
H  H16  1  0.98750000  0.22340000  0.62330000  1.0 0.1525788676
H  H17  1  0.40880000  0.27110000  0.10800000  1.0 0.131186714
H  H18  1  0.09120000  0.22890000  0.10800000  1.0 0.131186714
H  H19  1  0.59120000  0.77110000  0.39200000  1.0 0.131186714
H  H20  1  0.90880000  0.72890000  0.39200000  1.0 0.131186714
H  H21  1  0.59120000  0.72890000  0.89200000  1.0 0.131186714
H  H22  1  0.90880000  0.77110000  0.89200000  1.0 0.131186714
H  H23  1  0.40880000  0.22890000  0.60800000  1.0 0.131186714
H  H24  1  0.09120000  0.27110000  0.60800000  1.0 0.131186714
H  H25  1  0.30600000  0.11510000  0.11150000  1.0 0.131186714
H  H26  1  0.19400000  0.38490000  0.11150000  1.0 0.131186714
H  H27  1  0.69400000  0.61510000  0.38850000  1.0 0.131186714
H  H28  1  0.80600000  0.88490000  0.38850000  1.0 0.131186714
H  H29  1  0.69400000  0.88490000  0.88850000  1.0 0.131186714
H  H30  1  0.80600000  0.61510000  0.88850000  1.0 0.131186714
H  H31  1  0.30600000  0.38490000  0.61150000  1.0 0.131186714
H  H32  1  0.19400000  0.11510000  0.61150000  1.0 0.131186714
H  H33  1  0.40890000  0.06570000  0.13540000  1.0 0.1525788676
H  H34  1  0.09110000  0.43430000  0.13540000  1.0 0.1525788676
H  H35  1  0.59110000  0.56570000  0.36460000  1.0 0.1525788676
H  H36  1  0.90890000  0.93430000  0.36460000  1.0 0.1525788676
H  H37  1  0.59110000  0.93430000  0.86460000  1.0 0.1525788676
H  H38  1  0.90890000  0.56570000  0.86460000  1.0 0.1525788676
H  H39  1  0.40890000  0.43430000  0.63540000  1.0 0.1525788676
H  H40  1  0.09110000  0.06570000  0.63540000  1.0 0.1525788676
H  H41  1  0.50410000  0.03850000  0.19810000  1.0 0.1598805116
H  H42  1  0.99590000  0.46150000  0.19810000  1.0 0.1598805116
H  H43  1  0.49590000  0.53850000  0.30190000  1.0 0.1598805116
H  H44  1  0.00410000  0.96150000  0.30190000  1.0 0.1598805116
H  H45  1  0.49590000  0.96150000  0.80190000  1.0 0.1598805116
H  H46  1  0.00410000  0.53850000  0.80190000  1.0 0.1598805116
H  H47  1  0.50410000  0.46150000  0.69810000  1.0 0.1598805116
H  H48  1  0.99590000  0.03850000  0.69810000  1.0 0.1598805116
H  H49  1  0.59790000  0.98420000  0.22170000  1.0 0.1652033511
H  H50  1  0.90210000  0.51580000  0.22170000  1.0 0.1598805116
H  H51  1  0.40210000  0.48420000  0.27830000  1.0 0.1652033511
H  H52  1  0.09790000  0.01580000  0.27830000  1.0 0.1652033511
H  H53  1  0.40210000  0.01580000  0.77830000  1.0 0.1652033511
H  H54  1  0.09790000  0.48420000  0.77830000  1.0 0.1598805116
H  H55  1  0.59790000  0.51580000  0.72170000  1.0 0.1598805116
H  H56  1  0.90210000  0.98420000  0.72170000  1.0 0.1598805116
H  H57  1  0.71180000  0.10590000  0.12580000  1.0 0.1525788676
H  H58  1  0.78820000  0.39410000  0.12580000  1.0 0.1525788676
H  H59  1  0.28820000  0.60590000  0.37420000  1.0 0.1525788676
H  H60  1  0.21180000  0.89410000  0.37420000  1.0 0.1525788676
H  H61  1  0.28820000  0.89410000  0.87420000  1.0 0.1525788676
H  H62  1  0.21180000  0.60590000  0.87420000  1.0 0.1525788676
H  H63  1  0.71180000  0.39410000  0.62580000  1.0 0.1525788676
H  H64  1  0.78820000  0.10590000  0.62580000  1.0 0.1525788676
H  H65  1  0.60660000  0.16140000  0.09960000  1.0 0.1598805116
H  H66  1  0.89340000  0.33860000  0.09960000  1.0 0.1598805116
H  H67  1  0.39340000  0.66140000  0.40040000  1.0 0.1598805116
H  H68  1  0.10660000  0.83860000  0.40040000  1.0 0.1598805116
H  H69  1  0.39340000  0.83860000  0.90040000  1.0 0.1598805116
H  H70  1  0.10660000  0.66140000  0.90040000  1.0 0.1598805116
H  H71  1  0.60660000  0.33860000  0.59960000  1.0 0.1598805116
H  H72  1  0.89340000  0.16140000  0.59960000  1.0 0.1598805116
H  H73  1  0.20400000  0.33070000  0.69660000  1.0 0.131186714
H  H74  1  0.29600000  0.16930000  0.69660000  1.0 0.131186714
H  H75  1  0.79600000  0.83070000  0.80340000  1.0 0.131186714
H  H76  1  0.70400000  0.66930000  0.80340000  1.0 0.131186714
H  H77  1  0.79600000  0.66930000  0.30340000  1.0 0.131186714
H  H78  1  0.70400000  0.83070000  0.30340000  1.0 0.131186714
H  H79  1  0.20400000  0.16930000  0.19660000  1.0 0.131186714
H  H80  1  0.29600000  0.33070000  0.19660000  1.0 0.131186714
H  H81  1  0.19920000  0.33210000  0.80050000  1.0 0.1525788676
H  H82  1  0.30080000  0.16790000  0.80050000  1.0 0.1525788676
H  H83  1  0.80080000  0.83210000  0.69950000  1.0 0.1525788676
H  H84  1  0.69920000  0.66790000  0.69950000  1.0 0.1525788676
H  H85  1  0.80080000  0.66790000  0.19950000  1.0 0.1525788676
H  H86  1  0.69920000  0.83210000  0.19950000  1.0 0.1525788676
H  H87  1  0.19920000  0.16790000  0.30050000  1.0 0.1525788676
H  H88  1  0.30080000  0.33210000  0.30050000  1.0 0.1525788676
H  H89  1  0.15410000  0.28290000  0.99340000  1.0 0.120348156
H  H90  1  0.34590000  0.21710000  0.99340000  1.0 0.120348156
H  H91  1  0.84590000  0.78290000  0.50660000  1.0 0.120348156
H  H92  1  0.65410000  0.71710000  0.50660000  1.0 0.120348156
H  H93  1  0.84590000  0.71710000  0.00660000  1.0 0.120348156
H  H94  1  0.65410000  0.78290000  0.00660000  1.0 0.120348156
H  H95  1  0.15410000  0.21710000  0.49340000  1.0 0.120348156
H  H96  1  0.34590000  0.28290000  0.49340000  1.0 0.120348156
H  H97  1  0.15210000  0.28520000  0.89100000  1.0 0.1598805116
H  H98  1  0.34790000  0.21480000  0.89100000  1.0 0.1598805116
H  H99  1  0.84790000  0.78520000  0.60900000  1.0 0.1598805116
H  H100  1  0.65210000  0.71480000  0.60900000  1.0 0.1598805116
H  H101  1  0.84790000  0.71480000  0.10900000  1.0 0.1598805116
H  H102  1  0.65210000  0.78520000  0.10900000  1.0 0.1598805116
H  H103  1  0.15210000  0.21480000  0.39100000  1.0 0.1598805116
H  H104  1  0.34790000  0.28520000  0.39100000  1.0 0.1598805116
W  W1  1  0.16071000  0.10758000  0.03924000  1.0 2.3691472597
W  W2  1  0.33929000  0.39242000  0.03924000  1.0 2.3691472597
W  W3  1  0.83929000  0.60758000  0.46076000  1.0 2.3691472597
W  W4  1  0.66071000  0.89242000  0.46076000  1.0 2.3691472597
W  W5  1  0.83929000  0.89242000  0.96076000  1.0 2.3691472597
W  W6  1  0.66071000  0.60758000  0.96076000  1.0 2.3691472597
W  W7  1  0.16071000  0.39242000  0.53924000  1.0 2.3691472597
W  W8  1  0.33929000  0.10758000  0.53924000  1.0 2.3691472597
W  W9  1  0.22922000  0.06413000  0.90867000  1.0 2.3691472597
W  W10  1  0.27078000  0.43587000  0.90867000  1.0 2.3691472597
W  W11  1  0.77078000  0.56413000  0.59133000  1.0 2.3691472597
W  W12  1  0.72922000  0.93587000  0.59133000  1.0 2.3691472597
W  W13  1  0.77078000  0.93587000  0.09133000  1.0 2.3691472597
W  W14  1  0.72922000  0.56413000  0.09133000  1.0 2.3691472597
W  W15  1  0.22922000  0.43587000  0.40867000  1.0 2.3691472597
W  W16  1  0.27078000  0.06413000  0.40867000  1.0 2.3691472597
W  W17  1  0.20349000  0.96120000  0.01848000  1.0 2.390081856
W  W18  1  0.29651000  0.53880000  0.01848000  1.0 2.390081856
W  W19  1  0.79651000  0.46120000  0.48152000  1.0 2.390081856
W  W20  1  0.70349000  0.03880000  0.48152000  1.0 2.390081856
W  W21  1  0.79651000  0.03880000  0.98152000  1.0 2.390081856
W  W22  1  0.70349000  0.46120000  0.98152000  1.0 2.390081856
W  W23  1  0.20349000  0.53880000  0.51848000  1.0 2.390081856
W  W24  1  0.29651000  0.96120000  0.51848000  1.0 2.390081856
W  W25  1  0.09720000  0.86315000  0.91320000  1.0 2.3691472597
W  W26  1  0.40280000  0.63685000  0.91320000  1.0 2.3691472597
W  W27  1  0.90280000  0.36315000  0.58680000  1.0 2.3691472597
W  W28  1  0.59720000  0.13685000  0.58680000  1.0 2.3691472597
W  W29  1  0.90280000  0.13685000  0.08680000  1.0 2.3691472597
W  W30  1  0.59720000  0.36315000  0.08680000  1.0 2.3691472597
W  W31  1  0.09720000  0.63685000  0.41320000  1.0 2.3691472597
W  W32  1  0.40280000  0.86315000  0.41320000  1.0 2.3691472597
W  W33  1  0.07865000  0.13080000  0.82556000  1.0 2.3691472597
W  W34  1  0.42135000  0.36920000  0.82556000  1.0 2.3691472597
W  W35  1  0.92135000  0.63080000  0.67444000  1.0 2.3691472597
W  W36  1  0.57865000  0.86920000  0.67444000  1.0 2.3691472597
W  W37  1  0.92135000  0.86920000  0.17444000  1.0 2.3691472597
W  W38  1  0.57865000  0.63080000  0.17444000  1.0 2.3691472597
W  W39  1  0.07865000  0.36920000  0.32556000  1.0 2.3691472597
W  W40  1  0.42135000  0.13080000  0.32556000  1.0 2.3691472597
W  W41  1  0.00918000  0.17772000  0.95541000  1.0 2.3623875413
W  W42  1  0.49082000  0.32228000  0.95541000  1.0 2.3623875413
W  W43  1  0.99082000  0.67772000  0.54459000  1.0 2.3623875413
W  W44  1  0.50918000  0.82228000  0.54459000  1.0 2.3623875413
W  W45  1  0.99082000  0.82228000  0.04459000  1.0 2.3623875413
W  W46  1  0.50918000  0.67772000  0.04459000  1.0 2.3623875413
W  W47  1  0.00918000  0.32228000  0.45541000  1.0 2.3623875413
W  W48  1  0.49082000  0.17772000  0.45541000  1.0 2.3623875413
W  W49  1  0.03507000  0.07590000  0.16056000  1.0 2.3456907518
W  W50  1  0.46493000  0.42410000  0.16056000  1.0 2.3456907518
W  W51  1  0.96493000  0.57590000  0.33944000  1.0 2.3456907518
W  W52  1  0.53507000  0.92410000  0.33944000  1.0 2.3456907518
W  W53  1  0.96493000  0.92410000  0.83944000  1.0 2.3442193005
W  W54  1  0.53507000  0.57590000  0.83944000  1.0 2.3456907518
W  W55  1  0.03507000  0.42410000  0.66056000  1.0 2.3456907518
W  W56  1  0.46493000  0.07590000  0.66056000  1.0 2.3456907518
W  W57  1  0.91551000  0.09054000  0.86298000  1.0 2.3691472597
W  W58  1  0.58449000  0.40946000  0.86298000  1.0 2.3691472597
W  W59  1  0.08449000  0.59054000  0.63702000  1.0 2.3691472597
W  W60  1  0.41551000  0.90946000  0.63702000  1.0 2.3691472597
W  W61  1  0.08449000  0.90946000  0.13702000  1.0 2.3691472597
W  W62  1  0.41551000  0.59054000  0.13702000  1.0 2.3691472597
W  W63  1  0.91551000  0.40946000  0.36298000  1.0 2.3691472597
W  W64  1  0.58449000  0.09054000  0.36298000  1.0 2.3691472597
W  W65  1  0.12617000  0.96639000  0.80411000  1.0 2.3752745125
W  W66  1  0.37383000  0.53361000  0.80411000  1.0 2.3752745125
W  W67  1  0.87383000  0.46639000  0.69589000  1.0 2.3691472597
W  W68  1  0.62617000  0.03361000  0.69589000  1.0 2.3752745125
W  W69  1  0.87383000  0.03361000  0.19589000  1.0 2.3752745125
W  W70  1  0.62617000  0.46639000  0.19589000  1.0 2.3752745125
W  W71  1  0.12617000  0.53361000  0.30411000  1.0 2.3752745125
W  W72  1  0.37383000  0.96639000  0.30411000  1.0 2.3752745125
C  C1  1  0.47090000  0.13490000  0.13110000  1.0 0.1019058515
C  C2  1  0.02910000  0.36510000  0.13110000  1.0 0.1019058515
C  C3  1  0.52910000  0.63490000  0.36890000  1.0 0.1019058515
C  C4  1  0.97090000  0.86510000  0.36890000  1.0 0.1019058515
C  C5  1  0.52910000  0.86510000  0.86890000  1.0 0.1019058515
C  C6  1  0.97090000  0.63490000  0.86890000  1.0 0.1019058515
C  C7  1  0.47090000  0.36510000  0.63110000  1.0 0.1019058515
C  C8  1  0.02910000  0.13490000  0.63110000  1.0 0.1019058515
C  C9  1  0.47110000  0.20070000  0.12190000  1.0 -0.1495581851
C  C10  1  0.02890000  0.29930000  0.12190000  1.0 -0.1495581851
C  C11  1  0.52890000  0.70070000  0.37810000  1.0 -0.1495581851
C  C12  1  0.97110000  0.79930000  0.37810000  1.0 -0.1495581851
C  C13  1  0.52890000  0.79930000  0.87810000  1.0 -0.1495581851
C  C14  1  0.97110000  0.70070000  0.87810000  1.0 -0.1495581851
C  C15  1  0.47110000  0.29930000  0.62190000  1.0 -0.1495581851
C  C16  1  0.02890000  0.20070000  0.62190000  1.0 -0.1495581851
C  C17  1  0.40880000  0.22820000  0.11100000  1.0 0.113912161
C  C18  1  0.09120000  0.27180000  0.11100000  1.0 0.113912161
C  C19  1  0.59120000  0.72820000  0.38900000  1.0 0.113912161
C  C20  1  0.90880000  0.77180000  0.38900000  1.0 0.113912161
C  C21  1  0.59120000  0.77180000  0.88900000  1.0 0.113912161
C  C22  1  0.90880000  0.72820000  0.88900000  1.0 0.113912161
C  C23  1  0.40880000  0.27180000  0.61100000  1.0 0.113912161
C  C24  1  0.09120000  0.22820000  0.61100000  1.0 0.113912161
C  C25  1  0.34770000  0.13750000  0.11410000  1.0 0.0918636534
C  C26  1  0.15230000  0.36250000  0.11410000  1.0 0.0918636534
C  C27  1  0.65230000  0.63750000  0.38590000  1.0 0.0918636534
C  C28  1  0.84770000  0.86250000  0.38590000  1.0 0.1019058515
C  C29  1  0.65230000  0.86250000  0.88590000  1.0 0.0918636534
C  C30  1  0.84770000  0.63750000  0.88590000  1.0 0.0918636534
C  C31  1  0.34770000  0.36250000  0.61410000  1.0 0.0918636534
C  C32  1  0.15230000  0.13750000  0.61410000  1.0 0.0918636534
C  C33  1  0.41050000  0.10800000  0.12790000  1.0 -0.1495581851
C  C34  1  0.08950000  0.39200000  0.12790000  1.0 -0.1495581851
C  C35  1  0.58950000  0.60800000  0.37210000  1.0 -0.1495581851
C  C36  1  0.91050000  0.89200000  0.37210000  1.0 -0.1495581851
C  C37  1  0.58950000  0.89200000  0.87210000  1.0 -0.1495581851
C  C38  1  0.91050000  0.60800000  0.87210000  1.0 -0.1495581851
C  C39  1  0.41050000  0.39200000  0.62790000  1.0 -0.1495581851
C  C40  1  0.08950000  0.10800000  0.62790000  1.0 -0.1495581851
C  C41  1  0.54080000  0.10530000  0.14670000  1.0 0.1372328583
C  C42  1  0.95920000  0.39470000  0.14670000  1.0 0.1372328583
C  C43  1  0.45920000  0.60530000  0.35330000  1.0 0.1372328583
C  C44  1  0.04080000  0.89470000  0.35330000  1.0 0.1372328583
C  C45  1  0.45920000  0.89470000  0.85330000  1.0 0.1372328583
C  C46  1  0.04080000  0.60530000  0.85330000  1.0 0.1372328583
C  C47  1  0.54080000  0.39470000  0.64670000  1.0 0.1372328583
C  C48  1  0.95920000  0.10530000  0.64670000  1.0 0.1372328583
C  C49  1  0.54700000  0.05230000  0.18240000  1.0 -0.1820863098
C  C50  1  0.95300000  0.44770000  0.18240000  1.0 -0.1820863098
C  C51  1  0.45300000  0.55230000  0.31760000  1.0 -0.1820863098
C  C52  1  0.04700000  0.94770000  0.31760000  1.0 -0.1820863098
C  C53  1  0.45300000  0.94770000  0.81760000  1.0 -0.1820863098
C  C54  1  0.04700000  0.55230000  0.81760000  1.0 -0.1820863098
C  C55  1  0.54700000  0.44770000  0.68240000  1.0 -0.1820863098
C  C56  1  0.95300000  0.05230000  0.68240000  1.0 -0.1820863098
C  C57  1  0.59900000  0.01900000  0.19750000  1.0 0.0918636534
C  C58  1  0.90100000  0.48100000  0.19750000  1.0 0.0918636534
C  C59  1  0.40100000  0.51900000  0.30250000  1.0 0.0918636534
C  C60  1  0.09900000  0.98100000  0.30250000  1.0 0.0918636534
C  C61  1  0.40100000  0.98100000  0.80250000  1.0 0.0918636534
C  C62  1  0.09900000  0.51900000  0.80250000  1.0 0.0918636534
C  C63  1  0.59900000  0.48100000  0.69750000  1.0 0.0918636534
C  C64  1  0.90100000  0.01900000  0.69750000  1.0 0.0918636534
C  C65  1  0.66750000  0.09400000  0.13900000  1.0 0.120348156
C  C66  1  0.83250000  0.40600000  0.13900000  1.0 0.120348156
C  C67  1  0.33250000  0.59400000  0.36100000  1.0 0.120348156
C  C68  1  0.16750000  0.90600000  0.36100000  1.0 0.120348156
C  C69  1  0.33250000  0.90600000  0.86100000  1.0 0.120348156
C  C70  1  0.16750000  0.59400000  0.86100000  1.0 0.120348156
C  C71  1  0.66750000  0.40600000  0.63900000  1.0 0.120348156
C  C72  1  0.83250000  0.09400000  0.63900000  1.0 0.120348156
C  C73  1  0.60480000  0.12600000  0.12400000  1.0 -0.1913115964
C  C74  1  0.89520000  0.37400000  0.12400000  1.0 -0.1913115964
C  C75  1  0.39520000  0.62600000  0.37600000  1.0 -0.1913115964
C  C76  1  0.10480000  0.87400000  0.37600000  1.0 -0.1913115964
C  C77  1  0.39520000  0.87400000  0.87600000  1.0 -0.1913115964
C  C78  1  0.10480000  0.62600000  0.87600000  1.0 -0.1913115964
C  C79  1  0.60480000  0.37400000  0.62400000  1.0 -0.1913115964
C  C80  1  0.89520000  0.12600000  0.62400000  1.0 -0.1913115964
C  C81  1  0.22240000  0.29750000  0.71810000  1.0 0.120348156
C  C82  1  0.27760000  0.20250000  0.71810000  1.0 0.120348156
C  C83  1  0.77760000  0.79750000  0.78190000  1.0 0.120348156
C  C84  1  0.72240000  0.70250000  0.78190000  1.0 0.120348156
C  C85  1  0.77760000  0.70250000  0.28190000  1.0 0.120348156
C  C86  1  0.72240000  0.79750000  0.28190000  1.0 0.120348156
C  C87  1  0.22240000  0.20250000  0.21810000  1.0 0.120348156
C  C88  1  0.27760000  0.29750000  0.21810000  1.0 0.120348156
C  C89  1  0.22000000  0.29920000  0.78030000  1.0 -0.1495581851
C  C90  1  0.28000000  0.20080000  0.78030000  1.0 -0.1495581851
C  C91  1  0.78000000  0.79920000  0.71970000  1.0 -0.1495581851
C  C92  1  0.72000000  0.70080000  0.71970000  1.0 -0.1495581851
C  C93  1  0.78000000  0.70080000  0.21970000  1.0 -0.1495581851
C  C94  1  0.72000000  0.79920000  0.21970000  1.0 -0.1495581851
C  C95  1  0.22000000  0.20080000  0.28030000  1.0 -0.1495581851
C  C96  1  0.28000000  0.29920000  0.28030000  1.0 -0.1495581851
C  C97  1  0.25000000  0.25000000  0.81150000  1.0 0.131186714
C  C98  1  0.75000000  0.75000000  0.68850000  1.0 0.131186714
C  C99  1  0.75000000  0.75000000  0.18850000  1.0 0.131186714
C  C100  1  0.25000000  0.25000000  0.31150000  1.0 0.131186714
C  C101  1  0.19350000  0.26960000  0.97240000  1.0 0.1019058515
C  C102  1  0.30650000  0.23040000  0.97240000  1.0 0.1019058515
C  C103  1  0.80650000  0.76960000  0.52760000  1.0 0.1019058515
C  C104  1  0.69350000  0.73040000  0.52760000  1.0 0.1019058515
C  C105  1  0.80650000  0.73040000  0.02760000  1.0 0.1019058515
C  C106  1  0.69350000  0.76960000  0.02760000  1.0 0.1019058515
C  C107  1  0.19350000  0.23040000  0.47240000  1.0 0.1019058515
C  C108  1  0.30650000  0.26960000  0.47240000  1.0 0.1019058515
C  C109  1  0.19170000  0.27080000  0.91110000  1.0 -0.1444995519
C  C110  1  0.30830000  0.22920000  0.91110000  1.0 -0.1444995519
C  C111  1  0.80830000  0.77080000  0.58890000  1.0 -0.1444995519
C  C112  1  0.69170000  0.72920000  0.58890000  1.0 -0.1444995519
C  C113  1  0.80830000  0.72920000  0.08890000  1.0 -0.1444995519
C  C114  1  0.69170000  0.77080000  0.08890000  1.0 -0.1444995519
C  C115  1  0.19170000  0.22920000  0.41110000  1.0 -0.1444995519
C  C116  1  0.30830000  0.27080000  0.41110000  1.0 -0.1444995519
C  C117  1  0.25000000  0.25000000  0.87890000  1.0 0.131186714
C  C118  1  0.75000000  0.75000000  0.62110000  1.0 0.131186714
C  C119  1  0.75000000  0.75000000  0.12110000  1.0 0.131186714
C  C120  1  0.25000000  0.25000000  0.37890000  1.0 0.131186714
N  N1  1  0.25000000  0.25000000  0.00450000  1.0 -0.1913115964
N  N2  1  0.75000000  0.75000000  0.49550000  1.0 -0.1913115964
N  N3  1  0.75000000  0.75000000  0.99550000  1.0 -0.1913115964
N  N4  1  0.25000000  0.25000000  0.50450000  1.0 -0.1913115964
N  N5  1  0.34830000  0.20000000  0.10440000  1.0 -0.1913115964
N  N6  1  0.15170000  0.30000000  0.10440000  1.0 -0.1913115964
N  N7  1  0.65170000  0.70000000  0.39560000  1.0 -0.1913115964
N  N8  1  0.84830000  0.80000000  0.39560000  1.0 -0.1913115964
N  N9  1  0.65170000  0.80000000  0.89560000  1.0 -0.1913115964
N  N10  1  0.84830000  0.70000000  0.89560000  1.0 -0.1913115964
N  N11  1  0.34830000  0.30000000  0.60440000  1.0 -0.1913115964
N  N12  1  0.15170000  0.20000000  0.60440000  1.0 -0.1913115964
N  N13  1  0.25000000  0.25000000  0.68770000  1.0 -0.1913115964
N  N14  1  0.75000000  0.75000000  0.81230000  1.0 -0.1913115964
N  N15  1  0.75000000  0.75000000  0.31230000  1.0 -0.1913115964
N  N16  1  0.25000000  0.25000000  0.18770000  1.0 -0.1913115964
N  N17  1  0.65600000  0.04310000  0.17340000  1.0 -0.1001808554
N  N18  1  0.84400000  0.45690000  0.17340000  1.0 -0.1001808554
N  N19  1  0.34400000  0.54310000  0.32660000  1.0 -0.1001808554
N  N20  1  0.15600000  0.95690000  0.32660000  1.0 -0.1001808554
N  N21  1  0.34400000  0.95690000  0.82660000  1.0 -0.1001808554
N  N22  1  0.15600000  0.54310000  0.82660000  1.0 -0.1001808554
N  N23  1  0.65600000  0.45690000  0.67340000  1.0 -0.1001808554
N  N24  1  0.84400000  0.04310000  0.67340000  1.0 -0.1001808554
O  O1  1  0.16420000  0.11490000  0.86940000  1.0 -0.8585558448
O  O2  1  0.33580000  0.38510000  0.86940000  1.0 -0.8585558448
O  O3  1  0.83580000  0.61490000  0.63060000  1.0 -0.8585558448
O  O4  1  0.66420000  0.88510000  0.63060000  1.0 -0.8585558448
O  O5  1  0.83580000  0.88510000  0.13060000  1.0 -0.8585558448
O  O6  1  0.66420000  0.61490000  0.13060000  1.0 -0.8585558448
O  O7  1  0.16420000  0.38510000  0.36940000  1.0 -0.8585558448
O  O8  1  0.33580000  0.11490000  0.36940000  1.0 -0.8585558448
O  O9  1  0.13650000  0.03320000  0.97290000  1.0 -0.9504694048
O  O10  1  0.36350000  0.46680000  0.97290000  1.0 -0.9504694048
O  O11  1  0.86350000  0.53320000  0.52710000  1.0 -0.9504694048
O  O12  1  0.63650000  0.96680000  0.52710000  1.0 -0.9504694048
O  O13  1  0.86350000  0.96680000  0.02710000  1.0 -0.9504694048
O  O14  1  0.63650000  0.53320000  0.02710000  1.0 -0.9504694048
O  O15  1  0.13650000  0.46680000  0.47290000  1.0 -0.9504694048
O  O16  1  0.36350000  0.03320000  0.47290000  1.0 -0.9504694048
O  O17  1  0.19570000  0.16380000  0.08760000  1.0 -0.7638744306
O  O18  1  0.30430000  0.33620000  0.08760000  1.0 -0.7638744306
O  O19  1  0.80430000  0.66380000  0.41240000  1.0 -0.7638744306
O  O20  1  0.69570000  0.83620000  0.41240000  1.0 -0.7638744306
O  O21  1  0.80430000  0.83620000  0.91240000  1.0 -0.7638744306
O  O22  1  0.69570000  0.66380000  0.91240000  1.0 -0.7638744306
O  O23  1  0.19570000  0.33620000  0.58760000  1.0 -0.7638744306
O  O24  1  0.30430000  0.16380000  0.58760000  1.0 -0.7638744306
O  O25  1  0.16800000  0.90430000  0.96110000  1.0 -0.87977583
O  O26  1  0.33200000  0.59570000  0.96110000  1.0 -0.87977583
O  O27  1  0.83200000  0.40430000  0.53890000  1.0 -0.87977583
O  O28  1  0.66800000  0.09570000  0.53890000  1.0 -0.87977583
O  O29  1  0.83200000  0.09570000  0.03890000  1.0 -0.87977583
O  O30  1  0.66800000  0.40430000  0.03890000  1.0 -0.87977583
O  O31  1  0.16800000  0.59570000  0.46110000  1.0 -0.87977583
O  O32  1  0.33200000  0.90430000  0.46110000  1.0 -0.87977583
O  O33  1  0.26330000  0.99990000  0.95820000  1.0 -0.8692702581
O  O34  1  0.23670000  0.50010000  0.95820000  1.0 -0.8692702581
O  O35  1  0.73670000  0.49990000  0.54180000  1.0 -0.8692702581
O  O36  1  0.76330000  0.00010000  0.54180000  1.0 -0.8692702581
O  O37  1  0.73670000  0.00010000  0.04180000  1.0 -0.8692702581
O  O38  1  0.76330000  0.49990000  0.04180000  1.0 -0.8692702581
O  O39  1  0.26330000  0.50010000  0.45820000  1.0 -0.8692702581
O  O40  1  0.23670000  0.99990000  0.45820000  1.0 -0.8692702581
O  O41  1  0.02100000  0.08450000  0.90770000  1.0 -0.9653063085
O  O42  1  0.47900000  0.41550000  0.90770000  1.0 -0.9649484422
O  O43  1  0.97900000  0.58450000  0.59230000  1.0 -0.9653063085
O  O44  1  0.52100000  0.91550000  0.59230000  1.0 -0.9649484422
O  O45  1  0.97900000  0.91550000  0.09230000  1.0 -0.9653063085
O  O46  1  0.52100000  0.58450000  0.09230000  1.0 -0.9649484422
O  O47  1  0.02100000  0.41550000  0.40770000  1.0 -0.9653063085
O  O48  1  0.47900000  0.08450000  0.40770000  1.0 -0.9653063085
O  O49  1  0.98620000  0.14750000  0.13550000  1.0 -0.8692702581
O  O50  1  0.51380000  0.35250000  0.13550000  1.0 -0.8692702581
O  O51  1  0.01380000  0.64750000  0.36450000  1.0 -0.8692702581
O  O52  1  0.48620000  0.85250000  0.36450000  1.0 -0.8692702581
O  O53  1  0.01380000  0.85250000  0.86450000  1.0 -0.8692702581
O  O54  1  0.48620000  0.64750000  0.86450000  1.0 -0.8692702581
O  O55  1  0.98620000  0.35250000  0.63550000  1.0 -0.8692702581
O  O56  1  0.51380000  0.14750000  0.63550000  1.0 -0.8692702581
O  O57  1  0.21460000  0.03850000  0.06490000  1.0 -0.8692702581
O  O58  1  0.28540000  0.46150000  0.06490000  1.0 -0.8692702581
O  O59  1  0.78540000  0.53850000  0.43510000  1.0 -0.8692702581
O  O60  1  0.71460000  0.96150000  0.43510000  1.0 -0.8692702581
O  O61  1  0.78540000  0.96150000  0.93510000  1.0 -0.8692702581
O  O62  1  0.71460000  0.53850000  0.93510000  1.0 -0.8692702581
O  O63  1  0.21460000  0.46150000  0.56490000  1.0 -0.8692702581
O  O64  1  0.28540000  0.03850000  0.56490000  1.0 -0.8692702581
O  O65  1  0.19730000  0.00090000  0.85390000  1.0 -0.87977583
O  O66  1  0.30270000  0.49910000  0.85390000  1.0 -0.87977583
O  O67  1  0.80270000  0.50090000  0.64610000  1.0 -0.87977583
O  O68  1  0.69730000  0.99910000  0.64610000  1.0 -0.87977583
O  O69  1  0.80270000  0.99910000  0.14610000  1.0 -0.87977583
O  O70  1  0.69730000  0.50090000  0.14610000  1.0 -0.87977583
O  O71  1  0.19730000  0.49910000  0.35390000  1.0 -0.87977583
O  O72  1  0.30270000  0.00090000  0.35390000  1.0 -0.87977583
O  O73  1  0.92550000  0.16830000  0.90760000  1.0 -0.9019969371
O  O74  1  0.57450000  0.33170000  0.90760000  1.0 -0.9019969371
O  O75  1  0.07450000  0.66830000  0.59240000  1.0 -0.9019969371
O  O76  1  0.42550000  0.83170000  0.59240000  1.0 -0.9019969371
O  O77  1  0.07450000  0.83170000  0.09240000  1.0 -0.9019969371
O  O78  1  0.42550000  0.66830000  0.09240000  1.0 -0.9019969371
O  O79  1  0.92550000  0.33170000  0.40760000  1.0 -0.9019969371
O  O80  1  0.57450000  0.16830000  0.40760000  1.0 -0.9019969371
O  O81  1  0.14710000  0.89010000  0.83960000  1.0 -0.8692702581
O  O82  1  0.35290000  0.60990000  0.83960000  1.0 -0.8692702581
O  O83  1  0.85290000  0.39010000  0.66040000  1.0 -0.8692702581
O  O84  1  0.64710000  0.10990000  0.66040000  1.0 -0.8692702581
O  O85  1  0.85290000  0.10990000  0.16040000  1.0 -0.8692702581
O  O86  1  0.64710000  0.39010000  0.16040000  1.0 -0.8692702581
O  O87  1  0.14710000  0.60990000  0.33960000  1.0 -0.8692702581
O  O88  1  0.35290000  0.89010000  0.33960000  1.0 -0.8692702581
O  O89  1  0.08420000  0.07830000  0.08480000  1.0 -0.8692702581
O  O90  1  0.41580000  0.42170000  0.08480000  1.0 -0.8692702581
O  O91  1  0.91580000  0.57830000  0.41520000  1.0 -0.8692702581
O  O92  1  0.58420000  0.92170000  0.41520000  1.0 -0.8692702581
O  O93  1  0.91580000  0.92170000  0.91520000  1.0 -0.8692702581
O  O94  1  0.58420000  0.57830000  0.91520000  1.0 -0.8692702581
O  O95  1  0.08420000  0.42170000  0.58480000  1.0 -0.8692702581
O  O96  1  0.41580000  0.07830000  0.58480000  1.0 -0.8692702581
O  O97  1  0.30780000  0.08280000  0.87580000  1.0 -0.6834082719
O  O98  1  0.19220000  0.41720000  0.87580000  1.0 -0.6834082719
O  O99  1  0.69220000  0.58280000  0.62420000  1.0 -0.6834082719
O  O100  1  0.80780000  0.91720000  0.62420000  1.0 -0.6834082719
O  O101  1  0.69220000  0.91720000  0.12420000  1.0 -0.6834082719
O  O102  1  0.80780000  0.58280000  0.12420000  1.0 -0.6834082719
O  O103  1  0.30780000  0.41720000  0.37580000  1.0 -0.6834082719
O  O104  1  0.19220000  0.08280000  0.37580000  1.0 -0.6834082719
O  O105  1  0.96390000  0.06060000  0.22050000  1.0 -0.8526978595
O  O106  1  0.53610000  0.43940000  0.22050000  1.0 -0.8585558448
O  O107  1  0.03610000  0.56060000  0.27950000  1.0 -0.8585558448
O  O108  1  0.46390000  0.93940000  0.27950000  1.0 -0.8526978595
O  O109  1  0.03610000  0.93940000  0.77950000  1.0 -0.8526978595
O  O110  1  0.46390000  0.56060000  0.77950000  1.0 -0.8526978595
O  O111  1  0.96390000  0.43940000  0.72050000  1.0 -0.8526978595
O  O112  1  0.53610000  0.06060000  0.72050000  1.0 -0.8526978595
O  O113  1  0.23150000  0.11680000  0.97690000  1.0 -0.8526978595
O  O114  1  0.26850000  0.38320000  0.97690000  1.0 -0.8526978595
O  O115  1  0.76850000  0.61680000  0.52310000  1.0 -0.8526978595
O  O116  1  0.73150000  0.88320000  0.52310000  1.0 -0.8526978595
O  O117  1  0.76850000  0.88320000  0.02310000  1.0 -0.8526978595
O  O118  1  0.73150000  0.61680000  0.02310000  1.0 -0.8526978595
O  O119  1  0.23150000  0.38320000  0.47690000  1.0 -0.8526978595
O  O120  1  0.26850000  0.11680000  0.47690000  1.0 -0.8526978595
O  O121  1  0.05750000  0.95970000  0.89030000  1.0 -0.9504694048
O  O122  1  0.44250000  0.54030000  0.89030000  1.0 -0.9504694048
O  O123  1  0.94250000  0.45970000  0.60970000  1.0 -0.9504694048
O  O124  1  0.55750000  0.04030000  0.60970000  1.0 -0.9504694048
O  O125  1  0.94250000  0.04030000  0.10970000  1.0 -0.9504694048
O  O126  1  0.55750000  0.45970000  0.10970000  1.0 -0.9504694048
O  O127  1  0.05750000  0.54030000  0.39030000  1.0 -0.9504694048
O  O128  1  0.44250000  0.95970000  0.39030000  1.0 -0.9504694048
O  O129  1  0.09580000  0.15580000  0.99370000  1.0 -0.8692702581
O  O130  1  0.40420000  0.34420000  0.99370000  1.0 -0.8692702581
O  O131  1  0.90420000  0.65580000  0.50630000  1.0 -0.8692702581
O  O132  1  0.59580000  0.84420000  0.50630000  1.0 -0.8692702581
O  O133  1  0.90420000  0.84420000  0.00630000  1.0 -0.8692702581
O  O134  1  0.59580000  0.65580000  0.00630000  1.0 -0.8692702581
O  O135  1  0.09580000  0.34420000  0.49370000  1.0 -0.8692702581
O  O136  1  0.40420000  0.15580000  0.49370000  1.0 -0.8692702581
O  O137  1  0.12040000  0.94570000  0.06620000  1.0 -0.87977583
O  O138  1  0.37960000  0.55430000  0.06620000  1.0 -0.87977583
O  O139  1  0.87960000  0.44570000  0.43380000  1.0 -0.87977583
O  O140  1  0.62040000  0.05430000  0.43380000  1.0 -0.87977583
O  O141  1  0.87960000  0.05430000  0.93380000  1.0 -0.87977583
O  O142  1  0.62040000  0.44570000  0.93380000  1.0 -0.87977583
O  O143  1  0.12040000  0.55430000  0.56620000  1.0 -0.87977583
O  O144  1  0.37960000  0.94570000  0.56620000  1.0 -0.87977583
O  O145  1  0.09500000  0.10890000  0.20760000  1.0 -0.6535429847
O  O146  1  0.40500000  0.39110000  0.20760000  1.0 -0.6535429847
O  O147  1  0.90500000  0.60890000  0.29240000  1.0 -0.6535429847
O  O148  1  0.59500000  0.89110000  0.29240000  1.0 -0.6535429847
O  O149  1  0.90500000  0.89110000  0.79240000  1.0 -0.6535429847
O  O150  1  0.59500000  0.60890000  0.79240000  1.0 -0.6535429847
O  O151  1  0.09500000  0.39110000  0.70760000  1.0 -0.6535429847
O  O152  1  0.40500000  0.10890000  0.70760000  1.0 -0.6535429847
O  O153  1  0.98280000  0.12480000  0.80420000  1.0 -0.8526978595
O  O154  1  0.51720000  0.37520000  0.80420000  1.0 -0.8526978595
O  O155  1  0.01720000  0.62480000  0.69580000  1.0 -0.8526978595
O  O156  1  0.48280000  0.87520000  0.69580000  1.0 -0.8526978595
O  O157  1  0.01720000  0.87520000  0.19580000  1.0 -0.8526978595
O  O158  1  0.48280000  0.62480000  0.19580000  1.0 -0.8526978595
O  O159  1  0.98280000  0.37520000  0.30420000  1.0 -0.8526978595
O  O160  1  0.51720000  0.12480000  0.30420000  1.0 -0.8526978595
O  O161  1  0.99740000  0.25140000  0.97850000  1.0 -0.6181360636
O  O162  1  0.50260000  0.24860000  0.97850000  1.0 -0.6181360636
O  O163  1  0.00260000  0.75140000  0.52150000  1.0 -0.6181360636
O  O164  1  0.49740000  0.74860000  0.52150000  1.0 -0.6181360636
O  O165  1  0.00260000  0.74860000  0.02150000  1.0 -0.6181360636
O  O166  1  0.49740000  0.75140000  0.02150000  1.0 -0.6181360636
O  O167  1  0.99740000  0.24860000  0.47850000  1.0 -0.6181360636
O  O168  1  0.50260000  0.25140000  0.47850000  1.0 -0.6181360636
O  O169  1  0.05720000  0.19570000  0.88150000  1.0 -0.8585558448
O  O170  1  0.44280000  0.30430000  0.88150000  1.0 -0.8585558448
O  O171  1  0.94280000  0.69570000  0.61850000  1.0 -0.8585558448
O  O172  1  0.55720000  0.80430000  0.61850000  1.0 -0.8585558448
O  O173  1  0.94280000  0.80430000  0.11850000  1.0 -0.8585558448
O  O174  1  0.55720000  0.69570000  0.11850000  1.0 -0.8585558448
O  O175  1  0.05720000  0.30430000  0.38150000  1.0 -0.8585558448
O  O176  1  0.44280000  0.19570000  0.38150000  1.0 -0.8585558448
O  O177  1  0.84060000  0.10700000  0.82420000  1.0 -0.6031763521
O  O178  1  0.65940000  0.39300000  0.82420000  1.0 -0.6031763521
O  O179  1  0.15940000  0.60700000  0.67580000  1.0 -0.6031763521
O  O180  1  0.34060000  0.89300000  0.67580000  1.0 -0.6031763521
O  O181  1  0.15940000  0.89300000  0.17580000  1.0 -0.6031763521
O  O182  1  0.34060000  0.60700000  0.17580000  1.0 -0.6031763521
O  O183  1  0.84060000  0.39300000  0.32420000  1.0 -0.6031763521
O  O184  1  0.65940000  0.10700000  0.32420000  1.0 -0.6031763521
O  O185  1  0.96310000  0.13350000  0.01740000  1.0 -0.87977583
O  O186  1  0.53690000  0.36650000  0.01740000  1.0 -0.87977583
O  O187  1  0.03690000  0.63350000  0.48260000  1.0 -0.87977583
O  O188  1  0.46310000  0.86650000  0.48260000  1.0 -0.87977583
O  O189  1  0.03690000  0.86650000  0.98260000  1.0 -0.87977583
O  O190  1  0.46310000  0.63350000  0.98260000  1.0 -0.87977583
O  O191  1  0.96310000  0.36650000  0.51740000  1.0 -0.87977583
O  O192  1  0.53690000  0.13350000  0.51740000  1.0 -0.87977583
O  O193  1  0.12510000  0.78790000  0.91500000  1.0 -0.6535429847
O  O194  1  0.37490000  0.71210000  0.91500000  1.0 -0.6535429847
O  O195  1  0.87490000  0.28790000  0.58500000  1.0 -0.6535429847
O  O196  1  0.62510000  0.21210000  0.58500000  1.0 -0.6535429847
O  O197  1  0.87490000  0.21210000  0.08500000  1.0 -0.6535429847
O  O198  1  0.62510000  0.28790000  0.08500000  1.0 -0.6535429847
O  O199  1  0.12510000  0.71210000  0.41500000  1.0 -0.6535429847
O  O200  1  0.37490000  0.78790000  0.41500000  1.0 -0.6535429847
O  O201  1  0.09190000  0.04810000  0.79780000  1.0 -0.8585558448
O  O202  1  0.40810000  0.45190000  0.79780000  1.0 -0.8585558448
O  O203  1  0.90810000  0.54810000  0.70220000  1.0 -0.8585558448
O  O204  1  0.59190000  0.95190000  0.70220000  1.0 -0.8585558448
O  O205  1  0.90810000  0.95190000  0.20220000  1.0 -0.8585558448
O  O206  1  0.59190000  0.54810000  0.20220000  1.0 -0.8585558448
O  O207  1  0.09190000  0.45190000  0.29780000  1.0 -0.8585558448
O  O208  1  0.40810000  0.04810000  0.29780000  1.0 -0.8585558448
O  O209  1  0.06470000  0.99030000  0.16520000  1.0 -0.8585558448
O  O210  1  0.43530000  0.50970000  0.16520000  1.0 -0.8585558448
O  O211  1  0.93530000  0.49030000  0.33480000  1.0 -0.8585558448
O  O212  1  0.56470000  0.00970000  0.33480000  1.0 -0.8585558448
O  O213  1  0.93530000  0.00970000  0.83480000  1.0 -0.8585558448
O  O214  1  0.56470000  0.49030000  0.83480000  1.0 -0.8585558448
O  O215  1  0.06470000  0.50970000  0.66520000  1.0 -0.8585558448
O  O216  1  0.43530000  0.99030000  0.66520000  1.0 -0.8585558448
O  O217  1  0.26430000  0.91630000  0.05490000  1.0 -0.6181360636
O  O218  1  0.23570000  0.58370000  0.05490000  1.0 -0.6181360636
O  O219  1  0.73570000  0.41630000  0.44510000  1.0 -0.6181360636
O  O220  1  0.76430000  0.08370000  0.44510000  1.0 -0.6181360636
O  O221  1  0.73570000  0.08370000  0.94510000  1.0 -0.6181360636
O  O222  1  0.76430000  0.41630000  0.94510000  1.0 -0.6181360636
O  O223  1  0.26430000  0.58370000  0.55490000  1.0 -0.6181360636
O  O224  1  0.23570000  0.91630000  0.55490000  1.0 -0.6181360636
O  O225  1  0.10680000  0.17390000  0.76810000  1.0 -0.6181360636
O  O226  1  0.39320000  0.32610000  0.76810000  1.0 -0.6181360636
O  O227  1  0.89320000  0.67390000  0.73190000  1.0 -0.6181360636
O  O228  1  0.60680000  0.82610000  0.73190000  1.0 -0.6181360636
O  O229  1  0.89320000  0.82610000  0.23190000  1.0 -0.6181360636
O  O230  1  0.60680000  0.67390000  0.23190000  1.0 -0.6181360636
O  O231  1  0.10680000  0.32610000  0.26810000  1.0 -0.6181360636
O  O232  1  0.39320000  0.17390000  0.26810000  1.0 -0.6181360636
O  O233  1  0.17020000  0.95650000  0.73830000  1.0 -0.6181360636
O  O234  1  0.32980000  0.54350000  0.73830000  1.0 -0.6181360636
O  O235  1  0.82980000  0.45650000  0.76170000  1.0 -0.6181360636
O  O236  1  0.67020000  0.04350000  0.76170000  1.0 -0.6181360636
O  O237  1  0.82980000  0.04350000  0.26170000  1.0 -0.6181360636
O  O238  1  0.67020000  0.45650000  0.26170000  1.0 -0.6181360636
O  O239  1  0.17020000  0.54350000  0.23830000  1.0 -0.6181360636
O  O240  1  0.32980000  0.95650000  0.23830000  1.0 -0.6181360636
