# DDEC6 charges by PACMAN v1.1 (https://github.com/mtap-research/PACMAN-charge/)
data_VUSWOY_ion_pacman
_symmetry_space_group_name_H-M   'P 1'
_cell_length_a   23.48740000
_cell_length_b   23.48740000
_cell_length_c   26.23370000
_cell_angle_alpha   86.70520000
_cell_angle_beta   93.29480000
_cell_angle_gamma   119.78900000
_symmetry_Int_Tables_number   1
_chemical_formula_structural   Ba3H118C108Cl6O107
_chemical_formula_sum   'Ba6 H236 C216 Cl12 O214'
_cell_volume   12531.95997719
_cell_formula_units_Z   2
loop_
 _symmetry_equiv_pos_site_id
 _symmetry_equiv_pos_as_xyz
  1  'x, y, z'
loop_
 _atom_site_type_symbol
 _atom_site_label
 _atom_site_symmetry_multiplicity
 _atom_site_fract_x
 _atom_site_fract_y
 _atom_site_fract_z
 _atom_site_occupancy
 _atom_site_charge
Ba  Ba1  1  0.14430000  0.66520000  0.81972000  1.0 1.3824611705
Ba  Ba2  1  0.30218000  0.33572000  0.81391000  1.0 1.3996272486
Ba  Ba3  1  0.80826000  0.17000000  0.81844000  1.0 1.3916637701
Ba  Ba4  1  0.66520000  0.14430000  0.18028000  1.0 1.3824611705
Ba  Ba5  1  0.33572000  0.30218000  0.18609000  1.0 1.3996272486
Ba  Ba6  1  0.17000000  0.80826000  0.18156000  1.0 1.3916637701
H  H1  1  0.33221000  0.27433000  0.67295000  1.0 0.1207660833
H  H2  1  0.43410000  0.34410000  0.71726000  1.0 0.1207660833
H  H3  1  0.44155000  0.22559000  0.73180000  1.0 0.1291268099
H  H4  1  0.53077000  0.34509000  0.67744000  1.0 0.1207660833
H  H5  1  0.43952000  0.22370000  0.62916000  1.0 0.1123009237
H  H6  1  0.46455000  0.28839000  0.55267000  1.0 0.1399723556
H  H7  1  0.53060000  0.29480000  0.57921000  1.0 0.1399723556
H  H8  1  0.62281000  0.35303000  0.66854000  1.0 0.1291268099
H  H9  1  0.69744000  0.32498000  0.71401000  1.0 0.1291268099
H  H10  1  0.58414000  0.19842000  0.73482000  1.0 0.1291268099
H  H11  1  0.69211000  0.22449000  0.67228000  1.0 0.1207660833
H  H12  1  0.56144000  0.18942000  0.63517000  1.0 0.1123009237
H  H13  1  0.60371000  0.21235000  0.55270000  1.0 0.1399723556
H  H14  1  0.61786000  0.15764000  0.58033000  1.0 0.1291268099
H  H15  1  0.70390000  0.14230000  0.67453000  1.0 0.1123009237
H  H16  1  0.67758000  0.04074000  0.71897000  1.0 0.1291268099
H  H17  1  0.55290000  0.03178000  0.73252000  1.0 0.1291268099
H  H18  1  0.57722000  0.94396000  0.67684000  1.0 0.1207660833
H  H19  1  0.54238000  0.03668000  0.62943000  1.0 0.1123009237
H  H20  1  0.57346000  0.01268000  0.55275000  1.0 0.1399723556
H  H21  1  0.51664000  0.94640000  0.57829000  1.0 0.1457102527
H  H22  1  0.49195000  0.85259000  0.66654000  1.0 0.1291268099
H  H23  1  0.39624000  0.77724000  0.71113000  1.0 0.1291268099
H  H24  1  0.38636000  0.89022000  0.73496000  1.0 0.1291268099
H  H25  1  0.29510000  0.78332000  0.67221000  1.0 0.1207660833
H  H26  1  0.38532000  0.91560000  0.63584000  1.0 0.1123009237
H  H27  1  0.35440000  0.87352000  0.55278000  1.0 0.1399723556
H  H28  1  0.29001000  0.86037000  0.58112000  1.0 0.1291268099
H  H29  1  0.20207000  0.77167000  0.67827000  1.0 0.1123009237
H  H30  1  0.13395000  0.79951000  0.72369000  1.0 0.1207660833
H  H31  1  0.25171000  0.92325000  0.73522000  1.0 0.1291268099
H  H32  1  0.13114000  0.89870000  0.68147000  1.0 0.1207660833
H  H33  1  0.25208000  0.93312000  0.63291000  1.0 0.1123009237
H  H34  1  0.18928000  0.90488000  0.55649000  1.0 0.1399723556
H  H35  1  0.18119000  0.96031000  0.58281000  1.0 0.1399723556
H  H36  1  0.12359000  0.98385000  0.67019000  1.0 0.1291268099
H  H37  1  0.14923000  0.08067000  0.71319000  1.0 0.1291268099
H  H38  1  0.27610000  0.09290000  0.73577000  1.0 0.1291268099
H  H39  1  0.25020000  0.18124000  0.67028000  1.0 0.1207660833
H  H40  1  0.28684000  0.08870000  0.63678000  1.0 0.1123009237
H  H41  1  0.26308000  0.11636000  0.55301000  1.0 0.1399723556
H  H42  1  0.31871000  0.18153000  0.57975000  1.0 0.1207660833
H  H43  1  0.35533000  0.27757000  0.95782000  1.0 0.1291268099
H  H44  1  0.25350000  0.20704000  0.91525000  1.0 0.1291268099
H  H45  1  0.30827000  0.12493000  0.89798000  1.0 0.1291268099
H  H46  1  0.19775000  0.09033000  0.96034000  1.0 0.1207660833
H  H47  1  0.32754000  0.12090000  0.99835000  1.0 0.1399723556
H  H48  1  0.14017000  0.98523000  0.96933000  1.0 0.1291268099
H  H49  1  0.10876000  0.88772000  0.92520000  1.0 0.1291268099
H  H50  1  0.24475000  0.94715000  0.90052000  1.0 0.1291268099
H  H51  1  0.17566000  0.83410000  0.96768000  1.0 0.1207660833
H  H52  1  0.27516000  0.96460000  0.99689000  1.0 0.1123009237
H  H53  1  0.25063000  0.92827000  0.08184000  1.0 0.1291268099
H  H54  1  0.27380000  0.88380000  0.05547000  1.0 0.1291268099
H  H55  1  0.21430000  0.77244000  0.96722000  1.0 0.1207660833
H  H56  1  0.27789000  0.74005000  0.92269000  1.0 0.1123009237
H  H57  1  0.36257000  0.87657000  0.89998000  1.0 0.1291268099
H  H58  1  0.39342000  0.78912000  0.96131000  1.0 0.1207660833
H  H59  1  0.37524000  0.89272000  0.99834000  1.0 0.1123009237
H  H60  1  0.38030000  0.85092000  0.08100000  1.0 0.1457102527
H  H61  1  0.44697000  0.87251000  0.05263000  1.0 0.1207660833
H  H62  1  0.49732000  0.82514000  0.96047000  1.0 0.1399723556
H  H63  1  0.59499000  0.89567000  0.91371000  1.0 0.1291268099
H  H64  1  0.53595000  0.97805000  0.89579000  1.0 0.1291268099
H  H65  1  0.65482000  0.01474000  0.95562000  1.0 0.1207660833
H  H66  1  0.52899000  0.97729000  0.99619000  1.0 0.1207660833
H  H67  1  0.57635000  0.97261000  0.07675000  1.0 0.1399723556
H  H68  1  0.60749000  0.04547000  0.05188000  1.0 0.1399723556
H  H69  1  0.70947000  0.11747000  0.96636000  1.0 0.1291268099
H  H70  1  0.73598000  0.21736000  0.92281000  1.0 0.1291268099
H  H71  1  0.59897000  0.16353000  0.89469000  1.0 0.1291268099
H  H72  1  0.67412000  0.26510000  0.96763000  1.0 0.1207660833
H  H73  1  0.57167000  0.13031000  0.98616000  1.0 0.1123009237
H  H74  1  0.56335000  0.19419000  0.04705000  1.0 0.1291268099
H  H75  1  0.64101000  0.23147000  0.05861000  1.0 0.1291268099
H  H76  1  0.64164000  0.33404000  0.96096000  1.0 0.1399723556
H  H77  1  0.57447000  0.37255000  0.91739000  1.0 0.1291268099
H  H78  1  0.48777000  0.23557000  0.89712000  1.0 0.1291268099
H  H79  1  0.45887000  0.31655000  0.95695000  1.0 0.1207660833
H  H80  1  0.48347000  0.21425000  0.99839000  1.0 0.0988759614
H  H81  1  0.49400000  0.26626000  0.07795000  1.0 0.1399723556
H  H82  1  0.42122000  0.23332000  0.05308000  1.0 0.1457102527
H  H83  1  0.85966000  0.11014000  0.63002000  1.0 0.1291268099
H  H84  1  0.78809000  0.13335000  0.67214000  1.0 0.1207660833
H  H85  1  0.89755000  0.25695000  0.69905000  1.0 0.1291268099
H  H86  1  0.79594000  0.24458000  0.62614000  1.0 0.1291268099
H  H87  1  0.92750000  0.27652000  0.60164000  1.0 0.1123009237
H  H88  1  0.89536000  0.27206000  0.51620000  1.0 0.1291268099
H  H89  1  0.87941000  0.32247000  0.54191000  1.0 0.1399723556
H  H90  1  0.78702000  0.32860000  0.63896000  1.0 0.1291268099
H  H91  1  0.82126000  0.42150000  0.69014000  1.0 0.1207660833
H  H92  1  0.94750000  0.42860000  0.69670000  1.0 0.1291268099
H  H93  1  0.91773000  0.52447000  0.64852000  1.0 0.1207660833
H  H94  1  0.94686000  0.43922000  0.59403000  1.0 0.1399723556
H  H95  1  0.00317000  0.61621000  0.63393000  1.0 0.1291268099
H  H96  1  0.10586000  0.68888000  0.67243000  1.0 0.1207660833
H  H97  1  0.12309000  0.57825000  0.69796000  1.0 0.1291268099
H  H98  1  0.19952000  0.68122000  0.62479000  1.0 0.1291268099
H  H99  1  0.09850000  0.54868000  0.60182000  1.0 0.1123009237
H  H100  1  0.11068000  0.58202000  0.51577000  1.0 0.1291268099
H  H101  1  0.18011000  0.59487000  0.53956000  1.0 0.1399723556
H  H102  1  0.29414000  0.68920000  0.63258000  1.0 0.1291268099
H  H103  1  0.36370000  0.65688000  0.68148000  1.0 0.1207660833
H  H104  1  0.24500000  0.53146000  0.69306000  1.0 0.1291268099
H  H105  1  0.36076000  0.55728000  0.64056000  1.0 0.1207660833
H  H106  1  0.23604000  0.52670000  0.58980000  1.0 0.1399723556
H  H107  1  0.36350000  0.47100000  0.62700000  1.0 0.1291268099
H  H108  1  0.34169000  0.37105000  0.66716000  1.0 0.1207660833
H  H109  1  0.21706000  0.35300000  0.69527000  1.0 0.1207660833
H  H110  1  0.23109000  0.27487000  0.62126000  1.0 0.1291268099
H  H111  1  0.19677000  0.37567000  0.59948000  1.0 0.1123009237
H  H112  1  0.20457000  0.36231000  0.51311000  1.0 0.1291268099
H  H113  1  0.15135000  0.29345000  0.53778000  1.0 0.1399723556
H  H114  1  0.14824000  0.18066000  0.63247000  1.0 0.1291268099
H  H115  1  0.05485000  0.11225000  0.68199000  1.0 0.1207660833
H  H116  1  0.04751000  0.23019000  0.69346000  1.0 0.1291268099
H  H117  1  0.95152000  0.11392000  0.64226000  1.0 0.1291268099
H  H118  1  0.03623000  0.23749000  0.58909000  1.0 0.1399723556
H  H119  1  0.27433000  0.33221000  0.32705000  1.0 0.1207660833
H  H120  1  0.34410000  0.43410000  0.28274000  1.0 0.1207660833
H  H121  1  0.22559000  0.44155000  0.26820000  1.0 0.1291268099
H  H122  1  0.34509000  0.53077000  0.32256000  1.0 0.1207660833
H  H123  1  0.22370000  0.43952000  0.37084000  1.0 0.1123009237
H  H124  1  0.28839000  0.46455000  0.44733000  1.0 0.1399723556
H  H125  1  0.29480000  0.53060000  0.42079000  1.0 0.1457102527
H  H126  1  0.35303000  0.62281000  0.33146000  1.0 0.1291268099
H  H127  1  0.32498000  0.69744000  0.28599000  1.0 0.1291268099
H  H128  1  0.19842000  0.58414000  0.26518000  1.0 0.1291268099
H  H129  1  0.22449000  0.69211000  0.32772000  1.0 0.1207660833
H  H130  1  0.18942000  0.56144000  0.36483000  1.0 0.1123009237
H  H131  1  0.21235000  0.60371000  0.44730000  1.0 0.1457102527
H  H132  1  0.15764000  0.61786000  0.41967000  1.0 0.1291268099
H  H133  1  0.14230000  0.70390000  0.32547000  1.0 0.1207660833
H  H134  1  0.04074000  0.67758000  0.28103000  1.0 0.1291268099
H  H135  1  0.03178000  0.55290000  0.26748000  1.0 0.1291268099
H  H136  1  0.94396000  0.57722000  0.32316000  1.0 0.1207660833
H  H137  1  0.03668000  0.54238000  0.37057000  1.0 0.1123009237
H  H138  1  0.01268000  0.57346000  0.44725000  1.0 0.1399723556
H  H139  1  0.94640000  0.51664000  0.42171000  1.0 0.1457102527
H  H140  1  0.85259000  0.49195000  0.33346000  1.0 0.1291268099
H  H141  1  0.77724000  0.39624000  0.28887000  1.0 0.1291268099
H  H142  1  0.89022000  0.38636000  0.26504000  1.0 0.1291268099
H  H143  1  0.78332000  0.29510000  0.32779000  1.0 0.1207660833
H  H144  1  0.91560000  0.38532000  0.36416000  1.0 0.1123009237
H  H145  1  0.87352000  0.35440000  0.44722000  1.0 0.1399723556
H  H146  1  0.86037000  0.29001000  0.41888000  1.0 0.1291268099
H  H147  1  0.77167000  0.20207000  0.32173000  1.0 0.1123009237
H  H148  1  0.79951000  0.13395000  0.27631000  1.0 0.1207660833
H  H149  1  0.92325000  0.25171000  0.26478000  1.0 0.1291268099
H  H150  1  0.89870000  0.13114000  0.31853000  1.0 0.1207660833
H  H151  1  0.93312000  0.25208000  0.36709000  1.0 0.1123009237
H  H152  1  0.90488000  0.18928000  0.44351000  1.0 0.1399723556
H  H153  1  0.96031000  0.18119000  0.41719000  1.0 0.1399723556
H  H154  1  0.98385000  0.12359000  0.32981000  1.0 0.1291268099
H  H155  1  0.08067000  0.14923000  0.28681000  1.0 0.1291268099
H  H156  1  0.09290000  0.27610000  0.26423000  1.0 0.1291268099
H  H157  1  0.18124000  0.25020000  0.32972000  1.0 0.1207660833
H  H158  1  0.08870000  0.28684000  0.36322000  1.0 0.1123009237
H  H159  1  0.11636000  0.26308000  0.44699000  1.0 0.1399723556
H  H160  1  0.18153000  0.31871000  0.42025000  1.0 0.1207660833
H  H161  1  0.27757000  0.35533000  0.04218000  1.0 0.1291268099
H  H162  1  0.20704000  0.25350000  0.08475000  1.0 0.1291268099
H  H163  1  0.12493000  0.30827000  0.10202000  1.0 0.1291268099
H  H164  1  0.09033000  0.19775000  0.03966000  1.0 0.1207660833
H  H165  1  0.12090000  0.32754000  0.00165000  1.0 0.1399723556
H  H166  1  0.98523000  0.14017000  0.03067000  1.0 0.1291268099
H  H167  1  0.88772000  0.10876000  0.07480000  1.0 0.1291268099
H  H168  1  0.94715000  0.24475000  0.09948000  1.0 0.1291268099
H  H169  1  0.83410000  0.17566000  0.03232000  1.0 0.1207660833
H  H170  1  0.96460000  0.27516000  0.00311000  1.0 0.1123009237
H  H171  1  0.92827000  0.25063000  0.91816000  1.0 0.1207660833
H  H172  1  0.88380000  0.27380000  0.94453000  1.0 0.1291268099
H  H173  1  0.77244000  0.21430000  0.03278000  1.0 0.1207660833
H  H174  1  0.74005000  0.27789000  0.07731000  1.0 0.1123009237
H  H175  1  0.87657000  0.36257000  0.10002000  1.0 0.1291268099
H  H176  1  0.78912000  0.39342000  0.03869000  1.0 0.1207660833
H  H177  1  0.89272000  0.37524000  0.00166000  1.0 0.1123009237
H  H178  1  0.85092000  0.38030000  0.91900000  1.0 0.1399723556
H  H179  1  0.87251000  0.44697000  0.94737000  1.0 0.1207660833
H  H180  1  0.82514000  0.49732000  0.03953000  1.0 0.1399723556
H  H181  1  0.89567000  0.59499000  0.08629000  1.0 0.1291268099
H  H182  1  0.97805000  0.53595000  0.10421000  1.0 0.1291268099
H  H183  1  0.01474000  0.65482000  0.04438000  1.0 0.1207660833
H  H184  1  0.97729000  0.52899000  0.00381000  1.0 0.1207660833
H  H185  1  0.97261000  0.57635000  0.92325000  1.0 0.1399723556
H  H186  1  0.04547000  0.60749000  0.94812000  1.0 0.1399723556
H  H187  1  0.11747000  0.70947000  0.03364000  1.0 0.1291268099
H  H188  1  0.21736000  0.73598000  0.07719000  1.0 0.1291268099
H  H189  1  0.16353000  0.59897000  0.10531000  1.0 0.1291268099
H  H190  1  0.26510000  0.67412000  0.03237000  1.0 0.1207660833
H  H191  1  0.13031000  0.57167000  0.01384000  1.0 0.1123009237
H  H192  1  0.19419000  0.56335000  0.95295000  1.0 0.1291268099
H  H193  1  0.23147000  0.64101000  0.94139000  1.0 0.1291268099
H  H194  1  0.33404000  0.64164000  0.03904000  1.0 0.1399723556
H  H195  1  0.37255000  0.57447000  0.08261000  1.0 0.1291268099
H  H196  1  0.23557000  0.48777000  0.10288000  1.0 0.1291268099
H  H197  1  0.31655000  0.45887000  0.04305000  1.0 0.1207660833
H  H198  1  0.21425000  0.48347000  0.00161000  1.0 0.0988759614
H  H199  1  0.26626000  0.49400000  0.92205000  1.0 0.1399723556
H  H200  1  0.23332000  0.42122000  0.94692000  1.0 0.1457102527
H  H201  1  0.11014000  0.85966000  0.36998000  1.0 0.1291268099
H  H202  1  0.13335000  0.78809000  0.32786000  1.0 0.1207660833
H  H203  1  0.25695000  0.89755000  0.30095000  1.0 0.1291268099
H  H204  1  0.24458000  0.79594000  0.37386000  1.0 0.1291268099
H  H205  1  0.27652000  0.92750000  0.39836000  1.0 0.1123009237
H  H206  1  0.27206000  0.89536000  0.48380000  1.0 0.1291268099
H  H207  1  0.32247000  0.87941000  0.45809000  1.0 0.1399723556
H  H208  1  0.32860000  0.78702000  0.36104000  1.0 0.1291268099
H  H209  1  0.42150000  0.82126000  0.30986000  1.0 0.1207660833
H  H210  1  0.42860000  0.94750000  0.30330000  1.0 0.1291268099
H  H211  1  0.52447000  0.91773000  0.35148000  1.0 0.1207660833
H  H212  1  0.43922000  0.94686000  0.40597000  1.0 0.1399723556
H  H213  1  0.61621000  0.00317000  0.36607000  1.0 0.1291268099
H  H214  1  0.68888000  0.10586000  0.32757000  1.0 0.1207660833
H  H215  1  0.57825000  0.12309000  0.30204000  1.0 0.1291268099
H  H216  1  0.68122000  0.19952000  0.37521000  1.0 0.1291268099
H  H217  1  0.54868000  0.09850000  0.39818000  1.0 0.1123009237
H  H218  1  0.58202000  0.11068000  0.48423000  1.0 0.1291268099
H  H219  1  0.59487000  0.18011000  0.46044000  1.0 0.1399723556
H  H220  1  0.68920000  0.29414000  0.36742000  1.0 0.1291268099
H  H221  1  0.65688000  0.36370000  0.31852000  1.0 0.1207660833
H  H222  1  0.53146000  0.24500000  0.30694000  1.0 0.1291268099
H  H223  1  0.55728000  0.36076000  0.35944000  1.0 0.1207660833
H  H224  1  0.52670000  0.23604000  0.41020000  1.0 0.1399723556
H  H225  1  0.47100000  0.36350000  0.37300000  1.0 0.1291268099
H  H226  1  0.37105000  0.34169000  0.33284000  1.0 0.1207660833
H  H227  1  0.35300000  0.21706000  0.30473000  1.0 0.1207660833
H  H228  1  0.27487000  0.23109000  0.37874000  1.0 0.1291268099
H  H229  1  0.37567000  0.19677000  0.40052000  1.0 0.1123009237
H  H230  1  0.36231000  0.20457000  0.48689000  1.0 0.1291268099
H  H231  1  0.29345000  0.15135000  0.46222000  1.0 0.1399723556
H  H232  1  0.18066000  0.14824000  0.36753000  1.0 0.1291268099
H  H233  1  0.11225000  0.05485000  0.31801000  1.0 0.1207660833
H  H234  1  0.23019000  0.04751000  0.30654000  1.0 0.1291268099
H  H235  1  0.11392000  0.95152000  0.35774000  1.0 0.1291268099
H  H236  1  0.23749000  0.03623000  0.41091000  1.0 0.1399723556
C  C1  1  0.36851000  0.26361000  0.67585000  1.0 0.2435499202
C  C2  1  0.41163000  0.29535000  0.72281000  1.0 0.0397241038
C  C3  1  0.46341000  0.27445000  0.72741000  1.0 0.0709798917
C  C4  1  0.50290000  0.29620000  0.67924000  1.0 0.0610504519
C  C5  1  0.45860000  0.27226000  0.63101000  1.0 0.0988759614
C  C6  1  0.49510000  0.30530000  0.58269000  1.0 -0.0512064576
C  C7  1  0.61128000  0.30598000  0.67310000  1.0 0.2505220398
C  C8  1  0.64927000  0.29741000  0.71951000  1.0 0.0121480741
C  C9  1  0.63156000  0.22570000  0.72662000  1.0 0.0709798917
C  C10  1  0.64387000  0.20297000  0.67762000  1.0 0.0496019774
C  C11  1  0.61000000  0.21720000  0.63183000  1.0 0.0988759614
C  C12  1  0.62870000  0.20410000  0.58102000  1.0 -0.0512064576
C  C13  1  0.65737000  0.10607000  0.67692000  1.0 0.2505220398
C  C14  1  0.65143000  0.06285000  0.72411000  1.0 0.0397241038
C  C15  1  0.57978000  0.01030000  0.72788000  1.0 0.0709798917
C  C16  1  0.55676000  0.97226000  0.67882000  1.0 0.0610504519
C  C17  1  0.57188000  0.01722000  0.63135000  1.0 0.0988759614
C  C18  1  0.56290000  0.98150000  0.58245000  1.0 -0.0512064576
C  C19  1  0.45719000  0.86419000  0.67198000  1.0 0.2435499202
C  C20  1  0.41753000  0.82517000  0.71766000  1.0 0.0121480741
C  C21  1  0.36499000  0.84287000  0.72641000  1.0 0.0709798917
C  C22  1  0.32248000  0.83138000  0.67820000  1.0 0.0496019774
C  C23  1  0.36430000  0.86712000  0.63186000  1.0 0.0988759614
C  C24  1  0.32521000  0.84879000  0.58128000  1.0 -0.0512064576
C  C25  1  0.21267000  0.81831000  0.68053000  1.0 0.2505220398
C  C26  1  0.18282000  0.82526000  0.72816000  1.0 0.0397241038
C  C27  1  0.20278000  0.89684000  0.73174000  1.0 0.0709798917
C  C28  1  0.18005000  0.91949000  0.68289000  1.0 0.0496019774
C  C29  1  0.20342000  0.90442000  0.63469000  1.0 0.0988759614
C  C30  1  0.17145000  0.91415000  0.58625000  1.0 -0.0597787861
C  C31  1  0.17050000  0.01890000  0.67462000  1.0 0.2505220398
C  C32  1  0.17751000  0.06013000  0.71979000  1.0 0.0202425006
C  C33  1  0.24840000  0.11360000  0.72664000  1.0 0.0793966286
C  C34  1  0.27185000  0.15397000  0.67705000  1.0 0.0496019774
C  C35  1  0.25871000  0.10965000  0.63217000  1.0 0.0988759614
C  C36  1  0.27200000  0.14680000  0.58078000  1.0 -0.0512064576
C  C37  1  0.34027000  0.22981000  0.95517000  1.0 0.2505220398
C  C38  1  0.29263000  0.20225000  0.90959000  1.0 0.0397241038
C  C39  1  0.26985000  0.13009000  0.90549000  1.0 0.0610504519
C  C40  1  0.24119000  0.09363000  0.95536000  1.0 0.0793966286
C  C41  1  0.28796000  0.12604000  0.00056000  1.0 -0.0230504379
C  C42  1  0.25694000  0.09806000  0.05060000  1.0 0.5286904972
C  C43  1  0.17414000  0.97268000  0.96347000  1.0 0.2505220398
C  C44  1  0.15204000  0.92758000  0.91817000  1.0 0.0316841215
C  C45  1  0.20281000  0.90731000  0.91050000  1.0 0.0709798917
C  C46  1  0.21541000  0.87717000  0.95956000  1.0 0.0610504519
C  C47  1  0.23261000  0.92379000  0.00383000  1.0 0.0988759614
C  C48  1  0.23822000  0.89478000  0.05586000  1.0 -0.0597787861
C  C49  1  0.26176000  0.80436000  0.96182000  1.0 0.2435499202
C  C50  1  0.28342000  0.78468000  0.91498000  1.0 0.0496019774
C  C51  1  0.35567000  0.83139000  0.90749000  1.0 0.0610504519
C  C52  1  0.39413000  0.83195000  0.95581000  1.0 0.0397241038
C  C53  1  0.36757000  0.84687000  0.00249000  1.0 0.0988759614
C  C54  1  0.39935000  0.84045000  0.05271000  1.0 -0.0512064576
C  C55  1  0.51333000  0.87327000  0.95624000  1.0 0.2505220398
C  C56  1  0.55533000  0.90105000  0.90920000  1.0 0.0316841215
C  C57  1  0.57612000  0.97408000  0.90306000  1.0 0.0709798917
C  C58  1  0.61004000  0.00988000  0.95152000  1.0 0.0709798917
C  C59  1  0.57023000  0.97457000  0.99905000  1.0 0.0898041729
C  C60  1  0.60310000  0.00170000  0.04850000  1.0 -0.0512064576
C  C61  1  0.67409000  0.12905000  0.95936000  1.0 0.2505220398
C  C62  1  0.69240000  0.17834000  0.91454000  1.0 0.0496019774
C  C63  1  0.64183000  0.20121000  0.90629000  1.0 0.0709798917
C  C64  1  0.63273000  0.22511000  0.95677000  1.0 0.0397241038
C  C65  1  0.61291000  0.16991000  0.99780000  1.0 0.0898041729
C  C66  1  0.60267000  0.18885000  0.04927000  1.0 -0.0597787861
C  C67  1  0.59324000  0.30408000  0.95666000  1.0 0.2505220398
C  C68  1  0.56732000  0.32780000  0.91123000  1.0 0.0202425006
C  C69  1  0.49425000  0.27981000  0.90430000  1.0 0.0709798917
C  C70  1  0.45967000  0.27493000  0.95262000  1.0 0.0610504519
C  C71  1  0.49232000  0.26048000  0.99932000  1.0 0.0898041729
C  C72  1  0.46692000  0.26928000  0.04870000  1.0 -0.0755618263
C  C73  1  0.87283000  0.15697000  0.63528000  1.0 0.2505220398
C  C74  1  0.83621000  0.16085000  0.67999000  1.0 0.0397241038
C  C75  1  0.85109000  0.23065000  0.68607000  1.0 0.0898041729
C  C76  1  0.84348000  0.26288000  0.63592000  1.0 0.0496019774
C  C77  1  0.87926000  0.25254000  0.59334000  1.0 0.0988759614
C  C78  1  0.86696000  0.27564000  0.54080000  1.0 -0.0597787861
C  C79  1  0.83455000  0.36265000  0.64159000  1.0 0.2703612225
C  C80  1  0.84829000  0.39937000  0.69067000  1.0 0.0316841215
C  C81  1  0.92054000  0.45088000  0.69474000  1.0 0.0709798917
C  C82  1  0.93840000  0.49620000  0.64785000  1.0 0.0793966286
C  C83  1  0.91791000  0.45829000  0.59898000  1.0 0.0121480741
C  C84  1  0.91964000  0.50136000  0.55200000  1.0 0.5798366021
C  C85  1  0.03780000  0.60320000  0.63790000  1.0 0.2505220398
C  C86  1  0.08626000  0.64092000  0.68109000  1.0 0.0397241038
C  C87  1  0.14126000  0.62492000  0.68552000  1.0 0.0793966286
C  C88  1  0.17261000  0.63359000  0.63468000  1.0 0.0496019774
C  C89  1  0.12037000  0.59683000  0.59326000  1.0 0.0988759614
C  C90  1  0.14699000  0.60921000  0.53990000  1.0 -0.0512064576
C  C91  1  0.28146000  0.64174000  0.63603000  1.0 0.2703612225
C  C92  1  0.31497000  0.63043000  0.68421000  1.0 0.0316841215
C  C93  1  0.29366000  0.55754000  0.68936000  1.0 0.0709798917
C  C94  1  0.31205000  0.53695000  0.64195000  1.0 0.0793966286
C  C95  1  0.28458000  0.55582000  0.59390000  1.0 0.0202425006
C  C96  1  0.32105000  0.55495000  0.54620000  1.0 0.5922741494
C  C97  1  0.31675000  0.43665000  0.63234000  1.0 0.2565187913
C  C98  1  0.31436000  0.39064000  0.67593000  1.0 0.0397241038
C  C99  1  0.24354000  0.33472000  0.68198000  1.0 0.0898041729
C  C100  1  0.21196000  0.30204000  0.63151000  1.0 0.0496019774
C  C101  1  0.22147000  0.35333000  0.59050000  1.0 0.0988759614
C  C102  1  0.19876000  0.32624000  0.53753000  1.0 -0.0597787861
C  C103  1  0.11388000  0.19332000  0.63610000  1.0 0.2703612225
C  C104  1  0.07675000  0.16105000  0.68410000  1.0 0.0316841215
C  C105  1  0.02519000  0.18157000  0.68980000  1.0 0.0709798917
C  C106  1  0.97985000  0.16275000  0.64310000  1.0 0.0793966286
C  C107  1  0.01827000  0.18913000  0.59430000  1.0 0.0121480741
C  C108  1  0.97360000  0.15040000  0.54880000  1.0 0.5798366021
C  C109  1  0.26361000  0.36851000  0.32415000  1.0 0.2505220398
C  C110  1  0.29535000  0.41163000  0.27719000  1.0 0.0397241038
C  C111  1  0.27445000  0.46341000  0.27259000  1.0 0.0709798917
C  C112  1  0.29620000  0.50290000  0.32076000  1.0 0.0610504519
C  C113  1  0.27226000  0.45860000  0.36899000  1.0 0.0988759614
C  C114  1  0.30530000  0.49510000  0.41731000  1.0 -0.0512064576
C  C115  1  0.30598000  0.61128000  0.32690000  1.0 0.2505220398
C  C116  1  0.29741000  0.64927000  0.28049000  1.0 0.0121480741
C  C117  1  0.22570000  0.63156000  0.27338000  1.0 0.0709798917
C  C118  1  0.20297000  0.64387000  0.32238000  1.0 0.0496019774
C  C119  1  0.21720000  0.61000000  0.36817000  1.0 0.0988759614
C  C120  1  0.20410000  0.62870000  0.41898000  1.0 -0.0512064576
C  C121  1  0.10607000  0.65737000  0.32308000  1.0 0.2505220398
C  C122  1  0.06285000  0.65143000  0.27589000  1.0 0.0397241038
C  C123  1  0.01030000  0.57978000  0.27212000  1.0 0.0709798917
C  C124  1  0.97226000  0.55676000  0.32118000  1.0 0.0610504519
C  C125  1  0.01722000  0.57188000  0.36865000  1.0 0.0988759614
C  C126  1  0.98150000  0.56290000  0.41755000  1.0 -0.0512064576
C  C127  1  0.86419000  0.45719000  0.32802000  1.0 0.2435499202
C  C128  1  0.82517000  0.41753000  0.28234000  1.0 0.0121480741
C  C129  1  0.84287000  0.36499000  0.27359000  1.0 0.0709798917
C  C130  1  0.83138000  0.32248000  0.32180000  1.0 0.0496019774
C  C131  1  0.86712000  0.36430000  0.36814000  1.0 0.0988759614
C  C132  1  0.84879000  0.32521000  0.41872000  1.0 -0.0512064576
C  C133  1  0.81831000  0.21267000  0.31947000  1.0 0.2505220398
C  C134  1  0.82526000  0.18282000  0.27184000  1.0 0.0397241038
C  C135  1  0.89684000  0.20278000  0.26826000  1.0 0.0709798917
C  C136  1  0.91949000  0.18005000  0.31711000  1.0 0.0496019774
C  C137  1  0.90442000  0.20342000  0.36531000  1.0 0.0988759614
C  C138  1  0.91415000  0.17145000  0.41375000  1.0 -0.0597787861
C  C139  1  0.01890000  0.17050000  0.32538000  1.0 0.2505220398
C  C140  1  0.06013000  0.17751000  0.28021000  1.0 0.0202425006
C  C141  1  0.11360000  0.24840000  0.27336000  1.0 0.0793966286
C  C142  1  0.15397000  0.27185000  0.32295000  1.0 0.0496019774
C  C143  1  0.10965000  0.25871000  0.36783000  1.0 0.0988759614
C  C144  1  0.14680000  0.27200000  0.41922000  1.0 -0.0512064576
C  C145  1  0.22981000  0.34027000  0.04483000  1.0 0.2505220398
C  C146  1  0.20225000  0.29263000  0.09041000  1.0 0.0397241038
C  C147  1  0.13009000  0.26985000  0.09451000  1.0 0.0709798917
C  C148  1  0.09363000  0.24119000  0.04464000  1.0 0.0793966286
C  C149  1  0.12604000  0.28796000  0.99944000  1.0 -0.0230504379
C  C150  1  0.09806000  0.25694000  0.94940000  1.0 0.5286904972
C  C151  1  0.97268000  0.17414000  0.03653000  1.0 0.2505220398
C  C152  1  0.92758000  0.15204000  0.08183000  1.0 0.0316841215
C  C153  1  0.90731000  0.20281000  0.08950000  1.0 0.0709798917
C  C154  1  0.87717000  0.21541000  0.04044000  1.0 0.0610504519
C  C155  1  0.92379000  0.23261000  0.99617000  1.0 0.0988759614
C  C156  1  0.89478000  0.23822000  0.94414000  1.0 -0.0597787861
C  C157  1  0.80436000  0.26176000  0.03818000  1.0 0.2435499202
C  C158  1  0.78468000  0.28342000  0.08502000  1.0 0.0496019774
C  C159  1  0.83139000  0.35567000  0.09251000  1.0 0.0610504519
C  C160  1  0.83195000  0.39413000  0.04419000  1.0 0.0397241038
C  C161  1  0.84687000  0.36757000  0.99751000  1.0 0.0988759614
C  C162  1  0.84045000  0.39935000  0.94729000  1.0 -0.0512064576
C  C163  1  0.87327000  0.51333000  0.04376000  1.0 0.2505220398
C  C164  1  0.90105000  0.55533000  0.09080000  1.0 0.0316841215
C  C165  1  0.97408000  0.57612000  0.09694000  1.0 0.0709798917
C  C166  1  0.00988000  0.61004000  0.04848000  1.0 0.0709798917
C  C167  1  0.97457000  0.57023000  0.00095000  1.0 0.0898041729
C  C168  1  0.00170000  0.60310000  0.95150000  1.0 -0.0512064576
C  C169  1  0.12905000  0.67409000  0.04064000  1.0 0.2505220398
C  C170  1  0.17834000  0.69240000  0.08546000  1.0 0.0496019774
C  C171  1  0.20121000  0.64183000  0.09371000  1.0 0.0709798917
C  C172  1  0.22511000  0.63273000  0.04323000  1.0 0.0397241038
C  C173  1  0.16991000  0.61291000  0.00220000  1.0 0.0898041729
C  C174  1  0.18885000  0.60267000  0.95073000  1.0 -0.0597787861
C  C175  1  0.30408000  0.59324000  0.04334000  1.0 0.2505220398
C  C176  1  0.32780000  0.56732000  0.08877000  1.0 0.0202425006
C  C177  1  0.27981000  0.49425000  0.09570000  1.0 0.0709798917
C  C178  1  0.27493000  0.45967000  0.04738000  1.0 0.0610504519
C  C179  1  0.26048000  0.49232000  0.00068000  1.0 0.0898041729
C  C180  1  0.26928000  0.46692000  0.95130000  1.0 -0.0755618263
C  C181  1  0.15697000  0.87283000  0.36472000  1.0 0.2505220398
C  C182  1  0.16085000  0.83621000  0.32001000  1.0 0.0397241038
C  C183  1  0.23065000  0.85109000  0.31393000  1.0 0.0898041729
C  C184  1  0.26288000  0.84348000  0.36408000  1.0 0.0496019774
C  C185  1  0.25254000  0.87926000  0.40666000  1.0 0.0988759614
C  C186  1  0.27564000  0.86696000  0.45920000  1.0 -0.0597787861
C  C187  1  0.36265000  0.83455000  0.35841000  1.0 0.2703612225
C  C188  1  0.39937000  0.84829000  0.30933000  1.0 0.0316841215
C  C189  1  0.45088000  0.92054000  0.30526000  1.0 0.0709798917
C  C190  1  0.49620000  0.93840000  0.35215000  1.0 0.0793966286
C  C191  1  0.45829000  0.91791000  0.40102000  1.0 0.0121480741
C  C192  1  0.50136000  0.91964000  0.44800000  1.0 0.5798366021
C  C193  1  0.60320000  0.03780000  0.36210000  1.0 0.2505220398
C  C194  1  0.64092000  0.08626000  0.31891000  1.0 0.0397241038
C  C195  1  0.62492000  0.14126000  0.31448000  1.0 0.0793966286
C  C196  1  0.63359000  0.17261000  0.36532000  1.0 0.0496019774
C  C197  1  0.59683000  0.12037000  0.40674000  1.0 0.0988759614
C  C198  1  0.60921000  0.14699000  0.46010000  1.0 -0.0512064576
C  C199  1  0.64174000  0.28146000  0.36397000  1.0 0.2703612225
C  C200  1  0.63043000  0.31497000  0.31579000  1.0 0.0397241038
C  C201  1  0.55754000  0.29366000  0.31064000  1.0 0.0709798917
C  C202  1  0.53695000  0.31205000  0.35805000  1.0 0.0793966286
C  C203  1  0.55582000  0.28458000  0.40610000  1.0 0.0202425006
C  C204  1  0.55495000  0.32105000  0.45380000  1.0 0.5922741494
C  C205  1  0.43665000  0.31675000  0.36766000  1.0 0.2565187913
C  C206  1  0.39064000  0.31436000  0.32407000  1.0 0.0397241038
C  C207  1  0.33472000  0.24354000  0.31802000  1.0 0.0898041729
C  C208  1  0.30204000  0.21196000  0.36849000  1.0 0.0496019774
C  C209  1  0.35333000  0.22147000  0.40950000  1.0 0.0988759614
C  C210  1  0.32624000  0.19876000  0.46247000  1.0 -0.0597787861
C  C211  1  0.19332000  0.11388000  0.36390000  1.0 0.2703612225
C  C212  1  0.16105000  0.07675000  0.31590000  1.0 0.0316841215
C  C213  1  0.18157000  0.02519000  0.31020000  1.0 0.0709798917
C  C214  1  0.16275000  0.97985000  0.35690000  1.0 0.0793966286
C  C215  1  0.18913000  0.01827000  0.40570000  1.0 0.0121480741
C  C216  1  0.15040000  0.97360000  0.45120000  1.0 0.5798366021
Cl  Cl1  1  0.07556000  0.08064000  0.19102000  1.0 0.0316841215
Cl  Cl2  1  0.24617000  0.05231000  0.18241000  1.0 0.6024505895
Cl  Cl3  1  0.70229000  0.40327000  0.18895000  1.0 0.0316841215
Cl  Cl4  1  0.96123000  0.41923000  0.83290000  1.0 0.1886717182
Cl  Cl5  1  0.23211000  0.51171000  0.82212000  1.0 0.2197982919
Cl  Cl6  1  0.39334000  0.76938000  0.18409000  1.0 0.0121480741
Cl  Cl7  1  0.08064000  0.07556000  0.80898000  1.0 0.0316841215
Cl  Cl8  1  0.05231000  0.24617000  0.81759000  1.0 0.5922741494
Cl  Cl9  1  0.40327000  0.70229000  0.81105000  1.0 0.0316841215
Cl  Cl10  1  0.41923000  0.96123000  0.16710000  1.0 0.1822296035
Cl  Cl11  1  0.51171000  0.23211000  0.17788000  1.0 0.2197982919
Cl  Cl12  1  0.76938000  0.39334000  0.81591000  1.0 0.0202425006
O  O1  1  0.25783000  0.66015000  0.83920000  1.0 -0.3107876081
O  O2  1  0.11142000  0.53616000  0.79599000  1.0 -0.2690286104
O  O3  1  0.01518000  0.57580000  0.83589000  1.0 -0.3982161779
O  O4  1  0.08338000  0.73178000  0.85907000  1.0 -0.290757728
O  O5  1  0.18062000  0.22484000  0.83957000  1.0 -0.0883885484
O  O6  1  0.20109000  0.36575000  0.79594000  1.0 -0.3295759011
O  O7  1  0.34283000  0.46529000  0.83472000  1.0 -0.1835430909
O  O8  1  0.43194000  0.39752000  0.84501000  1.0 -0.4695155967
O  O9  1  0.28777000  0.34025000  0.91762000  1.0 -0.4113892614
O  O10  1  0.40576000  0.28726000  0.63158000  1.0 -0.2576408643
O  O11  1  0.37328000  0.27808000  0.76725000  1.0 -0.3295759011
O  O12  1  0.50672000  0.30438000  0.77113000  1.0 -0.2313205499
O  O13  1  0.54353000  0.26631000  0.68315000  1.0 -0.2690286104
O  O14  1  0.52220000  0.37414000  0.58412000  1.0 -0.2313205499
O  O15  1  0.62694000  0.28540000  0.62902000  1.0 -0.2412507391
O  O16  1  0.63298000  0.31910000  0.76341000  1.0 -0.2179993265
O  O17  1  0.67093000  0.21649000  0.76644000  1.0 -0.2002572987
O  O18  1  0.61662000  0.13340000  0.68350000  1.0 -0.2576408643
O  O19  1  0.69768000  0.24652000  0.57492000  1.0 -0.2412507391
O  O20  1  0.63921000  0.06941000  0.63245000  1.0 -0.2492044129
O  O21  1  0.67697000  0.10059000  0.76881000  1.0 -0.3577345032
O  O22  1  0.57100000  0.96632000  0.76989000  1.0 -0.2412507391
O  O23  1  0.48691000  0.93215000  0.68212000  1.0 -0.2690286104
O  O24  1  0.60464000  0.95386000  0.58427000  1.0 -0.2313205499
O  O25  1  0.41487000  0.84953000  0.62778000  1.0 -0.2492044129
O  O26  1  0.46161000  0.83997000  0.76150000  1.0 -0.2179993265
O  O27  1  0.32248000  0.80372000  0.76626000  1.0 -0.1885708892
O  O28  1  0.28143000  0.85913000  0.68571000  1.0 -0.2576408643
O  O29  1  0.29733000  0.78067000  0.57465000  1.0 -0.2492044129
O  O30  1  0.18743000  0.83655000  0.63611000  1.0 -0.2492044129
O  O31  1  0.20153000  0.79953000  0.77232000  1.0 -0.3499214847
O  O32  1  0.17504000  0.90640000  0.77525000  1.0 -0.2313205499
O  O33  1  0.20960000  0.98970000  0.68591000  1.0 -0.2690286104
O  O34  1  0.10138000  0.87084000  0.58717000  1.0 -0.2412507391
O  O35  1  0.19038000  0.05900000  0.62972000  1.0 -0.2492044129
O  O36  1  0.15647000  0.01845000  0.76438000  1.0 -0.2313205499
O  O37  1  0.25749000  0.15787000  0.76513000  1.0 -0.206894641
O  O38  1  0.34150000  0.19502000  0.68282000  1.0 -0.2576408643
O  O39  1  0.23132000  0.17538000  0.57359000  1.0 -0.2412507391
O  O40  1  0.30817000  0.19509000  0.00030000  1.0 -0.1835430909
O  O41  1  0.32292000  0.23896000  0.86396000  1.0 -0.3654806513
O  O42  1  0.22219000  0.10449000  0.86434000  1.0 -0.2313205499
O  O43  1  0.23354000  0.02976000  0.94995000  1.0 -0.2780121315
O  O44  1  0.31370000  0.13070000  0.09040000  1.0 -0.4320274093
O  O45  1  0.18255000  0.94105000  0.00733000  1.0 -0.2313205499
O  O46  1  0.14582000  0.96200000  0.87340000  1.0 -0.2780121315
O  O47  1  0.18243000  0.86009000  0.87125000  1.0 -0.1507519925
O  O48  1  0.26926000  0.86746000  0.95118000  1.0 -0.2690286104
O  O49  1  0.17906000  0.83716000  0.07048000  1.0 -0.4320274093
O  O50  1  0.29849000  0.80269000  0.00557000  1.0 -0.290757728
O  O51  1  0.24243000  0.77985000  0.87137000  1.0 -0.3499214847
O  O52  1  0.37640000  0.81144000  0.86505000  1.0 -0.1885708892
O  O53  1  0.45963000  0.88405000  0.94808000  1.0 -0.2690286104
O  O54  1  0.39008000  0.77636000  0.06106000  1.0 -0.3499214847
O  O55  1  0.55149000  0.90609000  0.00030000  1.0 -0.2690286104
O  O56  1  0.51738000  0.86750000  0.86547000  1.0 -0.2690286104
O  O57  1  0.62022000  0.00648000  0.86244000  1.0 -0.1507519925
O  O58  1  0.61511000  0.07255000  0.94422000  1.0 -0.2492044129
O  O59  1  0.66379000  0.00701000  0.05150000  1.0 -0.206894641
O  O60  1  0.66456000  0.15442000  0.00373000  1.0 -0.2780121315
O  O61  1  0.69836000  0.15010000  0.86953000  1.0 -0.3577345032
O  O62  1  0.66449000  0.25169000  0.86743000  1.0 -0.1507519925
O  O63  1  0.58086000  0.24028000  0.94672000  1.0 -0.2780121315
O  O64  1  0.59432000  0.13996000  0.08821000  1.0 -0.4113892614
O  O65  1  0.56194000  0.30426000  0.00142000  1.0 -0.290757728
O  O66  1  0.60143000  0.33001000  0.86672000  1.0 -0.2179993265
O  O67  1  0.46333000  0.29967000  0.86367000  1.0 -0.1507519925
O  O68  1  0.39398000  0.22128000  0.94640000  1.0 -0.2780121315
O  O69  1  0.46857000  0.33083000  0.04908000  1.0 -0.1507519925
O  O70  1  0.81715000  0.28643000  0.84375000  1.0 -0.3044759233
O  O71  1  0.93643000  0.27671000  0.80656000  1.0 -0.381509741
O  O72  1  0.90052000  0.13190000  0.84273000  1.0 -0.3499214847
O  O73  1  0.74631000  0.03781000  0.85282000  1.0 -0.381509741
O  O74  1  0.85746000  0.18386000  0.59046000  1.0 -0.2313205499
O  O75  1  0.85119000  0.13529000  0.72670000  1.0 -0.4320274093
O  O76  1  0.80898000  0.23014000  0.72375000  1.0 -0.4815359909
O  O77  1  0.87363000  0.33177000  0.64359000  1.0 -0.2492044129
O  O78  1  0.80025000  0.23897000  0.52303000  1.0 -0.1262519482
O  O79  1  0.85040000  0.40692000  0.59986000  1.0 -0.1885708892
O  O80  1  0.83003000  0.35301000  0.73254000  1.0 -0.2576408643
O  O81  1  0.93551000  0.48981000  0.73843000  1.0 -0.2412507391
O  O82  1  0.00909000  0.53623000  0.65106000  1.0 -0.2492044129
O  O83  1  0.87605000  0.53395000  0.56530000  1.0 -0.4320274093
O  O84  1  0.07173000  0.61767000  0.59182000  1.0 -0.2313205499
O  O85  1  0.05408000  0.62784000  0.72870000  1.0 -0.420460977
O  O86  1  0.18846000  0.66702000  0.72301000  1.0 -0.4878871638
O  O87  1  0.21307000  0.60343000  0.64082000  1.0 -0.2492044129
O  O88  1  0.17588000  0.67532000  0.52275000  1.0 -0.1507519925
O  O89  1  0.30238000  0.62422000  0.59312000  1.0 -0.2002572987
O  O90  1  0.29503000  0.65063000  0.72675000  1.0 -0.2690286104
O  O91  1  0.32526000  0.54330000  0.73194000  1.0 -0.2690286104
O  O92  1  0.28186000  0.46690000  0.64628000  1.0 -0.2412507391
O  O93  1  0.40060000  0.59920000  0.55980000  1.0 -0.4474387366
O  O94  1  0.29006000  0.40192000  0.58686000  1.0 -0.2313205499
O  O95  1  0.33999000  0.42373000  0.72311000  1.0 -0.4320274093
O  O96  1  0.24478000  0.28802000  0.71903000  1.0 -0.502672394
O  O97  1  0.14391000  0.26191000  0.63958000  1.0 -0.2492044129
O  O98  1  0.23392000  0.29614000  0.52063000  1.0 -0.1436786998
O  O99  1  0.06924000  0.17136000  0.59398000  1.0 -0.2002572987
O  O100  1  0.12300000  0.18220000  0.72630000  1.0 -0.290757728
O  O101  1  0.98529000  0.14953000  0.73299000  1.0 -0.2780121315
O  O102  1  0.94043000  0.19263000  0.64828000  1.0 -0.2492044129
O  O103  1  0.94180000  0.07240000  0.56240000  1.0 -0.4320274093
O  O104  1  0.20510000  0.12070000  0.06060000  1.0 -0.420460977
O  O105  1  0.92300000  0.45480000  0.50780000  1.0 -0.5571080246
O  O106  1  0.26450000  0.55370000  0.50530000  1.0 -0.5571080246
O  O107  1  0.01970000  0.20690000  0.50660000  1.0 -0.5571080246
O  O108  1  0.66015000  0.25783000  0.16080000  1.0 -0.3157568771
O  O109  1  0.53616000  0.11142000  0.20401000  1.0 -0.2690286104
O  O110  1  0.57580000  0.01518000  0.16411000  1.0 -0.3894701698
O  O111  1  0.73178000  0.08338000  0.14093000  1.0 -0.290757728
O  O112  1  0.22484000  0.18062000  0.16043000  1.0 -0.0883885484
O  O113  1  0.36575000  0.20109000  0.20406000  1.0 -0.3295759011
O  O114  1  0.46529000  0.34283000  0.16528000  1.0 -0.1885708892
O  O115  1  0.39752000  0.43194000  0.15499000  1.0 -0.4695155967
O  O116  1  0.34025000  0.28777000  0.08238000  1.0 -0.4113892614
O  O117  1  0.28726000  0.40576000  0.36842000  1.0 -0.2576408643
O  O118  1  0.27808000  0.37328000  0.23275000  1.0 -0.3295759011
O  O119  1  0.30438000  0.50672000  0.22887000  1.0 -0.2313205499
O  O120  1  0.26631000  0.54353000  0.31685000  1.0 -0.2690286104
O  O121  1  0.37414000  0.52220000  0.41588000  1.0 -0.2313205499
O  O122  1  0.28540000  0.62694000  0.37098000  1.0 -0.2412507391
O  O123  1  0.31910000  0.63298000  0.23659000  1.0 -0.2179993265
O  O124  1  0.21649000  0.67093000  0.23356000  1.0 -0.2002572987
O  O125  1  0.13340000  0.61662000  0.31650000  1.0 -0.2576408643
O  O126  1  0.24652000  0.69768000  0.42508000  1.0 -0.2412507391
O  O127  1  0.06941000  0.63921000  0.36755000  1.0 -0.2492044129
O  O128  1  0.10059000  0.67697000  0.23119000  1.0 -0.3577345032
O  O129  1  0.96632000  0.57100000  0.23011000  1.0 -0.2313205499
O  O130  1  0.93215000  0.48691000  0.31788000  1.0 -0.2690286104
O  O131  1  0.95386000  0.60464000  0.41573000  1.0 -0.2313205499
O  O132  1  0.84953000  0.41487000  0.37222000  1.0 -0.2492044129
O  O133  1  0.83997000  0.46161000  0.23850000  1.0 -0.2179993265
O  O134  1  0.80372000  0.32248000  0.23374000  1.0 -0.1835430909
O  O135  1  0.85913000  0.28143000  0.31429000  1.0 -0.2576408643
O  O136  1  0.78067000  0.29733000  0.42535000  1.0 -0.2492044129
O  O137  1  0.83655000  0.18743000  0.36389000  1.0 -0.2492044129
O  O138  1  0.79953000  0.20153000  0.22768000  1.0 -0.3499214847
O  O139  1  0.90640000  0.17504000  0.22475000  1.0 -0.2313205499
O  O140  1  0.98970000  0.20960000  0.31409000  1.0 -0.2690286104
O  O141  1  0.87084000  0.10138000  0.41283000  1.0 -0.2412507391
O  O142  1  0.05900000  0.19038000  0.37028000  1.0 -0.2492044129
O  O143  1  0.01845000  0.15647000  0.23562000  1.0 -0.2313205499
O  O144  1  0.15787000  0.25749000  0.23487000  1.0 -0.206894641
O  O145  1  0.19502000  0.34150000  0.31718000  1.0 -0.2576408643
O  O146  1  0.17538000  0.23132000  0.42641000  1.0 -0.2412507391
O  O147  1  0.19509000  0.30817000  0.99970000  1.0 -0.1835430909
O  O148  1  0.23896000  0.32292000  0.13604000  1.0 -0.3577345032
O  O149  1  0.10449000  0.22219000  0.13566000  1.0 -0.2313205499
O  O150  1  0.02976000  0.23354000  0.05005000  1.0 -0.2780121315
O  O151  1  0.13070000  0.31370000  0.90960000  1.0 -0.4320274093
O  O152  1  0.94105000  0.18255000  0.99267000  1.0 -0.2412507391
O  O153  1  0.96200000  0.14582000  0.12660000  1.0 -0.2780121315
O  O154  1  0.86009000  0.18243000  0.12875000  1.0 -0.1507519925
O  O155  1  0.86746000  0.26926000  0.04882000  1.0 -0.2690286104
O  O156  1  0.83716000  0.17906000  0.92952000  1.0 -0.4320274093
O  O157  1  0.80269000  0.29849000  0.99443000  1.0 -0.290757728
O  O158  1  0.77985000  0.24243000  0.12863000  1.0 -0.3499214847
O  O159  1  0.81144000  0.37640000  0.13495000  1.0 -0.1885708892
O  O160  1  0.88405000  0.45963000  0.05192000  1.0 -0.2690286104
O  O161  1  0.77636000  0.39008000  0.93894000  1.0 -0.3577345032
O  O162  1  0.90609000  0.55149000  0.99970000  1.0 -0.2690286104
O  O163  1  0.86750000  0.51738000  0.13453000  1.0 -0.2690286104
O  O164  1  0.00648000  0.62022000  0.13756000  1.0 -0.1507519925
O  O165  1  0.07255000  0.61511000  0.05578000  1.0 -0.2492044129
O  O166  1  0.00701000  0.66379000  0.94850000  1.0 -0.206894641
O  O167  1  0.15442000  0.66456000  0.99627000  1.0 -0.2780121315
O  O168  1  0.15010000  0.69836000  0.13047000  1.0 -0.3499214847
O  O169  1  0.25169000  0.66449000  0.13257000  1.0 -0.1507519925
O  O170  1  0.24028000  0.58086000  0.05328000  1.0 -0.2780121315
O  O171  1  0.13996000  0.59432000  0.91179000  1.0 -0.420460977
O  O172  1  0.30426000  0.56194000  0.99858000  1.0 -0.290757728
O  O173  1  0.33001000  0.60143000  0.13328000  1.0 -0.2179993265
O  O174  1  0.29967000  0.46333000  0.13633000  1.0 -0.1507519925
O  O175  1  0.22128000  0.39398000  0.05360000  1.0 -0.2780121315
O  O176  1  0.33083000  0.46857000  0.95092000  1.0 -0.1558781613
O  O177  1  0.28643000  0.81715000  0.15625000  1.0 -0.3107876081
O  O178  1  0.27671000  0.93643000  0.19344000  1.0 -0.3894701698
O  O179  1  0.13190000  0.90052000  0.15727000  1.0 -0.3499214847
O  O180  1  0.03781000  0.74631000  0.14718000  1.0 -0.3894701698
O  O181  1  0.18386000  0.85746000  0.40954000  1.0 -0.2313205499
O  O182  1  0.13529000  0.85119000  0.27330000  1.0 -0.4320274093
O  O183  1  0.23014000  0.80898000  0.27625000  1.0 -0.4815359909
O  O184  1  0.33177000  0.87363000  0.35641000  1.0 -0.2492044129
O  O185  1  0.23897000  0.80025000  0.47697000  1.0 -0.1262519482
O  O186  1  0.40692000  0.85040000  0.40014000  1.0 -0.1885708892
O  O187  1  0.35301000  0.83003000  0.26746000  1.0 -0.2576408643
O  O188  1  0.48981000  0.93551000  0.26157000  1.0 -0.2412507391
O  O189  1  0.53623000  0.00909000  0.34894000  1.0 -0.2492044129
O  O190  1  0.53395000  0.87605000  0.43470000  1.0 -0.4320274093
O  O191  1  0.61767000  0.07173000  0.40818000  1.0 -0.2313205499
O  O192  1  0.62784000  0.05408000  0.27130000  1.0 -0.420460977
O  O193  1  0.66702000  0.18846000  0.27699000  1.0 -0.4878871638
O  O194  1  0.60343000  0.21307000  0.35918000  1.0 -0.2492044129
O  O195  1  0.67532000  0.17588000  0.47725000  1.0 -0.1507519925
O  O196  1  0.62422000  0.30238000  0.40688000  1.0 -0.2002572987
O  O197  1  0.65063000  0.29503000  0.27325000  1.0 -0.2690286104
O  O198  1  0.54330000  0.32526000  0.26806000  1.0 -0.2690286104
O  O199  1  0.46690000  0.28186000  0.35372000  1.0 -0.2412507391
O  O200  1  0.59920000  0.40060000  0.44020000  1.0 -0.4423584539
O  O201  1  0.40192000  0.29006000  0.41314000  1.0 -0.2313205499
O  O202  1  0.42373000  0.33999000  0.27689000  1.0 -0.4320274093
O  O203  1  0.28802000  0.24478000  0.28097000  1.0 -0.502672394
O  O204  1  0.26191000  0.14391000  0.36042000  1.0 -0.2492044129
O  O205  1  0.29614000  0.23392000  0.47937000  1.0 -0.1436786998
O  O206  1  0.17136000  0.06924000  0.40602000  1.0 -0.2002572987
O  O207  1  0.18220000  0.12300000  0.27370000  1.0 -0.290757728
O  O208  1  0.14953000  0.98529000  0.26701000  1.0 -0.2780121315
O  O209  1  0.19263000  0.94043000  0.35172000  1.0 -0.2492044129
O  O210  1  0.07240000  0.94180000  0.43760000  1.0 -0.4320274093
O  O211  1  0.12070000  0.20510000  0.93940000  1.0 -0.420460977
O  O212  1  0.45480000  0.92300000  0.49220000  1.0 -0.5571080246
O  O213  1  0.55370000  0.26450000  0.49470000  1.0 -0.5571080246
O  O214  1  0.20690000  0.01970000  0.49340000  1.0 -0.5571080246
