# DDEC6 charges by PACMAN v1.1 (https://github.com/mtap-research/PACMAN-charge/)
data_VUSWAK_FSR_pacman
_symmetry_space_group_name_H-M   'P 1'
_cell_length_a   17.44200000
_cell_length_b   13.89900000
_cell_length_c   36.78500000
_cell_angle_alpha   90.00000000
_cell_angle_beta   103.06600000
_cell_angle_gamma   90.00000000
_symmetry_Int_Tables_number   1
_chemical_formula_structural   K8H104(C36O37)3
_chemical_formula_sum   'K16 H208 C216 O222'
_cell_volume   8686.77814411
_cell_formula_units_Z   2
loop_
 _symmetry_equiv_pos_site_id
 _symmetry_equiv_pos_as_xyz
  1  'x, y, z'
loop_
 _atom_site_type_symbol
 _atom_site_label
 _atom_site_symmetry_multiplicity
 _atom_site_fract_x
 _atom_site_fract_y
 _atom_site_fract_z
 _atom_site_occupancy
 _atom_site_charge
K  K1  1  0.45144000  0.96323000  0.10106000  1.0 0.8473540022
K  K2  1  0.43980000  0.49020000  0.31912000  1.0 0.8473540022
K  K3  1  0.95660000  0.44390000  0.37207000  1.0 0.8201806917
K  K4  1  0.91220000  0.87570000  0.92240000  1.0 0.3000034167
K  K5  1  0.45110000  0.67740000  0.38570000  1.0 -0.0795104617
K  K6  1  0.41330000  0.79560000  0.36030000  1.0 0.8052091374
K  K7  1  0.45590000  0.62300000  0.38800000  1.0 0.1973988338
K  K8  1  0.90850000  0.91890000  0.94150000  1.0 0.3118025734
K  K9  1  0.54856000  0.46323000  0.89894000  1.0 0.8473540022
K  K10  1  0.56020000  0.99020000  0.68088000  1.0 0.8473540022
K  K11  1  0.04340000  0.94390000  0.62793000  1.0 0.8201806917
K  K12  1  0.08780000  0.37570000  0.07760000  1.0 0.3000034167
K  K13  1  0.54890000  0.17740000  0.61430000  1.0 -0.0795104617
K  K14  1  0.58670000  0.29560000  0.63970000  1.0 0.8052091374
K  K15  1  0.54410000  0.12300000  0.61200000  1.0 0.1973988338
K  K16  1  0.09150000  0.41890000  0.05850000  1.0 0.3118025734
H  H1  1  0.53340000  0.19452000  0.22722000  1.0 0.1302558163
H  H2  1  0.52922000  0.33938000  0.26223000  1.0 0.1213606675
H  H3  1  0.56980000  0.22346000  0.32822000  1.0 0.1213606675
H  H4  1  0.67760000  0.35988000  0.30826000  1.0 0.1213606675
H  H5  1  0.69056000  0.15417000  0.30148000  1.0 0.1302558163
H  H6  1  0.54463000  0.75294000  0.25139000  1.0 0.1213606675
H  H7  1  0.44451000  0.86563000  0.23752000  1.0 0.1302558163
H  H8  1  0.52259000  0.96837000  0.30283000  1.0 0.1213606675
H  H9  1  0.50644000  0.03680000  0.22739000  1.0 0.1302558163
H  H10  1  0.65230000  0.96846000  0.27311000  1.0 0.1106130614
H  H11  1  0.70080000  0.96832000  0.21807000  1.0 0.1378910458
H  H12  1  0.67076000  0.07461000  0.22435000  1.0 0.1302558163
H  H13  1  0.76186000  0.56435000  0.38462000  1.0 0.1001977863
H  H14  1  0.63862000  0.54645000  0.34185000  1.0 0.1213606675
H  H15  1  0.60700000  0.73995000  0.36023000  1.0 0.1213606675
H  H16  1  0.62975000  0.67740000  0.28837000  1.0 0.1213606675
H  H17  1  0.73981000  0.79376000  0.34156000  1.0 0.1213606675
H  H18  1  0.74270000  0.81345000  0.27739000  1.0 0.1302558163
H  H19  1  0.75872000  0.70073000  0.27466000  1.0 0.1302558163
H  H20  1  0.89159000  0.78412000  0.52870000  1.0 0.1213606675
H  H21  1  0.79563000  0.66117000  0.51243000  1.0 0.1378910458
H  H22  1  0.71865000  0.78592000  0.45365000  1.0 0.1213606675
H  H23  1  0.79457000  0.60931000  0.44001000  1.0 0.1213606675
H  H24  1  0.85742000  0.79969000  0.43265000  1.0 0.1001977863
H  H25  1  0.97538000  0.71404000  0.42757000  1.0 0.1213606675
H  H26  1  0.90324000  0.69706000  0.39268000  1.0 0.1213606675
H  H27  1  0.89622000  0.22755000  0.50671000  1.0 0.1213606675
H  H28  1  0.86508000  0.11755000  0.55109000  1.0 0.1213606675
H  H29  1  0.76647000  0.02122000  0.48897000  1.0 0.1213606675
H  H30  1  0.91074000  0.93734000  0.53144000  1.0 0.1302558163
H  H31  1  0.88968000  0.01644000  0.45705000  1.0 0.1001977863
H  H32  1  0.02571000  0.99419000  0.46405000  1.0 0.1106130614
H  H33  1  0.98414000  0.89339000  0.46838000  1.0 0.1106130614
H  H34  1  0.74123000  0.41047000  0.35865000  1.0 0.1106130614
H  H35  1  0.74539000  0.42891000  0.42292000  1.0 0.1302558163
H  H36  1  0.70197000  0.22757000  0.42272000  1.0 0.1213606675
H  H37  1  0.84933000  0.30932000  0.45863000  1.0 0.1302558163
H  H38  1  0.82105000  0.18870000  0.39336000  1.0 0.1106130614
H  H39  1  0.94855000  0.21344000  0.38990000  1.0 0.1106130614
H  H40  1  0.95116000  0.17710000  0.43138000  1.0 0.1302558163
H  H41  1  0.36855000  0.61627000  0.04032000  1.0 0.1213606675
H  H42  1  0.30927000  0.73497000  0.07399000  1.0 0.1302558163
H  H43  1  0.33592000  0.86580000  0.01887000  1.0 0.1106130614
H  H44  1  0.18456000  0.80577000  0.03093000  1.0 0.1213606675
H  H45  1  0.24748000  0.75351000  0.96723000  1.0 0.1213606675
H  H46  1  0.62938000  0.68071000  0.94971000  1.0 0.1213606675
H  H47  1  0.62674000  0.67653000  0.01363000  1.0 0.1302558163
H  H48  1  0.49681000  0.80546000  0.99664000  1.0 0.1213606675
H  H49  1  0.47305000  0.61311000  0.01811000  1.0 0.1106130614
H  H50  1  0.42489000  0.67702000  0.94179000  1.0 0.1106130614
H  H51  1  0.35665000  0.54225000  0.95920000  1.0 0.1378910458
H  H52  1  0.43819000  0.48408000  0.96867000  1.0 0.1302558163
H  H53  1  0.56598000  0.95082000  0.81741000  1.0 0.1302558163
H  H54  1  0.66386000  0.88443000  0.86711000  1.0 0.1213606675
H  H55  1  0.56502000  0.94163000  0.91555000  1.0 0.1213606675
H  H56  1  0.60350000  0.75001000  0.89573000  1.0 0.1213606675
H  H57  1  0.45588000  0.85089000  0.87480000  1.0 0.1106130614
H  H58  1  0.40909000  0.71619000  0.83565000  1.0 0.1378910458
H  H59  1  0.42708000  0.68663000  0.87881000  1.0 0.1302558163
H  H60  1  0.32118000  0.27698000  0.80396000  1.0 0.1213606675
H  H61  1  0.46102000  0.26375000  0.81207000  1.0 0.1213606675
H  H62  1  0.45598000  0.14819000  0.87547000  1.0 0.1302558163
H  H63  1  0.50158000  0.08266000  0.80818000  1.0 0.1213606675
H  H64  1  0.35378000  0.02973000  0.82551000  1.0 0.1213606675
H  H65  1  0.09237000  0.25207000  0.90981000  1.0 0.1213606675
H  H66  1  0.19058000  0.36383000  0.90123000  1.0 0.1302558163
H  H67  1  0.29322000  0.19858000  0.91029000  1.0 0.1213606675
H  H68  1  0.24352000  0.30716000  0.84205000  1.0 0.1106130614
H  H69  1  0.19181000  0.11514000  0.85590000  1.0 0.1213606675
H  H70  1  0.08975000  0.89766000  0.00774000  1.0 0.1106130614
H  H71  1  0.06832000  0.06436000  0.00486000  1.0 0.1302558163
H  H72  1  0.21372000  0.08449000  0.98165000  1.0 0.1302558163
H  H73  1  0.06222000  0.12493000  0.93477000  1.0 0.1213606675
H  H74  1  0.15913000  0.96100000  0.92832000  1.0 0.1378910458
H  H75  1  0.30216000  0.10363000  0.11890000  1.0 0.1378910458
H  H76  1  0.30606000  0.01641000  0.19083000  1.0 0.1378910458
H  H77  1  0.14874000  0.00807000  0.17042000  1.0 0.1106130614
H  H78  1  0.03514000  0.98170000  0.12413000  1.0 0.1213606675
H  H79  1  0.08012000  0.88108000  0.13368000  1.0 0.1213606675
H  H80  1  0.23439000  0.42675000  0.23469000  1.0 0.1302558163
H  H81  1  0.27341000  0.22710000  0.24792000  1.0 0.1378910458
H  H82  1  0.18930000  0.30173000  0.17716000  1.0 0.1213606675
H  H83  1  0.11719000  0.18790000  0.22604000  1.0 0.1378910458
H  H84  1  0.18437000  0.30377000  0.39725000  1.0 0.1493973259
H  H85  1  0.21932000  0.17418000  0.34386000  1.0 0.1213606675
H  H86  1  0.14512000  0.35758000  0.32719000  1.0 0.1213606675
H  H87  1  0.06900000  0.17268000  0.31113000  1.0 0.1106130614
H  H88  1  0.00436000  0.28417000  0.26924000  1.0 0.1106130614
H  H89  1  0.95041000  0.26074000  0.29818000  1.0 0.1302558163
H  H90  1  0.13095000  0.86304000  0.44102000  1.0 0.1378910458
H  H91  1  0.19821000  0.95224000  0.38494000  1.0 0.1213606675
H  H92  1  0.06692000  0.03342000  0.41024000  1.0 0.1106130614
H  H93  1  0.04668000  0.94606000  0.33735000  1.0 0.1213606675
H  H94  1  0.95562000  0.07020000  0.34987000  1.0 0.1213606675
H  H95  1  0.92915000  0.99543000  0.37772000  1.0 0.1213606675
H  H96  1  0.25106000  0.56699000  0.33678000  1.0 0.1493973259
H  H97  1  0.13987000  0.65764000  0.36260000  1.0 0.1378910458
H  H98  1  0.08652000  0.74045000  0.28827000  1.0 0.1378910458
H  H99  1  0.31231000  0.65543000  0.17704000  1.0 0.1493973259
H  H100  1  0.29607000  0.79560000  0.23067000  1.0 0.1302558163
H  H101  1  0.22233000  0.60927000  0.21999000  1.0 0.1213606675
H  H102  1  0.14307000  0.78755000  0.20255000  1.0 0.1106130614
H  H103  1  0.03609000  0.68504000  0.16992000  1.0 0.1378910458
H  H104  1  0.05322000  0.67499000  0.21433000  1.0 0.1213606675
H  H105  1  0.46660000  0.69452000  0.77278000  1.0 0.1302558163
H  H106  1  0.47078000  0.83938000  0.73777000  1.0 0.1213606675
H  H107  1  0.43020000  0.72346000  0.67178000  1.0 0.1213606675
H  H108  1  0.32240000  0.85988000  0.69174000  1.0 0.1213606675
H  H109  1  0.30944000  0.65417000  0.69852000  1.0 0.1302558163
H  H110  1  0.45537000  0.25294000  0.74861000  1.0 0.1213606675
H  H111  1  0.55549000  0.36563000  0.76248000  1.0 0.1302558163
H  H112  1  0.47741000  0.46837000  0.69717000  1.0 0.1213606675
H  H113  1  0.49356000  0.53680000  0.77261000  1.0 0.1302558163
H  H114  1  0.34770000  0.46846000  0.72689000  1.0 0.1106130614
H  H115  1  0.29920000  0.46832000  0.78193000  1.0 0.1378910458
H  H116  1  0.32924000  0.57461000  0.77565000  1.0 0.1302558163
H  H117  1  0.23814000  0.06435000  0.61538000  1.0 0.1001977863
H  H118  1  0.36138000  0.04645000  0.65815000  1.0 0.1213606675
H  H119  1  0.39300000  0.23995000  0.63977000  1.0 0.1213606675
H  H120  1  0.37025000  0.17740000  0.71163000  1.0 0.1213606675
H  H121  1  0.26019000  0.29376000  0.65844000  1.0 0.1213606675
H  H122  1  0.25730000  0.31345000  0.72261000  1.0 0.1302558163
H  H123  1  0.24128000  0.20073000  0.72534000  1.0 0.1302558163
H  H124  1  0.10841000  0.28412000  0.47130000  1.0 0.1213606675
H  H125  1  0.20437000  0.16117000  0.48757000  1.0 0.1378910458
H  H126  1  0.28135000  0.28592000  0.54635000  1.0 0.1213606675
H  H127  1  0.20543000  0.10931000  0.55999000  1.0 0.1213606675
H  H128  1  0.14258000  0.29969000  0.56735000  1.0 0.1001977863
H  H129  1  0.02462000  0.21404000  0.57243000  1.0 0.1213606675
H  H130  1  0.09676000  0.19706000  0.60732000  1.0 0.1213606675
H  H131  1  0.10378000  0.72755000  0.49329000  1.0 0.1213606675
H  H132  1  0.13492000  0.61755000  0.44891000  1.0 0.1213606675
H  H133  1  0.23353000  0.52122000  0.51103000  1.0 0.1213606675
H  H134  1  0.08926000  0.43734000  0.46856000  1.0 0.1302558163
H  H135  1  0.11032000  0.51644000  0.54295000  1.0 0.1001977863
H  H136  1  0.97429000  0.49419000  0.53595000  1.0 0.1106130614
H  H137  1  0.01586000  0.39339000  0.53162000  1.0 0.1106130614
H  H138  1  0.25877000  0.91047000  0.64135000  1.0 0.1106130614
H  H139  1  0.25461000  0.92891000  0.57708000  1.0 0.1302558163
H  H140  1  0.29803000  0.72757000  0.57728000  1.0 0.1213606675
H  H141  1  0.15067000  0.80932000  0.54137000  1.0 0.1302558163
H  H142  1  0.17895000  0.68870000  0.60664000  1.0 0.1106130614
H  H143  1  0.05145000  0.71344000  0.61010000  1.0 0.1106130614
H  H144  1  0.04884000  0.67710000  0.56862000  1.0 0.1302558163
H  H145  1  0.63145000  0.11627000  0.95968000  1.0 0.1213606675
H  H146  1  0.69073000  0.23497000  0.92601000  1.0 0.1302558163
H  H147  1  0.66408000  0.36580000  0.98113000  1.0 0.1106130614
H  H148  1  0.81544000  0.30577000  0.96907000  1.0 0.1213606675
H  H149  1  0.75252000  0.25351000  0.03277000  1.0 0.1213606675
H  H150  1  0.37062000  0.18071000  0.05029000  1.0 0.1213606675
H  H151  1  0.37326000  0.17653000  0.98637000  1.0 0.1302558163
H  H152  1  0.50319000  0.30546000  0.00336000  1.0 0.1213606675
H  H153  1  0.52695000  0.11311000  0.98189000  1.0 0.1106130614
H  H154  1  0.57511000  0.17702000  0.05821000  1.0 0.1106130614
H  H155  1  0.64335000  0.04225000  0.04080000  1.0 0.1378910458
H  H156  1  0.56181000  0.98408000  0.03133000  1.0 0.1302558163
H  H157  1  0.43402000  0.45082000  0.18259000  1.0 0.1302558163
H  H158  1  0.33614000  0.38443000  0.13289000  1.0 0.1213606675
H  H159  1  0.43498000  0.44163000  0.08445000  1.0 0.1213606675
H  H160  1  0.39650000  0.25001000  0.10427000  1.0 0.1213606675
H  H161  1  0.54412000  0.35089000  0.12520000  1.0 0.1106130614
H  H162  1  0.59091000  0.21619000  0.16435000  1.0 0.1378910458
H  H163  1  0.57292000  0.18663000  0.12119000  1.0 0.1302558163
H  H164  1  0.67882000  0.77698000  0.19604000  1.0 0.1213606675
H  H165  1  0.53898000  0.76375000  0.18793000  1.0 0.1213606675
H  H166  1  0.54402000  0.64819000  0.12453000  1.0 0.1302558163
H  H167  1  0.49842000  0.58266000  0.19182000  1.0 0.1213606675
H  H168  1  0.64622000  0.52973000  0.17449000  1.0 0.1213606675
H  H169  1  0.90763000  0.75207000  0.09019000  1.0 0.1213606675
H  H170  1  0.80942000  0.86383000  0.09877000  1.0 0.1302558163
H  H171  1  0.70678000  0.69858000  0.08971000  1.0 0.1213606675
H  H172  1  0.75648000  0.80716000  0.15795000  1.0 0.1106130614
H  H173  1  0.80819000  0.61514000  0.14410000  1.0 0.1213606675
H  H174  1  0.91025000  0.39766000  0.99226000  1.0 0.1106130614
H  H175  1  0.93168000  0.56436000  0.99514000  1.0 0.1302558163
H  H176  1  0.78628000  0.58449000  0.01835000  1.0 0.1302558163
H  H177  1  0.93778000  0.62493000  0.06523000  1.0 0.1213606675
H  H178  1  0.84087000  0.46100000  0.07168000  1.0 0.1378910458
H  H179  1  0.69784000  0.60363000  0.88110000  1.0 0.1378910458
H  H180  1  0.69394000  0.51641000  0.80917000  1.0 0.1378910458
H  H181  1  0.85126000  0.50807000  0.82958000  1.0 0.1106130614
H  H182  1  0.96486000  0.48170000  0.87587000  1.0 0.1213606675
H  H183  1  0.91988000  0.38108000  0.86632000  1.0 0.1213606675
H  H184  1  0.76561000  0.92675000  0.76531000  1.0 0.1302558163
H  H185  1  0.72659000  0.72710000  0.75208000  1.0 0.1378910458
H  H186  1  0.81070000  0.80173000  0.82284000  1.0 0.1213606675
H  H187  1  0.88281000  0.68790000  0.77396000  1.0 0.1378910458
H  H188  1  0.81563000  0.80377000  0.60275000  1.0 0.1493973259
H  H189  1  0.78068000  0.67418000  0.65614000  1.0 0.1213606675
H  H190  1  0.85488000  0.85758000  0.67281000  1.0 0.1213606675
H  H191  1  0.93100000  0.67268000  0.68887000  1.0 0.1106130614
H  H192  1  0.99564000  0.78417000  0.73076000  1.0 0.1106130614
H  H193  1  0.04959000  0.76074000  0.70182000  1.0 0.1302558163
H  H194  1  0.86905000  0.36304000  0.55898000  1.0 0.1378910458
H  H195  1  0.80179000  0.45224000  0.61506000  1.0 0.1213606675
H  H196  1  0.93308000  0.53342000  0.58976000  1.0 0.1106130614
H  H197  1  0.95332000  0.44606000  0.66265000  1.0 0.1213606675
H  H198  1  0.04438000  0.57020000  0.65013000  1.0 0.1213606675
H  H199  1  0.07085000  0.49543000  0.62228000  1.0 0.1213606675
H  H200  1  0.74894000  0.06699000  0.66322000  1.0 0.1493973259
H  H201  1  0.86013000  0.15764000  0.63740000  1.0 0.1378910458
H  H202  1  0.91348000  0.24045000  0.71173000  1.0 0.1378910458
H  H203  1  0.68769000  0.15543000  0.82296000  1.0 0.1493973259
H  H204  1  0.70393000  0.29560000  0.76933000  1.0 0.1302558163
H  H205  1  0.77767000  0.10927000  0.78001000  1.0 0.1213606675
H  H206  1  0.85693000  0.28755000  0.79745000  1.0 0.1106130614
H  H207  1  0.96391000  0.18504000  0.83008000  1.0 0.1378910458
H  H208  1  0.94678000  0.17499000  0.78567000  1.0 0.1213606675
C  C1  1  0.56510000  0.19950000  0.25350000  1.0 0.2582975327
C  C2  1  0.52930000  0.27570000  0.27490000  1.0 0.028944943
C  C3  1  0.57780000  0.28340000  0.31450000  1.0 0.0893407177
C  C4  1  0.66580000  0.29330000  0.31580000  1.0 0.0701264049
C  C5  1  0.69250000  0.22000000  0.29080000  1.0 -0.0023320204
C  C6  1  0.78010000  0.24140000  0.28550000  1.0 0.559787996
C  C7  1  0.55520000  0.82000000  0.26110000  1.0 0.2283350004
C  C8  1  0.47910000  0.86510000  0.26320000  1.0 0.028944943
C  C9  1  0.49240000  0.96830000  0.27630000  1.0 0.0793128311
C  C10  1  0.54030000  0.02270000  0.25260000  1.0 0.0506917876
C  C11  1  0.61340000  0.96890000  0.24850000  1.0 0.1001977863
C  C12  1  0.65350000  0.00750000  0.21830000  1.0 -0.0692794535
C  C13  1  0.73340000  0.62270000  0.37260000  1.0 0.2393889798
C  C14  1  0.64590000  0.60070000  0.36020000  1.0 0.0386510559
C  C15  1  0.60370000  0.68750000  0.34130000  1.0 0.1001977863
C  C16  1  0.64040000  0.72400000  0.30960000  1.0 0.0386510559
C  C17  1  0.72940000  0.73880000  0.32360000  1.0 0.0893407177
C  C18  1  0.76800000  0.75700000  0.29160000  1.0 -0.0517905654
C  C19  1  0.86010000  0.77910000  0.50240000  1.0 0.2500280556
C  C20  1  0.78370000  0.72730000  0.50200000  1.0 0.028944943
C  C21  1  0.73660000  0.71980000  0.46230000  1.0 0.0793128311
C  C22  1  0.78630000  0.68010000  0.43600000  1.0 0.0506917876
C  C23  1  0.86670000  0.73150000  0.44120000  1.0 0.1106130614
C  C24  1  0.92280000  0.68400000  0.41970000  1.0 -0.0517905654
C  C25  1  0.87790000  0.16140000  0.49820000  1.0 0.2500280556
C  C26  1  0.83060000  0.11940000  0.52540000  1.0 0.0193289074
C  C27  1  0.80690000  0.01800000  0.51300000  1.0 0.0617527339
C  C28  1  0.87590000  0.95590000  0.50690000  1.0 0.0617527339
C  C29  1  0.92340000  0.00950000  0.48280000  1.0 0.1106130614
C  C30  1  0.99790000  0.95710000  0.48010000  1.0 -0.0517905654
C  C31  1  0.74860000  0.35160000  0.37470000  1.0 0.2500280556
C  C32  1  0.71600000  0.37280000  0.40950000  1.0 0.028944943
C  C33  1  0.73390000  0.28330000  0.43500000  1.0 0.0701264049
C  C34  1  0.81790000  0.25830000  0.44270000  1.0 0.0506917876
C  C35  1  0.84810000  0.24540000  0.40740000  1.0 0.1106130614
C  C36  1  0.93550000  0.23140000  0.41380000  1.0 -0.0692794535
C  C37  1  0.34260000  0.67490000  0.02730000  1.0 0.2500280556
C  C38  1  0.34120000  0.75700000  0.05620000  1.0 0.028944943
C  C39  1  0.30350000  0.84330000  0.03650000  1.0 0.0793128311
C  C40  1  0.22000000  0.82000000  0.01370000  1.0 0.0701264049
C  C41  1  0.22170000  0.73430000  0.98780000  1.0 -0.0344403176
C  C42  1  0.13900000  0.69800000  0.97150000  1.0 0.5413953238
C  C43  1  0.57900000  0.69500000  0.95730000  1.0 0.2500280556
C  C44  1  0.59620000  0.72770000  0.99750000  1.0 0.028944943
C  C45  1  0.52060000  0.74530000  0.00920000  1.0 0.0793128311
C  C46  1  0.45990000  0.66680000  0.99960000  1.0 0.0386510559
C  C47  1  0.45260000  0.62790000  0.95990000  1.0 0.0893407177
C  C48  1  0.40860000  0.53540000  0.95280000  1.0 -0.0692794535
C  C49  1  0.55160000  0.92930000  0.84090000  1.0 0.2393889798
C  C50  1  0.62440000  0.93010000  0.87340000  1.0 0.0099920553
C  C51  1  0.60400000  0.89580000  0.90900000  1.0 0.0701264049
C  C52  1  0.56490000  0.79820000  0.90110000  1.0 0.0386510559
C  C53  1  0.49410000  0.80330000  0.86870000  1.0 0.1001977863
C  C54  1  0.45160000  0.70720000  0.85830000  1.0 -0.0581605496
C  C55  1  0.35030000  0.21960000  0.81640000  1.0 0.2393889798
C  C56  1  0.43570000  0.24720000  0.83310000  1.0 0.0386510559
C  C57  1  0.47910000  0.16360000  0.85360000  1.0 0.0793128311
C  C58  1  0.46880000  0.07460000  0.82700000  1.0 0.0506917876
C  C59  1  0.38360000  0.05600000  0.80750000  1.0 -0.0112186152
C  C60  1  0.37760000  0.98660000  0.77400000  1.0 0.5413953238
C  C61  1  0.13880000  0.22880000  0.90060000  1.0 0.2500280556
C  C62  1  0.20660000  0.29970000  0.91280000  1.0 0.0386510559
C  C63  1  0.27530000  0.26100000  0.89770000  1.0 0.0617527339
C  C64  1  0.25190000  0.24460000  0.85580000  1.0 0.0701264049
C  C65  1  0.17910000  0.18100000  0.84520000  1.0 -0.0187135371
C  C66  1  0.14790000  0.17370000  0.80370000  1.0 0.5413953238
C  C67  1  0.11550000  0.93810000  0.99140000  1.0 0.2500280556
C  C68  1  0.12210000  0.04010000  0.00440000  1.0 0.028944943
C  C69  1  0.15820000  0.10590000  0.97950000  1.0 0.0701264049
C  C70  1  0.11520000  0.09380000  0.93900000  1.0 0.0701264049
C  C71  1  0.10580000  0.98860000  0.92740000  1.0 -0.0187135371
C  C72  1  0.05540000  0.97330000  0.88920000  1.0 0.4958238079
C  C73  1  0.21950000  0.15470000  0.14720000  1.0 0.379358746
C  C74  1  0.29780000  0.10910000  0.14550000  1.0 -0.0023320204
C  C75  1  0.30380000  0.00840000  0.16360000  1.0 0.0617527339
C  C76  1  0.23260000  0.94750000  0.14670000  1.0 0.2722368611
C  C77  1  0.15550000  0.99840000  0.14440000  1.0 0.0617527339
C  C78  1  0.08320000  0.94550000  0.12260000  1.0 -0.0410656669
C  C79  1  0.15960000  0.35180000  0.26020000  1.0 0.3328928425
C  C80  1  0.23920000  0.36950000  0.25150000  1.0 0.0193289074
C  C81  1  0.26160000  0.28260000  0.23020000  1.0 0.0793128311
C  C82  1  0.19440000  0.25320000  0.19770000  1.0 0.0617527339
C  C83  1  0.11620000  0.24500000  0.20940000  1.0 -0.0112186152
C  C84  1  0.04770000  0.23450000  0.17380000  1.0 0.1619624047
C  C85  1  0.10780000  0.18640000  0.38330000  1.0 0.3225798829
C  C86  1  0.18910000  0.23660000  0.38830000  1.0 -0.0112186152
C  C87  1  0.21080000  0.24130000  0.35190000  1.0 0.0617527339
C  C88  1  0.14820000  0.28730000  0.32190000  1.0 0.0506917876
C  C89  1  0.06730000  0.24040000  0.32010000  1.0 0.1106130614
C  C90  1  0.00060000  0.29010000  0.29560000  1.0 -0.0581605496
C  C91  1  0.09130000  0.80760000  0.38650000  1.0 0.3118025734
C  C92  1  0.15330000  0.85750000  0.41840000  1.0 0.0099920553
C  C93  1  0.16830000  0.95790000  0.40510000  1.0 0.0893407177
C  C94  1  0.09040000  0.01100000  0.38930000  1.0 0.0506917876
C  C95  1  0.02970000  0.95290000  0.36140000  1.0 0.0893407177
C  C96  1  0.94950000  0.00090000  0.35480000  1.0 -0.0517905654
C  C97  1  0.19780000  0.61230000  0.28320000  1.0 0.3649834766
C  C98  1  0.25520000  0.62490000  0.32120000  1.0 -0.0410656669
C  C99  1  0.23170000  0.71160000  0.34040000  1.0 0.3118025734
C  C100  1  0.14630000  0.70680000  0.34360000  1.0 0.0193289074
C  C101  1  0.09190000  0.68310000  0.30510000  1.0 -0.0023320204
C  C102  1  0.01190000  0.65320000  0.31120000  1.0 0.184551306
C  C103  1  0.23990000  0.77110000  0.15840000  1.0 0.4288217002
C  C104  1  0.30870000  0.72400000  0.18470000  1.0 -0.0187135371
C  C105  1  0.29840000  0.72660000  0.22330000  1.0 0.0701264049
C  C106  1  0.21870000  0.68000000  0.22440000  1.0 0.0386510559
C  C107  1  0.15250000  0.71960000  0.19580000  1.0 0.0893407177
C  C108  1  0.07490000  0.66200000  0.19220000  1.0 -0.0112186152
C  C109  1  0.43490000  0.69950000  0.74650000  1.0 0.2582975327
C  C110  1  0.47070000  0.77570000  0.72510000  1.0 0.028944943
C  C111  1  0.42220000  0.78340000  0.68550000  1.0 0.0893407177
C  C112  1  0.33420000  0.79330000  0.68420000  1.0 0.0701264049
C  C113  1  0.30750000  0.72000000  0.70920000  1.0 -0.0023320204
C  C114  1  0.21990000  0.74140000  0.71450000  1.0 0.559787996
C  C115  1  0.44480000  0.32000000  0.73890000  1.0 0.2283350004
C  C116  1  0.52090000  0.36510000  0.73680000  1.0 0.028944943
C  C117  1  0.50760000  0.46830000  0.72370000  1.0 0.0793128311
C  C118  1  0.45970000  0.52270000  0.74740000  1.0 0.0506917876
C  C119  1  0.38660000  0.46890000  0.75150000  1.0 0.1001977863
C  C120  1  0.34650000  0.50750000  0.78170000  1.0 -0.0692794535
C  C121  1  0.26660000  0.12270000  0.62740000  1.0 0.2393889798
C  C122  1  0.35410000  0.10070000  0.63980000  1.0 0.0386510559
C  C123  1  0.39630000  0.18750000  0.65870000  1.0 0.1001977863
C  C124  1  0.35960000  0.22400000  0.69040000  1.0 0.0386510559
C  C125  1  0.27060000  0.23880000  0.67640000  1.0 0.0893407177
C  C126  1  0.23200000  0.25700000  0.70840000  1.0 -0.0517905654
C  C127  1  0.13990000  0.27910000  0.49760000  1.0 0.2500280556
C  C128  1  0.21630000  0.22730000  0.49800000  1.0 0.028944943
C  C129  1  0.26340000  0.21980000  0.53770000  1.0 0.0793128311
C  C130  1  0.21370000  0.18010000  0.56400000  1.0 0.0506917876
C  C131  1  0.13330000  0.23150000  0.55880000  1.0 0.1106130614
C  C132  1  0.07720000  0.18400000  0.58030000  1.0 -0.0517905654
C  C133  1  0.12210000  0.66140000  0.50180000  1.0 0.2500280556
C  C134  1  0.16940000  0.61940000  0.47460000  1.0 0.0193289074
C  C135  1  0.19310000  0.51800000  0.48700000  1.0 0.0617527339
C  C136  1  0.12410000  0.45590000  0.49310000  1.0 0.0617527339
C  C137  1  0.07660000  0.50950000  0.51720000  1.0 0.1106130614
C  C138  1  0.00210000  0.45710000  0.51990000  1.0 -0.0517905654
C  C139  1  0.25140000  0.85160000  0.62530000  1.0 0.2500280556
C  C140  1  0.28400000  0.87280000  0.59050000  1.0 0.028944943
C  C141  1  0.26610000  0.78330000  0.56500000  1.0 0.0701264049
C  C142  1  0.18210000  0.75830000  0.55730000  1.0 0.0506917876
C  C143  1  0.15190000  0.74540000  0.59260000  1.0 0.1106130614
C  C144  1  0.06450000  0.73140000  0.58620000  1.0 -0.0692794535
C  C145  1  0.65740000  0.17490000  0.97270000  1.0 0.2500280556
C  C146  1  0.65880000  0.25700000  0.94380000  1.0 0.028944943
C  C147  1  0.69650000  0.34330000  0.96350000  1.0 0.0793128311
C  C148  1  0.78000000  0.32000000  0.98630000  1.0 0.0701264049
C  C149  1  0.77830000  0.23430000  0.01220000  1.0 -0.0344403176
C  C150  1  0.86100000  0.19800000  0.02850000  1.0 0.5413953238
C  C151  1  0.42100000  0.19500000  0.04270000  1.0 0.2500280556
C  C152  1  0.40380000  0.22770000  0.00250000  1.0 0.028944943
C  C153  1  0.47940000  0.24530000  0.99080000  1.0 0.0793128311
C  C154  1  0.54010000  0.16680000  0.00040000  1.0 0.0386510559
C  C155  1  0.54740000  0.12790000  0.04010000  1.0 0.0893407177
C  C156  1  0.59140000  0.03540000  0.04720000  1.0 -0.0692794535
C  C157  1  0.44840000  0.42930000  0.15910000  1.0 0.2393889798
C  C158  1  0.37560000  0.43010000  0.12660000  1.0 0.0099920553
C  C159  1  0.39600000  0.39580000  0.09100000  1.0 0.0701264049
C  C160  1  0.43510000  0.29820000  0.09890000  1.0 0.0386510559
C  C161  1  0.50590000  0.30330000  0.13130000  1.0 0.1001977863
C  C162  1  0.54840000  0.20720000  0.14170000  1.0 -0.0581605496
C  C163  1  0.64970000  0.71960000  0.18360000  1.0 0.2393889798
C  C164  1  0.56430000  0.74720000  0.16690000  1.0 0.0386510559
C  C165  1  0.52090000  0.66360000  0.14640000  1.0 0.0793128311
C  C166  1  0.53120000  0.57460000  0.17300000  1.0 0.0506917876
C  C167  1  0.61640000  0.55600000  0.19250000  1.0 -0.0112186152
C  C168  1  0.62240000  0.48660000  0.22600000  1.0 0.5413953238
C  C169  1  0.86120000  0.72880000  0.09940000  1.0 0.2500280556
C  C170  1  0.79340000  0.79970000  0.08720000  1.0 0.0386510559
C  C171  1  0.72470000  0.76100000  0.10230000  1.0 0.0617527339
C  C172  1  0.74810000  0.74460000  0.14420000  1.0 0.0701264049
C  C173  1  0.82090000  0.68100000  0.15480000  1.0 -0.0187135371
C  C174  1  0.85210000  0.67370000  0.19630000  1.0 0.5413953238
C  C175  1  0.88450000  0.43810000  0.00860000  1.0 0.2500280556
C  C176  1  0.87790000  0.54010000  0.99560000  1.0 0.028944943
C  C177  1  0.84180000  0.60590000  0.02050000  1.0 0.0701264049
C  C178  1  0.88480000  0.59380000  0.06100000  1.0 0.0701264049
C  C179  1  0.89420000  0.48860000  0.07260000  1.0 -0.0187135371
C  C180  1  0.94460000  0.47330000  0.11080000  1.0 0.4958238079
C  C181  1  0.78050000  0.65470000  0.85280000  1.0 0.379358746
C  C182  1  0.70220000  0.60910000  0.85450000  1.0 -0.0023320204
C  C183  1  0.69620000  0.50840000  0.83640000  1.0 0.0617527339
C  C184  1  0.76740000  0.44750000  0.85330000  1.0 0.2722368611
C  C185  1  0.84450000  0.49840000  0.85560000  1.0 0.0617527339
C  C186  1  0.91680000  0.44550000  0.87740000  1.0 -0.0410656669
C  C187  1  0.84040000  0.85180000  0.73980000  1.0 0.3328928425
C  C188  1  0.76080000  0.86950000  0.74850000  1.0 0.0193289074
C  C189  1  0.73840000  0.78260000  0.76980000  1.0 0.0793128311
C  C190  1  0.80560000  0.75320000  0.80230000  1.0 0.0617527339
C  C191  1  0.88380000  0.74500000  0.79060000  1.0 -0.0112186152
C  C192  1  0.95230000  0.73450000  0.82620000  1.0 0.1619624047
C  C193  1  0.89220000  0.68640000  0.61670000  1.0 0.3225798829
C  C194  1  0.81090000  0.73660000  0.61170000  1.0 -0.0112186152
C  C195  1  0.78920000  0.74130000  0.64810000  1.0 0.0617527339
C  C196  1  0.85180000  0.78730000  0.67810000  1.0 0.0506917876
C  C197  1  0.93270000  0.74040000  0.67990000  1.0 0.1106130614
C  C198  1  0.99940000  0.79010000  0.70440000  1.0 -0.0581605496
C  C199  1  0.90870000  0.30760000  0.61350000  1.0 0.3118025734
C  C200  1  0.84670000  0.35750000  0.58160000  1.0 0.0099920553
C  C201  1  0.83170000  0.45790000  0.59490000  1.0 0.0893407177
C  C202  1  0.90960000  0.51100000  0.61070000  1.0 0.0506917876
C  C203  1  0.97030000  0.45290000  0.63860000  1.0 0.0893407177
C  C204  1  0.05050000  0.50090000  0.64520000  1.0 -0.0517905654
C  C205  1  0.80220000  0.11230000  0.71680000  1.0 0.3673044218
C  C206  1  0.74480000  0.12490000  0.67880000  1.0 -0.0410656669
C  C207  1  0.76830000  0.21160000  0.65960000  1.0 0.3118025734
C  C208  1  0.85370000  0.20680000  0.65640000  1.0 0.0193289074
C  C209  1  0.90810000  0.18310000  0.69490000  1.0 -0.0023320204
C  C210  1  0.98810000  0.15320000  0.68880000  1.0 0.1870570554
C  C211  1  0.76010000  0.27110000  0.84160000  1.0 0.4288217002
C  C212  1  0.69130000  0.22400000  0.81530000  1.0 -0.0187135371
C  C213  1  0.70160000  0.22660000  0.77670000  1.0 0.0701264049
C  C214  1  0.78130000  0.18000000  0.77560000  1.0 0.0386510559
C  C215  1  0.84750000  0.21960000  0.80420000  1.0 0.0893407177
C  C216  1  0.92510000  0.16200000  0.80780000  1.0 -0.0112186152
O  O1  1  0.64290000  0.22320000  0.25360000  1.0 -0.2199968485
O  O2  1  0.45080000  0.25100000  0.27620000  1.0 -0.2517472906
O  O3  1  0.55220000  0.36200000  0.33260000  1.0 -0.4718245046
O  O4  1  0.70670000  0.27510000  0.35360000  1.0 -0.2608444319
O  O5  1  0.78490000  0.34110000  0.27070000  1.0 -0.3207049098
O  O6  1  0.59420000  0.87140000  0.23680000  1.0 -0.2885446833
O  O7  1  0.44110000  0.81070000  0.28640000  1.0 -0.2199968485
O  O8  1  0.41880000  0.01550000  0.27410000  1.0 -0.3491169365
O  O9  1  0.56230000  0.11100000  0.27260000  1.0 -0.2608444319
O  O10  1  0.60100000  0.00460000  0.18180000  1.0 -0.2408286394
O  O11  1  0.76490000  0.65110000  0.34160000  1.0 -0.2199968485
O  O12  1  0.61470000  0.57330000  0.39070000  1.0 -0.3404769675
O  O13  1  0.52210000  0.66510000  0.32640000  1.0 -0.414334111
O  O14  1  0.60460000  0.81530000  0.29785000  1.0 -0.2517472906
O  O15  1  0.85030000  0.77380000  0.30280000  1.0 -0.3035938269
O  O16  1  0.90510000  0.73120000  0.48030000  1.0 -0.2517472906
O  O17  1  0.74090000  0.77800000  0.52430000  1.0 -0.2517472906
O  O18  1  0.66960000  0.66210000  0.45970000  1.0 -0.3404769675
O  O19  1  0.74300000  0.69800000  0.39866000  1.0 -0.2608444319
O  O20  1  0.93050000  0.58310000  0.42510000  1.0 -0.3863883839
O  O21  1  0.94460000  0.10300000  0.49740000  1.0 -0.2199968485
O  O22  1  0.76400000  0.17790000  0.52560000  1.0 -0.2706075925
O  O23  1  0.77200000  0.97200000  0.54050000  1.0 -0.3084192501
O  O24  1  0.83990000  0.87360000  0.48790000  1.0 -0.2706075925
O  O25  1  0.04790000  0.94460000  0.51550000  1.0 -0.2821455773
O  O26  1  0.83050000  0.32960000  0.38420000  1.0 -0.2885446833
O  O27  1  0.63580000  0.39590000  0.39990000  1.0 -0.2408286394
O  O28  1  0.70980000  0.30790000  0.46930000  1.0 -0.3270459102
O  O29  1  0.82740000  0.16730000  0.46270000  1.0 -0.2706075925
O  O30  1  0.98030000  0.31380000  0.42840000  1.0 -0.414334111
O  O31  1  0.26460000  0.65360000  0.00880000  1.0 -0.1837037728
O  O32  1  0.41910000  0.77740000  0.07670000  1.0 -0.3084192501
O  O33  1  0.30090000  0.91910000  0.06290000  1.0 -0.4528301285
O  O34  1  0.19340000  0.90370000  0.99220000  1.0 -0.2408286394
O  O35  1  0.13220000  0.63530000  0.93990000  1.0 -0.4799290524
O  O36  1  0.53010000  0.61040000  0.95260000  1.0 -0.3404769675
O  O37  1  0.64160000  0.81200000  0.00070000  1.0 -0.2517472906
O  O38  1  0.53810000  0.76230000  0.04860000  1.0 -0.3404769675
O  O39  1  0.38330000  0.70640000  0.00037000  1.0 -0.2821455773
O  O40  1  0.39800000  0.51010000  0.91450000  1.0 -0.3207049098
O  O41  1  0.51920000  0.83560000  0.83630000  1.0 -0.2408286394
O  O42  1  0.65950000  0.02620000  0.87740000  1.0 -0.2885446833
O  O43  1  0.67120000  0.89350000  0.93890000  1.0 -0.2517472906
O  O44  1  0.53790000  0.76970000  0.93462000  1.0 -0.2706075925
O  O45  1  0.50390000  0.63360000  0.85150000  1.0 -0.3035938269
O  O46  1  0.34620000  0.14480000  0.79009000  1.0 -0.2517472906
O  O47  1  0.43820000  0.33070000  0.85590000  1.0 -0.2408286394
O  O48  1  0.56080000  0.18080000  0.86663000  1.0 -0.2408286394
O  O49  1  0.49650000  0.99470000  0.85080000  1.0 -0.2885446833
O  O50  1  0.41800000  0.02200000  0.74560000  1.0 -0.5613055752
O  O51  1  0.11730000  0.22300000  0.86060000  1.0 -0.2408286394
O  O52  1  0.22700000  0.31010000  0.95132000  1.0 -0.2706075925
O  O53  1  0.34100000  0.32890000  0.90500000  1.0 -0.1882746072
O  O54  1  0.31750000  0.19040000  0.84637000  1.0 -0.2608444319
O  O55  1  0.08270000  0.11600000  0.79460000  1.0 -0.4936283158
O  O56  1  0.07030000  0.93640000  0.95330000  1.0 -0.3207049098
O  O57  1  0.17170000  0.04540000  0.04240000  1.0 -0.2084230533
O  O58  1  0.16070000  0.20290000  0.99150000  1.0 -0.3084192501
O  O59  1  0.16050000  0.13830000  0.91580000  1.0 -0.2608444319
O  O60  1  0.97850000  0.00200000  0.88460000  1.0 -0.3976394014
O  O61  1  0.41600000  0.50650000  0.24250000  1.0 -0.1713473128
O  O62  1  0.79020000  0.76450000  0.93060000  1.0 -0.0878868477
O  O63  1  0.33680000  0.57650000  0.42610000  1.0 0.4288217002
O  O64  1  0.83500000  0.49380000  0.31520000  1.0 -0.2408286394
O  O65  1  0.11980000  0.49340000  0.38540000  1.0 -0.3491169365
O  O66  1  0.80660000  0.97070000  0.85530000  1.0 0.0617527339
O  O67  1  0.80620000  0.02820000  0.94440000  1.0 -0.0517905654
O  O68  1  0.96590000  0.78180000  0.99400000  1.0 -0.1264709161
O  O69  1  0.00100000  0.78500000  0.03070000  1.0 -0.0410656669
O  O70  1  0.29750000  0.92300000  0.30470000  1.0 0.0506917876
O  O71  1  0.22700000  0.96700000  0.27210000  1.0 -0.2003457846
O  O72  1  0.41300000  0.46300000  0.38560000  1.0 -0.3777939704
O  O73  1  0.15590000  0.09120000  0.12760000  1.0 -0.2199968485
O  O74  1  0.35580000  0.17360000  0.16500000  1.0 -0.2885446833
O  O75  1  0.37550000  0.96480000  0.15950000  1.0 -0.3633835242
O  O76  1  0.23460000  0.86660000  0.17070000  1.0 -0.3084192501
O  O77  1  0.08730000  0.93530000  0.08380000  1.0 -0.2821455773
O  O78  1  0.10090000  0.33110000  0.22840000  1.0 -0.2084230533
O  O79  1  0.29710000  0.39030000  0.28410000  1.0 -0.3777939704
O  O80  1  0.33250000  0.30610000  0.21800000  1.0 -0.2706075925
O  O81  1  0.21470000  0.16240000  0.18470000  1.0 -0.2517472906
O  O82  1  0.97060000  0.23900000  0.18410000  1.0 0.2582975327
O  O83  1  0.05100000  0.23850000  0.35640000  1.0 -0.2517472906
O  O84  1  0.24490000  0.18540000  0.41650000  1.0 -0.2408286394
O  O85  1  0.28500000  0.29560000  0.35480000  1.0 -0.2517472906
O  O86  1  0.17090000  0.27450000  0.28680000  1.0 -0.2608444319
O  O87  1  0.00300000  0.39400000  0.30660000  1.0 -0.4528301285
O  O88  1  0.02210000  0.85920000  0.37740000  1.0 -0.2084230533
O  O89  1  0.22330000  0.80400000  0.42740000  1.0 -0.2885446833
O  O90  1  0.21460000  0.00930000  0.43530000  1.0 -0.3777939704
O  O91  1  0.11320000  0.09400000  0.36960000  1.0 -0.2313995338
O  O92  1  0.89250000  0.96020000  0.32400000  1.0 -0.2408286394
O  O93  1  0.12060000  0.60130000  0.28780000  1.0 -0.2313995338
O  O94  1  0.33500000  0.63210000  0.31720000  1.0 -0.4161854512
O  O95  1  0.28310000  0.71580000  0.37800000  1.0 -0.4936283158
O  O96  1  0.12460000  0.80040000  0.35430000  1.0 -0.2199968485
O  O97  1  0.95500000  0.66710000  0.27470000  1.0 0.2582975327
O  O98  1  0.17090000  0.71900000  0.15900000  1.0 -0.2517472906
O  O99  1  0.38080000  0.77430000  0.18180000  1.0 -0.2821455773
O  O100  1  0.36050000  0.68170000  0.25000000  1.0 -0.1882746072
O  O101  1  0.20340000  0.69420000  0.26080000  1.0 -0.2313995338
O  O102  1  0.08430000  0.56520000  0.18910000  1.0 -0.2885446833
O  O103  1  0.96360000  0.68800000  0.92330000  1.0 0.1378910458
O  O104  1  0.47500000  0.86400000  0.35700000  1.0 -0.4289441035
O  O105  1  0.09790000  0.66970000  0.99930000  1.0 -0.4407486098
O  O106  1  0.28570000  0.95110000  0.76480000  1.0 -0.3207049098
O  O107  1  0.13450000  0.26330000  0.78680000  1.0 -0.5407229589
O  O108  1  0.04000000  0.89500000  0.87800000  1.0 -0.2608444319
O  O109  1  0.99260000  0.19600000  0.19600000  1.0 0.1619624047
O  O110  1  0.96100000  0.61200000  0.27660000  1.0 0.2582975327
O  O111  1  0.80170000  0.14360000  0.27330000  1.0 -0.5835595952
O  O112  1  0.35710000  0.72320000  0.74640000  1.0 -0.2199968485
O  O113  1  0.54920000  0.75100000  0.72380000  1.0 -0.2517472906
O  O114  1  0.44780000  0.86200000  0.66740000  1.0 -0.4718245046
O  O115  1  0.29330000  0.77510000  0.64640000  1.0 -0.2608444319
O  O116  1  0.21510000  0.84110000  0.72930000  1.0 -0.3207049098
O  O117  1  0.40580000  0.37140000  0.76320000  1.0 -0.2885446833
O  O118  1  0.55890000  0.31070000  0.71360000  1.0 -0.2199968485
O  O119  1  0.58120000  0.51550000  0.72590000  1.0 -0.3491169365
O  O120  1  0.43770000  0.61100000  0.72740000  1.0 -0.2608444319
O  O121  1  0.39900000  0.50460000  0.81820000  1.0 -0.2408286394
O  O122  1  0.23510000  0.15110000  0.65840000  1.0 -0.2199968485
O  O123  1  0.38530000  0.07330000  0.60930000  1.0 -0.3404769675
O  O124  1  0.47790000  0.16510000  0.67360000  1.0 -0.414334111
O  O125  1  0.39540000  0.31530000  0.70215000  1.0 -0.2517472906
O  O126  1  0.14970000  0.27380000  0.69720000  1.0 -0.3084192501
O  O127  1  0.09490000  0.23120000  0.51970000  1.0 -0.2517472906
O  O128  1  0.25910000  0.27800000  0.47570000  1.0 -0.2517472906
O  O129  1  0.33040000  0.16210000  0.54030000  1.0 -0.3404769675
O  O130  1  0.25700000  0.19800000  0.60134000  1.0 -0.2608444319
O  O131  1  0.06950000  0.08310000  0.57490000  1.0 -0.3863883839
O  O132  1  0.05540000  0.60300000  0.50260000  1.0 -0.2199968485
O  O133  1  0.23600000  0.67790000  0.47440000  1.0 -0.2706075925
O  O134  1  0.22800000  0.47200000  0.45950000  1.0 -0.3084192501
O  O135  1  0.16010000  0.37360000  0.51210000  1.0 -0.2706075925
O  O136  1  0.95210000  0.44460000  0.48450000  1.0 -0.2706075925
O  O137  1  0.16950000  0.82960000  0.61580000  1.0 -0.2885446833
O  O138  1  0.36420000  0.89590000  0.60010000  1.0 -0.2408286394
O  O139  1  0.29020000  0.80790000  0.53070000  1.0 -0.3270459102
O  O140  1  0.17260000  0.66730000  0.53730000  1.0 -0.2706075925
O  O141  1  0.01970000  0.81380000  0.57160000  1.0 -0.4161854512
O  O142  1  0.73540000  0.15360000  0.99120000  1.0 -0.1837037728
O  O143  1  0.58090000  0.27740000  0.92330000  1.0 -0.3207049098
O  O144  1  0.69910000  0.41910000  0.93710000  1.0 -0.4528301285
O  O145  1  0.80660000  0.40370000  0.00780000  1.0 -0.2408286394
O  O146  1  0.86780000  0.13530000  0.06010000  1.0 -0.4799290524
O  O147  1  0.46990000  0.11040000  0.04740000  1.0 -0.3404769675
O  O148  1  0.35840000  0.31200000  0.99930000  1.0 -0.2517472906
O  O149  1  0.46190000  0.26230000  0.95140000  1.0 -0.3404769675
O  O150  1  0.61670000  0.20640000  0.99963000  1.0 -0.2885446833
O  O151  1  0.60200000  0.01010000  0.08550000  1.0 -0.3207049098
O  O152  1  0.48080000  0.33560000  0.16370000  1.0 -0.2408286394
O  O153  1  0.34050000  0.52620000  0.12260000  1.0 -0.2885446833
O  O154  1  0.32880000  0.39350000  0.06110000  1.0 -0.2517472906
O  O155  1  0.46210000  0.26970000  0.06538000  1.0 -0.2706075925
O  O156  1  0.49610000  0.13360000  0.14850000  1.0 -0.3035938269
O  O157  1  0.65380000  0.64480000  0.20991000  1.0 -0.2517472906
O  O158  1  0.56180000  0.83070000  0.14410000  1.0 -0.2408286394
O  O159  1  0.43920000  0.68080000  0.13337000  1.0 -0.2408286394
O  O160  1  0.50350000  0.49470000  0.14920000  1.0 -0.2885446833
O  O161  1  0.58200000  0.52200000  0.25440000  1.0 -0.5613055752
O  O162  1  0.88270000  0.72300000  0.13940000  1.0 -0.2408286394
O  O163  1  0.77300000  0.81010000  0.04868000  1.0 -0.2706075925
O  O164  1  0.65900000  0.82890000  0.09500000  1.0 -0.1882746072
O  O165  1  0.68250000  0.69040000  0.15363000  1.0 -0.2608444319
O  O166  1  0.91730000  0.61600000  0.20540000  1.0 -0.4936283158
O  O167  1  0.92970000  0.43640000  0.04670000  1.0 -0.3207049098
O  O168  1  0.82830000  0.54540000  0.95760000  1.0 -0.2084230533
O  O169  1  0.83930000  0.70290000  0.00850000  1.0 -0.3084192501
O  O170  1  0.83950000  0.63830000  0.08420000  1.0 -0.2608444319
O  O171  1  0.02150000  0.50200000  0.11540000  1.0 -0.3976394014
O  O172  1  0.58400000  0.00650000  0.75750000  1.0 -0.1713473128
O  O173  1  0.20980000  0.26450000  0.06940000  1.0 -0.0878868477
O  O174  1  0.66320000  0.07650000  0.57390000  1.0 0.4223746731
O  O175  1  0.16500000  0.99380000  0.68480000  1.0 -0.2408286394
O  O176  1  0.88020000  0.99340000  0.61460000  1.0 -0.3491169365
O  O177  1  0.19340000  0.47070000  0.14470000  1.0 0.0617527339
O  O178  1  0.19380000  0.52820000  0.05560000  1.0 -0.0581605496
O  O179  1  0.03410000  0.28180000  0.00600000  1.0 -0.1264709161
O  O180  1  0.99900000  0.28500000  0.96930000  1.0 -0.0344403176
O  O181  1  0.70250000  0.42300000  0.69530000  1.0 0.0506917876
O  O182  1  0.77300000  0.46700000  0.72790000  1.0 -0.2003457846
O  O183  1  0.58700000  0.96300000  0.61440000  1.0 -0.3777939704
O  O184  1  0.84410000  0.59120000  0.87240000  1.0 -0.2199968485
O  O185  1  0.64420000  0.67360000  0.83500000  1.0 -0.2885446833
O  O186  1  0.62450000  0.46480000  0.84050000  1.0 -0.3633835242
O  O187  1  0.76540000  0.36660000  0.82930000  1.0 -0.3084192501
O  O188  1  0.91270000  0.43530000  0.91620000  1.0 -0.2821455773
O  O189  1  0.89910000  0.83110000  0.77160000  1.0 -0.2084230533
O  O190  1  0.70290000  0.89030000  0.71590000  1.0 -0.3777939704
O  O191  1  0.66750000  0.80610000  0.78200000  1.0 -0.2706075925
O  O192  1  0.78530000  0.66240000  0.81530000  1.0 -0.2517472906
O  O193  1  0.02940000  0.73900000  0.81590000  1.0 0.2582975327
O  O194  1  0.94900000  0.73850000  0.64360000  1.0 -0.2517472906
O  O195  1  0.75510000  0.68540000  0.58350000  1.0 -0.2408286394
O  O196  1  0.71500000  0.79560000  0.64520000  1.0 -0.2517472906
O  O197  1  0.82910000  0.77450000  0.71320000  1.0 -0.2608444319
O  O198  1  0.99700000  0.89400000  0.69340000  1.0 -0.4528301285
O  O199  1  0.97790000  0.35920000  0.62260000  1.0 -0.2084230533
O  O200  1  0.77670000  0.30400000  0.57260000  1.0 -0.2885446833
O  O201  1  0.78540000  0.50930000  0.56470000  1.0 -0.3777939704
O  O202  1  0.88680000  0.59400000  0.63040000  1.0 -0.2313995338
O  O203  1  0.10750000  0.46020000  0.67600000  1.0 -0.2408286394
O  O204  1  0.87940000  0.10130000  0.71220000  1.0 -0.2313995338
O  O205  1  0.66500000  0.13210000  0.68280000  1.0 -0.4161854512
O  O206  1  0.71690000  0.21580000  0.62200000  1.0 -0.4936283158
O  O207  1  0.87540000  0.30040000  0.64570000  1.0 -0.2199968485
O  O208  1  0.04500000  0.16710000  0.72530000  1.0 0.2582975327
O  O209  1  0.82910000  0.21900000  0.84100000  1.0 -0.2517472906
O  O210  1  0.61920000  0.27430000  0.81820000  1.0 -0.2821455773
O  O211  1  0.63950000  0.18170000  0.75000000  1.0 -0.1882746072
O  O212  1  0.79660000  0.19420000  0.73920000  1.0 -0.2313995338
O  O213  1  0.91570000  0.06520000  0.81090000  1.0 -0.2885446833
O  O214  1  0.03640000  0.18800000  0.07670000  1.0 0.1378910458
O  O215  1  0.52500000  0.36400000  0.64300000  1.0 -0.4289441035
O  O216  1  0.90210000  0.16970000  0.00070000  1.0 -0.4407486098
O  O217  1  0.71430000  0.45110000  0.23520000  1.0 -0.3207049098
O  O218  1  0.86550000  0.76330000  0.21320000  1.0 -0.5407229589
O  O219  1  0.96000000  0.39500000  0.12200000  1.0 -0.2608444319
O  O220  1  0.00740000  0.69600000  0.80400000  1.0 0.1619624047
O  O221  1  0.03900000  0.11200000  0.72340000  1.0 0.2582975327
O  O222  1  0.19830000  0.64360000  0.72670000  1.0 -0.5835595952
