# DDEC6 charges by PACMAN v1.1 (https://github.com/mtap-research/PACMAN-charge/)
data_VUSWIS_FSR_pacman
_symmetry_space_group_name_H-M   'P 1'
_cell_length_a   22.15700000
_cell_length_b   22.15700000
_cell_length_c   22.15700000
_cell_angle_alpha   64.32410000
_cell_angle_beta   64.32410000
_cell_angle_gamma   64.32410000
_symmetry_Int_Tables_number   1
_chemical_formula_structural   BaH36(CO)36
_chemical_formula_sum   'Ba6 H216 C216 O216'
_cell_volume   8422.13838875
_cell_formula_units_Z   6
loop_
 _symmetry_equiv_pos_site_id
 _symmetry_equiv_pos_as_xyz
  1  'x, y, z'
loop_
 _atom_site_type_symbol
 _atom_site_label
 _atom_site_symmetry_multiplicity
 _atom_site_fract_x
 _atom_site_fract_y
 _atom_site_fract_z
 _atom_site_occupancy
 _atom_site_charge
Ba  Ba1  1  0.43655000  0.26435000  0.76478000  1.0 0.861231
Ba  Ba2  1  0.26435000  0.76478000  0.43655000  1.0 0.861231
Ba  Ba3  1  0.76478000  0.43655000  0.26435000  1.0 0.861231
Ba  Ba4  1  0.56345000  0.23522000  0.73565000  1.0 0.861231
Ba  Ba5  1  0.73565000  0.56345000  0.23522000  1.0 0.861231
Ba  Ba6  1  0.23522000  0.73565000  0.56345000  1.0 0.861231
H  H1  1  0.44586000  0.28865000  0.93958000  1.0 0.1303153589
H  H2  1  0.35778000  0.36714000  0.88549000  1.0 0.1193321378
H  H3  1  0.26284000  0.30392000  0.00872000  1.0 0.1193321378
H  H4  1  0.26229000  0.44774000  0.96268000  1.0 0.1105134419
H  H5  1  0.30741000  0.33928000  0.07984000  1.0 0.1303153589
H  H6  1  0.50906000  0.00197000  0.15836000  1.0 0.1193321378
H  H7  1  0.51429000  0.05006000  0.03871000  1.0 0.1379618205
H  H8  1  0.36767000  0.12421000  0.08469000  1.0 0.1193321378
H  H9  1  0.48023000  0.18489000  0.99966000  1.0 0.1193321378
H  H10  1  0.40453000  0.17788000  0.14594000  1.0 0.1105134419
H  H11  1  0.49460000  0.21141000  0.14021000  1.0 0.1560374843
H  H12  1  0.44334000  0.27162000  0.09588000  1.0 0.1379618205
H  H13  1  0.29768000  0.15243000  0.79195000  1.0 0.1105134419
H  H14  1  0.38542000  0.07439000  0.84692000  1.0 0.1193321378
H  H15  1  0.27373000  0.07659000  0.97564000  1.0 0.1193321378
H  H16  1  0.36399000  0.95707000  0.92502000  1.0 0.1193321378
H  H17  1  0.21943000  0.02278000  0.92856000  1.0 0.1105134419
H  H18  1  0.24871000  0.95564000  0.85389000  1.0 0.1379618205
H  H19  1  0.26219000  0.90474000  0.92759000  1.0 0.1303153589
H  H20  1  0.36371000  0.86090000  0.00664000  1.0 0.1303153589
H  H21  1  0.35782000  0.81316000  0.12634000  1.0 0.1193321378
H  H22  1  0.24358000  0.94079000  0.14437000  1.0 0.1193321378
H  H23  1  0.23502000  0.79887000  0.20302000  1.0 0.100221403
H  H24  1  0.18359000  0.90847000  0.08788000  1.0 0.1303153589
H  H25  1  0.47994000  0.10803000  0.61118000  1.0 0.1303153589
H  H26  1  0.40209000  0.15307000  0.70025000  1.0 0.1193321378
H  H27  1  0.38953000  0.29297000  0.60412000  1.0 0.1105134419
H  H28  1  0.27802000  0.22858000  0.67701000  1.0 0.1105134419
H  H29  1  0.35260000  0.24770000  0.53117000  1.0 0.148589685
H  H30  1  0.18523000  0.31726000  0.68718000  1.0 0.1193321378
H  H31  1  0.14239000  0.43997000  0.68169000  1.0 0.1193321378
H  H32  1  0.26558000  0.45032000  0.56361000  1.0 0.1193321378
H  H33  1  0.12171000  0.52017000  0.56470000  1.0 0.1303153589
H  H34  1  0.21272000  0.41095000  0.50212000  1.0 0.1193321378
H  H35  1  0.09770000  0.41431000  0.50732000  1.0 0.1560374843
H  H36  1  0.11605000  0.48610000  0.45775000  1.0 0.1303153589
H  H37  1  0.28865000  0.93958000  0.44586000  1.0 0.1303153589
H  H38  1  0.36714000  0.88549000  0.35778000  1.0 0.1193321378
H  H39  1  0.30392000  0.00872000  0.26284000  1.0 0.1193321378
H  H40  1  0.44774000  0.96268000  0.26229000  1.0 0.1105134419
H  H41  1  0.33928000  0.07984000  0.30741000  1.0 0.1303153589
H  H42  1  0.00197000  0.15836000  0.50906000  1.0 0.1193321378
H  H43  1  0.05006000  0.03871000  0.51429000  1.0 0.1379618205
H  H44  1  0.12421000  0.08469000  0.36767000  1.0 0.1193321378
H  H45  1  0.18489000  0.99966000  0.48023000  1.0 0.1193321378
H  H46  1  0.17788000  0.14594000  0.40453000  1.0 0.1105134419
H  H47  1  0.21141000  0.14021000  0.49460000  1.0 0.1560374843
H  H48  1  0.27162000  0.09588000  0.44334000  1.0 0.1379618205
H  H49  1  0.15243000  0.79195000  0.29768000  1.0 0.1105134419
H  H50  1  0.07439000  0.84692000  0.38542000  1.0 0.1193321378
H  H51  1  0.07659000  0.97564000  0.27373000  1.0 0.1193321378
H  H52  1  0.95707000  0.92502000  0.36399000  1.0 0.1193321378
H  H53  1  0.02278000  0.92856000  0.21943000  1.0 0.1105134419
H  H54  1  0.95564000  0.85389000  0.24871000  1.0 0.1379618205
H  H55  1  0.90474000  0.92759000  0.26219000  1.0 0.1303153589
H  H56  1  0.86090000  0.00664000  0.36371000  1.0 0.1303153589
H  H57  1  0.81316000  0.12634000  0.35782000  1.0 0.1193321378
H  H58  1  0.94079000  0.14437000  0.24358000  1.0 0.1193321378
H  H59  1  0.79887000  0.20302000  0.23502000  1.0 0.100221403
H  H60  1  0.90847000  0.08788000  0.18359000  1.0 0.1303153589
H  H61  1  0.10803000  0.61118000  0.47994000  1.0 0.1303153589
H  H62  1  0.15307000  0.70025000  0.40209000  1.0 0.1193321378
H  H63  1  0.29297000  0.60412000  0.38953000  1.0 0.1105134419
H  H64  1  0.22858000  0.67701000  0.27802000  1.0 0.1105134419
H  H65  1  0.24770000  0.53117000  0.35260000  1.0 0.148589685
H  H66  1  0.31726000  0.68718000  0.18523000  1.0 0.1193321378
H  H67  1  0.43997000  0.68169000  0.14239000  1.0 0.1193321378
H  H68  1  0.45032000  0.56361000  0.26558000  1.0 0.1193321378
H  H69  1  0.52017000  0.56470000  0.12171000  1.0 0.1303153589
H  H70  1  0.41095000  0.50212000  0.21272000  1.0 0.1105134419
H  H71  1  0.41431000  0.50732000  0.09770000  1.0 0.1560374843
H  H72  1  0.48610000  0.45775000  0.11605000  1.0 0.1303153589
H  H73  1  0.93958000  0.44586000  0.28865000  1.0 0.1303153589
H  H74  1  0.88549000  0.35778000  0.36714000  1.0 0.1193321378
H  H75  1  0.00872000  0.26284000  0.30392000  1.0 0.1193321378
H  H76  1  0.96268000  0.26229000  0.44774000  1.0 0.1105134419
H  H77  1  0.07984000  0.30741000  0.33928000  1.0 0.1303153589
H  H78  1  0.15836000  0.50906000  0.00197000  1.0 0.1193321378
H  H79  1  0.03871000  0.51429000  0.05006000  1.0 0.1379618205
H  H80  1  0.08469000  0.36767000  0.12421000  1.0 0.1193321378
H  H81  1  0.99966000  0.48023000  0.18489000  1.0 0.1193321378
H  H82  1  0.14594000  0.40453000  0.17788000  1.0 0.1105134419
H  H83  1  0.14021000  0.49460000  0.21141000  1.0 0.1560374843
H  H84  1  0.09588000  0.44334000  0.27162000  1.0 0.1379618205
H  H85  1  0.79195000  0.29768000  0.15243000  1.0 0.1105134419
H  H86  1  0.84692000  0.38542000  0.07439000  1.0 0.1193321378
H  H87  1  0.97564000  0.27373000  0.07659000  1.0 0.1193321378
H  H88  1  0.92502000  0.36399000  0.95707000  1.0 0.1193321378
H  H89  1  0.92856000  0.21943000  0.02278000  1.0 0.1105134419
H  H90  1  0.85389000  0.24871000  0.95564000  1.0 0.1379618205
H  H91  1  0.92759000  0.26219000  0.90474000  1.0 0.1303153589
H  H92  1  0.00664000  0.36371000  0.86090000  1.0 0.1303153589
H  H93  1  0.12634000  0.35782000  0.81316000  1.0 0.1193321378
H  H94  1  0.14437000  0.24358000  0.94079000  1.0 0.1193321378
H  H95  1  0.20302000  0.23502000  0.79887000  1.0 0.100221403
H  H96  1  0.08788000  0.18359000  0.90847000  1.0 0.1303153589
H  H97  1  0.61118000  0.47994000  0.10803000  1.0 0.1303153589
H  H98  1  0.70025000  0.40209000  0.15307000  1.0 0.1193321378
H  H99  1  0.60412000  0.38953000  0.29297000  1.0 0.1105134419
H  H100  1  0.67701000  0.27802000  0.22858000  1.0 0.1105134419
H  H101  1  0.53117000  0.35260000  0.24770000  1.0 0.148589685
H  H102  1  0.68718000  0.18523000  0.31726000  1.0 0.1193321378
H  H103  1  0.68169000  0.14239000  0.43997000  1.0 0.1193321378
H  H104  1  0.56361000  0.26558000  0.45032000  1.0 0.1193321378
H  H105  1  0.56470000  0.12171000  0.52017000  1.0 0.1303153589
H  H106  1  0.50212000  0.21272000  0.41095000  1.0 0.1193321378
H  H107  1  0.50732000  0.09770000  0.41431000  1.0 0.1560374843
H  H108  1  0.45775000  0.11605000  0.48610000  1.0 0.1303153589
H  H109  1  0.55414000  0.06042000  0.71135000  1.0 0.1303153589
H  H110  1  0.64222000  0.11451000  0.63286000  1.0 0.1193321378
H  H111  1  0.73716000  0.99128000  0.69608000  1.0 0.1193321378
H  H112  1  0.73771000  0.03732000  0.55226000  1.0 0.1105134419
H  H113  1  0.69259000  0.92016000  0.66072000  1.0 0.1303153589
H  H114  1  0.49094000  0.84164000  0.99803000  1.0 0.1193321378
H  H115  1  0.48571000  0.96129000  0.94994000  1.0 0.1379618205
H  H116  1  0.63233000  0.91531000  0.87579000  1.0 0.1193321378
H  H117  1  0.51977000  0.00034000  0.81511000  1.0 0.1193321378
H  H118  1  0.59547000  0.85406000  0.82212000  1.0 0.1105134419
H  H119  1  0.50540000  0.85979000  0.78859000  1.0 0.1560374843
H  H120  1  0.55666000  0.90412000  0.72838000  1.0 0.1379618205
H  H121  1  0.70232000  0.20805000  0.84757000  1.0 0.1105134419
H  H122  1  0.61458000  0.15308000  0.92561000  1.0 0.1193321378
H  H123  1  0.72627000  0.02436000  0.92341000  1.0 0.1193321378
H  H124  1  0.63601000  0.07498000  0.04293000  1.0 0.1193321378
H  H125  1  0.78057000  0.07144000  0.97722000  1.0 0.1105134419
H  H126  1  0.75129000  0.14611000  0.04436000  1.0 0.1379618205
H  H127  1  0.73781000  0.07241000  0.09526000  1.0 0.1303153589
H  H128  1  0.63629000  0.99336000  0.13910000  1.0 0.1303153589
H  H129  1  0.64218000  0.87366000  0.18684000  1.0 0.1193321378
H  H130  1  0.75642000  0.85563000  0.05921000  1.0 0.1193321378
H  H131  1  0.76498000  0.79698000  0.20113000  1.0 0.100221403
H  H132  1  0.81641000  0.91212000  0.09153000  1.0 0.1303153589
H  H133  1  0.52006000  0.38882000  0.89197000  1.0 0.1303153589
H  H134  1  0.59791000  0.29975000  0.84693000  1.0 0.1193321378
H  H135  1  0.61047000  0.39588000  0.70703000  1.0 0.1105134419
H  H136  1  0.72198000  0.32299000  0.77142000  1.0 0.1105134419
H  H137  1  0.64740000  0.46883000  0.75230000  1.0 0.148589685
H  H138  1  0.81477000  0.31282000  0.68274000  1.0 0.1193321378
H  H139  1  0.85761000  0.31831000  0.56003000  1.0 0.1193321378
H  H140  1  0.73442000  0.43639000  0.54968000  1.0 0.1193321378
H  H141  1  0.87829000  0.43530000  0.47983000  1.0 0.1303153589
H  H142  1  0.78728000  0.49788000  0.58905000  1.0 0.1193321378
H  H143  1  0.90230000  0.49268000  0.58569000  1.0 0.1560374843
H  H144  1  0.88395000  0.54225000  0.51390000  1.0 0.1303153589
H  H145  1  0.71135000  0.55414000  0.06042000  1.0 0.1303153589
H  H146  1  0.63286000  0.64222000  0.11451000  1.0 0.1193321378
H  H147  1  0.69608000  0.73716000  0.99128000  1.0 0.1193321378
H  H148  1  0.55226000  0.73771000  0.03732000  1.0 0.1105134419
H  H149  1  0.66072000  0.69259000  0.92016000  1.0 0.1303153589
H  H150  1  0.99803000  0.49094000  0.84164000  1.0 0.1193321378
H  H151  1  0.94994000  0.48571000  0.96129000  1.0 0.1379618205
H  H152  1  0.87579000  0.63233000  0.91531000  1.0 0.1193321378
H  H153  1  0.81511000  0.51977000  0.00034000  1.0 0.1193321378
H  H154  1  0.82212000  0.59547000  0.85406000  1.0 0.1105134419
H  H155  1  0.78859000  0.50540000  0.85979000  1.0 0.148589685
H  H156  1  0.72838000  0.55666000  0.90412000  1.0 0.1379618205
H  H157  1  0.84757000  0.70232000  0.20805000  1.0 0.1105134419
H  H158  1  0.92561000  0.61458000  0.15308000  1.0 0.1193321378
H  H159  1  0.92341000  0.72627000  0.02436000  1.0 0.1193321378
H  H160  1  0.04293000  0.63601000  0.07498000  1.0 0.1193321378
H  H161  1  0.97722000  0.78057000  0.07144000  1.0 0.1105134419
H  H162  1  0.04436000  0.75129000  0.14611000  1.0 0.1379618205
H  H163  1  0.09526000  0.73781000  0.07241000  1.0 0.1303153589
H  H164  1  0.13910000  0.63629000  0.99336000  1.0 0.1303153589
H  H165  1  0.18684000  0.64218000  0.87366000  1.0 0.1193321378
H  H166  1  0.05921000  0.75642000  0.85563000  1.0 0.1193321378
H  H167  1  0.20113000  0.76498000  0.79698000  1.0 0.100221403
H  H168  1  0.09153000  0.81641000  0.91212000  1.0 0.1303153589
H  H169  1  0.89197000  0.52006000  0.38882000  1.0 0.1303153589
H  H170  1  0.84693000  0.59791000  0.29975000  1.0 0.1193321378
H  H171  1  0.70703000  0.61047000  0.39588000  1.0 0.1105134419
H  H172  1  0.77142000  0.72198000  0.32299000  1.0 0.1105134419
H  H173  1  0.75230000  0.64740000  0.46883000  1.0 0.148589685
H  H174  1  0.68274000  0.81477000  0.31282000  1.0 0.1193321378
H  H175  1  0.56003000  0.85761000  0.31831000  1.0 0.1193321378
H  H176  1  0.54968000  0.73442000  0.43639000  1.0 0.1193321378
H  H177  1  0.47983000  0.87829000  0.43530000  1.0 0.1303153589
H  H178  1  0.58905000  0.78728000  0.49788000  1.0 0.1193321378
H  H179  1  0.58569000  0.90230000  0.49268000  1.0 0.1560374843
H  H180  1  0.51390000  0.88395000  0.54225000  1.0 0.1303153589
H  H181  1  0.06042000  0.71135000  0.55414000  1.0 0.1303153589
H  H182  1  0.11451000  0.63286000  0.64222000  1.0 0.1193321378
H  H183  1  0.99128000  0.69608000  0.73716000  1.0 0.1193321378
H  H184  1  0.03732000  0.55226000  0.73771000  1.0 0.1105134419
H  H185  1  0.92016000  0.66072000  0.69259000  1.0 0.1303153589
H  H186  1  0.84164000  0.99803000  0.49094000  1.0 0.1193321378
H  H187  1  0.96129000  0.94994000  0.48571000  1.0 0.1379618205
H  H188  1  0.91531000  0.87579000  0.63233000  1.0 0.1193321378
H  H189  1  0.00034000  0.81511000  0.51977000  1.0 0.1193321378
H  H190  1  0.85406000  0.82212000  0.59547000  1.0 0.1105134419
H  H191  1  0.85979000  0.78859000  0.50540000  1.0 0.148589685
H  H192  1  0.90412000  0.72838000  0.55666000  1.0 0.1379618205
H  H193  1  0.20805000  0.84757000  0.70232000  1.0 0.1105134419
H  H194  1  0.15308000  0.92561000  0.61458000  1.0 0.1193321378
H  H195  1  0.02436000  0.92341000  0.72627000  1.0 0.1193321378
H  H196  1  0.07498000  0.04293000  0.63601000  1.0 0.1193321378
H  H197  1  0.07144000  0.97722000  0.78057000  1.0 0.1105134419
H  H198  1  0.14611000  0.04436000  0.75129000  1.0 0.1379618205
H  H199  1  0.07241000  0.09526000  0.73781000  1.0 0.1303153589
H  H200  1  0.99336000  0.13910000  0.63629000  1.0 0.1303153589
H  H201  1  0.87366000  0.18684000  0.64218000  1.0 0.1193321378
H  H202  1  0.85563000  0.05921000  0.75642000  1.0 0.1193321378
H  H203  1  0.79698000  0.20113000  0.76498000  1.0 0.100221403
H  H204  1  0.91212000  0.09153000  0.81641000  1.0 0.1303153589
H  H205  1  0.38882000  0.89197000  0.52006000  1.0 0.1303153589
H  H206  1  0.29975000  0.84693000  0.59791000  1.0 0.1193321378
H  H207  1  0.39588000  0.70703000  0.61047000  1.0 0.1105134419
H  H208  1  0.32299000  0.77142000  0.72198000  1.0 0.1105134419
H  H209  1  0.46883000  0.75230000  0.64740000  1.0 0.148589685
H  H210  1  0.31282000  0.68274000  0.81477000  1.0 0.1193321378
H  H211  1  0.31831000  0.56003000  0.85761000  1.0 0.1193321378
H  H212  1  0.43639000  0.54968000  0.73442000  1.0 0.1193321378
H  H213  1  0.43530000  0.47983000  0.87829000  1.0 0.1303153589
H  H214  1  0.49788000  0.58905000  0.78728000  1.0 0.1193321378
H  H215  1  0.49268000  0.58569000  0.90230000  1.0 0.1560374843
H  H216  1  0.54225000  0.51390000  0.88395000  1.0 0.1303153589
C  C1  1  0.39597000  0.30297000  0.96897000  1.0 0.2392546757
C  C2  1  0.34830000  0.32540000  0.92650000  1.0 0.0221429103
C  C3  1  0.27352000  0.34622000  0.96942000  1.0 0.0484385329
C  C4  1  0.26156000  0.40176000  0.00036000  1.0 0.070036597
C  C5  1  0.31513000  0.37993000  0.03663000  1.0 -0.0233960737
C  C6  1  0.31232000  0.43882000  0.05702000  1.0 0.5623060373
C  C7  1  0.47463000  0.04803000  0.14183000  1.0 0.2392546757
C  C8  1  0.46755000  0.05255000  0.07545000  1.0 0.0125982625
C  C9  1  0.41527000  0.12207000  0.04957000  1.0 0.0597195191
C  C10  1  0.43663000  0.18203000  0.04043000  1.0 0.0597195191
C  C11  1  0.45008000  0.17388000  0.10728000  1.0 0.0917906553
C  C12  1  0.48026000  0.22556000  0.09826000  1.0 -0.0467077158
C  C13  1  0.28640000  0.11840000  0.83990000  1.0 0.2273866393
C  C14  1  0.33883000  0.09983000  0.87423000  1.0 0.025327035
C  C15  1  0.32047000  0.05197000  0.94777000  1.0 0.070036597
C  C16  1  0.31580000  0.98640000  0.94520000  1.0 0.0484385329
C  C17  1  0.26969000  0.00439000  0.90189000  1.0 0.0917906553
C  C18  1  0.27860000  0.94050000  0.88370000  1.0 -0.0567665913
C  C19  1  0.31877000  0.87657000  0.04267000  1.0 0.2392546757
C  C20  1  0.33476000  0.86446000  0.10686000  1.0 0.0221429103
C  C21  1  0.26582000  0.88912000  0.16272000  1.0 0.070036597
C  C22  1  0.21716000  0.84966000  0.17746000  1.0 0.070036597
C  C23  1  0.20822000  0.85812000  0.10882000  1.0 -0.0250513224
C  C24  1  0.16714000  0.81244000  0.12004000  1.0 0.5030222046
C  C25  1  0.44490000  0.15550000  0.60080000  1.0 0.2027818667
C  C26  1  0.42370000  0.18530000  0.65520000  1.0 0.0360883379
C  C27  1  0.36810000  0.25740000  0.64500000  1.0 0.0917906553
C  C28  1  0.30861000  0.25231000  0.63191000  1.0 0.0484385329
C  C29  1  0.33200000  0.21730000  0.57840000  1.0 -0.003296577
C  C30  1  0.27070000  0.20120000  0.57630000  1.0 0.6472883927
C  C31  1  0.19936000  0.35356000  0.64186000  1.0 0.2567448424
C  C32  1  0.19258000  0.41898000  0.65678000  1.0 0.0484385329
C  C33  1  0.21544000  0.47164000  0.58864000  1.0 0.070036597
C  C34  1  0.17040000  0.49240000  0.54350000  1.0 0.0484385329
C  C35  1  0.16777000  0.43057000  0.53587000  1.0 0.100221403
C  C36  1  0.10460000  0.45580000  0.50700000  1.0 -0.0710775473
C  C37  1  0.30297000  0.96897000  0.39597000  1.0 0.2392546757
C  C38  1  0.32540000  0.92650000  0.34830000  1.0 0.0221429103
C  C39  1  0.34622000  0.96942000  0.27352000  1.0 0.0484385329
C  C40  1  0.40176000  0.00036000  0.26156000  1.0 0.070036597
C  C41  1  0.37993000  0.03663000  0.31513000  1.0 -0.0233960737
C  C42  1  0.43882000  0.05702000  0.31232000  1.0 0.5623060373
C  C43  1  0.04803000  0.14183000  0.47463000  1.0 0.2392546757
C  C44  1  0.05255000  0.07545000  0.46755000  1.0 0.0125982625
C  C45  1  0.12207000  0.04957000  0.41527000  1.0 0.0597195191
C  C46  1  0.18203000  0.04043000  0.43663000  1.0 0.0597195191
C  C47  1  0.17388000  0.10728000  0.45008000  1.0 0.0917906553
C  C48  1  0.22556000  0.09826000  0.48026000  1.0 -0.0467077158
C  C49  1  0.11840000  0.83990000  0.28640000  1.0 0.2273866393
C  C50  1  0.09983000  0.87423000  0.33883000  1.0 0.025327035
C  C51  1  0.05197000  0.94777000  0.32047000  1.0 0.070036597
C  C52  1  0.98640000  0.94520000  0.31580000  1.0 0.0484385329
C  C53  1  0.00439000  0.90189000  0.26969000  1.0 0.0917906553
C  C54  1  0.94050000  0.88370000  0.27860000  1.0 -0.0567665913
C  C55  1  0.87657000  0.04267000  0.31877000  1.0 0.2392546757
C  C56  1  0.86446000  0.10686000  0.33476000  1.0 0.0221429103
C  C57  1  0.88912000  0.16272000  0.26582000  1.0 0.070036597
C  C58  1  0.84966000  0.17746000  0.21716000  1.0 0.070036597
C  C59  1  0.85812000  0.10882000  0.20822000  1.0 -0.0233960737
C  C60  1  0.81244000  0.12004000  0.16714000  1.0 0.5030222046
C  C61  1  0.15550000  0.60080000  0.44490000  1.0 0.2027818667
C  C62  1  0.18530000  0.65520000  0.42370000  1.0 0.0360883379
C  C63  1  0.25740000  0.64500000  0.36810000  1.0 0.0917906553
C  C64  1  0.25231000  0.63191000  0.30861000  1.0 0.0484385329
C  C65  1  0.21730000  0.57840000  0.33200000  1.0 -0.003296577
C  C66  1  0.20120000  0.57630000  0.27070000  1.0 0.6472883927
C  C67  1  0.35356000  0.64186000  0.19936000  1.0 0.2567448424
C  C68  1  0.41898000  0.65678000  0.19258000  1.0 0.0484385329
C  C69  1  0.47164000  0.58864000  0.21544000  1.0 0.070036597
C  C70  1  0.49240000  0.54350000  0.17040000  1.0 0.0484385329
C  C71  1  0.43057000  0.53587000  0.16777000  1.0 0.100221403
C  C72  1  0.45580000  0.50700000  0.10460000  1.0 -0.0710775473
C  C73  1  0.96897000  0.39597000  0.30297000  1.0 0.2392546757
C  C74  1  0.92650000  0.34830000  0.32540000  1.0 0.0221429103
C  C75  1  0.96942000  0.27352000  0.34622000  1.0 0.0484385329
C  C76  1  0.00036000  0.26156000  0.40176000  1.0 0.070036597
C  C77  1  0.03663000  0.31513000  0.37993000  1.0 -0.0233960737
C  C78  1  0.05702000  0.31232000  0.43882000  1.0 0.5623060373
C  C79  1  0.14183000  0.47463000  0.04803000  1.0 0.2392546757
C  C80  1  0.07545000  0.46755000  0.05255000  1.0 0.0125982625
C  C81  1  0.04957000  0.41527000  0.12207000  1.0 0.0597195191
C  C82  1  0.04043000  0.43663000  0.18203000  1.0 0.0597195191
C  C83  1  0.10728000  0.45008000  0.17388000  1.0 0.0917906553
C  C84  1  0.09826000  0.48026000  0.22556000  1.0 -0.0467077158
C  C85  1  0.83990000  0.28640000  0.11840000  1.0 0.2273866393
C  C86  1  0.87423000  0.33883000  0.09983000  1.0 0.025327035
C  C87  1  0.94777000  0.32047000  0.05197000  1.0 0.070036597
C  C88  1  0.94520000  0.31580000  0.98640000  1.0 0.0484385329
C  C89  1  0.90189000  0.26969000  0.00439000  1.0 0.0917906553
C  C90  1  0.88370000  0.27860000  0.94050000  1.0 -0.0567665913
C  C91  1  0.04267000  0.31877000  0.87657000  1.0 0.2392546757
C  C92  1  0.10686000  0.33476000  0.86446000  1.0 0.0221429103
C  C93  1  0.16272000  0.26582000  0.88912000  1.0 0.070036597
C  C94  1  0.17746000  0.21716000  0.84966000  1.0 0.070036597
C  C95  1  0.10882000  0.20822000  0.85812000  1.0 -0.0250513224
C  C96  1  0.12004000  0.16714000  0.81244000  1.0 0.5030222046
C  C97  1  0.60080000  0.44490000  0.15550000  1.0 0.2027818667
C  C98  1  0.65520000  0.42370000  0.18530000  1.0 0.0360883379
C  C99  1  0.64500000  0.36810000  0.25740000  1.0 0.0917906553
C  C100  1  0.63191000  0.30861000  0.25231000  1.0 0.0484385329
C  C101  1  0.57840000  0.33200000  0.21730000  1.0 -0.003296577
C  C102  1  0.57630000  0.27070000  0.20120000  1.0 0.6472883927
C  C103  1  0.64186000  0.19936000  0.35356000  1.0 0.2567448424
C  C104  1  0.65678000  0.19258000  0.41898000  1.0 0.0484385329
C  C105  1  0.58864000  0.21544000  0.47164000  1.0 0.070036597
C  C106  1  0.54350000  0.17040000  0.49240000  1.0 0.0484385329
C  C107  1  0.53587000  0.16777000  0.43057000  1.0 0.100221403
C  C108  1  0.50700000  0.10460000  0.45580000  1.0 -0.0710775473
C  C109  1  0.60403000  0.03103000  0.69703000  1.0 0.2392546757
C  C110  1  0.65170000  0.07350000  0.67460000  1.0 0.0221429103
C  C111  1  0.72648000  0.03058000  0.65378000  1.0 0.0484385329
C  C112  1  0.73844000  0.99964000  0.59824000  1.0 0.070036597
C  C113  1  0.68487000  0.96337000  0.62007000  1.0 -0.0233960737
C  C114  1  0.68768000  0.94298000  0.56118000  1.0 0.5623060373
C  C115  1  0.52537000  0.85817000  0.95197000  1.0 0.2392546757
C  C116  1  0.53245000  0.92455000  0.94745000  1.0 0.0125982625
C  C117  1  0.58473000  0.95043000  0.87793000  1.0 0.0597195191
C  C118  1  0.56337000  0.95957000  0.81797000  1.0 0.0597195191
C  C119  1  0.54992000  0.89272000  0.82612000  1.0 0.0917906553
C  C120  1  0.51974000  0.90174000  0.77444000  1.0 -0.0467077158
C  C121  1  0.71360000  0.16010000  0.88160000  1.0 0.2273866393
C  C122  1  0.66117000  0.12577000  0.90017000  1.0 0.025327035
C  C123  1  0.67953000  0.05223000  0.94803000  1.0 0.070036597
C  C124  1  0.68420000  0.05480000  0.01360000  1.0 0.0484385329
C  C125  1  0.73031000  0.09811000  0.99561000  1.0 0.0917906553
C  C126  1  0.72140000  0.11630000  0.05950000  1.0 -0.0567665913
C  C127  1  0.68123000  0.95733000  0.12343000  1.0 0.2392546757
C  C128  1  0.66524000  0.89314000  0.13554000  1.0 0.0221429103
C  C129  1  0.73418000  0.83728000  0.11088000  1.0 0.070036597
C  C130  1  0.78284000  0.82254000  0.15034000  1.0 0.070036597
C  C131  1  0.79178000  0.89118000  0.14188000  1.0 -0.0250513224
C  C132  1  0.83286000  0.87996000  0.18756000  1.0 0.5030222046
C  C133  1  0.55510000  0.39920000  0.84450000  1.0 0.2027818667
C  C134  1  0.57630000  0.34480000  0.81470000  1.0 0.0360883379
C  C135  1  0.63190000  0.35500000  0.74260000  1.0 0.0917906553
C  C136  1  0.69139000  0.36809000  0.74769000  1.0 0.0484385329
C  C137  1  0.66800000  0.42160000  0.78270000  1.0 -0.003296577
C  C138  1  0.72930000  0.42370000  0.79880000  1.0 0.6472883927
C  C139  1  0.80064000  0.35814000  0.64644000  1.0 0.2567448424
C  C140  1  0.80742000  0.34322000  0.58102000  1.0 0.0484385329
C  C141  1  0.78456000  0.41136000  0.52836000  1.0 0.070036597
C  C142  1  0.82960000  0.45650000  0.50760000  1.0 0.0484385329
C  C143  1  0.83223000  0.46413000  0.56943000  1.0 0.100221403
C  C144  1  0.89540000  0.49300000  0.54420000  1.0 -0.0710775473
C  C145  1  0.69703000  0.60403000  0.03103000  1.0 0.2392546757
C  C146  1  0.67460000  0.65170000  0.07350000  1.0 0.0221429103
C  C147  1  0.65378000  0.72648000  0.03058000  1.0 0.0484385329
C  C148  1  0.59824000  0.73844000  0.99964000  1.0 0.070036597
C  C149  1  0.62007000  0.68487000  0.96337000  1.0 -0.0233960737
C  C150  1  0.56118000  0.68768000  0.94298000  1.0 0.5623060373
C  C151  1  0.95197000  0.52537000  0.85817000  1.0 0.2392546757
C  C152  1  0.94745000  0.53245000  0.92455000  1.0 0.0125982625
C  C153  1  0.87793000  0.58473000  0.95043000  1.0 0.0597195191
C  C154  1  0.81797000  0.56337000  0.95957000  1.0 0.0597195191
C  C155  1  0.82612000  0.54992000  0.89272000  1.0 0.0917906553
C  C156  1  0.77444000  0.51974000  0.90174000  1.0 -0.0467077158
C  C157  1  0.88160000  0.71360000  0.16010000  1.0 0.2273866393
C  C158  1  0.90017000  0.66117000  0.12577000  1.0 0.025327035
C  C159  1  0.94803000  0.67953000  0.05223000  1.0 0.070036597
C  C160  1  0.01360000  0.68420000  0.05480000  1.0 0.0484385329
C  C161  1  0.99561000  0.73031000  0.09811000  1.0 0.0917906553
C  C162  1  0.05950000  0.72140000  0.11630000  1.0 -0.0567665913
C  C163  1  0.12343000  0.68123000  0.95733000  1.0 0.2392546757
C  C164  1  0.13554000  0.66524000  0.89314000  1.0 0.0221429103
C  C165  1  0.11088000  0.73418000  0.83728000  1.0 0.070036597
C  C166  1  0.15034000  0.78284000  0.82254000  1.0 0.070036597
C  C167  1  0.14188000  0.79178000  0.89118000  1.0 -0.0250513224
C  C168  1  0.18756000  0.83286000  0.87996000  1.0 0.5030222046
C  C169  1  0.84450000  0.55510000  0.39920000  1.0 0.2027818667
C  C170  1  0.81470000  0.57630000  0.34480000  1.0 0.0360883379
C  C171  1  0.74260000  0.63190000  0.35500000  1.0 0.0917906553
C  C172  1  0.74769000  0.69139000  0.36809000  1.0 0.0484385329
C  C173  1  0.78270000  0.66800000  0.42160000  1.0 -0.003296577
C  C174  1  0.79880000  0.72930000  0.42370000  1.0 0.6472883927
C  C175  1  0.64644000  0.80064000  0.35814000  1.0 0.2567448424
C  C176  1  0.58102000  0.80742000  0.34322000  1.0 0.0484385329
C  C177  1  0.52836000  0.78456000  0.41136000  1.0 0.070036597
C  C178  1  0.50760000  0.82960000  0.45650000  1.0 0.0484385329
C  C179  1  0.56943000  0.83223000  0.46413000  1.0 0.100221403
C  C180  1  0.54420000  0.89540000  0.49300000  1.0 -0.0710775473
C  C181  1  0.03103000  0.69703000  0.60403000  1.0 0.2392546757
C  C182  1  0.07350000  0.67460000  0.65170000  1.0 0.0221429103
C  C183  1  0.03058000  0.65378000  0.72648000  1.0 0.0484385329
C  C184  1  0.99964000  0.59824000  0.73844000  1.0 0.070036597
C  C185  1  0.96337000  0.62007000  0.68487000  1.0 -0.0233960737
C  C186  1  0.94298000  0.56118000  0.68768000  1.0 0.5623060373
C  C187  1  0.85817000  0.95197000  0.52537000  1.0 0.2392546757
C  C188  1  0.92455000  0.94745000  0.53245000  1.0 0.0125982625
C  C189  1  0.95043000  0.87793000  0.58473000  1.0 0.0597195191
C  C190  1  0.95957000  0.81797000  0.56337000  1.0 0.0597195191
C  C191  1  0.89272000  0.82612000  0.54992000  1.0 0.0917906553
C  C192  1  0.90174000  0.77444000  0.51974000  1.0 -0.0467077158
C  C193  1  0.16010000  0.88160000  0.71360000  1.0 0.2273866393
C  C194  1  0.12577000  0.90017000  0.66117000  1.0 0.025327035
C  C195  1  0.05223000  0.94803000  0.67953000  1.0 0.070036597
C  C196  1  0.05480000  0.01360000  0.68420000  1.0 0.0484385329
C  C197  1  0.09811000  0.99561000  0.73031000  1.0 0.0917906553
C  C198  1  0.11630000  0.05950000  0.72140000  1.0 -0.0567665913
C  C199  1  0.95733000  0.12343000  0.68123000  1.0 0.2392546757
C  C200  1  0.89314000  0.13554000  0.66524000  1.0 0.025327035
C  C201  1  0.83728000  0.11088000  0.73418000  1.0 0.070036597
C  C202  1  0.82254000  0.15034000  0.78284000  1.0 0.070036597
C  C203  1  0.89118000  0.14188000  0.79178000  1.0 -0.0250513224
C  C204  1  0.87996000  0.18756000  0.83286000  1.0 0.5030222046
C  C205  1  0.39920000  0.84450000  0.55510000  1.0 0.2027818667
C  C206  1  0.34480000  0.81470000  0.57630000  1.0 0.0360883379
C  C207  1  0.35500000  0.74260000  0.63190000  1.0 0.0917906553
C  C208  1  0.36809000  0.74769000  0.69139000  1.0 0.0484385329
C  C209  1  0.42160000  0.78270000  0.66800000  1.0 -0.003296577
C  C210  1  0.42370000  0.79880000  0.72930000  1.0 0.6472883927
C  C211  1  0.35814000  0.64644000  0.80064000  1.0 0.2567448424
C  C212  1  0.34322000  0.58102000  0.80742000  1.0 0.0484385329
C  C213  1  0.41136000  0.52836000  0.78456000  1.0 0.070036597
C  C214  1  0.45650000  0.50760000  0.82960000  1.0 0.0484385329
C  C215  1  0.46413000  0.56943000  0.83223000  1.0 0.100221403
C  C216  1  0.49300000  0.54420000  0.89540000  1.0 -0.0710775473
O  O1  1  0.52310000  0.18330000  0.85180000  1.0 -0.3416132175
O  O2  1  0.32770000  0.38520000  0.77540000  1.0 0.4392271894
O  O3  1  0.58326000  0.24866000  0.68236000  1.0 -0.2794310585
O  O4  1  0.38519000  0.35889000  0.99049000  1.0 -0.2291784726
O  O5  1  0.36045000  0.27125000  0.90055000  1.0 -0.2863990856
O  O6  1  0.22625000  0.37455000  0.92845000  1.0 -0.2182158001
O  O7  1  0.19245000  0.40815000  0.05255000  1.0 -0.2709108658
O  O8  1  0.31178000  0.49998000  0.00378000  1.0 -0.5092142217
O  O9  1  0.49866000  0.10396000  0.12856000  1.0 -0.2794310585
O  O10  1  0.44672000  0.99502000  0.08652000  1.0 -0.1240682793
O  O11  1  0.41253000  0.12963000  0.98343000  1.0 -0.1884606734
O  O12  1  0.38128000  0.24468000  0.02638000  1.0 -0.2709108658
O  O13  1  0.53878000  0.23378000  0.03788000  1.0 -0.2509409753
O  O14  1  0.28658000  0.05588000  0.83528000  1.0 -0.2291784726
O  O15  1  0.34500000  0.16240000  0.87440000  1.0 -0.1884606734
O  O16  1  0.37134000  0.03084000  0.98184000  1.0 -0.3086818291
O  O17  1  0.28687000  0.94807000  0.01537000  1.0 -0.2509409753
O  O18  1  0.34911000  0.91011000  0.84811000  1.0 -0.1279508002
O  O19  1  0.27417000  0.83697000  0.05997000  1.0 -0.1975924639
O  O20  1  0.38168000  0.90348000  0.08878000  1.0 -0.2794310585
O  O21  1  0.27919000  0.87379000  0.22549000  1.0 -0.2709108658
O  O22  1  0.14953000  0.88263000  0.21983000  1.0 -0.2709108658
O  O23  1  0.19732000  0.74542000  0.14452000  1.0 -0.3220217121
O  O24  1  0.38520000  0.14920000  0.59540000  1.0 -0.1975924639
O  O25  1  0.48359000  0.18999000  0.66349000  1.0 -0.4361339105
O  O26  1  0.34098000  0.27728000  0.70738000  1.0 -0.4533017171
O  O27  1  0.26937000  0.32577000  0.60447000  1.0 -0.2509409753
O  O28  1  0.24600000  0.14660000  0.64930000  1.0 -0.3596271319
O  O29  1  0.15345000  0.37595000  0.60175000  1.0 -0.2136524064
O  O30  1  0.23346000  0.39566000  0.70036000  1.0 -0.3086818291
O  O31  1  0.20962000  0.53332000  0.59962000  1.0 -0.3596271319
O  O32  1  0.20022000  0.53482000  0.47642000  1.0 -0.2442127434
O  O33  1  0.03708000  0.49588000  0.54998000  1.0 -0.1279508002
O  O34  1  0.35790000  0.42160000  0.09190000  1.0 -0.4153981699
O  O35  1  0.16790000  0.80850000  0.06160000  1.0 -0.3086818291
O  O36  1  0.31370000  0.18520000  0.49350000  1.0 -0.4972412877
O  O37  1  0.18330000  0.85180000  0.52310000  1.0 -0.3416132175
O  O38  1  0.38520000  0.77540000  0.32770000  1.0 0.4392271894
O  O39  1  0.24866000  0.68236000  0.58326000  1.0 -0.2794310585
O  O40  1  0.35889000  0.99049000  0.38519000  1.0 -0.2291784726
O  O41  1  0.27125000  0.90055000  0.36045000  1.0 -0.2863990856
O  O42  1  0.37455000  0.92845000  0.22625000  1.0 -0.2182158001
O  O43  1  0.40815000  0.05255000  0.19245000  1.0 -0.2709108658
O  O44  1  0.49998000  0.00378000  0.31178000  1.0 -0.5092142217
O  O45  1  0.10396000  0.12856000  0.49866000  1.0 -0.2794310585
O  O46  1  0.99502000  0.08652000  0.44672000  1.0 -0.1240682793
O  O47  1  0.12963000  0.98343000  0.41253000  1.0 -0.1884606734
O  O48  1  0.24468000  0.02638000  0.38128000  1.0 -0.2709108658
O  O49  1  0.23378000  0.03788000  0.53878000  1.0 -0.2559165699
O  O50  1  0.05588000  0.83528000  0.28658000  1.0 -0.2291784726
O  O51  1  0.16240000  0.87440000  0.34500000  1.0 -0.1884606734
O  O52  1  0.03084000  0.98184000  0.37134000  1.0 -0.3086818291
O  O53  1  0.94807000  0.01537000  0.28687000  1.0 -0.2509409753
O  O54  1  0.91011000  0.84811000  0.34911000  1.0 -0.1279508002
O  O55  1  0.83697000  0.05997000  0.27417000  1.0 -0.1975924639
O  O56  1  0.90348000  0.08878000  0.38168000  1.0 -0.2794310585
O  O57  1  0.87379000  0.22549000  0.27919000  1.0 -0.2709108658
O  O58  1  0.88263000  0.21983000  0.14953000  1.0 -0.2709108658
O  O59  1  0.74542000  0.14452000  0.19732000  1.0 -0.3220217121
O  O60  1  0.14920000  0.59540000  0.38520000  1.0 -0.1975924639
O  O61  1  0.18999000  0.66349000  0.48359000  1.0 -0.4361339105
O  O62  1  0.27728000  0.70738000  0.34098000  1.0 -0.4533017171
O  O63  1  0.32577000  0.60447000  0.26937000  1.0 -0.2509409753
O  O64  1  0.14660000  0.64930000  0.24600000  1.0 -0.3596271319
O  O65  1  0.37595000  0.60175000  0.15345000  1.0 -0.2136524064
O  O66  1  0.39566000  0.70036000  0.23346000  1.0 -0.3086818291
O  O67  1  0.53332000  0.59962000  0.20962000  1.0 -0.3596271319
O  O68  1  0.53482000  0.47642000  0.20022000  1.0 -0.2442127434
O  O69  1  0.49588000  0.54998000  0.03708000  1.0 -0.1279508002
O  O70  1  0.42160000  0.09190000  0.35790000  1.0 -0.4153981699
O  O71  1  0.80850000  0.06160000  0.16790000  1.0 -0.3086818291
O  O72  1  0.18520000  0.49350000  0.31370000  1.0 -0.4972412877
O  O73  1  0.85180000  0.52310000  0.18330000  1.0 -0.3416132175
O  O74  1  0.77540000  0.32770000  0.38520000  1.0 0.4573831069
O  O75  1  0.68236000  0.58326000  0.24866000  1.0 -0.2794310585
O  O76  1  0.99049000  0.38519000  0.35889000  1.0 -0.2291784726
O  O77  1  0.90055000  0.36045000  0.27125000  1.0 -0.2794310585
O  O78  1  0.92845000  0.22625000  0.37455000  1.0 -0.2182158001
O  O79  1  0.05255000  0.19245000  0.40815000  1.0 -0.2709108658
O  O80  1  0.00378000  0.31178000  0.49998000  1.0 -0.5092142217
O  O81  1  0.12856000  0.49866000  0.10396000  1.0 -0.2794310585
O  O82  1  0.08652000  0.44672000  0.99502000  1.0 -0.1279508002
O  O83  1  0.98343000  0.41253000  0.12963000  1.0 -0.1884606734
O  O84  1  0.02638000  0.38128000  0.24468000  1.0 -0.2709108658
O  O85  1  0.03788000  0.53878000  0.23378000  1.0 -0.2509409753
O  O86  1  0.83528000  0.28658000  0.05588000  1.0 -0.2291784726
O  O87  1  0.87440000  0.34500000  0.16240000  1.0 -0.1884606734
O  O88  1  0.98184000  0.37134000  0.03084000  1.0 -0.3039373947
O  O89  1  0.01537000  0.28687000  0.94807000  1.0 -0.2509409753
O  O90  1  0.84811000  0.34911000  0.91011000  1.0 -0.1279508002
O  O91  1  0.05997000  0.27417000  0.83697000  1.0 -0.1975924639
O  O92  1  0.08878000  0.38168000  0.90348000  1.0 -0.2794310585
O  O93  1  0.22549000  0.27919000  0.87379000  1.0 -0.2709108658
O  O94  1  0.21983000  0.14953000  0.88263000  1.0 -0.2709108658
O  O95  1  0.14452000  0.19732000  0.74542000  1.0 -0.3220217121
O  O96  1  0.59540000  0.38520000  0.14920000  1.0 -0.1975924639
O  O97  1  0.66349000  0.48359000  0.18999000  1.0 -0.4361339105
O  O98  1  0.70738000  0.34098000  0.27728000  1.0 -0.4533017171
O  O99  1  0.60447000  0.26937000  0.32577000  1.0 -0.2509409753
O  O100  1  0.64930000  0.24600000  0.14660000  1.0 -0.3596271319
O  O101  1  0.60175000  0.15345000  0.37595000  1.0 -0.2136524064
O  O102  1  0.70036000  0.23346000  0.39566000  1.0 -0.3086818291
O  O103  1  0.59962000  0.20962000  0.53332000  1.0 -0.3596271319
O  O104  1  0.47642000  0.20022000  0.53482000  1.0 -0.2442127434
O  O105  1  0.54998000  0.03708000  0.49588000  1.0 -0.1279508002
O  O106  1  0.09190000  0.35790000  0.42160000  1.0 -0.4153981699
O  O107  1  0.06160000  0.16790000  0.80850000  1.0 -0.3086818291
O  O108  1  0.49350000  0.31370000  0.18520000  1.0 -0.4972412877
O  O109  1  0.47690000  0.14820000  0.81670000  1.0 -0.3416132175
O  O110  1  0.67230000  0.22460000  0.61480000  1.0 0.4540914702
O  O111  1  0.41674000  0.31764000  0.75134000  1.0 -0.2794310585
O  O112  1  0.61481000  0.00951000  0.64111000  1.0 -0.2291784726
O  O113  1  0.63955000  0.09945000  0.72875000  1.0 -0.2794310585
O  O114  1  0.77375000  0.07155000  0.62545000  1.0 -0.2182158001
O  O115  1  0.80755000  0.94745000  0.59185000  1.0 -0.2709108658
O  O116  1  0.68822000  0.99622000  0.50002000  1.0 -0.5092142217
O  O117  1  0.50134000  0.87144000  0.89604000  1.0 -0.2794310585
O  O118  1  0.55328000  0.91348000  0.00498000  1.0 -0.1279508002
O  O119  1  0.58747000  0.01657000  0.87037000  1.0 -0.1884606734
O  O120  1  0.61872000  0.97362000  0.75532000  1.0 -0.2709108658
O  O121  1  0.46122000  0.96212000  0.76622000  1.0 -0.2559165699
O  O122  1  0.71342000  0.16472000  0.94412000  1.0 -0.2291784726
O  O123  1  0.65500000  0.12560000  0.83760000  1.0 -0.1884606734
O  O124  1  0.62866000  0.01816000  0.96916000  1.0 -0.3039373947
O  O125  1  0.71313000  0.98463000  0.05193000  1.0 -0.2559165699
O  O126  1  0.65089000  0.15189000  0.08989000  1.0 -0.1279508002
O  O127  1  0.72583000  0.94003000  0.16303000  1.0 -0.1975924639
O  O128  1  0.61832000  0.91122000  0.09652000  1.0 -0.2794310585
O  O129  1  0.72081000  0.77451000  0.12621000  1.0 -0.2709108658
O  O130  1  0.85047000  0.78017000  0.11737000  1.0 -0.2709108658
O  O131  1  0.80268000  0.85548000  0.25458000  1.0 -0.3220217121
O  O132  1  0.61480000  0.40460000  0.85080000  1.0 -0.1975924639
O  O133  1  0.51641000  0.33651000  0.81001000  1.0 -0.4361339105
O  O134  1  0.65902000  0.29262000  0.72272000  1.0 -0.4533017171
O  O135  1  0.73063000  0.39553000  0.67423000  1.0 -0.2509409753
O  O136  1  0.75400000  0.35070000  0.85340000  1.0 -0.3596271319
O  O137  1  0.84655000  0.39825000  0.62405000  1.0 -0.2136524064
O  O138  1  0.76654000  0.29964000  0.60434000  1.0 -0.3086818291
O  O139  1  0.79038000  0.40038000  0.46668000  1.0 -0.3596271319
O  O140  1  0.79978000  0.52358000  0.46518000  1.0 -0.2509409753
O  O141  1  0.96292000  0.45002000  0.50412000  1.0 -0.1279508002
O  O142  1  0.64210000  0.90810000  0.57840000  1.0 -0.4153981699
O  O143  1  0.83210000  0.93840000  0.19150000  1.0 -0.3086818291
O  O144  1  0.68630000  0.50650000  0.81480000  1.0 -0.4972412877
O  O145  1  0.81670000  0.47690000  0.14820000  1.0 -0.3416132175
O  O146  1  0.61480000  0.67230000  0.22460000  1.0 0.4392271894
O  O147  1  0.75134000  0.41674000  0.31764000  1.0 -0.2794310585
O  O148  1  0.64111000  0.61481000  0.00951000  1.0 -0.2291784726
O  O149  1  0.72875000  0.63955000  0.09945000  1.0 -0.2794310585
O  O150  1  0.62545000  0.77375000  0.07155000  1.0 -0.2182158001
O  O151  1  0.59185000  0.80755000  0.94745000  1.0 -0.2709108658
O  O152  1  0.50002000  0.68822000  0.99622000  1.0 -0.5092142217
O  O153  1  0.89604000  0.50134000  0.87144000  1.0 -0.2794310585
O  O154  1  0.00498000  0.55328000  0.91348000  1.0 -0.1279508002
O  O155  1  0.87037000  0.58747000  0.01657000  1.0 -0.1884606734
O  O156  1  0.75532000  0.61872000  0.97362000  1.0 -0.2709108658
O  O157  1  0.76622000  0.46122000  0.96212000  1.0 -0.2509409753
O  O158  1  0.94412000  0.71342000  0.16472000  1.0 -0.2291784726
O  O159  1  0.83760000  0.65500000  0.12560000  1.0 -0.1884606734
O  O160  1  0.96916000  0.62866000  0.01816000  1.0 -0.3039373947
O  O161  1  0.05193000  0.71313000  0.98463000  1.0 -0.2509409753
O  O162  1  0.08989000  0.65089000  0.15189000  1.0 -0.1279508002
O  O163  1  0.16303000  0.72583000  0.94003000  1.0 -0.1975924639
O  O164  1  0.09652000  0.61832000  0.91122000  1.0 -0.2794310585
O  O165  1  0.12621000  0.72081000  0.77451000  1.0 -0.2709108658
O  O166  1  0.11737000  0.85047000  0.78017000  1.0 -0.2709108658
O  O167  1  0.25458000  0.80268000  0.85548000  1.0 -0.3220217121
O  O168  1  0.85080000  0.61480000  0.40460000  1.0 -0.1975924639
O  O169  1  0.81001000  0.51641000  0.33651000  1.0 -0.4342734707
O  O170  1  0.72272000  0.65902000  0.29262000  1.0 -0.4533017171
O  O171  1  0.67423000  0.73063000  0.39553000  1.0 -0.2509409753
O  O172  1  0.85340000  0.75400000  0.35070000  1.0 -0.3596271319
O  O173  1  0.62405000  0.84655000  0.39825000  1.0 -0.2136524064
O  O174  1  0.60434000  0.76654000  0.29964000  1.0 -0.3086818291
O  O175  1  0.46668000  0.79038000  0.40038000  1.0 -0.3596271319
O  O176  1  0.46518000  0.79978000  0.52358000  1.0 -0.2509409753
O  O177  1  0.50412000  0.96292000  0.45002000  1.0 -0.1279508002
O  O178  1  0.57840000  0.64210000  0.90810000  1.0 -0.4153981699
O  O179  1  0.19150000  0.83210000  0.93840000  1.0 -0.3086818291
O  O180  1  0.81480000  0.68630000  0.50650000  1.0 -0.4972412877
O  O181  1  0.14820000  0.81670000  0.47690000  1.0 -0.3416132175
O  O182  1  0.22460000  0.61480000  0.67230000  1.0 0.4392271894
O  O183  1  0.31764000  0.75134000  0.41674000  1.0 -0.2794310585
O  O184  1  0.00951000  0.64111000  0.61481000  1.0 -0.2291784726
O  O185  1  0.09945000  0.72875000  0.63955000  1.0 -0.2863990856
O  O186  1  0.07155000  0.62545000  0.77375000  1.0 -0.2182158001
O  O187  1  0.94745000  0.59185000  0.80755000  1.0 -0.2709108658
O  O188  1  0.99622000  0.50002000  0.68822000  1.0 -0.5092142217
O  O189  1  0.87144000  0.89604000  0.50134000  1.0 -0.2794310585
O  O190  1  0.91348000  0.00498000  0.55328000  1.0 -0.1279508002
O  O191  1  0.01657000  0.87037000  0.58747000  1.0 -0.1884606734
O  O192  1  0.97362000  0.75532000  0.61872000  1.0 -0.2709108658
O  O193  1  0.96212000  0.76622000  0.46122000  1.0 -0.2509409753
O  O194  1  0.16472000  0.94412000  0.71342000  1.0 -0.2291784726
O  O195  1  0.12560000  0.83760000  0.65500000  1.0 -0.1884606734
O  O196  1  0.01816000  0.96916000  0.62866000  1.0 -0.3086818291
O  O197  1  0.98463000  0.05193000  0.71313000  1.0 -0.2559165699
O  O198  1  0.15189000  0.08989000  0.65089000  1.0 -0.1279508002
O  O199  1  0.94003000  0.16303000  0.72583000  1.0 -0.1975924639
O  O200  1  0.91122000  0.09652000  0.61832000  1.0 -0.2794310585
O  O201  1  0.77451000  0.12621000  0.72081000  1.0 -0.2709108658
O  O202  1  0.78017000  0.11737000  0.85047000  1.0 -0.2709108658
O  O203  1  0.85548000  0.25458000  0.80268000  1.0 -0.3220217121
O  O204  1  0.40460000  0.85080000  0.61480000  1.0 -0.1975924639
O  O205  1  0.33651000  0.81001000  0.51641000  1.0 -0.4361339105
O  O206  1  0.29262000  0.72272000  0.65902000  1.0 -0.4533017171
O  O207  1  0.39553000  0.67423000  0.73063000  1.0 -0.2509409753
O  O208  1  0.35070000  0.85340000  0.75400000  1.0 -0.3596271319
O  O209  1  0.39825000  0.62405000  0.84655000  1.0 -0.2136524064
O  O210  1  0.29964000  0.60434000  0.76654000  1.0 -0.3086818291
O  O211  1  0.40038000  0.46668000  0.79038000  1.0 -0.3596271319
O  O212  1  0.52358000  0.46518000  0.79978000  1.0 -0.2442127434
O  O213  1  0.45002000  0.50412000  0.96292000  1.0 -0.1279508002
O  O214  1  0.90810000  0.57840000  0.64210000  1.0 -0.4153981699
O  O215  1  0.93840000  0.19150000  0.83210000  1.0 -0.3086818291
O  O216  1  0.50650000  0.81480000  0.68630000  1.0 -0.4972412877
