# DDEC6 charges by PACMAN v1.1 (https://github.com/mtap-research/PACMAN-charge/)
data_VUVYET_FSR_pacman
_symmetry_space_group_name_H-M   'P 1'
_cell_length_a   13.83420000
_cell_length_b   13.83420000
_cell_length_c   17.85400000
_cell_angle_alpha   56.24800000
_cell_angle_beta   123.75200000
_cell_angle_gamma   139.33900000
_symmetry_Int_Tables_number   1
_chemical_formula_structural   Bi(C5O2)3
_chemical_formula_sum   'Bi4 C60 O24'
_cell_volume   1793.54521103
_cell_formula_units_Z   4
loop_
 _symmetry_equiv_pos_site_id
 _symmetry_equiv_pos_as_xyz
  1  'x, y, z'
loop_
 _atom_site_type_symbol
 _atom_site_label
 _atom_site_symmetry_multiplicity
 _atom_site_fract_x
 _atom_site_fract_y
 _atom_site_fract_z
 _atom_site_occupancy
 _atom_site_charge
Bi  Bi1  1  0.05070000  0.33810000  0.60805000  1.0 1.4267095527
Bi  Bi2  1  0.66190000  0.94930000  0.10805000  1.0 1.4267095527
Bi  Bi3  1  0.33810000  0.05070000  0.89195000  1.0 1.4267095527
Bi  Bi4  1  0.94930000  0.66190000  0.39195000  1.0 1.4267095527
C  C1  1  0.08050000  0.23750000  0.52930000  1.0 0.5686188341
C  C2  1  0.09700000  0.20500000  0.47400000  1.0 -0.1000949634
C  C3  1  0.97870000  0.14610000  0.39590000  1.0 0.0680607993
C  C4  1  0.99490000  0.11510000  0.34240000  1.0 -0.0831273855
C  C5  1  0.12820000  0.14180000  0.36710000  1.0 0.0220379664
C  C6  1  0.24620000  0.20040000  0.44520000  1.0 0.0092808102
C  C7  1  0.23030000  0.23170000  0.49860000  1.0 0.0220379664
C  C8  1  0.87210000  0.05390000  0.26150000  1.0 0.5686188341
C  C9  1  0.38390000  0.22830000  0.47060000  1.0 0.0680607993
C  C10  1  0.37560000  0.13220000  0.45550000  1.0 0.056217601
C  C11  1  0.50930000  0.15930000  0.48020000  1.0 0.0680607993
C  C12  1  0.65150000  0.28250000  0.52000000  1.0 -0.0831273855
C  C13  1  0.65980000  0.37860000  0.53500000  1.0 -0.0173923285
C  C14  1  0.52600000  0.35160000  0.51030000  1.0 0.0220379664
C  C15  1  0.79000000  0.31060000  0.54550000  1.0 0.5686188341
C  C16  1  0.76250000  0.91950000  0.02930000  1.0 0.5686188341
C  C17  1  0.79500000  0.90300000  0.97400000  1.0 -0.1000949634
C  C18  1  0.85390000  0.02130000  0.89590000  1.0 0.0680607993
C  C19  1  0.88490000  0.00510000  0.84240000  1.0 -0.0831273855
C  C20  1  0.85820000  0.87180000  0.86710000  1.0 0.0220379664
C  C21  1  0.79960000  0.75380000  0.94520000  1.0 0.0092808102
C  C22  1  0.76830000  0.76970000  0.99860000  1.0 0.0092808102
C  C23  1  0.94610000  0.12790000  0.76150000  1.0 0.5686188341
C  C24  1  0.77170000  0.61610000  0.97060000  1.0 0.0680607993
C  C25  1  0.86780000  0.62440000  0.95550000  1.0 0.056217601
C  C26  1  0.84070000  0.49070000  0.98020000  1.0 0.0680607993
C  C27  1  0.71750000  0.34850000  0.02000000  1.0 -0.0831273855
C  C28  1  0.62140000  0.34020000  0.03500000  1.0 -0.0173923285
C  C29  1  0.64840000  0.47400000  0.01030000  1.0 0.0220379664
C  C30  1  0.68940000  0.21000000  0.04550000  1.0 0.5686188341
C  C31  1  0.23750000  0.08050000  0.97070000  1.0 0.5686188341
C  C32  1  0.20500000  0.09700000  0.02600000  1.0 -0.1000949634
C  C33  1  0.14610000  0.97870000  0.10410000  1.0 0.0680607993
C  C34  1  0.11510000  0.99490000  0.15760000  1.0 -0.0831273855
C  C35  1  0.14180000  0.12820000  0.13290000  1.0 0.0220379664
C  C36  1  0.20040000  0.24620000  0.05480000  1.0 0.0092808102
C  C37  1  0.23170000  0.23030000  0.00140000  1.0 0.0220379664
C  C38  1  0.05390000  0.87210000  0.23850000  1.0 0.5686188341
C  C39  1  0.22830000  0.38390000  0.02940000  1.0 0.0680607993
C  C40  1  0.13220000  0.37560000  0.04450000  1.0 0.056217601
C  C41  1  0.15930000  0.50930000  0.01980000  1.0 0.0680607993
C  C42  1  0.28250000  0.65150000  0.98000000  1.0 -0.0831273855
C  C43  1  0.37860000  0.65980000  0.96500000  1.0 -0.0173923285
C  C44  1  0.35160000  0.52600000  0.98970000  1.0 0.0273956633
C  C45  1  0.31060000  0.79000000  0.95450000  1.0 0.5686188341
C  C46  1  0.91950000  0.76250000  0.47070000  1.0 0.5686188341
C  C47  1  0.90300000  0.79500000  0.52600000  1.0 -0.1000949634
C  C48  1  0.02130000  0.85390000  0.60410000  1.0 0.0680607993
C  C49  1  0.00510000  0.88490000  0.65760000  1.0 -0.0831273855
C  C50  1  0.87180000  0.85820000  0.63290000  1.0 0.0220379664
C  C51  1  0.75380000  0.79960000  0.55480000  1.0 0.0092808102
C  C52  1  0.76970000  0.76830000  0.50140000  1.0 0.0220379664
C  C53  1  0.12790000  0.94610000  0.73850000  1.0 0.5686188341
C  C54  1  0.61610000  0.77170000  0.52940000  1.0 0.0680607993
C  C55  1  0.62440000  0.86780000  0.54450000  1.0 0.056217601
C  C56  1  0.49070000  0.84070000  0.51980000  1.0 0.0680607993
C  C57  1  0.34850000  0.71750000  0.48000000  1.0 -0.0831273855
C  C58  1  0.34020000  0.62140000  0.46500000  1.0 -0.0173923285
C  C59  1  0.47400000  0.64840000  0.48970000  1.0 0.0220379664
C  C60  1  0.21000000  0.68940000  0.45450000  1.0 0.5686188341
O  O1  1  0.19220000  0.29180000  0.60430000  1.0 -0.562867696
O  O2  1  0.95330000  0.21270000  0.50530000  1.0 -0.5128631242
O  O3  1  0.74040000  0.01760000  0.24200000  1.0 -0.5232873359
O  O4  1  0.89240000  0.03560000  0.20630000  1.0 -0.4988993057
O  O5  1  0.77990000  0.19690000  0.56050000  1.0 -0.4896588424
O  O6  1  0.92780000  0.45020000  0.55410000  1.0 -0.5951925316
O  O7  1  0.70820000  0.80780000  0.10430000  1.0 -0.562867696
O  O8  1  0.78730000  0.04670000  0.00530000  1.0 -0.5128631242
O  O9  1  0.98240000  0.25960000  0.74200000  1.0 -0.5232873359
O  O10  1  0.96440000  0.10760000  0.70630000  1.0 -0.4988993057
O  O11  1  0.80310000  0.22010000  0.06050000  1.0 -0.4896588424
O  O12  1  0.54980000  0.07220000  0.05410000  1.0 -0.5951925316
O  O13  1  0.29180000  0.19220000  0.89570000  1.0 -0.562867696
O  O14  1  0.21270000  0.95330000  0.99470000  1.0 -0.5128631242
O  O15  1  0.01760000  0.74040000  0.25800000  1.0 -0.5232873359
O  O16  1  0.03560000  0.89240000  0.29370000  1.0 -0.4988993057
O  O17  1  0.19690000  0.77990000  0.93950000  1.0 -0.4896588424
O  O18  1  0.45020000  0.92780000  0.94590000  1.0 -0.5951925316
O  O19  1  0.80780000  0.70820000  0.39570000  1.0 -0.562867696
O  O20  1  0.04670000  0.78730000  0.49470000  1.0 -0.5128631242
O  O21  1  0.25960000  0.98240000  0.75800000  1.0 -0.5232873359
O  O22  1  0.10760000  0.96440000  0.79370000  1.0 -0.4988993057
O  O23  1  0.22010000  0.80310000  0.43950000  1.0 -0.4896588424
O  O24  1  0.07220000  0.54980000  0.44590000  1.0 -0.5951925316
