# DDEC6 charges by PACMAN v1.1 (https://github.com/mtap-research/PACMAN-charge/)
data_VUWRUC_FSR_pacman
_symmetry_space_group_name_H-M   'P 1'
_cell_length_a   12.88370000
_cell_length_b   18.85750000
_cell_length_c   21.81470000
_cell_angle_alpha   90.00000000
_cell_angle_beta   90.00000000
_cell_angle_gamma   90.00000000
_symmetry_Int_Tables_number   1
_chemical_formula_structural   Nd2H40C44N2O15
_chemical_formula_sum   'Nd8 H160 C176 N8 O60'
_cell_volume   5299.97675523
_cell_formula_units_Z   4
loop_
 _symmetry_equiv_pos_site_id
 _symmetry_equiv_pos_as_xyz
  1  'x, y, z'
loop_
 _atom_site_type_symbol
 _atom_site_label
 _atom_site_symmetry_multiplicity
 _atom_site_fract_x
 _atom_site_fract_y
 _atom_site_fract_z
 _atom_site_occupancy
 _atom_site_charge
Nd  Nd1  1  0.74718000  0.49467000  0.75000000  1.0 2.1089661178
Nd  Nd2  1  0.24718000  0.00533000  0.25000000  1.0 2.1089661178
Nd  Nd3  1  0.25282000  0.50533000  0.25000000  1.0 2.1089661178
Nd  Nd4  1  0.75282000  0.99467000  0.75000000  1.0 2.1089661178
Nd  Nd5  1  0.65527000  0.21465000  0.75000000  1.0 2.1281182822
Nd  Nd6  1  0.15527000  0.28535000  0.25000000  1.0 2.1281182822
Nd  Nd7  1  0.34473000  0.78535000  0.25000000  1.0 2.1281182822
Nd  Nd8  1  0.84473000  0.71465000  0.75000000  1.0 2.1281182822
H  H1  1  0.51900000  0.40290000  0.75000000  1.0 0.397682417
H  H2  1  0.01900000  0.09710000  0.25000000  1.0 0.397682417
H  H3  1  0.48100000  0.59710000  0.25000000  1.0 0.397682417
H  H4  1  0.98100000  0.90290000  0.75000000  1.0 0.397682417
H  H5  1  0.52630000  0.47960000  0.75000000  1.0 0.397682417
H  H6  1  0.02630000  0.02040000  0.25000000  1.0 0.3947883901
H  H7  1  0.47370000  0.52040000  0.25000000  1.0 0.397682417
H  H8  1  0.97370000  0.97960000  0.75000000  1.0 0.397682417
H  H9  1  0.43260000  0.28060000  0.72370000  1.0 0.3075493333
H  H10  1  0.93260000  0.21940000  0.27630000  1.0 0.3075493333
H  H11  1  0.56740000  0.71940000  0.22370000  1.0 0.3075493333
H  H12  1  0.06740000  0.78060000  0.77630000  1.0 0.3075493333
H  H13  1  0.56740000  0.71940000  0.27630000  1.0 0.3075493333
H  H14  1  0.06740000  0.78060000  0.72370000  1.0 0.3075493333
H  H15  1  0.43260000  0.28060000  0.77630000  1.0 0.3075493333
H  H16  1  0.93260000  0.21940000  0.22370000  1.0 0.3075493333
H  H17  1  0.68910000  0.46960000  0.56940000  1.0 0.1197820158
H  H18  1  0.18910000  0.03040000  0.43060000  1.0 0.1197820158
H  H19  1  0.31090000  0.53040000  0.06940000  1.0 0.1197820158
H  H20  1  0.81090000  0.96960000  0.93060000  1.0 0.1197820158
H  H21  1  0.31090000  0.53040000  0.43060000  1.0 0.1197820158
H  H22  1  0.81090000  0.96960000  0.56940000  1.0 0.1197820158
H  H23  1  0.68910000  0.46960000  0.93060000  1.0 0.1197820158
H  H24  1  0.18910000  0.03040000  0.06940000  1.0 0.1197820158
H  H25  1  0.61530000  0.48470000  0.47530000  1.0 0.1133843531
H  H26  1  0.11530000  0.01530000  0.52470000  1.0 0.1133843531
H  H27  1  0.38470000  0.51530000  0.97530000  1.0 0.1133843531
H  H28  1  0.88470000  0.98470000  0.02470000  1.0 0.1133843531
H  H29  1  0.38470000  0.51530000  0.52470000  1.0 0.1133843531
H  H30  1  0.88470000  0.98470000  0.47530000  1.0 0.1133843531
H  H31  1  0.61530000  0.48470000  0.02470000  1.0 0.1133843531
H  H32  1  0.11530000  0.01530000  0.97530000  1.0 0.1133843531
H  H33  1  0.48920000  0.44510000  0.39520000  1.0 0.1197820158
H  H34  1  0.98920000  0.05490000  0.60480000  1.0 0.1197820158
H  H35  1  0.51080000  0.55490000  0.89520000  1.0 0.1197820158
H  H36  1  0.01080000  0.94510000  0.10480000  1.0 0.1197820158
H  H37  1  0.51080000  0.55490000  0.60480000  1.0 0.1197820158
H  H38  1  0.01080000  0.94510000  0.39520000  1.0 0.1197820158
H  H39  1  0.48920000  0.44510000  0.10480000  1.0 0.1197820158
H  H40  1  0.98920000  0.05490000  0.89520000  1.0 0.1197820158
H  H41  1  0.34260000  0.25690000  0.41460000  1.0 0.1197820158
H  H42  1  0.84260000  0.24310000  0.58540000  1.0 0.1197820158
H  H43  1  0.65740000  0.74310000  0.91460000  1.0 0.1197820158
H  H44  1  0.15740000  0.75690000  0.08540000  1.0 0.1197820158
H  H45  1  0.65740000  0.74310000  0.58540000  1.0 0.1197820158
H  H46  1  0.15740000  0.75690000  0.41460000  1.0 0.1197820158
H  H47  1  0.34260000  0.25690000  0.08540000  1.0 0.1197820158
H  H48  1  0.84260000  0.24310000  0.91460000  1.0 0.1197820158
H  H49  1  0.42730000  0.23630000  0.50600000  1.0 0.1133843531
H  H50  1  0.92730000  0.26370000  0.49400000  1.0 0.1133843531
H  H51  1  0.57270000  0.76370000  0.00600000  1.0 0.1133843531
H  H52  1  0.07270000  0.73630000  0.99400000  1.0 0.1133843531
H  H53  1  0.57270000  0.76370000  0.49400000  1.0 0.1133843531
H  H54  1  0.07270000  0.73630000  0.50600000  1.0 0.1133843531
H  H55  1  0.42730000  0.23630000  0.99400000  1.0 0.1133843531
H  H56  1  0.92730000  0.26370000  0.00600000  1.0 0.1133843531
H  H57  1  0.55490000  0.27690000  0.58690000  1.0 0.1262083185
H  H58  1  0.05490000  0.22310000  0.41310000  1.0 0.1262083185
H  H59  1  0.44510000  0.72310000  0.08690000  1.0 0.1262083185
H  H60  1  0.94510000  0.77690000  0.91310000  1.0 0.1262083185
H  H61  1  0.44510000  0.72310000  0.41310000  1.0 0.1262083185
H  H62  1  0.94510000  0.77690000  0.58690000  1.0 0.1262083185
H  H63  1  0.55490000  0.27690000  0.91310000  1.0 0.1262083185
H  H64  1  0.05490000  0.22310000  0.08690000  1.0 0.1262083185
H  H65  1  0.63230000  0.98610000  0.59260000  1.0 0.1197820158
H  H66  1  0.13230000  0.51390000  0.40740000  1.0 0.1197820158
H  H67  1  0.36770000  0.01390000  0.09260000  1.0 0.1197820158
H  H68  1  0.86770000  0.48610000  0.90740000  1.0 0.1197820158
H  H69  1  0.36770000  0.01390000  0.40740000  1.0 0.1197820158
H  H70  1  0.86770000  0.48610000  0.59260000  1.0 0.1197820158
H  H71  1  0.63230000  0.98610000  0.90740000  1.0 0.1197820158
H  H72  1  0.13230000  0.51390000  0.09260000  1.0 0.1197820158
H  H73  1  0.35790000  0.10200000  0.49330000  1.0 0.1197820158
H  H74  1  0.85790000  0.39800000  0.50670000  1.0 0.1197820158
H  H75  1  0.64210000  0.89800000  0.99330000  1.0 0.1197820158
H  H76  1  0.14210000  0.60200000  0.00670000  1.0 0.1197820158
H  H77  1  0.64210000  0.89800000  0.50670000  1.0 0.1197820158
H  H78  1  0.14210000  0.60200000  0.49330000  1.0 0.1197820158
H  H79  1  0.35790000  0.10200000  0.00670000  1.0 0.1197820158
H  H80  1  0.85790000  0.39800000  0.99330000  1.0 0.1197820158
H  H81  1  0.42120000  0.14500000  0.58490000  1.0 0.1197820158
H  H82  1  0.92120000  0.35500000  0.41510000  1.0 0.1197820158
H  H83  1  0.57880000  0.85500000  0.08490000  1.0 0.1197820158
H  H84  1  0.07880000  0.64500000  0.91510000  1.0 0.1197820158
H  H85  1  0.57880000  0.85500000  0.41510000  1.0 0.1197820158
H  H86  1  0.07880000  0.64500000  0.58490000  1.0 0.1197820158
H  H87  1  0.42120000  0.14500000  0.91510000  1.0 0.1197820158
H  H88  1  0.92120000  0.35500000  0.08490000  1.0 0.1197820158
H  H89  1  0.92600000  0.37350000  0.64640000  1.0 0.0783262401
H  H90  1  0.42600000  0.12650000  0.35360000  1.0 0.0783262401
H  H91  1  0.07400000  0.62650000  0.14640000  1.0 0.0783262401
H  H92  1  0.57400000  0.87350000  0.85360000  1.0 0.0783262401
H  H93  1  0.07400000  0.62650000  0.35360000  1.0 0.0783262401
H  H94  1  0.57400000  0.87350000  0.64640000  1.0 0.0783262401
H  H95  1  0.92600000  0.37350000  0.85360000  1.0 0.0783262401
H  H96  1  0.42600000  0.12650000  0.14640000  1.0 0.0783262401
H  H97  1  0.03810000  0.34500000  0.65950000  1.0 0.0704575512
H  H98  1  0.53810000  0.15500000  0.34050000  1.0 0.0704575512
H  H99  1  0.96190000  0.65500000  0.15950000  1.0 0.0704575512
H  H100  1  0.46190000  0.84500000  0.84050000  1.0 0.0704575512
H  H101  1  0.96190000  0.65500000  0.34050000  1.0 0.0704575512
H  H102  1  0.46190000  0.84500000  0.65950000  1.0 0.0704575512
H  H103  1  0.03810000  0.34500000  0.84050000  1.0 0.0704575512
H  H104  1  0.53810000  0.15500000  0.15950000  1.0 0.0704575512
H  H105  1  0.94120000  0.29860000  0.67620000  1.0 0.0857921747
H  H106  1  0.44120000  0.20140000  0.32380000  1.0 0.0857921747
H  H107  1  0.05880000  0.70140000  0.17620000  1.0 0.0857921747
H  H108  1  0.55880000  0.79860000  0.82380000  1.0 0.0857921747
H  H109  1  0.05880000  0.70140000  0.32380000  1.0 0.0857921747
H  H110  1  0.55880000  0.79860000  0.67620000  1.0 0.0857921747
H  H111  1  0.94120000  0.29860000  0.82380000  1.0 0.0857921747
H  H112  1  0.44120000  0.20140000  0.17620000  1.0 0.0857921747
H  H113  1  0.97260000  0.41940000  0.84020000  1.0 0.0783262401
H  H114  1  0.47260000  0.08060000  0.15980000  1.0 0.0783262401
H  H115  1  0.02740000  0.58060000  0.34020000  1.0 0.0783262401
H  H116  1  0.52740000  0.91940000  0.65980000  1.0 0.0783262401
H  H117  1  0.02740000  0.58060000  0.15980000  1.0 0.0783262401
H  H118  1  0.52740000  0.91940000  0.84020000  1.0 0.0783262401
H  H119  1  0.97260000  0.41940000  0.65980000  1.0 0.0783262401
H  H120  1  0.47260000  0.08060000  0.34020000  1.0 0.0783262401
H  H121  1  0.97360000  0.34160000  0.86550000  1.0 0.0783262401
H  H122  1  0.47360000  0.15840000  0.13450000  1.0 0.0704575512
H  H123  1  0.02640000  0.65840000  0.36550000  1.0 0.0704575512
H  H124  1  0.52640000  0.84160000  0.63450000  1.0 0.0783262401
H  H125  1  0.02640000  0.65840000  0.13450000  1.0 0.0704575512
H  H126  1  0.52640000  0.84160000  0.86550000  1.0 0.0783262401
H  H127  1  0.97360000  0.34160000  0.63450000  1.0 0.0783262401
H  H128  1  0.47360000  0.15840000  0.36550000  1.0 0.0704575512
H  H129  1  0.07820000  0.38310000  0.85720000  1.0 0.0975378362
H  H130  1  0.57820000  0.11690000  0.14280000  1.0 0.0975378362
H  H131  1  0.92180000  0.61690000  0.35720000  1.0 0.0975378362
H  H132  1  0.42180000  0.88310000  0.64280000  1.0 0.0975378362
H  H133  1  0.92180000  0.61690000  0.14280000  1.0 0.0975378362
H  H134  1  0.42180000  0.88310000  0.85720000  1.0 0.0975378362
H  H135  1  0.07820000  0.38310000  0.64280000  1.0 0.0975378362
H  H136  1  0.57820000  0.11690000  0.35720000  1.0 0.0975378362
H  H137  1  0.08360000  0.27080000  0.72880000  1.0 0.0235479456
H  H138  1  0.58360000  0.22920000  0.27120000  1.0 0.0235479456
H  H139  1  0.91640000  0.72920000  0.22880000  1.0 0.0235479456
H  H140  1  0.41640000  0.77080000  0.77120000  1.0 0.0235479456
H  H141  1  0.91640000  0.72920000  0.27120000  1.0 0.0235479456
H  H142  1  0.41640000  0.77080000  0.72880000  1.0 0.0235479456
H  H143  1  0.08360000  0.27080000  0.77120000  1.0 0.0235479456
H  H144  1  0.58360000  0.22920000  0.22880000  1.0 0.0235479456
H  H145  1  0.15220000  0.28870000  0.78620000  1.0 0.0597044659
H  H146  1  0.65220000  0.21130000  0.21380000  1.0 0.0597044659
H  H147  1  0.84780000  0.71130000  0.28620000  1.0 0.0597044659
H  H148  1  0.34780000  0.78870000  0.71380000  1.0 0.0597044659
H  H149  1  0.84780000  0.71130000  0.21380000  1.0 0.0597044659
H  H150  1  0.34780000  0.78870000  0.78620000  1.0 0.0597044659
H  H151  1  0.15220000  0.28870000  0.71380000  1.0 0.0597044659
H  H152  1  0.65220000  0.21130000  0.28620000  1.0 0.0597044659
H  H153  1  0.04770000  0.24720000  0.79440000  1.0 0.0783262401
H  H154  1  0.54770000  0.25280000  0.20560000  1.0 0.0783262401
H  H155  1  0.95230000  0.75280000  0.29440000  1.0 0.0783262401
H  H156  1  0.45230000  0.74720000  0.70560000  1.0 0.0783262401
H  H157  1  0.95230000  0.75280000  0.20560000  1.0 0.0783262401
H  H158  1  0.45230000  0.74720000  0.79440000  1.0 0.0783262401
H  H159  1  0.04770000  0.24720000  0.70560000  1.0 0.0783262401
H  H160  1  0.54770000  0.25280000  0.29440000  1.0 0.0783262401
C  C1  1  0.63110000  0.37060000  0.58630000  1.0 -0.0191032616
C  C2  1  0.13110000  0.12940000  0.41370000  1.0 -0.0191032616
C  C3  1  0.36890000  0.62940000  0.08630000  1.0 -0.0191032616
C  C4  1  0.86890000  0.87060000  0.91370000  1.0 -0.0191032616
C  C5  1  0.36890000  0.62940000  0.41370000  1.0 -0.0191032616
C  C6  1  0.86890000  0.87060000  0.58630000  1.0 -0.0191032616
C  C7  1  0.63110000  0.37060000  0.91370000  1.0 -0.0191032616
C  C8  1  0.13110000  0.12940000  0.08630000  1.0 -0.0191032616
C  C9  1  0.64610000  0.43340000  0.55300000  1.0 -0.1230418327
C  C10  1  0.14610000  0.06660000  0.44700000  1.0 -0.1230418327
C  C11  1  0.35390000  0.56660000  0.05300000  1.0 -0.1230418327
C  C12  1  0.85390000  0.93340000  0.94700000  1.0 -0.1230418327
C  C13  1  0.35390000  0.56660000  0.44700000  1.0 -0.1230418327
C  C14  1  0.85390000  0.93340000  0.55300000  1.0 -0.1230418327
C  C15  1  0.64610000  0.43340000  0.94700000  1.0 -0.1230418327
C  C16  1  0.14610000  0.06660000  0.05300000  1.0 -0.1230418327
C  C17  1  0.60050000  0.44290000  0.49810000  1.0 -0.1399328652
C  C18  1  0.10050000  0.05710000  0.50190000  1.0 -0.1399328652
C  C19  1  0.39950000  0.55710000  0.99810000  1.0 -0.1399328652
C  C20  1  0.89950000  0.94290000  0.00190000  1.0 -0.1399328652
C  C21  1  0.39950000  0.55710000  0.50190000  1.0 -0.1399328652
C  C22  1  0.89950000  0.94290000  0.49810000  1.0 -0.1399328652
C  C23  1  0.60050000  0.44290000  0.00190000  1.0 -0.1399328652
C  C24  1  0.10050000  0.05710000  0.99810000  1.0 -0.1399328652
C  C25  1  0.53150000  0.39240000  0.47380000  1.0 0.0704575512
C  C26  1  0.03150000  0.10760000  0.52620000  1.0 0.0704575512
C  C27  1  0.46850000  0.60760000  0.97380000  1.0 0.0704575512
C  C28  1  0.96850000  0.89240000  0.02620000  1.0 0.0704575512
C  C29  1  0.46850000  0.60760000  0.52620000  1.0 0.0704575512
C  C30  1  0.96850000  0.89240000  0.47380000  1.0 0.0704575512
C  C31  1  0.53150000  0.39240000  0.02620000  1.0 0.0704575512
C  C32  1  0.03150000  0.10760000  0.97380000  1.0 0.0704575512
C  C33  1  0.47700000  0.40310000  0.41820000  1.0 -0.1602732818
C  C34  1  0.97700000  0.09690000  0.58180000  1.0 -0.1602732818
C  C35  1  0.52300000  0.59690000  0.91820000  1.0 -0.1602732818
C  C36  1  0.02300000  0.90310000  0.08180000  1.0 -0.1602732818
C  C37  1  0.52300000  0.59690000  0.58180000  1.0 -0.1602732818
C  C38  1  0.02300000  0.90310000  0.41820000  1.0 -0.1602732818
C  C39  1  0.47700000  0.40310000  0.08180000  1.0 -0.1602732818
C  C40  1  0.97700000  0.09690000  0.91820000  1.0 -0.1602732818
C  C41  1  0.40730000  0.35440000  0.39670000  1.0 -0.0191032616
C  C42  1  0.90730000  0.14560000  0.60330000  1.0 -0.0191032616
C  C43  1  0.59270000  0.64560000  0.89670000  1.0 -0.0191032616
C  C44  1  0.09270000  0.85440000  0.10330000  1.0 -0.0191032616
C  C45  1  0.59270000  0.64560000  0.60330000  1.0 -0.0191032616
C  C46  1  0.09270000  0.85440000  0.39670000  1.0 -0.0191032616
C  C47  1  0.40730000  0.35440000  0.10330000  1.0 -0.0191032616
C  C48  1  0.90730000  0.14560000  0.89670000  1.0 -0.0191032616
C  C49  1  0.38990000  0.29120000  0.43000000  1.0 -0.1230418327
C  C50  1  0.88990000  0.20880000  0.57000000  1.0 -0.1253356057
C  C51  1  0.61010000  0.70880000  0.93000000  1.0 -0.1253356057
C  C52  1  0.11010000  0.79120000  0.07000000  1.0 -0.1230418327
C  C53  1  0.61010000  0.70880000  0.57000000  1.0 -0.1253356057
C  C54  1  0.11010000  0.79120000  0.43000000  1.0 -0.1230418327
C  C55  1  0.38990000  0.29120000  0.07000000  1.0 -0.1230418327
C  C56  1  0.88990000  0.20880000  0.93000000  1.0 -0.1253356057
C  C57  1  0.44040000  0.27900000  0.48410000  1.0 -0.1602732818
C  C58  1  0.94040000  0.22100000  0.51590000  1.0 -0.1602732818
C  C59  1  0.55960000  0.72100000  0.98410000  1.0 -0.1602732818
C  C60  1  0.05960000  0.77900000  0.01590000  1.0 -0.1602732818
C  C61  1  0.55960000  0.72100000  0.51590000  1.0 -0.1602732818
C  C62  1  0.05960000  0.77900000  0.48410000  1.0 -0.1602732818
C  C63  1  0.44040000  0.27900000  0.01590000  1.0 -0.1602732818
C  C64  1  0.94040000  0.22100000  0.98410000  1.0 -0.1602732818
C  C65  1  0.51240000  0.32930000  0.50830000  1.0 0.0704575512
C  C66  1  0.01240000  0.17070000  0.49170000  1.0 0.0704575512
C  C67  1  0.48760000  0.67070000  0.00830000  1.0 0.0704575512
C  C68  1  0.98760000  0.82930000  0.99170000  1.0 0.0704575512
C  C69  1  0.48760000  0.67070000  0.49170000  1.0 0.0704575512
C  C70  1  0.98760000  0.82930000  0.50830000  1.0 0.0704575512
C  C71  1  0.51240000  0.32930000  0.99170000  1.0 0.0704575512
C  C72  1  0.01240000  0.17070000  0.00830000  1.0 0.0704575512
C  C73  1  0.56510000  0.31940000  0.56420000  1.0 -0.1702175493
C  C74  1  0.06510000  0.18060000  0.43580000  1.0 -0.1702175493
C  C75  1  0.43490000  0.68060000  0.06420000  1.0 -0.1702175493
C  C76  1  0.93490000  0.81940000  0.93580000  1.0 -0.1702175493
C  C77  1  0.43490000  0.68060000  0.43580000  1.0 -0.1702175493
C  C78  1  0.93490000  0.81940000  0.56420000  1.0 -0.1702175493
C  C79  1  0.56510000  0.31940000  0.93580000  1.0 -0.1702175493
C  C80  1  0.06510000  0.18060000  0.06420000  1.0 -0.1702175493
C  C81  1  0.68360000  0.36270000  0.64810000  1.0 0.6214554292
C  C82  1  0.18360000  0.13730000  0.35190000  1.0 0.6214554292
C  C83  1  0.31640000  0.63730000  0.14810000  1.0 0.6214554292
C  C84  1  0.81640000  0.86270000  0.85190000  1.0 0.6214554292
C  C85  1  0.31640000  0.63730000  0.35190000  1.0 0.6214554292
C  C86  1  0.81640000  0.86270000  0.64810000  1.0 0.6214554292
C  C87  1  0.68360000  0.36270000  0.85190000  1.0 0.6214554292
C  C88  1  0.18360000  0.13730000  0.14810000  1.0 0.6214554292
C  C89  1  0.34610000  0.37000000  0.33880000  1.0 0.6214554292
C  C90  1  0.84610000  0.13000000  0.66120000  1.0 0.6214554292
C  C91  1  0.65390000  0.63000000  0.83880000  1.0 0.6214554292
C  C92  1  0.15390000  0.87000000  0.16120000  1.0 0.6214554292
C  C93  1  0.65390000  0.63000000  0.66120000  1.0 0.6214554292
C  C94  1  0.15390000  0.87000000  0.33880000  1.0 0.6214554292
C  C95  1  0.34610000  0.37000000  0.16120000  1.0 0.6214554292
C  C96  1  0.84610000  0.13000000  0.83880000  1.0 0.6214554292
C  C97  1  0.53450000  0.06950000  0.59690000  1.0 -0.0313410665
C  C98  1  0.03450000  0.43050000  0.40310000  1.0 -0.0313410665
C  C99  1  0.46550000  0.93050000  0.09690000  1.0 -0.0313410665
C  C100  1  0.96550000  0.56950000  0.90310000  1.0 -0.0313410665
C  C101  1  0.46550000  0.93050000  0.40310000  1.0 -0.0313410665
C  C102  1  0.96550000  0.56950000  0.59690000  1.0 -0.0313410665
C  C103  1  0.53450000  0.06950000  0.90310000  1.0 -0.0313410665
C  C104  1  0.03450000  0.43050000  0.09690000  1.0 -0.0313410665
C  C105  1  0.57760000  0.00960000  0.57170000  1.0 -0.1702175493
C  C106  1  0.07760000  0.49040000  0.42830000  1.0 -0.1702175493
C  C107  1  0.42240000  0.99040000  0.07170000  1.0 -0.1702175493
C  C108  1  0.92240000  0.50960000  0.92830000  1.0 -0.1702175493
C  C109  1  0.42240000  0.99040000  0.42830000  1.0 -0.1702175493
C  C110  1  0.92240000  0.50960000  0.57170000  1.0 -0.1702175493
C  C111  1  0.57760000  0.00960000  0.92830000  1.0 -0.1702175493
C  C112  1  0.07760000  0.49040000  0.07170000  1.0 -0.1702175493
C  C113  1  0.54200000  0.98260000  0.51510000  1.0 0.0704575512
C  C114  1  0.04200000  0.51740000  0.48490000  1.0 0.0704575512
C  C115  1  0.45800000  0.01740000  0.01510000  1.0 0.0704575512
C  C116  1  0.95800000  0.48260000  0.98490000  1.0 0.0704575512
C  C117  1  0.45800000  0.01740000  0.48490000  1.0 0.0704575512
C  C118  1  0.95800000  0.48260000  0.51510000  1.0 0.0704575512
C  C119  1  0.54200000  0.98260000  0.98490000  1.0 0.0704575512
C  C120  1  0.04200000  0.51740000  0.01510000  1.0 0.0704575512
C  C121  1  0.41420000  0.07840000  0.51280000  1.0 -0.1602732818
C  C122  1  0.91420000  0.42160000  0.48720000  1.0 -0.1602732818
C  C123  1  0.58580000  0.92160000  0.01280000  1.0 -0.1602732818
C  C124  1  0.08580000  0.57840000  0.98720000  1.0 -0.1602732818
C  C125  1  0.58580000  0.92160000  0.48720000  1.0 -0.1602732818
C  C126  1  0.08580000  0.57840000  0.51280000  1.0 -0.1602732818
C  C127  1  0.41420000  0.07840000  0.98720000  1.0 -0.1602732818
C  C128  1  0.91420000  0.42160000  0.01280000  1.0 -0.1602732818
C  C129  1  0.45140000  0.10390000  0.56710000  1.0 -0.1121259517
C  C130  1  0.95140000  0.39610000  0.43290000  1.0 -0.1121259517
C  C131  1  0.54860000  0.89610000  0.06710000  1.0 -0.1121259517
C  C132  1  0.04860000  0.60390000  0.93290000  1.0 -0.1121259517
C  C133  1  0.54860000  0.89610000  0.43290000  1.0 -0.1121259517
C  C134  1  0.04860000  0.60390000  0.56710000  1.0 -0.1121259517
C  C135  1  0.45140000  0.10390000  0.93290000  1.0 -0.1121259517
C  C136  1  0.95140000  0.39610000  0.06710000  1.0 -0.1121259517
C  C137  1  0.57720000  0.09830000  0.65550000  1.0 0.6256212649
C  C138  1  0.07720000  0.40170000  0.34450000  1.0 0.6256212649
C  C139  1  0.42280000  0.90170000  0.15550000  1.0 0.6256212649
C  C140  1  0.92280000  0.59830000  0.84450000  1.0 0.6256212649
C  C141  1  0.42280000  0.90170000  0.34450000  1.0 0.6256212649
C  C142  1  0.92280000  0.59830000  0.65550000  1.0 0.6256212649
C  C143  1  0.57720000  0.09830000  0.84450000  1.0 0.6256212649
C  C144  1  0.07720000  0.40170000  0.15550000  1.0 0.6256212649
C  C145  1  0.96450000  0.38010000  0.73710000  1.0 0.1880031732
C  C146  1  0.46450000  0.11990000  0.26290000  1.0 0.1880031732
C  C147  1  0.03550000  0.61990000  0.23710000  1.0 0.1880031732
C  C148  1  0.53550000  0.88010000  0.76290000  1.0 0.1880031732
C  C149  1  0.03550000  0.61990000  0.26290000  1.0 0.1880031732
C  C150  1  0.53550000  0.88010000  0.73710000  1.0 0.1880031732
C  C151  1  0.96450000  0.38010000  0.76290000  1.0 0.1880031732
C  C152  1  0.46450000  0.11990000  0.23710000  1.0 0.1880031732
C  C153  1  0.96780000  0.34610000  0.67410000  1.0 -0.1230418327
C  C154  1  0.46780000  0.15390000  0.32590000  1.0 -0.1230418327
C  C155  1  0.03220000  0.65390000  0.17410000  1.0 -0.1230418327
C  C156  1  0.53220000  0.84610000  0.82590000  1.0 -0.1230418327
C  C157  1  0.03220000  0.65390000  0.32590000  1.0 -0.1230418327
C  C158  1  0.53220000  0.84610000  0.67410000  1.0 -0.1230418327
C  C159  1  0.96780000  0.34610000  0.82590000  1.0 -0.1230418327
C  C160  1  0.46780000  0.15390000  0.17410000  1.0 -0.1230418327
C  C161  1  0.01010000  0.37550000  0.84060000  1.0 -0.202004129
C  C162  1  0.51010000  0.12450000  0.15940000  1.0 -0.202004129
C  C163  1  0.98990000  0.62450000  0.34060000  1.0 -0.202004129
C  C164  1  0.48990000  0.87550000  0.65940000  1.0 -0.202004129
C  C165  1  0.98990000  0.62450000  0.15940000  1.0 -0.202004129
C  C166  1  0.48990000  0.87550000  0.84060000  1.0 -0.202004129
C  C167  1  0.01010000  0.37550000  0.65940000  1.0 -0.202004129
C  C168  1  0.51010000  0.12450000  0.34060000  1.0 -0.202004129
C  C169  1  0.08240000  0.28360000  0.77140000  1.0 -0.1520916129
C  C170  1  0.58240000  0.21640000  0.22860000  1.0 -0.1520916129
C  C171  1  0.91760000  0.71640000  0.27140000  1.0 -0.1520916129
C  C172  1  0.41760000  0.78360000  0.72860000  1.0 -0.1520916129
C  C173  1  0.91760000  0.71640000  0.22860000  1.0 -0.1520916129
C  C174  1  0.41760000  0.78360000  0.77140000  1.0 -0.1520916129
C  C175  1  0.08240000  0.28360000  0.72860000  1.0 -0.1520916129
C  C176  1  0.58240000  0.21640000  0.27140000  1.0 -0.1520916129
N  N1  1  0.01700000  0.34710000  0.77820000  1.0 0.0783262401
N  N2  1  0.51700000  0.15290000  0.22180000  1.0 0.0783262401
N  N3  1  0.98300000  0.65290000  0.27820000  1.0 0.0704575512
N  N4  1  0.48300000  0.84710000  0.72180000  1.0 0.0783262401
N  N5  1  0.98300000  0.65290000  0.22180000  1.0 0.0704575512
N  N6  1  0.48300000  0.84710000  0.77820000  1.0 0.0783262401
N  N7  1  0.01700000  0.34710000  0.72180000  1.0 0.0783262401
N  N8  1  0.51700000  0.15290000  0.27820000  1.0 0.0783262401
O  O1  1  0.73960000  0.41258000  0.66582000  1.0 -0.6600663606
O  O2  1  0.23960000  0.08742000  0.33418000  1.0 -0.6600663606
O  O3  1  0.26040000  0.58742000  0.16582000  1.0 -0.6600663606
O  O4  1  0.76040000  0.91258000  0.83418000  1.0 -0.6600663606
O  O5  1  0.26040000  0.58742000  0.33418000  1.0 -0.6600663606
O  O6  1  0.76040000  0.91258000  0.66582000  1.0 -0.6600663606
O  O7  1  0.73960000  0.41258000  0.83418000  1.0 -0.6600663606
O  O8  1  0.23960000  0.08742000  0.16582000  1.0 -0.6600663606
O  O9  1  0.66730000  0.30651000  0.67736000  1.0 -0.6692170444
O  O10  1  0.16730000  0.19349000  0.32264000  1.0 -0.6692170444
O  O11  1  0.33270000  0.69349000  0.17736000  1.0 -0.6692170444
O  O12  1  0.83270000  0.80651000  0.82264000  1.0 -0.6692170444
O  O13  1  0.33270000  0.69349000  0.32264000  1.0 -0.6692170444
O  O14  1  0.83270000  0.80651000  0.67736000  1.0 -0.6692170444
O  O15  1  0.66730000  0.30651000  0.82264000  1.0 -0.6692170444
O  O16  1  0.16730000  0.19349000  0.17736000  1.0 -0.6692170444
O  O17  1  0.35610000  0.43080000  0.31685000  1.0 -0.6692170444
O  O18  1  0.85610000  0.06920000  0.68315000  1.0 -0.6692170444
O  O19  1  0.64390000  0.56920000  0.81685000  1.0 -0.6692170444
O  O20  1  0.14390000  0.93080000  0.18315000  1.0 -0.6692170444
O  O21  1  0.64390000  0.56920000  0.68315000  1.0 -0.6692170444
O  O22  1  0.14390000  0.93080000  0.31685000  1.0 -0.6692170444
O  O23  1  0.35610000  0.43080000  0.18315000  1.0 -0.6692170444
O  O24  1  0.85610000  0.06920000  0.81685000  1.0 -0.6692170444
O  O25  1  0.29160000  0.32030000  0.31798000  1.0 -0.6868712846
O  O26  1  0.79160000  0.17970000  0.68202000  1.0 -0.6868712846
O  O27  1  0.70840000  0.67970000  0.81798000  1.0 -0.6868712846
O  O28  1  0.20840000  0.82030000  0.18202000  1.0 -0.6868712846
O  O29  1  0.70840000  0.67970000  0.68202000  1.0 -0.6868712846
O  O30  1  0.20840000  0.82030000  0.31798000  1.0 -0.6868712846
O  O31  1  0.29160000  0.32030000  0.18202000  1.0 -0.6868712846
O  O32  1  0.79160000  0.17970000  0.81798000  1.0 -0.6868712846
O  O33  1  0.64150000  0.06260000  0.68480000  1.0 -0.7006860319
O  O34  1  0.14150000  0.43740000  0.31520000  1.0 -0.7006860319
O  O35  1  0.35850000  0.93740000  0.18480000  1.0 -0.7006860319
O  O36  1  0.85850000  0.56260000  0.81520000  1.0 -0.7006860319
O  O37  1  0.35850000  0.93740000  0.31520000  1.0 -0.7006860319
O  O38  1  0.85850000  0.56260000  0.68480000  1.0 -0.7006860319
O  O39  1  0.64150000  0.06260000  0.81520000  1.0 -0.7006860319
O  O40  1  0.14150000  0.43740000  0.18480000  1.0 -0.7006860319
O  O41  1  0.54750000  0.15890000  0.67233000  1.0 -0.6692170444
O  O42  1  0.04750000  0.34110000  0.32767000  1.0 -0.6692170444
O  O43  1  0.45250000  0.84110000  0.17233000  1.0 -0.6692170444
O  O44  1  0.95250000  0.65890000  0.82767000  1.0 -0.6692170444
O  O45  1  0.45250000  0.84110000  0.32767000  1.0 -0.6692170444
O  O46  1  0.95250000  0.65890000  0.67233000  1.0 -0.6692170444
O  O47  1  0.54750000  0.15890000  0.82767000  1.0 -0.6692170444
O  O48  1  0.04750000  0.34110000  0.17233000  1.0 -0.6692170444
O  O49  1  0.56640000  0.43930000  0.75000000  1.0 -0.8190890494
O  O50  1  0.06640000  0.06070000  0.25000000  1.0 -0.8190890494
O  O51  1  0.43360000  0.56070000  0.25000000  1.0 -0.8190890494
O  O52  1  0.93360000  0.93930000  0.75000000  1.0 -0.8190890494
O  O53  1  0.48510000  0.28460000  0.75000000  1.0 -0.7196385208
O  O54  1  0.98510000  0.21540000  0.25000000  1.0 -0.7196385208
O  O55  1  0.51490000  0.71540000  0.25000000  1.0 -0.7196385208
O  O56  1  0.01490000  0.78460000  0.75000000  1.0 -0.7196385208
O  O57  1  0.91570000  0.43290000  0.75000000  1.0 -0.3877817037
O  O58  1  0.41570000  0.06710000  0.25000000  1.0 -0.3877817037
O  O59  1  0.08430000  0.56710000  0.25000000  1.0 -0.3877817037
O  O60  1  0.58430000  0.93290000  0.75000000  1.0 -0.3877817037
