# DDEC6 charges by PACMAN v1.1 (https://github.com/mtap-research/PACMAN-charge/)
data_VUZFAA_ion_pacman
_symmetry_space_group_name_H-M   'P 1'
_cell_length_a   31.64190000
_cell_length_b   31.64190000
_cell_length_c   31.64190000
_cell_angle_alpha   112.75200000
_cell_angle_beta   112.75200000
_cell_angle_gamma   112.75200000
_symmetry_Int_Tables_number   1
_chemical_formula_structural   Zr9C126I5(NO4)12
_chemical_formula_sum   'Zr36 C504 I20 N48 O192'
_cell_volume   20908.88739467
_cell_formula_units_Z   4
loop_
 _symmetry_equiv_pos_site_id
 _symmetry_equiv_pos_as_xyz
  1  'x, y, z'
loop_
 _atom_site_type_symbol
 _atom_site_label
 _atom_site_symmetry_multiplicity
 _atom_site_fract_x
 _atom_site_fract_y
 _atom_site_fract_z
 _atom_site_occupancy
 _atom_site_charge
Zr  Zr1  1  0.57276000  0.75000000  0.92724000  1.0 2.4016206861
Zr  Zr2  1  0.75000000  0.92724000  0.57276000  1.0 2.4016206861
Zr  Zr3  1  0.92724000  0.57276000  0.75000000  1.0 2.4016206861
Zr  Zr4  1  0.43513000  0.70965000  0.88200000  1.0 2.5262901873
Zr  Zr5  1  0.70965000  0.88200000  0.43513000  1.0 2.5200250745
Zr  Zr6  1  0.88200000  0.43513000  0.70965000  1.0 2.5262901873
Zr  Zr7  1  0.06487000  0.61800000  0.79035000  1.0 2.5262901873
Zr  Zr8  1  0.79035000  0.06487000  0.61800000  1.0 2.5262901873
Zr  Zr9  1  0.61800000  0.79035000  0.06487000  1.0 2.5262901873
Zr  Zr10  1  0.56630000  0.85262000  0.01346000  1.0 2.4419616877
Zr  Zr11  1  0.85262000  0.01346000  0.56630000  1.0 2.4419616877
Zr  Zr12  1  0.01346000  0.56630000  0.85262000  1.0 2.4419616877
Zr  Zr13  1  0.93370000  0.48654000  0.64738000  1.0 2.4419616877
Zr  Zr14  1  0.64738000  0.93370000  0.48654000  1.0 2.4419616877
Zr  Zr15  1  0.48654000  0.64738000  0.93370000  1.0 2.4419616877
Zr  Zr16  1  0.47908000  0.75000000  0.02092000  1.0 2.5139734944
Zr  Zr17  1  0.75000000  0.02092000  0.47908000  1.0 2.5200250745
Zr  Zr18  1  0.02092000  0.47908000  0.75000000  1.0 2.5139734944
Zr  Zr19  1  0.42724000  0.25000000  0.07276000  1.0 2.4016206861
Zr  Zr20  1  0.25000000  0.07276000  0.42724000  1.0 2.4016206861
Zr  Zr21  1  0.07276000  0.42724000  0.25000000  1.0 2.4016206861
Zr  Zr22  1  0.56487000  0.29035000  0.11800000  1.0 2.5262901873
Zr  Zr23  1  0.29035000  0.11800000  0.56487000  1.0 2.5262901873
Zr  Zr24  1  0.11800000  0.56487000  0.29035000  1.0 2.5262901873
Zr  Zr25  1  0.93513000  0.38200000  0.20965000  1.0 2.5262901873
Zr  Zr26  1  0.20965000  0.93513000  0.38200000  1.0 2.5262901873
Zr  Zr27  1  0.38200000  0.20965000  0.93513000  1.0 2.5262901873
Zr  Zr28  1  0.43370000  0.14738000  0.98654000  1.0 2.4419616877
Zr  Zr29  1  0.14738000  0.98654000  0.43370000  1.0 2.4419616877
Zr  Zr30  1  0.98654000  0.43370000  0.14738000  1.0 2.4419616877
Zr  Zr31  1  0.06630000  0.51346000  0.35262000  1.0 2.4456149539
Zr  Zr32  1  0.35262000  0.06630000  0.51346000  1.0 2.4419616877
Zr  Zr33  1  0.51346000  0.35262000  0.06630000  1.0 2.4419616877
Zr  Zr34  1  0.52092000  0.25000000  0.97908000  1.0 2.5139734944
Zr  Zr35  1  0.25000000  0.97908000  0.52092000  1.0 2.5139734944
Zr  Zr36  1  0.97908000  0.52092000  0.25000000  1.0 2.5200250745
C  C1  1  0.58280000  0.11760000  0.29640000  1.0 0.2483689586
C  C2  1  0.11760000  0.29640000  0.58280000  1.0 0.2483689586
C  C3  1  0.29640000  0.58280000  0.11760000  1.0 0.2483689586
C  C4  1  0.91720000  0.20360000  0.38240000  1.0 0.2483689586
C  C5  1  0.38240000  0.91720000  0.20360000  1.0 0.2483689586
C  C6  1  0.20360000  0.38240000  0.91720000  1.0 0.2483689586
C  C7  1  0.40260000  0.69220000  0.66540000  1.0 0.0084318314
C  C8  1  0.69220000  0.66540000  0.40260000  1.0 0.0021506155
C  C9  1  0.66540000  0.40260000  0.69220000  1.0 0.0021506155
C  C10  1  0.09740000  0.83460000  0.80780000  1.0 0.0084318314
C  C11  1  0.80780000  0.09740000  0.83460000  1.0 0.0084318314
C  C12  1  0.83460000  0.80780000  0.09740000  1.0 0.0084318314
C  C13  1  0.49710000  0.69840000  0.73330000  1.0 0.0733766398
C  C14  1  0.69840000  0.73330000  0.49710000  1.0 0.0733766398
C  C15  1  0.73330000  0.49710000  0.69840000  1.0 0.0733766398
C  C16  1  0.00290000  0.76670000  0.80160000  1.0 0.0733766398
C  C17  1  0.80160000  0.00290000  0.76670000  1.0 0.0733766398
C  C18  1  0.76670000  0.80160000  0.00290000  1.0 0.0733766398
C  C19  1  0.45100000  0.71500000  0.54440000  1.0 0.0285503801
C  C20  1  0.71500000  0.54440000  0.45100000  1.0 0.0285503801
C  C21  1  0.54440000  0.45100000  0.71500000  1.0 0.0285503801
C  C22  1  0.04900000  0.95560000  0.78500000  1.0 0.0285503801
C  C23  1  0.78500000  0.04900000  0.95560000  1.0 0.0285503801
C  C24  1  0.95560000  0.78500000  0.04900000  1.0 0.0285503801
C  C25  1  0.42500000  0.68590000  0.59560000  1.0 0.0285503801
C  C26  1  0.68590000  0.59560000  0.42500000  1.0 0.0285503801
C  C27  1  0.59560000  0.42500000  0.68590000  1.0 0.0285503801
C  C28  1  0.07500000  0.90440000  0.81410000  1.0 0.0285503801
C  C29  1  0.81410000  0.07500000  0.90440000  1.0 0.0285503801
C  C30  1  0.90440000  0.81410000  0.07500000  1.0 0.0285503801
C  C31  1  0.34950000  0.63840000  0.49510000  1.0 0.0472695516
C  C32  1  0.63840000  0.49510000  0.34950000  1.0 0.0472695516
C  C33  1  0.49510000  0.34950000  0.63840000  1.0 0.0472695516
C  C34  1  0.15050000  0.00490000  0.86160000  1.0 0.0472695516
C  C35  1  0.86160000  0.15050000  0.00490000  1.0 0.0472695516
C  C36  1  0.00490000  0.86160000  0.15050000  1.0 0.0472695516
C  C37  1  0.48570000  0.69360000  0.68380000  1.0 0.0285503801
C  C38  1  0.69360000  0.68380000  0.48570000  1.0 0.0285503801
C  C39  1  0.68380000  0.48570000  0.69360000  1.0 0.0285503801
C  C40  1  0.01430000  0.81620000  0.80640000  1.0 0.0285503801
C  C41  1  0.80640000  0.01430000  0.81620000  1.0 0.0285503801
C  C42  1  0.81620000  0.80640000  0.01430000  1.0 0.0285503801
C  C43  1  0.41590000  0.69750000  0.71430000  1.0 0.0285503801
C  C44  1  0.69750000  0.71430000  0.41590000  1.0 0.0285503801
C  C45  1  0.71430000  0.41590000  0.69750000  1.0 0.0285503801
C  C46  1  0.08410000  0.78570000  0.80250000  1.0 0.0231551095
C  C47  1  0.80250000  0.08410000  0.78570000  1.0 0.0231551095
C  C48  1  0.78570000  0.80250000  0.08410000  1.0 0.0285503801
C  C49  1  0.36580000  0.64240000  0.54560000  1.0 -0.0607066685
C  C50  1  0.64240000  0.54560000  0.36580000  1.0 -0.0607066685
C  C51  1  0.54560000  0.36580000  0.64240000  1.0 -0.0607066685
C  C52  1  0.13420000  0.95440000  0.85760000  1.0 -0.0607066685
C  C53  1  0.85760000  0.13420000  0.95440000  1.0 -0.0607066685
C  C54  1  0.95440000  0.85760000  0.13420000  1.0 -0.0607066685
C  C55  1  0.47590000  0.70880000  0.80320000  1.0 0.7165165941
C  C56  1  0.70880000  0.80320000  0.47590000  1.0 0.7165165941
C  C57  1  0.80320000  0.47590000  0.70880000  1.0 0.7165165941
C  C58  1  0.02410000  0.69680000  0.79120000  1.0 0.7165165941
C  C59  1  0.79120000  0.02410000  0.69680000  1.0 0.7165165941
C  C60  1  0.69680000  0.79120000  0.02410000  1.0 0.7165165941
C  C61  1  0.46710000  0.72240000  0.59560000  1.0 0.2361786118
C  C62  1  0.72240000  0.59560000  0.46710000  1.0 0.2361786118
C  C63  1  0.59560000  0.46710000  0.72240000  1.0 0.2361786118
C  C64  1  0.03290000  0.90440000  0.77760000  1.0 0.2361786118
C  C65  1  0.77760000  0.03290000  0.90440000  1.0 0.2361786118
C  C66  1  0.90440000  0.77760000  0.03290000  1.0 0.2361786118
C  C67  1  0.43960000  0.69110000  0.64990000  1.0 0.1113295496
C  C68  1  0.69110000  0.64990000  0.43960000  1.0 0.1113295496
C  C69  1  0.64990000  0.43960000  0.69110000  1.0 0.1155415078
C  C70  1  0.06040000  0.85010000  0.80890000  1.0 0.1113295496
C  C71  1  0.80890000  0.06040000  0.85010000  1.0 0.1113295496
C  C72  1  0.85010000  0.80890000  0.06040000  1.0 0.1113295496
C  C73  1  0.58520000  0.79190000  0.55440000  1.0 0.0962742642
C  C74  1  0.79190000  0.55440000  0.58520000  1.0 0.0962742642
C  C75  1  0.55440000  0.58520000  0.79190000  1.0 0.0962742642
C  C76  1  0.91480000  0.94560000  0.70810000  1.0 0.0962742642
C  C77  1  0.70810000  0.91480000  0.94560000  1.0 0.0962742642
C  C78  1  0.94560000  0.70810000  0.91480000  1.0 0.0962742642
C  C79  1  0.48650000  0.11720000  0.24940000  1.0 0.0366792499
C  C80  1  0.11720000  0.24940000  0.48650000  1.0 0.0366792499
C  C81  1  0.24940000  0.48650000  0.11720000  1.0 0.0366792499
C  C82  1  0.01350000  0.25060000  0.38280000  1.0 0.0366792499
C  C83  1  0.38280000  0.01350000  0.25060000  1.0 0.0366792499
C  C84  1  0.25060000  0.38280000  0.01350000  1.0 0.0366792499
C  C85  1  0.39230000  0.67350000  0.49370000  1.0 -0.0400724781
C  C86  1  0.67350000  0.49370000  0.39230000  1.0 -0.0400724781
C  C87  1  0.49370000  0.39230000  0.67350000  1.0 -0.0400724781
C  C88  1  0.10770000  0.00630000  0.82650000  1.0 -0.0400724781
C  C89  1  0.82650000  0.10770000  0.00630000  1.0 -0.0400724781
C  C90  1  0.00630000  0.82650000  0.10770000  1.0 -0.0400724781
C  C91  1  0.62050000  0.86440000  0.53690000  1.0 0.7093682612
C  C92  1  0.86440000  0.53690000  0.62050000  1.0 0.7093682612
C  C93  1  0.53690000  0.62050000  0.86440000  1.0 0.7093682612
C  C94  1  0.87950000  0.96310000  0.63560000  1.0 0.7093682612
C  C95  1  0.63560000  0.87950000  0.96310000  1.0 0.7093682612
C  C96  1  0.96310000  0.63560000  0.87950000  1.0 0.7093682612
C  C97  1  0.74420000  0.30230000  0.46000000  1.0 0.0590753858
C  C98  1  0.30230000  0.46000000  0.74420000  1.0 0.0590753858
C  C99  1  0.46000000  0.74420000  0.30230000  1.0 0.0590753858
C  C100  1  0.75580000  0.04000000  0.19770000  1.0 0.0590753858
C  C101  1  0.19770000  0.75580000  0.04000000  1.0 0.0590753858
C  C102  1  0.04000000  0.19770000  0.75580000  1.0 0.0590753858
C  C103  1  0.46290000  0.70210000  0.74850000  1.0 -0.0247052743
C  C104  1  0.70210000  0.74850000  0.46290000  1.0 -0.0247052743
C  C105  1  0.74850000  0.46290000  0.70210000  1.0 -0.0247052743
C  C106  1  0.03710000  0.75150000  0.79790000  1.0 -0.0247052743
C  C107  1  0.79790000  0.03710000  0.75150000  1.0 -0.0247052743
C  C108  1  0.75150000  0.79790000  0.03710000  1.0 -0.0247052743
C  C109  1  0.48530000  0.07080000  0.21510000  1.0 -0.0247052743
C  C110  1  0.07080000  0.21510000  0.48530000  1.0 -0.0304830164
C  C111  1  0.21510000  0.48530000  0.07080000  1.0 -0.0304830164
C  C112  1  0.01470000  0.28490000  0.42920000  1.0 -0.0304830164
C  C113  1  0.42920000  0.01470000  0.28490000  1.0 -0.0304830164
C  C114  1  0.28490000  0.42920000  0.01470000  1.0 -0.0247052743
C  C115  1  0.28750000  0.59840000  0.44620000  1.0 0.2929947724
C  C116  1  0.59840000  0.44620000  0.28750000  1.0 0.2929947724
C  C117  1  0.44620000  0.28750000  0.59840000  1.0 0.2929947724
C  C118  1  0.21250000  0.05380000  0.90160000  1.0 0.2929947724
C  C119  1  0.90160000  0.21250000  0.05380000  1.0 0.2929947724
C  C120  1  0.05380000  0.90160000  0.21250000  1.0 0.2929947724
C  C121  1  0.58610000  0.16500000  0.33270000  1.0 0.0285503801
C  C122  1  0.16500000  0.33270000  0.58610000  1.0 0.0366792499
C  C123  1  0.33270000  0.58610000  0.16500000  1.0 0.0366792499
C  C124  1  0.91390000  0.16730000  0.33500000  1.0 0.0366792499
C  C125  1  0.33500000  0.91390000  0.16730000  1.0 0.0366792499
C  C126  1  0.16730000  0.33500000  0.91390000  1.0 0.0366792499
C  C127  1  0.49510000  0.75270000  0.54150000  1.0 0.1113295496
C  C128  1  0.75270000  0.54150000  0.49510000  1.0 0.1113295496
C  C129  1  0.54150000  0.49510000  0.75270000  1.0 0.1113295496
C  C130  1  0.00490000  0.95850000  0.74730000  1.0 0.1113295496
C  C131  1  0.74730000  0.00490000  0.95850000  1.0 0.1113295496
C  C132  1  0.95850000  0.74730000  0.00490000  1.0 0.1113295496
C  C133  1  0.52190000  0.88320000  0.08740000  1.0 0.7093682612
C  C134  1  0.88320000  0.08740000  0.52190000  1.0 0.7093682612
C  C135  1  0.08740000  0.52190000  0.88320000  1.0 0.7093682612
C  C136  1  0.97810000  0.41260000  0.61680000  1.0 0.7093682612
C  C137  1  0.61680000  0.97810000  0.41260000  1.0 0.7093682612
C  C138  1  0.41260000  0.61680000  0.97810000  1.0 0.7093682612
C  C139  1  0.80690000  0.36320000  0.57040000  1.0 0.690538908
C  C140  1  0.36320000  0.57040000  0.80690000  1.0 0.690538908
C  C141  1  0.57040000  0.80690000  0.36320000  1.0 0.690538908
C  C142  1  0.69310000  0.92960000  0.13680000  1.0 0.690538908
C  C143  1  0.13680000  0.69310000  0.92960000  1.0 0.690538908
C  C144  1  0.92960000  0.13680000  0.69310000  1.0 0.690538908
C  C145  1  0.69150000  0.25390000  0.40330000  1.0 0.0231551095
C  C146  1  0.25390000  0.40330000  0.69150000  1.0 0.0285503801
C  C147  1  0.40330000  0.69150000  0.25390000  1.0 0.0285503801
C  C148  1  0.80850000  0.09670000  0.24610000  1.0 0.0285503801
C  C149  1  0.24610000  0.80850000  0.09670000  1.0 0.0285503801
C  C150  1  0.09670000  0.24610000  0.80850000  1.0 0.0285503801
C  C151  1  0.74770000  0.31150000  0.50760000  1.0 -0.0400724781
C  C152  1  0.31150000  0.50760000  0.74770000  1.0 -0.0400724781
C  C153  1  0.50760000  0.74770000  0.31150000  1.0 -0.0400724781
C  C154  1  0.75230000  0.99240000  0.18850000  1.0 -0.0400724781
C  C155  1  0.18850000  0.75230000  0.99240000  1.0 -0.0400724781
C  C156  1  0.99240000  0.18850000  0.75230000  1.0 -0.0400724781
C  C157  1  0.53860000  0.16490000  0.30890000  1.0 -0.0304830164
C  C158  1  0.16490000  0.30890000  0.53860000  1.0 -0.0304830164
C  C159  1  0.30890000  0.53860000  0.16490000  1.0 -0.0304830164
C  C160  1  0.96140000  0.19110000  0.33510000  1.0 -0.0304830164
C  C161  1  0.33510000  0.96140000  0.19110000  1.0 -0.0304830164
C  C162  1  0.19110000  0.33510000  0.96140000  1.0 -0.0304830164
C  C163  1  0.64090000  0.21700000  0.39300000  1.0 0.1113295496
C  C164  1  0.21700000  0.39300000  0.64090000  1.0 0.1113295496
C  C165  1  0.39300000  0.64090000  0.21700000  1.0 0.1113295496
C  C166  1  0.85910000  0.10700000  0.28300000  1.0 0.1113295496
C  C167  1  0.28300000  0.85910000  0.10700000  1.0 0.1113295496
C  C168  1  0.10700000  0.28300000  0.85910000  1.0 0.1113295496
C  C169  1  0.52930000  0.02160000  0.19990000  1.0 0.1113295496
C  C170  1  0.02160000  0.19990000  0.52930000  1.0 0.1113295496
C  C171  1  0.19990000  0.52930000  0.02160000  1.0 0.1113295496
C  C172  1  0.97070000  0.30010000  0.47840000  1.0 0.1113295496
C  C173  1  0.47840000  0.97070000  0.30010000  1.0 0.1113295496
C  C174  1  0.30010000  0.47840000  0.97070000  1.0 0.1113295496
C  C175  1  0.54440000  0.75840000  0.55670000  1.0 -0.0121090402
C  C176  1  0.75840000  0.55670000  0.54440000  1.0 -0.0121090402
C  C177  1  0.55670000  0.54440000  0.75840000  1.0 -0.0121090402
C  C178  1  0.95560000  0.94330000  0.74160000  1.0 -0.0121090402
C  C179  1  0.74160000  0.95560000  0.94330000  1.0 -0.0121090402
C  C180  1  0.94330000  0.74160000  0.95560000  1.0 -0.0121090402
C  C181  1  0.52360000  0.93150000  0.12770000  1.0 -0.0304830164
C  C182  1  0.93150000  0.12770000  0.52360000  1.0 -0.0304830164
C  C183  1  0.12770000  0.52360000  0.93150000  1.0 -0.0304830164
C  C184  1  0.97640000  0.37230000  0.56850000  1.0 -0.0304830164
C  C185  1  0.56850000  0.97640000  0.37230000  1.0 -0.0304830164
C  C186  1  0.37230000  0.56850000  0.97640000  1.0 -0.0304830164
C  C187  1  0.57650000  0.82520000  0.53730000  1.0 -0.0538296314
C  C188  1  0.82520000  0.53730000  0.57650000  1.0 -0.0538296314
C  C189  1  0.53730000  0.57650000  0.82520000  1.0 -0.0538296314
C  C190  1  0.92350000  0.96270000  0.67480000  1.0 -0.0538296314
C  C191  1  0.67480000  0.92350000  0.96270000  1.0 -0.0538296314
C  C192  1  0.96270000  0.67480000  0.92350000  1.0 -0.0538296314
C  C193  1  0.48440000  0.78190000  0.52000000  1.0 0.0285503801
C  C194  1  0.78190000  0.52000000  0.48440000  1.0 0.0285503801
C  C195  1  0.52000000  0.48440000  0.78190000  1.0 0.0285503801
C  C196  1  0.01560000  0.98000000  0.71810000  1.0 0.0285503801
C  C197  1  0.71810000  0.01560000  0.98000000  1.0 0.0285503801
C  C198  1  0.98000000  0.71810000  0.01560000  1.0 0.0285503801
C  C199  1  0.52990000  0.07000000  0.23700000  1.0 0.0285503801
C  C200  1  0.07000000  0.23700000  0.52990000  1.0 0.0285503801
C  C201  1  0.23700000  0.52990000  0.07000000  1.0 0.0285503801
C  C202  1  0.97010000  0.26300000  0.43000000  1.0 0.0285503801
C  C203  1  0.43000000  0.97010000  0.26300000  1.0 0.0285503801
C  C204  1  0.26300000  0.43000000  0.97010000  1.0 0.0285503801
C  C205  1  0.52530000  0.81780000  0.51850000  1.0 0.0733766398
C  C206  1  0.81780000  0.51850000  0.52530000  1.0 0.0733766398
C  C207  1  0.51850000  0.52530000  0.81780000  1.0 0.0733766398
C  C208  1  0.97470000  0.98150000  0.68220000  1.0 0.0733766398
C  C209  1  0.68220000  0.97470000  0.98150000  1.0 0.0733766398
C  C210  1  0.98150000  0.68220000  0.97470000  1.0 0.0733766398
C  C211  1  0.56380000  0.98830000  0.15040000  1.0 -0.0032607263
C  C212  1  0.98830000  0.15040000  0.56380000  1.0 0.0021506155
C  C213  1  0.15040000  0.56380000  0.98830000  1.0 0.0021506155
C  C214  1  0.93620000  0.34960000  0.51170000  1.0 -0.0032607263
C  C215  1  0.51170000  0.93620000  0.34960000  1.0 0.0021506155
C  C216  1  0.34960000  0.51170000  0.93620000  1.0 0.0021506155
C  C217  1  0.48760000  0.96240000  0.17660000  1.0 0.0084318314
C  C218  1  0.96240000  0.17660000  0.48760000  1.0 0.0084318314
C  C219  1  0.17660000  0.48760000  0.96240000  1.0 0.0084318314
C  C220  1  0.01240000  0.32340000  0.53760000  1.0 0.0084318314
C  C221  1  0.53760000  0.01240000  0.32340000  1.0 0.0084318314
C  C222  1  0.32340000  0.53760000  0.01240000  1.0 0.0021506155
C  C223  1  0.64540000  0.22860000  0.44260000  1.0 0.0084318314
C  C224  1  0.22860000  0.44260000  0.64540000  1.0 0.0084318314
C  C225  1  0.44260000  0.64540000  0.22860000  1.0 0.0084318314
C  C226  1  0.85460000  0.05740000  0.27140000  1.0 0.0084318314
C  C227  1  0.27140000  0.85460000  0.05740000  1.0 0.0084318314
C  C228  1  0.05740000  0.27140000  0.85460000  1.0 0.0084318314
C  C229  1  0.56750000  0.03080000  0.18790000  1.0 -0.0121090402
C  C230  1  0.03080000  0.18790000  0.56750000  1.0 -0.0032607263
C  C231  1  0.18790000  0.56750000  0.03080000  1.0 -0.0121090402
C  C232  1  0.93250000  0.31210000  0.46920000  1.0 -0.0032607263
C  C233  1  0.46920000  0.93250000  0.31210000  1.0 -0.0032607263
C  C234  1  0.31210000  0.46920000  0.93250000  1.0 -0.0032607263
C  C235  1  0.69860000  0.27420000  0.50100000  1.0 0.0733766398
C  C236  1  0.27420000  0.50100000  0.69860000  1.0 0.0733766398
C  C237  1  0.50100000  0.69860000  0.27420000  1.0 0.0733766398
C  C238  1  0.80140000  0.99900000  0.22580000  1.0 0.0733766398
C  C239  1  0.22580000  0.80140000  0.99900000  1.0 0.0733766398
C  C240  1  0.99900000  0.22580000  0.80140000  1.0 0.0733766398
C  C241  1  0.48630000  0.91930000  0.14090000  1.0 0.0285503801
C  C242  1  0.91930000  0.14090000  0.48630000  1.0 0.0285503801
C  C243  1  0.14090000  0.48630000  0.91930000  1.0 0.0285503801
C  C244  1  0.01370000  0.35910000  0.58070000  1.0 0.0231551095
C  C245  1  0.58070000  0.01370000  0.35910000  1.0 0.0231551095
C  C246  1  0.35910000  0.58070000  0.01370000  1.0 0.0231551095
C  C247  1  0.44050000  0.11890000  0.22440000  1.0 0.2715174854
C  C248  1  0.11890000  0.22440000  0.44050000  1.0 0.2715174854
C  C249  1  0.22440000  0.44050000  0.11890000  1.0 0.2715174854
C  C250  1  0.05950000  0.27560000  0.38110000  1.0 0.2715174854
C  C251  1  0.38110000  0.05950000  0.27560000  1.0 0.2715174854
C  C252  1  0.27560000  0.38110000  0.05950000  1.0 0.2715174854
C  C253  1  0.41720000  0.88240000  0.70360000  1.0 0.2483689586
C  C254  1  0.88240000  0.70360000  0.41720000  1.0 0.2483689586
C  C255  1  0.70360000  0.41720000  0.88240000  1.0 0.2483689586
C  C256  1  0.08280000  0.79640000  0.61760000  1.0 0.2483689586
C  C257  1  0.61760000  0.08280000  0.79640000  1.0 0.2483689586
C  C258  1  0.79640000  0.61760000  0.08280000  1.0 0.2483689586
C  C259  1  0.59740000  0.30780000  0.33460000  1.0 0.0021506155
C  C260  1  0.30780000  0.33460000  0.59740000  1.0 0.0021506155
C  C261  1  0.33460000  0.59740000  0.30780000  1.0 0.0084318314
C  C262  1  0.90260000  0.16540000  0.19220000  1.0 0.0021506155
C  C263  1  0.19220000  0.90260000  0.16540000  1.0 0.0084318314
C  C264  1  0.16540000  0.19220000  0.90260000  1.0 0.0021506155
C  C265  1  0.50290000  0.30160000  0.26670000  1.0 0.0733766398
C  C266  1  0.30160000  0.26670000  0.50290000  1.0 0.0733766398
C  C267  1  0.26670000  0.50290000  0.30160000  1.0 0.0733766398
C  C268  1  0.99710000  0.23330000  0.19840000  1.0 0.0768620198
C  C269  1  0.19840000  0.99710000  0.23330000  1.0 0.0733766398
C  C270  1  0.23330000  0.19840000  0.99710000  1.0 0.0733766398
C  C271  1  0.54900000  0.28500000  0.45560000  1.0 0.0285503801
C  C272  1  0.28500000  0.45560000  0.54900000  1.0 0.0285503801
C  C273  1  0.45560000  0.54900000  0.28500000  1.0 0.0285503801
C  C274  1  0.95100000  0.04440000  0.21500000  1.0 0.0285503801
C  C275  1  0.21500000  0.95100000  0.04440000  1.0 0.0285503801
C  C276  1  0.04440000  0.21500000  0.95100000  1.0 0.0285503801
C  C277  1  0.57500000  0.31410000  0.40440000  1.0 0.0285503801
C  C278  1  0.31410000  0.40440000  0.57500000  1.0 0.0285503801
C  C279  1  0.40440000  0.57500000  0.31410000  1.0 0.0285503801
C  C280  1  0.92500000  0.09560000  0.18590000  1.0 0.0285503801
C  C281  1  0.18590000  0.92500000  0.09560000  1.0 0.0285503801
C  C282  1  0.09560000  0.18590000  0.92500000  1.0 0.0285503801
C  C283  1  0.65050000  0.36160000  0.50490000  1.0 0.0472695516
C  C284  1  0.36160000  0.50490000  0.65050000  1.0 0.0472695516
C  C285  1  0.50490000  0.65050000  0.36160000  1.0 0.0472695516
C  C286  1  0.84950000  0.99510000  0.13840000  1.0 0.0472695516
C  C287  1  0.13840000  0.84950000  0.99510000  1.0 0.0472695516
C  C288  1  0.99510000  0.13840000  0.84950000  1.0 0.0472695516
C  C289  1  0.51430000  0.30640000  0.31620000  1.0 0.0285503801
C  C290  1  0.30640000  0.31620000  0.51430000  1.0 0.0285503801
C  C291  1  0.31620000  0.51430000  0.30640000  1.0 0.0285503801
C  C292  1  0.98570000  0.18380000  0.19360000  1.0 0.0285503801
C  C293  1  0.19360000  0.98570000  0.18380000  1.0 0.0285503801
C  C294  1  0.18380000  0.19360000  0.98570000  1.0 0.0285503801
C  C295  1  0.58410000  0.30250000  0.28570000  1.0 0.0285503801
C  C296  1  0.30250000  0.28570000  0.58410000  1.0 0.0285503801
C  C297  1  0.28570000  0.58410000  0.30250000  1.0 0.0285503801
C  C298  1  0.91590000  0.21430000  0.19750000  1.0 0.0285503801
C  C299  1  0.19750000  0.91590000  0.21430000  1.0 0.0285503801
C  C300  1  0.21430000  0.19750000  0.91590000  1.0 0.0285503801
C  C301  1  0.63420000  0.35760000  0.45440000  1.0 -0.0607066685
C  C302  1  0.35760000  0.45440000  0.63420000  1.0 -0.0607066685
C  C303  1  0.45440000  0.63420000  0.35760000  1.0 -0.0607066685
C  C304  1  0.86580000  0.04560000  0.14240000  1.0 -0.0607066685
C  C305  1  0.14240000  0.86580000  0.04560000  1.0 -0.0607066685
C  C306  1  0.04560000  0.14240000  0.86580000  1.0 -0.0607066685
C  C307  1  0.52410000  0.29120000  0.19680000  1.0 0.7165165941
C  C308  1  0.29120000  0.19680000  0.52410000  1.0 0.7165165941
C  C309  1  0.19680000  0.52410000  0.29120000  1.0 0.7165165941
C  C310  1  0.97590000  0.30320000  0.20880000  1.0 0.7165165941
C  C311  1  0.20880000  0.97590000  0.30320000  1.0 0.7165165941
C  C312  1  0.30320000  0.20880000  0.97590000  1.0 0.7165165941
C  C313  1  0.53290000  0.27760000  0.40440000  1.0 0.2361786118
C  C314  1  0.27760000  0.40440000  0.53290000  1.0 0.2361786118
C  C315  1  0.40440000  0.53290000  0.27760000  1.0 0.2361786118
C  C316  1  0.96710000  0.09560000  0.22240000  1.0 0.2361786118
C  C317  1  0.22240000  0.96710000  0.09560000  1.0 0.2361786118
C  C318  1  0.09560000  0.22240000  0.96710000  1.0 0.2361786118
C  C319  1  0.56040000  0.30890000  0.35010000  1.0 0.1113295496
C  C320  1  0.30890000  0.35010000  0.56040000  1.0 0.1113295496
C  C321  1  0.35010000  0.56040000  0.30890000  1.0 0.1113295496
C  C322  1  0.93960000  0.14990000  0.19110000  1.0 0.1113295496
C  C323  1  0.19110000  0.93960000  0.14990000  1.0 0.1113295496
C  C324  1  0.14990000  0.19110000  0.93960000  1.0 0.1113295496
C  C325  1  0.41480000  0.20810000  0.44560000  1.0 0.0962742642
C  C326  1  0.20810000  0.44560000  0.41480000  1.0 0.0962742642
C  C327  1  0.44560000  0.41480000  0.20810000  1.0 0.0944144155
C  C328  1  0.08520000  0.05440000  0.29190000  1.0 0.0962742642
C  C329  1  0.29190000  0.08520000  0.05440000  1.0 0.0944144155
C  C330  1  0.05440000  0.29190000  0.08520000  1.0 0.0944144155
C  C331  1  0.51350000  0.88280000  0.75060000  1.0 0.0366792499
C  C332  1  0.88280000  0.75060000  0.51350000  1.0 0.0366792499
C  C333  1  0.75060000  0.51350000  0.88280000  1.0 0.0366792499
C  C334  1  0.98650000  0.74940000  0.61720000  1.0 0.0366792499
C  C335  1  0.61720000  0.98650000  0.74940000  1.0 0.0366792499
C  C336  1  0.74940000  0.61720000  0.98650000  1.0 0.0366792499
C  C337  1  0.60770000  0.32650000  0.50630000  1.0 -0.0400724781
C  C338  1  0.32650000  0.50630000  0.60770000  1.0 -0.0400724781
C  C339  1  0.50630000  0.60770000  0.32650000  1.0 -0.0400724781
C  C340  1  0.89230000  0.99370000  0.17350000  1.0 -0.0400724781
C  C341  1  0.17350000  0.89230000  0.99370000  1.0 -0.0400724781
C  C342  1  0.99370000  0.17350000  0.89230000  1.0 -0.0400724781
C  C343  1  0.37950000  0.13560000  0.46310000  1.0 0.7093682612
C  C344  1  0.13560000  0.46310000  0.37950000  1.0 0.7093682612
C  C345  1  0.46310000  0.37950000  0.13560000  1.0 0.7093682612
C  C346  1  0.12050000  0.03690000  0.36440000  1.0 0.7093682612
C  C347  1  0.36440000  0.12050000  0.03690000  1.0 0.7093682612
C  C348  1  0.03690000  0.36440000  0.12050000  1.0 0.7093682612
C  C349  1  0.25580000  0.69770000  0.54000000  1.0 0.0590753858
C  C350  1  0.69770000  0.54000000  0.25580000  1.0 0.0590753858
C  C351  1  0.54000000  0.25580000  0.69770000  1.0 0.0590753858
C  C352  1  0.24420000  0.96000000  0.80230000  1.0 0.0590753858
C  C353  1  0.80230000  0.24420000  0.96000000  1.0 0.0590753858
C  C354  1  0.96000000  0.80230000  0.24420000  1.0 0.0590753858
C  C355  1  0.53710000  0.29790000  0.25150000  1.0 -0.0247052743
C  C356  1  0.29790000  0.25150000  0.53710000  1.0 -0.0247052743
C  C357  1  0.25150000  0.53710000  0.29790000  1.0 -0.0247052743
C  C358  1  0.96290000  0.24850000  0.20210000  1.0 -0.0247052743
C  C359  1  0.20210000  0.96290000  0.24850000  1.0 -0.0247052743
C  C360  1  0.24850000  0.20210000  0.96290000  1.0 -0.0247052743
C  C361  1  0.51470000  0.92920000  0.78490000  1.0 -0.0304830164
C  C362  1  0.92920000  0.78490000  0.51470000  1.0 -0.0304830164
C  C363  1  0.78490000  0.51470000  0.92920000  1.0 -0.0304830164
C  C364  1  0.98530000  0.71510000  0.57080000  1.0 -0.0304830164
C  C365  1  0.57080000  0.98530000  0.71510000  1.0 -0.0304830164
C  C366  1  0.71510000  0.57080000  0.98530000  1.0 -0.0304830164
C  C367  1  0.71250000  0.40160000  0.55380000  1.0 0.2929947724
C  C368  1  0.40160000  0.55380000  0.71250000  1.0 0.2929947724
C  C369  1  0.55380000  0.71250000  0.40160000  1.0 0.2929947724
C  C370  1  0.78750000  0.94620000  0.09840000  1.0 0.2929947724
C  C371  1  0.09840000  0.78750000  0.94620000  1.0 0.2929947724
C  C372  1  0.94620000  0.09840000  0.78750000  1.0 0.2929947724
C  C373  1  0.41390000  0.83500000  0.66730000  1.0 0.0366792499
C  C374  1  0.83500000  0.66730000  0.41390000  1.0 0.0366792499
C  C375  1  0.66730000  0.41390000  0.83500000  1.0 0.0366792499
C  C376  1  0.08610000  0.83270000  0.66500000  1.0 0.0366792499
C  C377  1  0.66500000  0.08610000  0.83270000  1.0 0.0366792499
C  C378  1  0.83270000  0.66500000  0.08610000  1.0 0.0366792499
C  C379  1  0.50490000  0.24730000  0.45850000  1.0 0.1113295496
C  C380  1  0.24730000  0.45850000  0.50490000  1.0 0.1113295496
C  C381  1  0.45850000  0.50490000  0.24730000  1.0 0.1113295496
C  C382  1  0.99510000  0.04150000  0.25270000  1.0 0.1113295496
C  C383  1  0.25270000  0.99510000  0.04150000  1.0 0.1113295496
C  C384  1  0.04150000  0.25270000  0.99510000  1.0 0.1113295496
C  C385  1  0.47810000  0.11680000  0.91260000  1.0 0.7093682612
C  C386  1  0.11680000  0.91260000  0.47810000  1.0 0.7093682612
C  C387  1  0.91260000  0.47810000  0.11680000  1.0 0.7093682612
C  C388  1  0.02190000  0.58740000  0.38320000  1.0 0.7093682612
C  C389  1  0.38320000  0.02190000  0.58740000  1.0 0.7093682612
C  C390  1  0.58740000  0.38320000  0.02190000  1.0 0.7093682612
C  C391  1  0.19310000  0.63680000  0.42960000  1.0 0.690538908
C  C392  1  0.63680000  0.42960000  0.19310000  1.0 0.690538908
C  C393  1  0.42960000  0.19310000  0.63680000  1.0 0.690538908
C  C394  1  0.30690000  0.07040000  0.86320000  1.0 0.690538908
C  C395  1  0.86320000  0.30690000  0.07040000  1.0 0.690538908
C  C396  1  0.07040000  0.86320000  0.30690000  1.0 0.690538908
C  C397  1  0.30850000  0.74610000  0.59670000  1.0 0.0285503801
C  C398  1  0.74610000  0.59670000  0.30850000  1.0 0.0285503801
C  C399  1  0.59670000  0.30850000  0.74610000  1.0 0.0285503801
C  C400  1  0.19150000  0.90330000  0.75390000  1.0 0.0285503801
C  C401  1  0.75390000  0.19150000  0.90330000  1.0 0.0231551095
C  C402  1  0.90330000  0.75390000  0.19150000  1.0 0.0285503801
C  C403  1  0.25230000  0.68850000  0.49240000  1.0 -0.0400724781
C  C404  1  0.68850000  0.49240000  0.25230000  1.0 -0.0400724781
C  C405  1  0.49240000  0.25230000  0.68850000  1.0 -0.0400724781
C  C406  1  0.24770000  0.00760000  0.81150000  1.0 -0.0400724781
C  C407  1  0.81150000  0.24770000  0.00760000  1.0 -0.0400724781
C  C408  1  0.00760000  0.81150000  0.24770000  1.0 -0.0400724781
C  C409  1  0.46140000  0.83510000  0.69110000  1.0 -0.0304830164
C  C410  1  0.83510000  0.69110000  0.46140000  1.0 -0.0304830164
C  C411  1  0.69110000  0.46140000  0.83510000  1.0 -0.0304830164
C  C412  1  0.03860000  0.80890000  0.66490000  1.0 -0.0304830164
C  C413  1  0.66490000  0.03860000  0.80890000  1.0 -0.0304830164
C  C414  1  0.80890000  0.66490000  0.03860000  1.0 -0.0304830164
C  C415  1  0.35910000  0.78300000  0.60700000  1.0 0.1113295496
C  C416  1  0.78300000  0.60700000  0.35910000  1.0 0.1113295496
C  C417  1  0.60700000  0.35910000  0.78300000  1.0 0.1113295496
C  C418  1  0.14090000  0.89300000  0.71700000  1.0 0.1113295496
C  C419  1  0.71700000  0.14090000  0.89300000  1.0 0.1113295496
C  C420  1  0.89300000  0.71700000  0.14090000  1.0 0.1113295496
C  C421  1  0.47070000  0.97840000  0.80010000  1.0 0.1113295496
C  C422  1  0.97840000  0.80010000  0.47070000  1.0 0.1113295496
C  C423  1  0.80010000  0.47070000  0.97840000  1.0 0.1113295496
C  C424  1  0.02930000  0.69990000  0.52160000  1.0 0.1113295496
C  C425  1  0.52160000  0.02930000  0.69990000  1.0 0.1113295496
C  C426  1  0.69990000  0.52160000  0.02930000  1.0 0.1113295496
C  C427  1  0.45560000  0.24160000  0.44330000  1.0 -0.0121090402
C  C428  1  0.24160000  0.44330000  0.45560000  1.0 -0.0121090402
C  C429  1  0.44330000  0.45560000  0.24160000  1.0 -0.0121090402
C  C430  1  0.04440000  0.05670000  0.25840000  1.0 -0.0121090402
C  C431  1  0.25840000  0.04440000  0.05670000  1.0 -0.0121090402
C  C432  1  0.05670000  0.25840000  0.04440000  1.0 -0.0121090402
C  C433  1  0.47640000  0.06850000  0.87230000  1.0 -0.0304830164
C  C434  1  0.06850000  0.87230000  0.47640000  1.0 -0.0304830164
C  C435  1  0.87230000  0.47640000  0.06850000  1.0 -0.0304830164
C  C436  1  0.02360000  0.62770000  0.43150000  1.0 -0.0400724781
C  C437  1  0.43150000  0.02360000  0.62770000  1.0 -0.0304830164
C  C438  1  0.62770000  0.43150000  0.02360000  1.0 -0.0304830164
C  C439  1  0.42350000  0.17480000  0.46270000  1.0 -0.0538296314
C  C440  1  0.17480000  0.46270000  0.42350000  1.0 -0.0538296314
C  C441  1  0.46270000  0.42350000  0.17480000  1.0 -0.0538296314
C  C442  1  0.07650000  0.03730000  0.32520000  1.0 -0.0538296314
C  C443  1  0.32520000  0.07650000  0.03730000  1.0 -0.0538296314
C  C444  1  0.03730000  0.32520000  0.07650000  1.0 -0.0538296314
C  C445  1  0.51560000  0.21810000  0.48000000  1.0 0.0285503801
C  C446  1  0.21810000  0.48000000  0.51560000  1.0 0.0285503801
C  C447  1  0.48000000  0.51560000  0.21810000  1.0 0.0285503801
C  C448  1  0.98440000  0.02000000  0.28190000  1.0 0.0285503801
C  C449  1  0.28190000  0.98440000  0.02000000  1.0 0.0285503801
C  C450  1  0.02000000  0.28190000  0.98440000  1.0 0.0285503801
C  C451  1  0.47010000  0.93000000  0.76300000  1.0 0.0285503801
C  C452  1  0.93000000  0.76300000  0.47010000  1.0 0.0285503801
C  C453  1  0.76300000  0.47010000  0.93000000  1.0 0.0285503801
C  C454  1  0.02990000  0.73700000  0.57000000  1.0 0.0285503801
C  C455  1  0.57000000  0.02990000  0.73700000  1.0 0.0285503801
C  C456  1  0.73700000  0.57000000  0.02990000  1.0 0.0285503801
C  C457  1  0.47470000  0.18220000  0.48150000  1.0 0.0733766398
C  C458  1  0.18220000  0.48150000  0.47470000  1.0 0.0733766398
C  C459  1  0.48150000  0.47470000  0.18220000  1.0 0.0733766398
C  C460  1  0.02530000  0.01850000  0.31780000  1.0 0.0733766398
C  C461  1  0.31780000  0.02530000  0.01850000  1.0 0.0733766398
C  C462  1  0.01850000  0.31780000  0.02530000  1.0 0.0733766398
C  C463  1  0.43620000  0.01170000  0.84960000  1.0 0.0021506155
C  C464  1  0.01170000  0.84960000  0.43620000  1.0 -0.0032607263
C  C465  1  0.84960000  0.43620000  0.01170000  1.0 -0.0032607263
C  C466  1  0.06380000  0.65040000  0.48830000  1.0 -0.0032607263
C  C467  1  0.48830000  0.06380000  0.65040000  1.0 -0.0032607263
C  C468  1  0.65040000  0.48830000  0.06380000  1.0 0.0021506155
C  C469  1  0.51240000  0.03760000  0.82340000  1.0 0.0084318314
C  C470  1  0.03760000  0.82340000  0.51240000  1.0 0.0084318314
C  C471  1  0.82340000  0.51240000  0.03760000  1.0 0.0084318314
C  C472  1  0.98760000  0.67660000  0.46240000  1.0 0.0084318314
C  C473  1  0.46240000  0.98760000  0.67660000  1.0 0.0084318314
C  C474  1  0.67660000  0.46240000  0.98760000  1.0 0.0084318314
C  C475  1  0.35460000  0.77140000  0.55740000  1.0 0.0084318314
C  C476  1  0.77140000  0.55740000  0.35460000  1.0 0.0084318314
C  C477  1  0.55740000  0.35460000  0.77140000  1.0 0.0084318314
C  C478  1  0.14540000  0.94260000  0.72860000  1.0 0.0084318314
C  C479  1  0.72860000  0.14540000  0.94260000  1.0 0.0084318314
C  C480  1  0.94260000  0.72860000  0.14540000  1.0 0.0084318314
C  C481  1  0.43250000  0.96920000  0.81210000  1.0 -0.0032607263
C  C482  1  0.96920000  0.81210000  0.43250000  1.0 -0.0121090402
C  C483  1  0.81210000  0.43250000  0.96920000  1.0 -0.0032607263
C  C484  1  0.06750000  0.68790000  0.53080000  1.0 -0.0032607263
C  C485  1  0.53080000  0.06750000  0.68790000  1.0 -0.0032607263
C  C486  1  0.68790000  0.53080000  0.06750000  1.0 -0.0121090402
C  C487  1  0.30140000  0.72580000  0.49900000  1.0 0.0733766398
C  C488  1  0.72580000  0.49900000  0.30140000  1.0 0.0733766398
C  C489  1  0.49900000  0.30140000  0.72580000  1.0 0.0733766398
C  C490  1  0.19860000  0.00100000  0.77420000  1.0 0.0733766398
C  C491  1  0.77420000  0.19860000  0.00100000  1.0 0.0733766398
C  C492  1  0.00100000  0.77420000  0.19860000  1.0 0.0733766398
C  C493  1  0.51370000  0.08070000  0.85910000  1.0 0.0285503801
C  C494  1  0.08070000  0.85910000  0.51370000  1.0 0.0231551095
C  C495  1  0.85910000  0.51370000  0.08070000  1.0 0.0231551095
C  C496  1  0.98630000  0.64090000  0.41930000  1.0 0.0231551095
C  C497  1  0.41930000  0.98630000  0.64090000  1.0 0.0231551095
C  C498  1  0.64090000  0.41930000  0.98630000  1.0 0.0231551095
C  C499  1  0.55950000  0.88110000  0.77560000  1.0 0.2715174854
C  C500  1  0.88110000  0.77560000  0.55950000  1.0 0.2715174854
C  C501  1  0.77560000  0.55950000  0.88110000  1.0 0.2715174854
C  C502  1  0.94050000  0.72440000  0.61890000  1.0 0.2715174854
C  C503  1  0.61890000  0.94050000  0.72440000  1.0 0.2715174854
C  C504  1  0.72440000  0.61890000  0.94050000  1.0 0.2715174854
I  I1  1  0.75000000  0.67233000  0.82767000  1.0 0.5886668881
I  I2  1  0.82767000  0.75000000  0.67233000  1.0 0.5886668881
I  I3  1  0.67233000  0.82767000  0.75000000  1.0 0.5886668881
I  I4  1  0.25000000  0.32767000  0.17233000  1.0 0.5886668881
I  I5  1  0.17233000  0.25000000  0.32767000  1.0 0.5886668881
I  I6  1  0.32767000  0.17233000  0.25000000  1.0 0.6153862675
I  I7  1  0.50000000  0.50000000  0.50000000  1.0 -0.3011736029
I  I8  1  0.00000000  0.00000000  0.00000000  1.0 -0.2940690319
I  I9  1  0.45290000  0.53760000  0.60300000  1.0 -0.0672339002
I  I10  1  0.53760000  0.60300000  0.45290000  1.0 -0.0672339002
I  I11  1  0.60300000  0.45290000  0.53760000  1.0 -0.0672339002
I  I12  1  0.04710000  0.89700000  0.96240000  1.0 -0.0607066685
I  I13  1  0.96240000  0.04710000  0.89700000  1.0 -0.0672339002
I  I14  1  0.89700000  0.96240000  0.04710000  1.0 -0.0672339002
I  I15  1  0.54710000  0.46240000  0.39700000  1.0 -0.0672339002
I  I16  1  0.46240000  0.39700000  0.54710000  1.0 -0.0672339002
I  I17  1  0.39700000  0.54710000  0.46240000  1.0 -0.0672339002
I  I18  1  0.95290000  0.10300000  0.03760000  1.0 -0.0672339002
I  I19  1  0.03760000  0.95290000  0.10300000  1.0 -0.0607066685
I  I20  1  0.10300000  0.03760000  0.95290000  1.0 -0.0672339002
N  N1  1  0.23870000  0.56660000  0.41010000  1.0 -0.1698699159
N  N2  1  0.56660000  0.41010000  0.23870000  1.0 -0.1698699159
N  N3  1  0.41010000  0.23870000  0.56660000  1.0 -0.1698699159
N  N4  1  0.26130000  0.08990000  0.93340000  1.0 -0.1698699159
N  N5  1  0.93340000  0.26130000  0.08990000  1.0 -0.1698699159
N  N6  1  0.08990000  0.93340000  0.26130000  1.0 -0.1698699159
N  N7  1  0.52580000  0.76650000  0.64670000  1.0 -0.331724299
N  N8  1  0.76650000  0.64670000  0.52580000  1.0 -0.331724299
N  N9  1  0.64670000  0.52580000  0.76650000  1.0 -0.331724299
N  N10  1  0.97420000  0.85330000  0.73350000  1.0 -0.331724299
N  N11  1  0.73350000  0.97420000  0.85330000  1.0 -0.331724299
N  N12  1  0.85330000  0.73350000  0.97420000  1.0 -0.331724299
N  N13  1  0.62960000  0.11800000  0.32150000  1.0 -0.3822409386
N  N14  1  0.11800000  0.32150000  0.62960000  1.0 -0.3822409386
N  N15  1  0.32150000  0.62960000  0.11800000  1.0 -0.3822409386
N  N16  1  0.87040000  0.17850000  0.38200000  1.0 -0.3822409386
N  N17  1  0.38200000  0.87040000  0.17850000  1.0 -0.3822409386
N  N18  1  0.17850000  0.38200000  0.87040000  1.0 -0.3822409386
N  N19  1  0.40090000  0.11740000  0.20310000  1.0 -0.3011736029
N  N20  1  0.11740000  0.20310000  0.40090000  1.0 -0.3011736029
N  N21  1  0.20310000  0.40090000  0.11740000  1.0 -0.3011736029
N  N22  1  0.09910000  0.29690000  0.38260000  1.0 -0.3011736029
N  N23  1  0.38260000  0.09910000  0.29690000  1.0 -0.3011736029
N  N24  1  0.29690000  0.38260000  0.09910000  1.0 -0.3011736029
N  N25  1  0.76130000  0.43340000  0.58990000  1.0 -0.1698699159
N  N26  1  0.43340000  0.58990000  0.76130000  1.0 -0.1698699159
N  N27  1  0.58990000  0.76130000  0.43340000  1.0 -0.1698699159
N  N28  1  0.73870000  0.91010000  0.06660000  1.0 -0.1698699159
N  N29  1  0.06660000  0.73870000  0.91010000  1.0 -0.1698699159
N  N30  1  0.91010000  0.06660000  0.73870000  1.0 -0.1698699159
N  N31  1  0.47420000  0.23350000  0.35330000  1.0 -0.3361113915
N  N32  1  0.23350000  0.35330000  0.47420000  1.0 -0.331724299
N  N33  1  0.35330000  0.47420000  0.23350000  1.0 -0.331724299
N  N34  1  0.02580000  0.14670000  0.26650000  1.0 -0.331724299
N  N35  1  0.26650000  0.02580000  0.14670000  1.0 -0.3361113915
N  N36  1  0.14670000  0.26650000  0.02580000  1.0 -0.331724299
N  N37  1  0.37040000  0.88200000  0.67850000  1.0 -0.3822409386
N  N38  1  0.88200000  0.67850000  0.37040000  1.0 -0.3822409386
N  N39  1  0.67850000  0.37040000  0.88200000  1.0 -0.3822409386
N  N40  1  0.12960000  0.82150000  0.61800000  1.0 -0.3822409386
N  N41  1  0.61800000  0.12960000  0.82150000  1.0 -0.3822409386
N  N42  1  0.82150000  0.61800000  0.12960000  1.0 -0.3822409386
N  N43  1  0.59910000  0.88260000  0.79690000  1.0 -0.3011736029
N  N44  1  0.88260000  0.79690000  0.59910000  1.0 -0.3011736029
N  N45  1  0.79690000  0.59910000  0.88260000  1.0 -0.3011736029
N  N46  1  0.90090000  0.70310000  0.61740000  1.0 -0.3011736029
N  N47  1  0.61740000  0.90090000  0.70310000  1.0 -0.3011736029
N  N48  1  0.70310000  0.61740000  0.90090000  1.0 -0.3011736029
O  O1  1  0.47964000  0.67161000  0.87445000  1.0 -1.0683665852
O  O2  1  0.67161000  0.87445000  0.47964000  1.0 -1.064481159
O  O3  1  0.87445000  0.47964000  0.67161000  1.0 -1.0683665852
O  O4  1  0.02036000  0.62555000  0.82839000  1.0 -1.0683665852
O  O5  1  0.82839000  0.02036000  0.62555000  1.0 -1.064481159
O  O6  1  0.62555000  0.82839000  0.02036000  1.0 -1.0683665852
O  O7  1  0.46885000  0.78525000  0.96930000  1.0 -1.0444580117
O  O8  1  0.78525000  0.96930000  0.46885000  1.0 -1.0475246558
O  O9  1  0.96930000  0.46885000  0.78525000  1.0 -1.0444580117
O  O10  1  0.03115000  0.53070000  0.71475000  1.0 -1.0475246558
O  O11  1  0.71475000  0.03115000  0.53070000  1.0 -1.0444580117
O  O12  1  0.53070000  0.71475000  0.03115000  1.0 -1.0475246558
O  O13  1  0.67117000  0.87642000  0.56421000  1.0 -0.5382852157
O  O14  1  0.87642000  0.56421000  0.67117000  1.0 -0.5382852157
O  O15  1  0.56421000  0.67117000  0.87642000  1.0 -0.5382852157
O  O16  1  0.82883000  0.93579000  0.62358000  1.0 -0.5382852157
O  O17  1  0.62358000  0.82883000  0.93579000  1.0 -0.5382852157
O  O18  1  0.93579000  0.62358000  0.82883000  1.0 -0.5382852157
O  O19  1  0.52287000  0.77665000  0.93138000  1.0 -1.0683665852
O  O20  1  0.77665000  0.93138000  0.52287000  1.0 -1.0683665852
O  O21  1  0.93138000  0.52287000  0.77665000  1.0 -1.0683665852
O  O22  1  0.97713000  0.56862000  0.72335000  1.0 -1.0683665852
O  O23  1  0.72335000  0.97713000  0.56862000  1.0 -1.0683665852
O  O24  1  0.56862000  0.72335000  0.97713000  1.0 -1.0683665852
O  O25  1  0.60458000  0.88139000  0.50883000  1.0 -0.507815803
O  O26  1  0.88139000  0.50883000  0.60458000  1.0 -0.507815803
O  O27  1  0.50883000  0.60458000  0.88139000  1.0 -0.507815803
O  O28  1  0.89542000  0.99117000  0.61861000  1.0 -0.507815803
O  O29  1  0.61861000  0.89542000  0.99117000  1.0 -0.507815803
O  O30  1  0.99117000  0.61861000  0.89542000  1.0 -0.507815803
O  O31  1  0.43797000  0.70013000  0.81020000  1.0 -0.529036146
O  O32  1  0.70013000  0.81020000  0.43797000  1.0 -0.529036146
O  O33  1  0.81020000  0.43797000  0.70013000  1.0 -0.529036146
O  O34  1  0.06203000  0.68980000  0.79987000  1.0 -0.529036146
O  O35  1  0.79987000  0.06203000  0.68980000  1.0 -0.529036146
O  O36  1  0.68980000  0.79987000  0.06203000  1.0 -0.529036146
O  O37  1  0.52604000  0.72493000  0.83923000  1.0 -0.5224521483
O  O38  1  0.72493000  0.83923000  0.52604000  1.0 -0.5224521483
O  O39  1  0.83923000  0.52604000  0.72493000  1.0 -0.5224521483
O  O40  1  0.97396000  0.66077000  0.77507000  1.0 -0.5224521483
O  O41  1  0.77507000  0.97396000  0.66077000  1.0 -0.5224521483
O  O42  1  0.66077000  0.77507000  0.97396000  1.0 -0.5224521483
O  O43  1  0.81108000  0.36562000  0.61210000  1.0 -0.5224521483
O  O44  1  0.36562000  0.61210000  0.81108000  1.0 -0.5224521483
O  O45  1  0.61210000  0.81108000  0.36562000  1.0 -0.5224521483
O  O46  1  0.68892000  0.88790000  0.13438000  1.0 -0.5224521483
O  O47  1  0.13438000  0.68892000  0.88790000  1.0 -0.5224521483
O  O48  1  0.88790000  0.13438000  0.68892000  1.0 -0.5224521483
O  O49  1  0.84679000  0.39895000  0.57276000  1.0 -0.529036146
O  O50  1  0.39895000  0.57276000  0.84679000  1.0 -0.529036146
O  O51  1  0.57276000  0.84679000  0.39895000  1.0 -0.529036146
O  O52  1  0.65321000  0.92724000  0.10105000  1.0 -0.529036146
O  O53  1  0.10105000  0.65321000  0.92724000  1.0 -0.529036146
O  O54  1  0.92724000  0.10105000  0.65321000  1.0 -0.529036146
O  O55  1  0.56103000  0.80994000  0.04953000  1.0 -1.1041121681
O  O56  1  0.80994000  0.04953000  0.56103000  1.0 -1.1067670385
O  O57  1  0.04953000  0.56103000  0.80994000  1.0 -1.1067670385
O  O58  1  0.93897000  0.45047000  0.69006000  1.0 -1.1067670385
O  O59  1  0.69006000  0.93897000  0.45047000  1.0 -1.1067670385
O  O60  1  0.45047000  0.69006000  0.93897000  1.0 -1.1041121681
O  O61  1  0.55020000  0.89760000  0.07050000  1.0 -0.529036146
O  O62  1  0.89760000  0.07050000  0.55020000  1.0 -0.529036146
O  O63  1  0.07050000  0.55020000  0.89760000  1.0 -0.529036146
O  O64  1  0.94980000  0.42950000  0.60240000  1.0 -0.529036146
O  O65  1  0.60240000  0.94980000  0.42950000  1.0 -0.529036146
O  O66  1  0.42950000  0.60240000  0.94980000  1.0 -0.529036146
O  O67  1  0.49260000  0.83300000  0.07510000  1.0 -0.5705726494
O  O68  1  0.83300000  0.07510000  0.49260000  1.0 -0.5705726494
O  O69  1  0.07510000  0.49260000  0.83300000  1.0 -0.5705726494
O  O70  1  0.00740000  0.42490000  0.66700000  1.0 -0.5705726494
O  O71  1  0.66700000  0.00740000  0.42490000  1.0 -0.5705726494
O  O72  1  0.42490000  0.66700000  0.00740000  1.0 -0.5705726494
O  O73  1  0.52390000  0.88070000  0.97150000  1.0 -0.6829879482
O  O74  1  0.88070000  0.97150000  0.52390000  1.0 -0.6632377207
O  O75  1  0.97150000  0.52390000  0.88070000  1.0 -0.6679095427
O  O76  1  0.97610000  0.52850000  0.61930000  1.0 -0.6679095427
O  O77  1  0.61930000  0.97610000  0.52850000  1.0 -0.6679095427
O  O78  1  0.52850000  0.61930000  0.97610000  1.0 -0.6632377207
O  O79  1  0.35320000  0.68540000  0.87010000  1.0 -0.5813434998
O  O80  1  0.68540000  0.87010000  0.35320000  1.0 -0.5813434998
O  O81  1  0.87010000  0.35320000  0.68540000  1.0 -0.5813434998
O  O82  1  0.14680000  0.62990000  0.81460000  1.0 -0.5813434998
O  O83  1  0.81460000  0.14680000  0.62990000  1.0 -0.5813434998
O  O84  1  0.62990000  0.81460000  0.14680000  1.0 -0.5813434998
O  O85  1  0.38870000  0.72020000  0.97770000  1.0 -0.692608265
O  O86  1  0.72020000  0.97770000  0.38870000  1.0 -0.6978684039
O  O87  1  0.97770000  0.38870000  0.72020000  1.0 -0.692608265
O  O88  1  0.11130000  0.52230000  0.77980000  1.0 -0.6978684039
O  O89  1  0.77980000  0.11130000  0.52230000  1.0 -0.6978684039
O  O90  1  0.52230000  0.77980000  0.11130000  1.0 -0.6978684039
O  O91  1  0.40770000  0.75590000  0.85760000  1.0 -0.6679095427
O  O92  1  0.75590000  0.85760000  0.40770000  1.0 -0.6829879482
O  O93  1  0.85760000  0.40770000  0.75590000  1.0 -0.6679095427
O  O94  1  0.09230000  0.64240000  0.74410000  1.0 -0.6679095427
O  O95  1  0.74410000  0.09230000  0.64240000  1.0 -0.6679095427
O  O96  1  0.64240000  0.74410000  0.09230000  1.0 -0.6632377207
O  O97  1  0.52036000  0.32839000  0.12555000  1.0 -1.064481159
O  O98  1  0.32839000  0.12555000  0.52036000  1.0 -1.0683665852
O  O99  1  0.12555000  0.52036000  0.32839000  1.0 -1.0683665852
O  O100  1  0.97964000  0.37445000  0.17161000  1.0 -1.0683665852
O  O101  1  0.17161000  0.97964000  0.37445000  1.0 -1.0683665852
O  O102  1  0.37445000  0.17161000  0.97964000  1.0 -1.0683665852
O  O103  1  0.53115000  0.21475000  0.03070000  1.0 -1.0475246558
O  O104  1  0.21475000  0.03070000  0.53115000  1.0 -1.0475246558
O  O105  1  0.03070000  0.53115000  0.21475000  1.0 -1.0475246558
O  O106  1  0.96885000  0.46930000  0.28525000  1.0 -1.0475246558
O  O107  1  0.28525000  0.96885000  0.46930000  1.0 -1.0475246558
O  O108  1  0.46930000  0.28525000  0.96885000  1.0 -1.0444580117
O  O109  1  0.32883000  0.12358000  0.43579000  1.0 -0.5382852157
O  O110  1  0.12358000  0.43579000  0.32883000  1.0 -0.5382852157
O  O111  1  0.43579000  0.32883000  0.12358000  1.0 -0.5382852157
O  O112  1  0.17117000  0.06421000  0.37642000  1.0 -0.5382852157
O  O113  1  0.37642000  0.17117000  0.06421000  1.0 -0.5382852157
O  O114  1  0.06421000  0.37642000  0.17117000  1.0 -0.5382852157
O  O115  1  0.47713000  0.22335000  0.06862000  1.0 -1.0683665852
O  O116  1  0.22335000  0.06862000  0.47713000  1.0 -1.0683665852
O  O117  1  0.06862000  0.47713000  0.22335000  1.0 -1.0683665852
O  O118  1  0.02287000  0.43138000  0.27665000  1.0 -1.0683665852
O  O119  1  0.27665000  0.02287000  0.43138000  1.0 -1.0683665852
O  O120  1  0.43138000  0.27665000  0.02287000  1.0 -1.0757374565
O  O121  1  0.39542000  0.11861000  0.49117000  1.0 -0.507815803
O  O122  1  0.11861000  0.49117000  0.39542000  1.0 -0.507815803
O  O123  1  0.49117000  0.39542000  0.11861000  1.0 -0.507815803
O  O124  1  0.10458000  0.00883000  0.38139000  1.0 -0.507815803
O  O125  1  0.38139000  0.10458000  0.00883000  1.0 -0.507815803
O  O126  1  0.00883000  0.38139000  0.10458000  1.0 -0.507815803
O  O127  1  0.56203000  0.29987000  0.18980000  1.0 -0.529036146
O  O128  1  0.29987000  0.18980000  0.56203000  1.0 -0.529036146
O  O129  1  0.18980000  0.56203000  0.29987000  1.0 -0.529036146
O  O130  1  0.93797000  0.31020000  0.20013000  1.0 -0.529036146
O  O131  1  0.20013000  0.93797000  0.31020000  1.0 -0.529036146
O  O132  1  0.31020000  0.20013000  0.93797000  1.0 -0.529036146
O  O133  1  0.47396000  0.27507000  0.16077000  1.0 -0.5224521483
O  O134  1  0.27507000  0.16077000  0.47396000  1.0 -0.5224521483
O  O135  1  0.16077000  0.47396000  0.27507000  1.0 -0.5224521483
O  O136  1  0.02604000  0.33923000  0.22493000  1.0 -0.5224521483
O  O137  1  0.22493000  0.02604000  0.33923000  1.0 -0.5224521483
O  O138  1  0.33923000  0.22493000  0.02604000  1.0 -0.5224521483
O  O139  1  0.18892000  0.63438000  0.38790000  1.0 -0.5224521483
O  O140  1  0.63438000  0.38790000  0.18892000  1.0 -0.5224521483
O  O141  1  0.38790000  0.18892000  0.63438000  1.0 -0.5224521483
O  O142  1  0.31108000  0.11210000  0.86562000  1.0 -0.5224521483
O  O143  1  0.86562000  0.31108000  0.11210000  1.0 -0.5224521483
O  O144  1  0.11210000  0.86562000  0.31108000  1.0 -0.5224521483
O  O145  1  0.15321000  0.60105000  0.42724000  1.0 -0.529036146
O  O146  1  0.60105000  0.42724000  0.15321000  1.0 -0.529036146
O  O147  1  0.42724000  0.15321000  0.60105000  1.0 -0.529036146
O  O148  1  0.34679000  0.07276000  0.89895000  1.0 -0.529036146
O  O149  1  0.89895000  0.34679000  0.07276000  1.0 -0.529036146
O  O150  1  0.07276000  0.89895000  0.34679000  1.0 -0.529036146
O  O151  1  0.43897000  0.19006000  0.95047000  1.0 -1.1041121681
O  O152  1  0.19006000  0.95047000  0.43897000  1.0 -1.1067670385
O  O153  1  0.95047000  0.43897000  0.19006000  1.0 -1.1067670385
O  O154  1  0.06103000  0.54953000  0.30994000  1.0 -1.1067670385
O  O155  1  0.30994000  0.06103000  0.54953000  1.0 -1.1067670385
O  O156  1  0.54953000  0.30994000  0.06103000  1.0 -1.1067670385
O  O157  1  0.44980000  0.10240000  0.92950000  1.0 -0.529036146
O  O158  1  0.10240000  0.92950000  0.44980000  1.0 -0.529036146
O  O159  1  0.92950000  0.44980000  0.10240000  1.0 -0.529036146
O  O160  1  0.05020000  0.57050000  0.39760000  1.0 -0.529036146
O  O161  1  0.39760000  0.05020000  0.57050000  1.0 -0.529036146
O  O162  1  0.57050000  0.39760000  0.05020000  1.0 -0.529036146
O  O163  1  0.50740000  0.16700000  0.92490000  1.0 -0.5705726494
O  O164  1  0.16700000  0.92490000  0.50740000  1.0 -0.5705726494
O  O165  1  0.92490000  0.50740000  0.16700000  1.0 -0.5705726494
O  O166  1  0.99260000  0.57510000  0.33300000  1.0 -0.5705726494
O  O167  1  0.33300000  0.99260000  0.57510000  1.0 -0.5705726494
O  O168  1  0.57510000  0.33300000  0.99260000  1.0 -0.5705726494
O  O169  1  0.47610000  0.11930000  0.02850000  1.0 -0.6632377207
O  O170  1  0.11930000  0.02850000  0.47610000  1.0 -0.6679095427
O  O171  1  0.02850000  0.47610000  0.11930000  1.0 -0.6632377207
O  O172  1  0.02390000  0.47150000  0.38070000  1.0 -0.6632377207
O  O173  1  0.38070000  0.02390000  0.47150000  1.0 -0.6679095427
O  O174  1  0.47150000  0.38070000  0.02390000  1.0 -0.6679095427
O  O175  1  0.64680000  0.31460000  0.12990000  1.0 -0.5813434998
O  O176  1  0.31460000  0.12990000  0.64680000  1.0 -0.5813434998
O  O177  1  0.12990000  0.64680000  0.31460000  1.0 -0.5863789419
O  O178  1  0.85320000  0.37010000  0.18540000  1.0 -0.5813434998
O  O179  1  0.18540000  0.85320000  0.37010000  1.0 -0.5813434998
O  O180  1  0.37010000  0.18540000  0.85320000  1.0 -0.5863789419
O  O181  1  0.61130000  0.27980000  0.02230000  1.0 -0.692608265
O  O182  1  0.27980000  0.02230000  0.61130000  1.0 -0.6978684039
O  O183  1  0.02230000  0.61130000  0.27980000  1.0 -0.6978684039
O  O184  1  0.88870000  0.47770000  0.22020000  1.0 -0.692608265
O  O185  1  0.22020000  0.88870000  0.47770000  1.0 -0.692608265
O  O186  1  0.47770000  0.22020000  0.88870000  1.0 -0.6978684039
O  O187  1  0.59230000  0.24410000  0.14240000  1.0 -0.6829879482
O  O188  1  0.24410000  0.14240000  0.59230000  1.0 -0.6679095427
O  O189  1  0.14240000  0.59230000  0.24410000  1.0 -0.6679095427
O  O190  1  0.90770000  0.35760000  0.25590000  1.0 -0.6679095427
O  O191  1  0.25590000  0.90770000  0.35760000  1.0 -0.6679095427
O  O192  1  0.35760000  0.25590000  0.90770000  1.0 -0.6679095427
