# DDEC6 charges by PACMAN v1.1 (https://github.com/mtap-research/PACMAN-charge/)
data_WAFLIB_ASR_pacman
_symmetry_space_group_name_H-M   'P 1'
_cell_length_a   16.84430000
_cell_length_b   16.84430000
_cell_length_c   6.95500000
_cell_angle_alpha   90.00000000
_cell_angle_beta   90.00000000
_cell_angle_gamma   144.51200000
_symmetry_Int_Tables_number   1
_chemical_formula_structural   Zn2H11C19(N2O3)2
_chemical_formula_sum   'Zn4 H22 C38 N8 O12'
_cell_volume   1145.59091007
_cell_formula_units_Z   2
loop_
 _symmetry_equiv_pos_site_id
 _symmetry_equiv_pos_as_xyz
  1  'x, y, z'
loop_
 _atom_site_type_symbol
 _atom_site_label
 _atom_site_symmetry_multiplicity
 _atom_site_fract_x
 _atom_site_fract_y
 _atom_site_fract_z
 _atom_site_occupancy
 _atom_site_charge
Zn  Zn1  1  0.00000000  0.00000000  0.50000000  1.0 0.7150362611
Zn  Zn2  1  0.00000000  0.00000000  0.00000000  1.0 0.7134032131
Zn  Zn3  1  0.09607000  0.90393000  0.25000000  1.0 0.8078827739
Zn  Zn4  1  0.90393000  0.09607000  0.75000000  1.0 0.8078827739
H  H1  1  0.58550000  0.41450000  0.25000000  1.0 0.1217692773
H  H2  1  0.41450000  0.58550000  0.75000000  1.0 0.1217692773
H  H3  1  0.88850000  0.50130000  0.25000000  1.0 0.1217692773
H  H4  1  0.11150000  0.49870000  0.75000000  1.0 0.1217692773
H  H5  1  0.50130000  0.88850000  0.75000000  1.0 0.1217692773
H  H6  1  0.49870000  0.11150000  0.25000000  1.0 0.1217692773
H  H7  1  0.87150000  0.36150000  0.01470000  1.0 0.0904734388
H  H8  1  0.12850000  0.63850000  0.51470000  1.0 0.0904734388
H  H9  1  0.36150000  0.87150000  0.98530000  1.0 0.0904734388
H  H10  1  0.63850000  0.12850000  0.48530000  1.0 0.0904734388
H  H11  1  0.12850000  0.63850000  0.98530000  1.0 0.0904734388
H  H12  1  0.87150000  0.36150000  0.48530000  1.0 0.0904734388
H  H13  1  0.63850000  0.12850000  0.01470000  1.0 0.0904734388
H  H14  1  0.36150000  0.87150000  0.51470000  1.0 0.0904734388
H  H15  1  0.94140000  0.28400000  0.01360000  1.0 0.1053535661
H  H16  1  0.05860000  0.71600000  0.51360000  1.0 0.1053535661
H  H17  1  0.28400000  0.94140000  0.98640000  1.0 0.1053535661
H  H18  1  0.71600000  0.05860000  0.48640000  1.0 0.1053535661
H  H19  1  0.05860000  0.71600000  0.98640000  1.0 0.1053535661
H  H20  1  0.94140000  0.28400000  0.48640000  1.0 0.1053535661
H  H21  1  0.71600000  0.05860000  0.01360000  1.0 0.1053535661
H  H22  1  0.28400000  0.94140000  0.51360000  1.0 0.1053535661
C  C1  1  0.84750000  0.62450000  0.25000000  1.0 0.5404133082
C  C2  1  0.15250000  0.37550000  0.75000000  1.0 0.5404133082
C  C3  1  0.62450000  0.84750000  0.75000000  1.0 0.5404133082
C  C4  1  0.37550000  0.15250000  0.25000000  1.0 0.5404133082
C  C5  1  0.74979000  0.47901000  0.25000000  1.0 -0.0434819169
C  C6  1  0.25021000  0.52099000  0.75000000  1.0 -0.0434819169
C  C7  1  0.47901000  0.74979000  0.75000000  1.0 -0.0434819169
C  C8  1  0.52099000  0.25021000  0.25000000  1.0 -0.0434819169
C  C9  1  0.61450000  0.38550000  0.25000000  1.0 -0.0945863992
C  C10  1  0.38550000  0.61450000  0.75000000  1.0 -0.0950490653
C  C11  1  0.79542000  0.43658000  0.25000000  1.0 -0.1682786539
C  C12  1  0.20458000  0.56342000  0.75000000  1.0 -0.1682786539
C  C13  1  0.43658000  0.79542000  0.75000000  1.0 -0.1682786539
C  C14  1  0.56342000  0.20458000  0.25000000  1.0 -0.1682786539
C  C15  1  0.70136000  0.29864000  0.25000000  1.0 0.0578604892
C  C16  1  0.29864000  0.70136000  0.75000000  1.0 0.0578604892
C  C17  1  0.74804000  0.25196000  0.25000000  1.0 0.0394559346
C  C18  1  0.25196000  0.74804000  0.75000000  1.0 0.0394559346
C  C19  1  0.83800000  0.29860000  0.11130000  1.0 -0.0706275317
C  C20  1  0.16200000  0.70140000  0.61130000  1.0 -0.0706275317
C  C21  1  0.29860000  0.83800000  0.88870000  1.0 -0.0706275317
C  C22  1  0.70140000  0.16200000  0.38870000  1.0 -0.0706275317
C  C23  1  0.16200000  0.70140000  0.88870000  1.0 -0.0706275317
C  C24  1  0.83800000  0.29860000  0.38870000  1.0 -0.0706275317
C  C25  1  0.70140000  0.16200000  0.11130000  1.0 -0.0706275317
C  C26  1  0.29860000  0.83800000  0.61130000  1.0 -0.0706275317
C  C27  1  0.88001000  0.25279000  0.11130000  1.0 -0.0706275317
C  C28  1  0.11999000  0.74721000  0.61130000  1.0 -0.0706275317
C  C29  1  0.25279000  0.88001000  0.88870000  1.0 -0.0706275317
C  C30  1  0.74721000  0.11999000  0.38870000  1.0 -0.0706275317
C  C31  1  0.11999000  0.74721000  0.88870000  1.0 -0.0706275317
C  C32  1  0.88001000  0.25279000  0.38870000  1.0 -0.0706275317
C  C33  1  0.74721000  0.11999000  0.11130000  1.0 -0.0706275317
C  C34  1  0.25279000  0.88001000  0.61130000  1.0 -0.0706275317
C  C35  1  0.83493000  0.16507000  0.25000000  1.0 0.0394559346
C  C36  1  0.16507000  0.83493000  0.75000000  1.0 0.0394559346
C  C37  1  0.88132000  0.11868000  0.25000000  1.0 0.2577405751
C  C38  1  0.11868000  0.88132000  0.75000000  1.0 0.2577405751
N  N1  1  0.94367000  0.05633000  0.34300000  1.0 -0.0945863992
N  N2  1  0.05633000  0.94367000  0.84300000  1.0 -0.0945863992
N  N3  1  0.05633000  0.94367000  0.65700000  1.0 -0.0950490653
N  N4  1  0.94367000  0.05633000  0.15700000  1.0 -0.0945863992
N  N5  1  0.90459000  0.09541000  0.40720000  1.0 -0.2450479984
N  N6  1  0.09541000  0.90459000  0.90720000  1.0 -0.2450479984
N  N7  1  0.09541000  0.90459000  0.59280000  1.0 -0.2450479984
N  N8  1  0.90459000  0.09541000  0.09280000  1.0 -0.2446856171
O  O1  1  0.80800000  0.66260000  0.25000000  1.0 -0.5281047046
O  O2  1  0.19200000  0.33740000  0.75000000  1.0 -0.5281047046
O  O3  1  0.66260000  0.80800000  0.75000000  1.0 -0.5281047046
O  O4  1  0.33740000  0.19200000  0.25000000  1.0 -0.5281047046
O  O5  1  0.98902000  0.92038000  0.25000000  1.0 -0.1201034108
O  O6  1  0.01098000  0.07962000  0.75000000  1.0 -0.1201034108
O  O7  1  0.92038000  0.98902000  0.75000000  1.0 -0.1253661409
O  O8  1  0.07962000  0.01098000  0.25000000  1.0 -0.1201034108
O  O9  1  0.97010000  0.70910000  0.25000000  1.0 -0.5421661257
O  O10  1  0.02990000  0.29090000  0.75000000  1.0 -0.5421661257
O  O11  1  0.70910000  0.97010000  0.75000000  1.0 -0.5421661257
O  O12  1  0.29090000  0.02990000  0.25000000  1.0 -0.5421661257
