# DDEC6 charges by PACMAN v1.1 (https://github.com/mtap-research/PACMAN-charge/)
data_WAHFUJ_ASR_pacman
_symmetry_space_group_name_H-M   'P 1'
_cell_length_a   10.79610000
_cell_length_b   8.79500000
_cell_length_c   25.82760000
_cell_angle_alpha   90.00000000
_cell_angle_beta   105.58700000
_cell_angle_gamma   90.00000000
_symmetry_Int_Tables_number   1
_chemical_formula_structural   CuH11C18N5O6
_chemical_formula_sum   'Cu4 H44 C72 N20 O24'
_cell_volume   2362.18490487
_cell_formula_units_Z   4
loop_
 _symmetry_equiv_pos_site_id
 _symmetry_equiv_pos_as_xyz
  1  'x, y, z'
loop_
 _atom_site_type_symbol
 _atom_site_label
 _atom_site_symmetry_multiplicity
 _atom_site_fract_x
 _atom_site_fract_y
 _atom_site_fract_z
 _atom_site_occupancy
 _atom_site_charge
Cu  Cu1  1  0.57525000  0.21905000  0.73664000  1.0 0.7927043687
Cu  Cu2  1  0.42475000  0.71905000  0.76336000  1.0 0.7927043687
Cu  Cu3  1  0.42475000  0.78095000  0.26336000  1.0 0.7927043687
Cu  Cu4  1  0.57525000  0.28095000  0.23664000  1.0 0.7927043687
H  H1  1  0.46130000  0.31550000  0.90400000  1.0 0.1405838669
H  H2  1  0.53870000  0.81550000  0.59600000  1.0 0.1405838669
H  H3  1  0.53870000  0.68450000  0.09600000  1.0 0.1405838669
H  H4  1  0.46130000  0.18450000  0.40400000  1.0 0.1405838669
H  H5  1  0.45680000  0.33550000  0.81550000  1.0 0.1193437378
H  H6  1  0.54320000  0.83550000  0.68450000  1.0 0.1193437378
H  H7  1  0.54320000  0.66450000  0.18450000  1.0 0.1193437378
H  H8  1  0.45680000  0.16450000  0.31550000  1.0 0.1193437378
H  H9  1  0.72860000  0.99190000  0.92040000  1.0 0.1405838669
H  H10  1  0.27140000  0.49190000  0.57960000  1.0 0.1405838669
H  H11  1  0.27140000  0.00810000  0.07960000  1.0 0.1405838669
H  H12  1  0.72860000  0.50810000  0.42040000  1.0 0.1405838669
H  H13  1  0.99410000  0.21050000  0.78670000  1.0 0.1193437378
H  H14  1  0.00590000  0.71050000  0.71330000  1.0 0.1193437378
H  H15  1  0.00590000  0.78950000  0.21330000  1.0 0.1193437378
H  H16  1  0.99410000  0.28950000  0.28670000  1.0 0.1193437378
H  H17  1  0.20880000  0.22010000  0.78790000  1.0 0.1325276743
H  H18  1  0.79120000  0.72010000  0.71210000  1.0 0.1325276743
H  H19  1  0.79120000  0.77990000  0.21210000  1.0 0.1325276743
H  H20  1  0.20880000  0.27990000  0.28790000  1.0 0.1325276743
H  H21  1  0.91940000  0.95290000  0.65470000  1.0 0.1325276743
H  H22  1  0.08060000  0.45290000  0.84530000  1.0 0.1325276743
H  H23  1  0.08060000  0.04710000  0.34530000  1.0 0.1325276743
H  H24  1  0.91940000  0.54710000  0.15470000  1.0 0.1325276743
H  H25  1  0.71530000  0.01670000  0.82990000  1.0 0.1193437378
H  H26  1  0.28470000  0.51670000  0.67010000  1.0 0.1193437378
H  H27  1  0.28470000  0.98330000  0.17010000  1.0 0.1193437378
H  H28  1  0.71530000  0.48330000  0.32990000  1.0 0.1193437378
H  H29  1  0.69530000  0.06250000  0.07870000  1.0 0.1405838669
H  H30  1  0.30470000  0.56250000  0.42130000  1.0 0.1405838669
H  H31  1  0.30470000  0.93750000  0.92130000  1.0 0.1405838669
H  H32  1  0.69530000  0.43750000  0.57870000  1.0 0.1405838669
H  H33  1  0.69700000  0.08530000  0.16810000  1.0 0.1117219019
H  H34  1  0.30300000  0.58530000  0.33190000  1.0 0.1117219019
H  H35  1  0.30300000  0.91470000  0.83190000  1.0 0.1117219019
H  H36  1  0.69700000  0.41470000  0.66810000  1.0 0.1117219019
H  H37  1  0.41560000  0.37800000  0.13190000  1.0 0.1117219019
H  H38  1  0.58440000  0.87800000  0.36810000  1.0 0.1117219019
H  H39  1  0.58440000  0.62200000  0.86810000  1.0 0.1117219019
H  H40  1  0.41560000  0.12200000  0.63190000  1.0 0.1117219019
H  H41  1  0.41140000  0.37020000  0.04310000  1.0 0.1405838669
H  H42  1  0.58860000  0.87020000  0.45690000  1.0 0.1405838669
H  H43  1  0.58860000  0.62980000  0.95690000  1.0 0.1405838669
H  H44  1  0.41140000  0.12980000  0.54310000  1.0 0.1405838669
C  C1  1  0.10474000  0.01040000  0.68304000  1.0 0.0379744663
C  C2  1  0.89526000  0.51040000  0.81696000  1.0 0.0379744663
C  C3  1  0.89526000  0.98960000  0.31696000  1.0 0.0379744663
C  C4  1  0.10474000  0.48960000  0.18304000  1.0 0.0379744663
C  C5  1  0.93259000  0.08450000  0.71999000  1.0 0.0020390043
C  C6  1  0.06741000  0.58450000  0.78001000  1.0 0.0020390043
C  C7  1  0.06741000  0.91550000  0.28001000  1.0 0.0020390043
C  C8  1  0.93259000  0.41550000  0.21999000  1.0 0.0020390043
C  C9  1  0.19595000  0.08980000  0.72225000  1.0 -0.0318603872
C  C10  1  0.80405000  0.58980000  0.77775000  1.0 -0.0318603872
C  C11  1  0.80405000  0.91020000  0.27775000  1.0 -0.0318603872
C  C12  1  0.19595000  0.41020000  0.22225000  1.0 -0.0318603872
C  C13  1  0.51471000  0.25490000  0.88981000  1.0 -0.1959745114
C  C14  1  0.48529000  0.75490000  0.61019000  1.0 -0.1959745114
C  C15  1  0.48529000  0.74510000  0.11019000  1.0 -0.1959745114
C  C16  1  0.51471000  0.24510000  0.38981000  1.0 -0.1959745114
C  C17  1  0.51258000  0.26590000  0.83698000  1.0 0.0982855944
C  C18  1  0.48742000  0.76590000  0.66302000  1.0 0.0982855944
C  C19  1  0.48742000  0.73410000  0.16302000  1.0 0.0982855944
C  C20  1  0.51258000  0.23410000  0.33698000  1.0 0.0982855944
C  C21  1  0.59697000  0.15270000  0.92167000  1.0 0.1754309635
C  C22  1  0.40303000  0.65270000  0.57833000  1.0 0.1754309635
C  C23  1  0.40303000  0.84730000  0.07833000  1.0 0.1754309635
C  C24  1  0.59697000  0.34730000  0.42167000  1.0 0.1754309635
C  C25  1  0.67289000  0.06250000  0.89949000  1.0 -0.1959745114
C  C26  1  0.32711000  0.56250000  0.60051000  1.0 -0.1959745114
C  C27  1  0.32711000  0.93750000  0.10051000  1.0 -0.1959745114
C  C28  1  0.67289000  0.43750000  0.39949000  1.0 -0.1959745114
C  C29  1  0.55244000  0.21590000  0.05114000  1.0 0.1860949273
C  C30  1  0.44756000  0.71590000  0.44886000  1.0 0.1860949273
C  C31  1  0.44756000  0.78410000  0.94886000  1.0 0.1860949273
C  C32  1  0.55244000  0.28410000  0.55114000  1.0 0.1860949273
C  C33  1  0.02134000  0.16100000  0.75994000  1.0 -0.0816662119
C  C34  1  0.97866000  0.66100000  0.74006000  1.0 -0.0816662119
C  C35  1  0.97866000  0.83900000  0.24006000  1.0 -0.0816662119
C  C36  1  0.02134000  0.33900000  0.25994000  1.0 -0.0816662119
C  C37  1  0.15137000  0.16570000  0.76097000  1.0 -0.1113316093
C  C38  1  0.84863000  0.66570000  0.73903000  1.0 -0.1113316093
C  C39  1  0.84863000  0.83430000  0.23903000  1.0 -0.1113316093
C  C40  1  0.15137000  0.33430000  0.26097000  1.0 -0.1113316093
C  C41  1  0.97691000  0.00720000  0.68161000  1.0 -0.1525824417
C  C42  1  0.02309000  0.50720000  0.81839000  1.0 -0.1525824417
C  C43  1  0.02309000  0.99280000  0.31839000  1.0 -0.1525824417
C  C44  1  0.97691000  0.49280000  0.18161000  1.0 -0.1525824417
C  C45  1  0.79102000  0.08260000  0.71682000  1.0 0.5390087615
C  C46  1  0.20898000  0.58260000  0.78318000  1.0 0.5390087615
C  C47  1  0.20898000  0.91740000  0.28318000  1.0 0.5390087615
C  C48  1  0.79102000  0.41740000  0.21682000  1.0 0.5390087615
C  C49  1  0.66508000  0.07870000  0.84528000  1.0 0.1117219019
C  C50  1  0.33492000  0.57870000  0.65472000  1.0 0.1117219019
C  C51  1  0.33492000  0.92130000  0.15472000  1.0 0.1117219019
C  C52  1  0.66508000  0.42130000  0.34528000  1.0 0.1117219019
C  C53  1  0.63885000  0.12850000  0.08895000  1.0 -0.1959745114
C  C54  1  0.36115000  0.62850000  0.41105000  1.0 -0.1959745114
C  C55  1  0.36115000  0.87150000  0.91105000  1.0 -0.1959745114
C  C56  1  0.63885000  0.37150000  0.58895000  1.0 -0.1959745114
C  C57  1  0.63863000  0.14230000  0.14243000  1.0 0.0982855944
C  C58  1  0.36137000  0.64230000  0.35757000  1.0 0.0982855944
C  C59  1  0.36137000  0.85770000  0.85757000  1.0 0.0982855944
C  C60  1  0.63863000  0.35770000  0.64243000  1.0 0.0982855944
C  C61  1  0.47367000  0.31560000  0.12117000  1.0 0.0982855944
C  C62  1  0.52633000  0.81560000  0.37883000  1.0 0.0982855944
C  C63  1  0.52633000  0.68440000  0.87883000  1.0 0.0982855944
C  C64  1  0.47367000  0.18440000  0.62117000  1.0 0.0982855944
C  C65  1  0.46975000  0.31030000  0.06785000  1.0 -0.1897447531
C  C66  1  0.53025000  0.81030000  0.43215000  1.0 -0.1897447531
C  C67  1  0.53025000  0.68970000  0.93215000  1.0 -0.1897447531
C  C68  1  0.46975000  0.18970000  0.56785000  1.0 -0.1897447531
C  C69  1  0.33812000  0.09070000  0.72722000  1.0 0.5548921476
C  C70  1  0.66188000  0.59070000  0.77278000  1.0 0.5555932175
C  C71  1  0.66188000  0.90930000  0.27278000  1.0 0.5555932175
C  C72  1  0.33812000  0.40930000  0.22722000  1.0 0.5548921476
N  N1  1  0.58733000  0.18080000  0.81453000  1.0 -0.221594726
N  N2  1  0.41267000  0.68080000  0.68547000  1.0 -0.221594726
N  N3  1  0.41267000  0.81920000  0.18547000  1.0 -0.221594726
N  N4  1  0.58733000  0.31920000  0.31453000  1.0 -0.221594726
N  N5  1  0.14338000  0.92810000  0.64098000  1.0 0.5094762097
N  N6  1  0.85662000  0.42810000  0.85902000  1.0 0.5094762097
N  N7  1  0.85662000  0.07190000  0.35902000  1.0 0.5094762097
N  N8  1  0.14338000  0.57190000  0.14098000  1.0 0.5094762097
N  N9  1  0.55741000  0.23500000  0.15841000  1.0 -0.2143491854
N  N10  1  0.44259000  0.73500000  0.34159000  1.0 -0.2143491854
N  N11  1  0.44259000  0.76500000  0.84159000  1.0 -0.2143491854
N  N12  1  0.55741000  0.26500000  0.65841000  1.0 -0.2143491854
N  N13  1  0.61018000  0.13510000  0.97878000  1.0 -0.0995062266
N  N14  1  0.38982000  0.63510000  0.52122000  1.0 -0.0995062266
N  N15  1  0.38982000  0.86490000  0.02122000  1.0 -0.0995062266
N  N16  1  0.61018000  0.36490000  0.47878000  1.0 -0.0995062266
N  N17  1  0.54414000  0.22390000  0.99504000  1.0 -0.1153569867
N  N18  1  0.45586000  0.72390000  0.50496000  1.0 -0.1153569867
N  N19  1  0.45586000  0.77610000  0.00496000  1.0 -0.1153569867
N  N20  1  0.54414000  0.27610000  0.49504000  1.0 -0.1153569867
O  O1  1  0.75754000  0.17790000  0.74804000  1.0 -0.5539162506
O  O2  1  0.24246000  0.67790000  0.75196000  1.0 -0.5539162506
O  O3  1  0.24246000  0.82210000  0.25196000  1.0 -0.5539162506
O  O4  1  0.75754000  0.32210000  0.24804000  1.0 -0.5539162506
O  O5  1  0.72014000  0.99660000  0.68544000  1.0 -0.5259761561
O  O6  1  0.27986000  0.49660000  0.81456000  1.0 -0.5259761561
O  O7  1  0.27986000  0.00340000  0.31456000  1.0 -0.5259761561
O  O8  1  0.72014000  0.50340000  0.18544000  1.0 -0.5259761561
O  O9  1  0.23478000  0.97400000  0.62668000  1.0 -0.3174752131
O  O10  1  0.76522000  0.47400000  0.87332000  1.0 -0.314114814
O  O11  1  0.76522000  0.02600000  0.37332000  1.0 -0.3174752131
O  O12  1  0.23478000  0.52600000  0.12668000  1.0 -0.3174752131
O  O13  1  0.08105000  0.81350000  0.62255000  1.0 -0.3174752131
O  O14  1  0.91895000  0.31350000  0.87745000  1.0 -0.3174752131
O  O15  1  0.91895000  0.18650000  0.37745000  1.0 -0.3174752131
O  O16  1  0.08105000  0.68650000  0.12255000  1.0 -0.3174752131
O  O17  1  0.39975000  0.97280000  0.73985000  1.0 -0.5691656818
O  O18  1  0.60025000  0.47280000  0.76015000  1.0 -0.5691656818
O  O19  1  0.60025000  0.02720000  0.26015000  1.0 -0.5691656818
O  O20  1  0.39975000  0.52720000  0.23985000  1.0 -0.5691656818
O  O21  1  0.38484000  0.21900000  0.72054000  1.0 -0.5243314256
O  O22  1  0.61516000  0.71900000  0.77946000  1.0 -0.5243314256
O  O23  1  0.61516000  0.78100000  0.27946000  1.0 -0.5243314256
O  O24  1  0.38484000  0.28100000  0.22054000  1.0 -0.5243314256
