# DDEC6 charges by PACMAN v1.1 (https://github.com/mtap-research/PACMAN-charge/)
data_WAHNUQ_ion_pacman
_symmetry_space_group_name_H-M   'P 1'
_cell_length_a   22.98130000
_cell_length_b   22.98130000
_cell_length_c   22.98130000
_cell_angle_alpha   115.70300000
_cell_angle_beta   115.70300000
_cell_angle_gamma   115.70300000
_symmetry_Int_Tables_number   1
_chemical_formula_structural   Zn5Co6H144C204(N11O8)6
_chemical_formula_sum   'Zn5 Co6 H144 C204 N66 O48'
_cell_volume   6336.29229646
_cell_formula_units_Z   1
loop_
 _symmetry_equiv_pos_site_id
 _symmetry_equiv_pos_as_xyz
  1  'x, y, z'
loop_
 _atom_site_type_symbol
 _atom_site_label
 _atom_site_symmetry_multiplicity
 _atom_site_fract_x
 _atom_site_fract_y
 _atom_site_fract_z
 _atom_site_occupancy
 _atom_site_charge
Zn  Zn1  1  0.50000000  0.00000000  0.50000000  1.0 0.7078934358
Zn  Zn2  1  0.00000000  0.50000000  0.50000000  1.0 0.7078934358
Zn  Zn3  1  0.50000000  0.50000000  0.00000000  1.0 0.7078934358
Zn  Zn4  1  0.31091000  0.31091000  0.31091000  1.0 0.4771513239
Zn  Zn5  1  0.68909000  0.68909000  0.68909000  1.0 0.4771513239
Co  Co1  1  0.08827000  0.47000000  0.20585000  1.0 0.5334567871
Co  Co2  1  0.47000000  0.20585000  0.08827000  1.0 0.5334567871
Co  Co3  1  0.20585000  0.08827000  0.47000000  1.0 0.5334567871
Co  Co4  1  0.91173000  0.53000000  0.79415000  1.0 0.5334567871
Co  Co5  1  0.53000000  0.79415000  0.91173000  1.0 0.5334567871
Co  Co6  1  0.79415000  0.91173000  0.53000000  1.0 0.5334567871
H  H1  1  0.72162000  0.25420000  0.04730000  1.0 0.141060164
H  H2  1  0.25420000  0.04730000  0.72162000  1.0 0.141060164
H  H3  1  0.04730000  0.72162000  0.25420000  1.0 0.141060164
H  H4  1  0.27838000  0.74580000  0.95270000  1.0 0.141060164
H  H5  1  0.74580000  0.95270000  0.27838000  1.0 0.141060164
H  H6  1  0.95270000  0.27838000  0.74580000  1.0 0.141060164
H  H7  1  0.77132000  0.18480000  0.03760000  1.0 0.1605843277
H  H8  1  0.18480000  0.03760000  0.77132000  1.0 0.1605843277
H  H9  1  0.03760000  0.77132000  0.18480000  1.0 0.1605843277
H  H10  1  0.22868000  0.81520000  0.96240000  1.0 0.1605843277
H  H11  1  0.81520000  0.96240000  0.22868000  1.0 0.1605843277
H  H12  1  0.96240000  0.22868000  0.81520000  1.0 0.1605843277
H  H13  1  0.82392000  0.41170000  0.12110000  1.0 0.1488194905
H  H14  1  0.41170000  0.12110000  0.82392000  1.0 0.1488194905
H  H15  1  0.12110000  0.82392000  0.41170000  1.0 0.1488194905
H  H16  1  0.17608000  0.58830000  0.87890000  1.0 0.1488194905
H  H17  1  0.58830000  0.87890000  0.17608000  1.0 0.1488194905
H  H18  1  0.87890000  0.17608000  0.58830000  1.0 0.1488194905
H  H19  1  0.02722000  0.21920000  0.06650000  1.0 0.1712632101
H  H20  1  0.21920000  0.06650000  0.02722000  1.0 0.1712632101
H  H21  1  0.06650000  0.02722000  0.21920000  1.0 0.1712632101
H  H22  1  0.97278000  0.78080000  0.93350000  1.0 0.1712632101
H  H23  1  0.78080000  0.93350000  0.97278000  1.0 0.1712632101
H  H24  1  0.93350000  0.97278000  0.78080000  1.0 0.1712632101
H  H25  1  0.13202000  0.21360000  0.11910000  1.0 0.1168494043
H  H26  1  0.21360000  0.11910000  0.13202000  1.0 0.1168494043
H  H27  1  0.11910000  0.13202000  0.21360000  1.0 0.1168494043
H  H28  1  0.86798000  0.78640000  0.88090000  1.0 0.1168494043
H  H29  1  0.78640000  0.88090000  0.86798000  1.0 0.1168494043
H  H30  1  0.88090000  0.86798000  0.78640000  1.0 0.1168494043
H  H31  1  0.32442000  0.45920000  0.39000000  1.0 0.110255508
H  H32  1  0.45920000  0.39000000  0.32442000  1.0 0.110255508
H  H33  1  0.39000000  0.32442000  0.45920000  1.0 0.110255508
H  H34  1  0.67558000  0.54080000  0.61000000  1.0 0.110255508
H  H35  1  0.54080000  0.61000000  0.67558000  1.0 0.110255508
H  H36  1  0.61000000  0.67558000  0.54080000  1.0 0.110255508
H  H37  1  0.23122000  0.48050000  0.35030000  1.0 0.1488194905
H  H38  1  0.48050000  0.35030000  0.23122000  1.0 0.1488194905
H  H39  1  0.35030000  0.23122000  0.48050000  1.0 0.1488194905
H  H40  1  0.76878000  0.51950000  0.64970000  1.0 0.1488194905
H  H41  1  0.51950000  0.64970000  0.76878000  1.0 0.1488194905
H  H42  1  0.64970000  0.76878000  0.51950000  1.0 0.1488194905
H  H43  1  0.17852000  0.61670000  0.18760000  1.0 0.1488194905
H  H44  1  0.61670000  0.18760000  0.17852000  1.0 0.1488194905
H  H45  1  0.18760000  0.17852000  0.61670000  1.0 0.1488194905
H  H46  1  0.82148000  0.38330000  0.81240000  1.0 0.1488194905
H  H47  1  0.38330000  0.81240000  0.82148000  1.0 0.1488194905
H  H48  1  0.81240000  0.82148000  0.38330000  1.0 0.1488194905
H  H49  1  0.32762000  0.77200000  0.29000000  1.0 0.0989437344
H  H50  1  0.77200000  0.29000000  0.32762000  1.0 0.0989437344
H  H51  1  0.29000000  0.32762000  0.77200000  1.0 0.0989437344
H  H52  1  0.67238000  0.22800000  0.71000000  1.0 0.0989437344
H  H53  1  0.22800000  0.71000000  0.67238000  1.0 0.0989437344
H  H54  1  0.71000000  0.67238000  0.22800000  1.0 0.0989437344
H  H55  1  0.34072000  0.89550000  0.48460000  1.0 0.110255508
H  H56  1  0.89550000  0.48460000  0.34072000  1.0 0.110255508
H  H57  1  0.48460000  0.34072000  0.89550000  1.0 0.110255508
H  H58  1  0.65928000  0.10450000  0.51540000  1.0 0.110255508
H  H59  1  0.10450000  0.51540000  0.65928000  1.0 0.110255508
H  H60  1  0.51540000  0.65928000  0.10450000  1.0 0.110255508
H  H61  1  0.19692000  0.74240000  0.39270000  1.0 0.1488194905
H  H62  1  0.74240000  0.39270000  0.19692000  1.0 0.1488194905
H  H63  1  0.39270000  0.19692000  0.74240000  1.0 0.1488194905
H  H64  1  0.80308000  0.25760000  0.60730000  1.0 0.1488194905
H  H65  1  0.25760000  0.60730000  0.80308000  1.0 0.1488194905
H  H66  1  0.60730000  0.80308000  0.25760000  1.0 0.1488194905
H  H67  1  0.79642000  0.68310000  0.43450000  1.0 0.1605843277
H  H68  1  0.68310000  0.43450000  0.79642000  1.0 0.1605843277
H  H69  1  0.43450000  0.79642000  0.68310000  1.0 0.1605843277
H  H70  1  0.20358000  0.31690000  0.56550000  1.0 0.1605843277
H  H71  1  0.31690000  0.56550000  0.20358000  1.0 0.1605843277
H  H72  1  0.56550000  0.20358000  0.31690000  1.0 0.1605843277
H  H73  1  0.99012000  0.08310000  0.60130000  1.0 0.1488194905
H  H74  1  0.08310000  0.60130000  0.99012000  1.0 0.1488194905
H  H75  1  0.60130000  0.99012000  0.08310000  1.0 0.1488194905
H  H76  1  0.00988000  0.91690000  0.39870000  1.0 0.1488194905
H  H77  1  0.91690000  0.39870000  0.00988000  1.0 0.1488194905
H  H78  1  0.39870000  0.00988000  0.91690000  1.0 0.1488194905
H  H79  1  0.14432000  0.24990000  0.73720000  1.0 0.0989437344
H  H80  1  0.24990000  0.73720000  0.14432000  1.0 0.0989437344
H  H81  1  0.73720000  0.14432000  0.24990000  1.0 0.0989437344
H  H82  1  0.85568000  0.75010000  0.26280000  1.0 0.0989437344
H  H83  1  0.75010000  0.26280000  0.85568000  1.0 0.0989437344
H  H84  1  0.26280000  0.85568000  0.75010000  1.0 0.0989437344
H  H85  1  0.22892000  0.22980000  0.90550000  1.0 0.0989437344
H  H86  1  0.22980000  0.90550000  0.22892000  1.0 0.0989437344
H  H87  1  0.90550000  0.22892000  0.22980000  1.0 0.0989437344
H  H88  1  0.77108000  0.77020000  0.09450000  1.0 0.0989437344
H  H89  1  0.77020000  0.09450000  0.77108000  1.0 0.0989437344
H  H90  1  0.09450000  0.77108000  0.77020000  1.0 0.0989437344
H  H91  1  0.07552000  0.06350000  0.77760000  1.0 0.1605843277
H  H92  1  0.06350000  0.77760000  0.07552000  1.0 0.1605843277
H  H93  1  0.77760000  0.07552000  0.06350000  1.0 0.1605843277
H  H94  1  0.92448000  0.93650000  0.22240000  1.0 0.1605843277
H  H95  1  0.93650000  0.22240000  0.92448000  1.0 0.1605843277
H  H96  1  0.22240000  0.92448000  0.93650000  1.0 0.1605843277
H  H97  1  0.49232000  0.88540000  0.34820000  1.0 0.0989437344
H  H98  1  0.88540000  0.34820000  0.49232000  1.0 0.0989437344
H  H99  1  0.34820000  0.49232000  0.88540000  1.0 0.0989437344
H  H100  1  0.50768000  0.11460000  0.65180000  1.0 0.0989437344
H  H101  1  0.11460000  0.65180000  0.50768000  1.0 0.0989437344
H  H102  1  0.65180000  0.50768000  0.11460000  1.0 0.0989437344
H  H103  1  0.54602000  0.82230000  0.32670000  1.0 0.1488194905
H  H104  1  0.82230000  0.32670000  0.54602000  1.0 0.1488194905
H  H105  1  0.32670000  0.54602000  0.82230000  1.0 0.1488194905
H  H106  1  0.45398000  0.17770000  0.67330000  1.0 0.1488194905
H  H107  1  0.17770000  0.67330000  0.45398000  1.0 0.1488194905
H  H108  1  0.67330000  0.45398000  0.17770000  1.0 0.1488194905
H  H109  1  0.68212000  0.92810000  0.58580000  1.0 0.141060164
H  H110  1  0.92810000  0.58580000  0.68212000  1.0 0.141060164
H  H111  1  0.58580000  0.68212000  0.92810000  1.0 0.141060164
H  H112  1  0.31788000  0.07190000  0.41420000  1.0 0.141060164
H  H113  1  0.07190000  0.41420000  0.31788000  1.0 0.141060164
H  H114  1  0.41420000  0.31788000  0.07190000  1.0 0.141060164
H  H115  1  0.61832000  0.97990000  0.59630000  1.0 0.0989437344
H  H116  1  0.97990000  0.59630000  0.61832000  1.0 0.0989437344
H  H117  1  0.59630000  0.61832000  0.97990000  1.0 0.0989437344
H  H118  1  0.38168000  0.02010000  0.40370000  1.0 0.0989437344
H  H119  1  0.02010000  0.40370000  0.38168000  1.0 0.0989437344
H  H120  1  0.40370000  0.38168000  0.02010000  1.0 0.0989437344
H  H121  1  0.52162000  0.55360000  0.25530000  1.0 0.141060164
H  H122  1  0.55360000  0.25530000  0.52162000  1.0 0.141060164
H  H123  1  0.25530000  0.52162000  0.55360000  1.0 0.141060164
H  H124  1  0.47838000  0.44640000  0.74470000  1.0 0.141060164
H  H125  1  0.44640000  0.74470000  0.47838000  1.0 0.141060164
H  H126  1  0.74470000  0.47838000  0.44640000  1.0 0.141060164
H  H127  1  0.62332000  0.54030000  0.29410000  1.0 0.1168494043
H  H128  1  0.54030000  0.29410000  0.62332000  1.0 0.1168494043
H  H129  1  0.29410000  0.62332000  0.54030000  1.0 0.1168494043
H  H130  1  0.37668000  0.45970000  0.70590000  1.0 0.1168494043
H  H131  1  0.45970000  0.70590000  0.37668000  1.0 0.1168494043
H  H132  1  0.70590000  0.37668000  0.45970000  1.0 0.1168494043
H  H133  1  0.52102000  0.99600000  0.62500000  1.0 0.3276557968
H  H134  1  0.99600000  0.62500000  0.52102000  1.0 0.3276557968
H  H135  1  0.62500000  0.52102000  0.99600000  1.0 0.3276557968
H  H136  1  0.47898000  0.00400000  0.37500000  1.0 0.3276557968
H  H137  1  0.00400000  0.37500000  0.47898000  1.0 0.3276557968
H  H138  1  0.37500000  0.47898000  0.00400000  1.0 0.3276557968
H  H139  1  0.61302000  0.07800000  0.67600000  1.0 0.2826122687
H  H140  1  0.07800000  0.67600000  0.61302000  1.0 0.2826122687
H  H141  1  0.67600000  0.61302000  0.07800000  1.0 0.2826122687
H  H142  1  0.38698000  0.92200000  0.32400000  1.0 0.2826122687
H  H143  1  0.92200000  0.32400000  0.38698000  1.0 0.2826122687
H  H144  1  0.32400000  0.38698000  0.92200000  1.0 0.2826122687
C  C1  1  0.78312000  0.29010000  0.07350000  1.0 -0.0331204413
C  C2  1  0.29010000  0.07350000  0.78312000  1.0 -0.0331204413
C  C3  1  0.07350000  0.78312000  0.29010000  1.0 -0.0331204413
C  C4  1  0.21688000  0.70990000  0.92650000  1.0 -0.0331204413
C  C5  1  0.70990000  0.92650000  0.21688000  1.0 -0.0331204413
C  C6  1  0.92650000  0.21688000  0.70990000  1.0 -0.0331204413
C  C7  1  0.81242000  0.24850000  0.06780000  1.0 -0.1117347247
C  C8  1  0.24850000  0.06780000  0.81242000  1.0 -0.1117347247
C  C9  1  0.06780000  0.81242000  0.24850000  1.0 -0.1117347247
C  C10  1  0.18758000  0.75150000  0.93220000  1.0 -0.1117347247
C  C11  1  0.75150000  0.93220000  0.18758000  1.0 -0.1117347247
C  C12  1  0.93220000  0.18758000  0.75150000  1.0 -0.1117347247
C  C13  1  0.90681000  0.30634000  0.10967000  1.0 0.1168494043
C  C14  1  0.30634000  0.10967000  0.90681000  1.0 0.1168494043
C  C15  1  0.10967000  0.90681000  0.30634000  1.0 0.1168494043
C  C16  1  0.09319000  0.69366000  0.89033000  1.0 0.1168494043
C  C17  1  0.69366000  0.89033000  0.09319000  1.0 0.1168494043
C  C18  1  0.89033000  0.09319000  0.69366000  1.0 0.1168494043
C  C19  1  0.93594000  0.43673000  0.15565000  1.0 0.110255508
C  C20  1  0.43673000  0.15565000  0.93594000  1.0 0.110255508
C  C21  1  0.15565000  0.93594000  0.43673000  1.0 0.110255508
C  C22  1  0.06406000  0.56327000  0.84435000  1.0 0.110255508
C  C23  1  0.56327000  0.84435000  0.06406000  1.0 0.110255508
C  C24  1  0.84435000  0.06406000  0.56327000  1.0 0.110255508
C  C25  1  0.84392000  0.38390000  0.11720000  1.0 -0.1318072929
C  C26  1  0.38390000  0.11720000  0.84392000  1.0 -0.1318072929
C  C27  1  0.11720000  0.84392000  0.38390000  1.0 -0.1318072929
C  C28  1  0.15608000  0.61610000  0.88280000  1.0 -0.1318072929
C  C29  1  0.61610000  0.88280000  0.15608000  1.0 -0.1318072929
C  C30  1  0.88280000  0.15608000  0.61610000  1.0 -0.1318072929
C  C31  1  0.95742000  0.28010000  0.11980000  1.0 0.4194493836
C  C32  1  0.28010000  0.11980000  0.95742000  1.0 0.4194493836
C  C33  1  0.11980000  0.95742000  0.28010000  1.0 0.4194493836
C  C34  1  0.04258000  0.71990000  0.88020000  1.0 0.4194493836
C  C35  1  0.71990000  0.88020000  0.04258000  1.0 0.4194493836
C  C36  1  0.88020000  0.04258000  0.71990000  1.0 0.4194493836
C  C37  1  0.01158000  0.53825000  0.20499000  1.0 0.4194493836
C  C38  1  0.53825000  0.20499000  0.01158000  1.0 0.4194493836
C  C39  1  0.20499000  0.01158000  0.53825000  1.0 0.4194493836
C  C40  1  0.98842000  0.46175000  0.79501000  1.0 0.4194493836
C  C41  1  0.46175000  0.79501000  0.98842000  1.0 0.4194493836
C  C42  1  0.79501000  0.98842000  0.46175000  1.0 0.4194493836
C  C43  1  0.11212000  0.34720000  0.20010000  1.0 0.2694609509
C  C44  1  0.34720000  0.20010000  0.11212000  1.0 0.2694609509
C  C45  1  0.20010000  0.11212000  0.34720000  1.0 0.2694609509
C  C46  1  0.88788000  0.65280000  0.79990000  1.0 0.2694609509
C  C47  1  0.65280000  0.79990000  0.88788000  1.0 0.2694609509
C  C48  1  0.79990000  0.88788000  0.65280000  1.0 0.2694609509
C  C49  1  0.08712000  0.27000000  0.13490000  1.0 -0.1921768167
C  C50  1  0.27000000  0.13490000  0.08712000  1.0 -0.1921768167
C  C51  1  0.13490000  0.08712000  0.27000000  1.0 -0.1921768167
C  C52  1  0.91288000  0.73000000  0.86510000  1.0 -0.1921768167
C  C53  1  0.73000000  0.86510000  0.91288000  1.0 -0.1921768167
C  C54  1  0.86510000  0.91288000  0.73000000  1.0 -0.1921768167
C  C55  1  0.14862000  0.26460000  0.16730000  1.0 0.110255508
C  C56  1  0.26460000  0.16730000  0.14862000  1.0 0.110255508
C  C57  1  0.16730000  0.14862000  0.26460000  1.0 0.110255508
C  C58  1  0.85138000  0.73540000  0.83270000  1.0 0.110255508
C  C59  1  0.73540000  0.83270000  0.85138000  1.0 0.110255508
C  C60  1  0.83270000  0.85138000  0.73540000  1.0 0.110255508
C  C61  1  0.26022000  0.40740000  0.32390000  1.0 0.0818513405
C  C62  1  0.40740000  0.32390000  0.26022000  1.0 0.0818513405
C  C63  1  0.32390000  0.26022000  0.40740000  1.0 0.0818513405
C  C64  1  0.73978000  0.59260000  0.67610000  1.0 0.0818513405
C  C65  1  0.59260000  0.67610000  0.73978000  1.0 0.0818513405
C  C66  1  0.67610000  0.73978000  0.59260000  1.0 0.0818513405
C  C67  1  0.20592000  0.42210000  0.30050000  1.0 -0.2093566064
C  C68  1  0.42210000  0.30050000  0.20592000  1.0 -0.2093566064
C  C69  1  0.30050000  0.20592000  0.42210000  1.0 -0.2093566064
C  C70  1  0.79408000  0.57790000  0.69950000  1.0 -0.2093566064
C  C71  1  0.57790000  0.69950000  0.79408000  1.0 -0.2093566064
C  C72  1  0.69950000  0.79408000  0.57790000  1.0 -0.2093566064
C  C73  1  0.17185000  0.65965000  0.28062000  1.0 0.2826122687
C  C74  1  0.65965000  0.28062000  0.17185000  1.0 0.2826122687
C  C75  1  0.28062000  0.17185000  0.65965000  1.0 0.2826122687
C  C76  1  0.82815000  0.34035000  0.71938000  1.0 0.2826122687
C  C77  1  0.34035000  0.71938000  0.82815000  1.0 0.2826122687
C  C78  1  0.71938000  0.82815000  0.34035000  1.0 0.2826122687
C  C79  1  0.21218000  0.67219000  0.24965000  1.0 -0.2008410621
C  C80  1  0.67219000  0.24965000  0.21218000  1.0 -0.2008410621
C  C81  1  0.24965000  0.21218000  0.67219000  1.0 -0.2008410621
C  C82  1  0.78782000  0.32781000  0.75035000  1.0 -0.2008410621
C  C83  1  0.32781000  0.75035000  0.78782000  1.0 -0.2008410621
C  C84  1  0.75035000  0.78782000  0.32781000  1.0 -0.2008410621
C  C85  1  0.30084000  0.76595000  0.31083000  1.0 0.0818513405
C  C86  1  0.76595000  0.31083000  0.30084000  1.0 0.0818513405
C  C87  1  0.31083000  0.30084000  0.76595000  1.0 0.0818513405
C  C88  1  0.69916000  0.23405000  0.68917000  1.0 0.0818513405
C  C89  1  0.23405000  0.68917000  0.69916000  1.0 0.0818513405
C  C90  1  0.68917000  0.69916000  0.23405000  1.0 0.0818513405
C  C91  1  0.30935000  0.83838000  0.42579000  1.0 0.0731993767
C  C92  1  0.83838000  0.42579000  0.30935000  1.0 0.0731993767
C  C93  1  0.42579000  0.30935000  0.83838000  1.0 0.0731993767
C  C94  1  0.69065000  0.16162000  0.57421000  1.0 0.0731993767
C  C95  1  0.16162000  0.57421000  0.69065000  1.0 0.0731993767
C  C96  1  0.57421000  0.69065000  0.16162000  1.0 0.0731993767
C  C97  1  0.22220000  0.74660000  0.37042000  1.0 -0.2008410621
C  C98  1  0.74660000  0.37042000  0.22220000  1.0 -0.2008410621
C  C99  1  0.37042000  0.22220000  0.74660000  1.0 -0.2008410621
C  C100  1  0.77780000  0.25340000  0.62958000  1.0 -0.2008410621
C  C101  1  0.25340000  0.62958000  0.77780000  1.0 -0.2008410621
C  C102  1  0.62958000  0.77780000  0.25340000  1.0 -0.2008410621
C  C103  1  0.75562000  0.68840000  0.41870000  1.0 -0.0846253749
C  C104  1  0.68840000  0.41870000  0.75562000  1.0 -0.0846253749
C  C105  1  0.41870000  0.75562000  0.68840000  1.0 -0.0846253749
C  C106  1  0.24438000  0.31160000  0.58130000  1.0 -0.0846253749
C  C107  1  0.31160000  0.58130000  0.24438000  1.0 -0.0846253749
C  C108  1  0.58130000  0.24438000  0.31160000  1.0 -0.0846253749
C  C109  1  0.79662000  0.78050000  0.47790000  1.0 0.110255508
C  C110  1  0.78050000  0.47790000  0.79662000  1.0 0.110255508
C  C111  1  0.47790000  0.79662000  0.78050000  1.0 0.110255508
C  C112  1  0.20338000  0.21950000  0.52210000  1.0 0.110255508
C  C113  1  0.21950000  0.52210000  0.20338000  1.0 0.110255508
C  C114  1  0.52210000  0.20338000  0.21950000  1.0 0.110255508
C  C115  1  0.90602000  0.88210000  0.56600000  1.0 0.4278419958
C  C116  1  0.88210000  0.56600000  0.90602000  1.0 0.4278419958
C  C117  1  0.56600000  0.90602000  0.88210000  1.0 0.4278419958
C  C118  1  0.09398000  0.11790000  0.43400000  1.0 0.4278419958
C  C119  1  0.11790000  0.43400000  0.09398000  1.0 0.4278419958
C  C120  1  0.43400000  0.09398000  0.11790000  1.0 0.4278419958
C  C121  1  0.01352000  0.05380000  0.67380000  1.0 0.2547323154
C  C122  1  0.05380000  0.67380000  0.01352000  1.0 0.2547323154
C  C123  1  0.67380000  0.01352000  0.05380000  1.0 0.2547323154
C  C124  1  0.98648000  0.94620000  0.32620000  1.0 0.2553235338
C  C125  1  0.94620000  0.32620000  0.98648000  1.0 0.2547323154
C  C126  1  0.32620000  0.98648000  0.94620000  1.0 0.2547323154
C  C127  1  0.03682000  0.11100000  0.66290000  1.0 -0.2008410621
C  C128  1  0.11100000  0.66290000  0.03682000  1.0 -0.2008410621
C  C129  1  0.66290000  0.03682000  0.11100000  1.0 -0.2008410621
C  C130  1  0.96318000  0.88900000  0.33710000  1.0 -0.2008410621
C  C131  1  0.88900000  0.33710000  0.96318000  1.0 -0.2008410621
C  C132  1  0.33710000  0.96318000  0.88900000  1.0 -0.2008410621
C  C133  1  0.13102000  0.21120000  0.74510000  1.0 0.0731993767
C  C134  1  0.21120000  0.74510000  0.13102000  1.0 0.0731993767
C  C135  1  0.74510000  0.13102000  0.21120000  1.0 0.0731993767
C  C136  1  0.86898000  0.78880000  0.25490000  1.0 0.0731993767
C  C137  1  0.78880000  0.25490000  0.86898000  1.0 0.0731993767
C  C138  1  0.25490000  0.86898000  0.78880000  1.0 0.0731993767
C  C139  1  0.17982000  0.19970000  0.84310000  1.0 0.0818513405
C  C140  1  0.19970000  0.84310000  0.17982000  1.0 0.0818513405
C  C141  1  0.84310000  0.17982000  0.19970000  1.0 0.0818513405
C  C142  1  0.82018000  0.80030000  0.15690000  1.0 0.0818513405
C  C143  1  0.80030000  0.15690000  0.82018000  1.0 0.0818513405
C  C144  1  0.15690000  0.82018000  0.80030000  1.0 0.0818513405
C  C145  1  0.08752000  0.09960000  0.76670000  1.0 -0.1724187686
C  C146  1  0.09960000  0.76670000  0.08752000  1.0 -0.1724187686
C  C147  1  0.76670000  0.08752000  0.09960000  1.0 -0.1724187686
C  C148  1  0.91248000  0.90040000  0.23330000  1.0 -0.1724187686
C  C149  1  0.90040000  0.23330000  0.91248000  1.0 -0.1724187686
C  C150  1  0.23330000  0.91248000  0.90040000  1.0 -0.1724187686
C  C151  1  0.52996000  0.89310000  0.39616000  1.0 0.049430704
C  C152  1  0.89310000  0.39616000  0.52996000  1.0 0.049430704
C  C153  1  0.39616000  0.52996000  0.89310000  1.0 0.049430704
C  C154  1  0.47004000  0.10690000  0.60384000  1.0 0.049430704
C  C155  1  0.10690000  0.60384000  0.47004000  1.0 0.049430704
C  C156  1  0.60384000  0.47004000  0.10690000  1.0 0.049430704
C  C157  1  0.56299000  0.85557000  0.38326000  1.0 -0.1921768167
C  C158  1  0.85557000  0.38326000  0.56299000  1.0 -0.1921768167
C  C159  1  0.38326000  0.56299000  0.85557000  1.0 -0.1921768167
C  C160  1  0.43701000  0.14443000  0.61674000  1.0 -0.1921768167
C  C161  1  0.14443000  0.61674000  0.43701000  1.0 -0.1921768167
C  C162  1  0.61674000  0.43701000  0.14443000  1.0 -0.1921768167
C  C163  1  0.61897000  0.86733000  0.45202000  1.0 0.2547323154
C  C164  1  0.86733000  0.45202000  0.61897000  1.0 0.2547323154
C  C165  1  0.45202000  0.61897000  0.86733000  1.0 0.2547323154
C  C166  1  0.38103000  0.13267000  0.54798000  1.0 0.2547323154
C  C167  1  0.13267000  0.54798000  0.38103000  1.0 0.2547323154
C  C168  1  0.54798000  0.38103000  0.13267000  1.0 0.2547323154
C  C169  1  0.64215000  0.91713000  0.53564000  1.0 -0.2093566064
C  C170  1  0.91713000  0.53564000  0.64215000  1.0 -0.2093566064
C  C171  1  0.53564000  0.64215000  0.91713000  1.0 -0.2093566064
C  C172  1  0.35785000  0.08287000  0.46436000  1.0 -0.2093566064
C  C173  1  0.08287000  0.46436000  0.35785000  1.0 -0.2093566064
C  C174  1  0.46436000  0.35785000  0.08287000  1.0 -0.2093566064
C  C175  1  0.60468000  0.94953000  0.54191000  1.0 0.0858222069
C  C176  1  0.94953000  0.54191000  0.60468000  1.0 0.0858222069
C  C177  1  0.54191000  0.60468000  0.94953000  1.0 0.0858222069
C  C178  1  0.39532000  0.05047000  0.45809000  1.0 0.0858222069
C  C179  1  0.05047000  0.45809000  0.39532000  1.0 0.0858222069
C  C180  1  0.45809000  0.39532000  0.05047000  1.0 0.0858222069
C  C181  1  0.58628000  0.73020000  0.36174000  1.0 0.4035244034
C  C182  1  0.73020000  0.36174000  0.58628000  1.0 0.4035244034
C  C183  1  0.36174000  0.58628000  0.73020000  1.0 0.4035244034
C  C184  1  0.41372000  0.26980000  0.63826000  1.0 0.4035244034
C  C185  1  0.26980000  0.63826000  0.41372000  1.0 0.4035244034
C  C186  1  0.63826000  0.41372000  0.26980000  1.0 0.4035244034
C  C187  1  0.63679000  0.70523000  0.37280000  1.0 0.0989437344
C  C188  1  0.70523000  0.37280000  0.63679000  1.0 0.0989437344
C  C189  1  0.37280000  0.63679000  0.70523000  1.0 0.0989437344
C  C190  1  0.36321000  0.29477000  0.62720000  1.0 0.0989437344
C  C191  1  0.29477000  0.62720000  0.36321000  1.0 0.0989437344
C  C192  1  0.62720000  0.36321000  0.29477000  1.0 0.0989437344
C  C193  1  0.59122000  0.61060000  0.31110000  1.0 -0.1318072929
C  C194  1  0.61060000  0.31110000  0.59122000  1.0 -0.1318072929
C  C195  1  0.31110000  0.59122000  0.61060000  1.0 -0.1318072929
C  C196  1  0.40878000  0.38940000  0.68890000  1.0 -0.1318072929
C  C197  1  0.38940000  0.68890000  0.40878000  1.0 -0.1318072929
C  C198  1  0.68890000  0.40878000  0.38940000  1.0 -0.1318072929
C  C199  1  0.65222000  0.60340000  0.33500000  1.0 -0.0331204413
C  C200  1  0.60340000  0.33500000  0.65222000  1.0 -0.0331204413
C  C201  1  0.33500000  0.65222000  0.60340000  1.0 -0.0331204413
C  C202  1  0.34778000  0.39660000  0.66500000  1.0 -0.0331204413
C  C203  1  0.39660000  0.66500000  0.34778000  1.0 -0.0331204413
C  C204  1  0.66500000  0.34778000  0.39660000  1.0 -0.0331204413
N  N1  1  0.05072000  0.35549000  0.17161000  1.0 -0.4395623042
N  N2  1  0.35549000  0.17161000  0.05072000  1.0 -0.4395623042
N  N3  1  0.17161000  0.05072000  0.35549000  1.0 -0.4395623042
N  N4  1  0.94928000  0.64451000  0.82839000  1.0 -0.4395623042
N  N5  1  0.64451000  0.82839000  0.94928000  1.0 -0.4395623042
N  N6  1  0.82839000  0.94928000  0.64451000  1.0 -0.4395623042
N  N7  1  0.08676000  0.56109000  0.22367000  1.0 -0.4573731376
N  N8  1  0.56109000  0.22367000  0.08676000  1.0 -0.4573731376
N  N9  1  0.22367000  0.08676000  0.56109000  1.0 -0.4573731376
N  N10  1  0.91324000  0.43891000  0.77633000  1.0 -0.4573731376
N  N11  1  0.43891000  0.77633000  0.91324000  1.0 -0.4573731376
N  N12  1  0.77633000  0.91324000  0.43891000  1.0 -0.4573731376
N  N13  1  0.65458000  0.83089000  0.44415000  1.0 -0.4395623042
N  N14  1  0.83089000  0.44415000  0.65458000  1.0 -0.4395623042
N  N15  1  0.44415000  0.65458000  0.83089000  1.0 -0.4395623042
N  N16  1  0.34542000  0.16911000  0.55585000  1.0 -0.4395623042
N  N17  1  0.16911000  0.55585000  0.34542000  1.0 -0.4395623042
N  N18  1  0.55585000  0.34542000  0.16911000  1.0 -0.4395623042
N  N19  1  0.91623000  0.95338000  0.59251000  1.0 -0.4395623042
N  N20  1  0.95338000  0.59251000  0.91623000  1.0 -0.4395623042
N  N21  1  0.59251000  0.91623000  0.95338000  1.0 -0.4395623042
N  N22  1  0.08377000  0.04662000  0.40749000  1.0 -0.4395623042
N  N23  1  0.04662000  0.40749000  0.08377000  1.0 -0.4395623042
N  N24  1  0.40749000  0.08377000  0.04662000  1.0 -0.4395623042
N  N25  1  0.96358000  0.39657000  0.15077000  1.0 -0.2008410621
N  N26  1  0.39657000  0.15077000  0.96358000  1.0 -0.2008410621
N  N27  1  0.15077000  0.96358000  0.39657000  1.0 -0.2008410621
N  N28  1  0.03642000  0.60343000  0.84923000  1.0 -0.2008410621
N  N29  1  0.60343000  0.84923000  0.03642000  1.0 -0.2008410621
N  N30  1  0.84923000  0.03642000  0.60343000  1.0 -0.2008410621
N  N31  1  0.73709000  0.78655000  0.45368000  1.0 -0.1921768167
N  N32  1  0.78655000  0.45368000  0.73709000  1.0 -0.1921768167
N  N33  1  0.45368000  0.73709000  0.78655000  1.0 -0.1921768167
N  N34  1  0.26291000  0.21345000  0.54632000  1.0 -0.1921768167
N  N35  1  0.21345000  0.54632000  0.26291000  1.0 -0.1921768167
N  N36  1  0.54632000  0.26291000  0.21345000  1.0 -0.1921768167
N  N37  1  0.35238000  0.85057000  0.39967000  1.0 -0.266052167
N  N38  1  0.85057000  0.39967000  0.35238000  1.0 -0.266052167
N  N39  1  0.39967000  0.35238000  0.85057000  1.0 -0.266052167
N  N40  1  0.64762000  0.14943000  0.60033000  1.0 -0.266052167
N  N41  1  0.14943000  0.60033000  0.64762000  1.0 -0.266052167
N  N42  1  0.60033000  0.64762000  0.14943000  1.0 -0.266052167
N  N43  1  0.55054000  0.94054000  0.47604000  1.0 -0.2592195822
N  N44  1  0.94054000  0.47604000  0.55054000  1.0 -0.2592195822
N  N45  1  0.47604000  0.55054000  0.94054000  1.0 -0.2592195822
N  N46  1  0.44946000  0.05946000  0.52396000  1.0 -0.2592195822
N  N47  1  0.05946000  0.52396000  0.44946000  1.0 -0.2592195822
N  N48  1  0.52396000  0.44946000  0.05946000  1.0 -0.2592195822
N  N49  1  0.22632000  0.32500000  0.25870000  1.0 -0.2093566064
N  N50  1  0.32500000  0.25870000  0.22632000  1.0 -0.2093566064
N  N51  1  0.25870000  0.22632000  0.32500000  1.0 -0.2093566064
N  N52  1  0.77368000  0.67500000  0.74130000  1.0 -0.2093566064
N  N53  1  0.67500000  0.74130000  0.77368000  1.0 -0.2093566064
N  N54  1  0.74130000  0.77368000  0.67500000  1.0 -0.2093566064
N  N55  1  0.20243000  0.25538000  0.83291000  1.0 -0.2430911614
N  N56  1  0.25538000  0.83291000  0.20243000  1.0 -0.2430911614
N  N57  1  0.83291000  0.20243000  0.25538000  1.0 -0.2430911614
N  N58  1  0.79757000  0.74462000  0.16709000  1.0 -0.2430911614
N  N59  1  0.74462000  0.16709000  0.79757000  1.0 -0.2430911614
N  N60  1  0.16709000  0.79757000  0.74462000  1.0 -0.2430911614
N  N61  1  0.28500000  0.33898000  0.09600000  1.0 0.6593476281
N  N62  1  0.09600000  0.28500000  0.33898000  1.0 0.6593476281
N  N63  1  0.33898000  0.09600000  0.28500000  1.0 0.6593476281
N  N64  1  0.71500000  0.66102000  0.90400000  1.0 0.6593476281
N  N65  1  0.90400000  0.71500000  0.66102000  1.0 0.6593476281
N  N66  1  0.66102000  0.90400000  0.71500000  1.0 0.6593476281
O  O1  1  0.91536000  0.20088000  0.08808000  1.0 -0.4243696733
O  O2  1  0.20088000  0.08808000  0.91536000  1.0 -0.4243696733
O  O3  1  0.08808000  0.91536000  0.20088000  1.0 -0.4243696733
O  O4  1  0.08464000  0.79912000  0.91192000  1.0 -0.4243696733
O  O5  1  0.79912000  0.91192000  0.08464000  1.0 -0.4243696733
O  O6  1  0.91192000  0.08464000  0.79912000  1.0 -0.4243696733
O  O7  1  0.00003000  0.58838000  0.22221000  1.0 -0.4722826435
O  O8  1  0.58838000  0.22221000  0.00003000  1.0 -0.4722826435
O  O9  1  0.22221000  0.00003000  0.58838000  1.0 -0.4722826435
O  O10  1  0.99997000  0.41162000  0.77779000  1.0 -0.4722826435
O  O11  1  0.41162000  0.77779000  0.99997000  1.0 -0.4722826435
O  O12  1  0.77779000  0.99997000  0.41162000  1.0 -0.4722826435
O  O13  1  0.49493000  0.66630000  0.28989000  1.0 -0.4395623042
O  O14  1  0.66630000  0.28989000  0.49493000  1.0 -0.4395623042
O  O15  1  0.28989000  0.49493000  0.66630000  1.0 -0.4395623042
O  O16  1  0.50507000  0.33370000  0.71011000  1.0 -0.4395623042
O  O17  1  0.33370000  0.71011000  0.50507000  1.0 -0.4395623042
O  O18  1  0.71011000  0.50507000  0.33370000  1.0 -0.4395623042
O  O19  1  0.97282000  0.89240000  0.60050000  1.0 -0.4395623042
O  O20  1  0.89240000  0.60050000  0.97282000  1.0 -0.4395623042
O  O21  1  0.60050000  0.97282000  0.89240000  1.0 -0.4395623042
O  O22  1  0.02718000  0.10760000  0.39950000  1.0 -0.4395623042
O  O23  1  0.10760000  0.39950000  0.02718000  1.0 -0.4395623042
O  O24  1  0.39950000  0.02718000  0.10760000  1.0 -0.4395623042
O  O25  1  0.55080000  0.03161000  0.62231000  1.0 -0.6624530806
O  O26  1  0.03161000  0.62231000  0.55080000  1.0 -0.6624530806
O  O27  1  0.62231000  0.55080000  0.03161000  1.0 -0.6624530806
O  O28  1  0.44920000  0.96839000  0.37769000  1.0 -0.6624530806
O  O29  1  0.96839000  0.37769000  0.44920000  1.0 -0.6624530806
O  O30  1  0.37769000  0.44920000  0.96839000  1.0 -0.6624530806
O  O31  1  0.34080000  0.36918000  0.10540000  1.0 -0.2763325129
O  O32  1  0.30650000  0.41648000  0.18000000  1.0 -0.5404074146
O  O33  1  0.17830000  0.22468000  0.00980000  1.0 -0.5337869181
O  O34  1  0.10540000  0.34080000  0.36918000  1.0 -0.2763325129
O  O35  1  0.18000000  0.30650000  0.41648000  1.0 -0.5404074146
O  O36  1  0.00980000  0.17830000  0.22468000  1.0 -0.5337869181
O  O37  1  0.36918000  0.10540000  0.34080000  1.0 -0.2763325129
O  O38  1  0.41648000  0.18000000  0.30650000  1.0 -0.5404074146
O  O39  1  0.22468000  0.00980000  0.17830000  1.0 -0.5337869181
O  O40  1  0.65920000  0.63082000  0.89460000  1.0 -0.2763325129
O  O41  1  0.69350000  0.58352000  0.82000000  1.0 -0.5404074146
O  O42  1  0.82170000  0.77532000  0.99020000  1.0 -0.5337869181
O  O43  1  0.89460000  0.65920000  0.63082000  1.0 -0.2763325129
O  O44  1  0.82000000  0.69350000  0.58352000  1.0 -0.5404074146
O  O45  1  0.99020000  0.82170000  0.77532000  1.0 -0.5337869181
O  O46  1  0.63082000  0.89460000  0.65920000  1.0 -0.2763325129
O  O47  1  0.58352000  0.82000000  0.69350000  1.0 -0.5404074146
O  O48  1  0.77532000  0.99020000  0.82170000  1.0 -0.5337869181
