# DDEC6 charges by PACMAN v1.1 (https://github.com/mtap-research/PACMAN-charge/)
data_WAJHOG_ASR_pacman
_symmetry_space_group_name_H-M   'P 1'
_cell_length_a   16.63320000
_cell_length_b   16.63320000
_cell_length_c   10.78330000
_cell_angle_alpha   90.00000000
_cell_angle_beta   90.00000000
_cell_angle_gamma   90.00000000
_symmetry_Int_Tables_number   1
_chemical_formula_structural   LiZnH3(C3O2)3
_chemical_formula_sum   'Li8 Zn8 H24 C72 O48'
_cell_volume   2983.34381838
_cell_formula_units_Z   8
loop_
 _symmetry_equiv_pos_site_id
 _symmetry_equiv_pos_as_xyz
  1  'x, y, z'
loop_
 _atom_site_type_symbol
 _atom_site_label
 _atom_site_symmetry_multiplicity
 _atom_site_fract_x
 _atom_site_fract_y
 _atom_site_fract_z
 _atom_site_occupancy
 _atom_site_charge
Li  Li1  1  0.56760000  0.25580000  0.93930000  1.0 0.8157181981
Li  Li2  1  0.43240000  0.74420000  0.43930000  1.0 0.8157181981
Li  Li3  1  0.75580000  0.93240000  0.18930000  1.0 0.8157181981
Li  Li4  1  0.24420000  0.06760000  0.68930000  1.0 0.8157181981
Li  Li5  1  0.06760000  0.24420000  0.31070000  1.0 0.8157181981
Li  Li6  1  0.93240000  0.75580000  0.81070000  1.0 0.8157181981
Li  Li7  1  0.25580000  0.56760000  0.06070000  1.0 0.8157181981
Li  Li8  1  0.74420000  0.43240000  0.56070000  1.0 0.8157181981
Zn  Zn1  1  0.41480000  0.15210000  0.85041000  1.0 0.9369428027
Zn  Zn2  1  0.58520000  0.84790000  0.35041000  1.0 0.9369428027
Zn  Zn3  1  0.65210000  0.08520000  0.10041000  1.0 0.9369428027
Zn  Zn4  1  0.34790000  0.91480000  0.60041000  1.0 0.9369428027
Zn  Zn5  1  0.91480000  0.34790000  0.39959000  1.0 0.9369428027
Zn  Zn6  1  0.08520000  0.65210000  0.89959000  1.0 0.9369428027
Zn  Zn7  1  0.15210000  0.41480000  0.14959000  1.0 0.9369428027
Zn  Zn8  1  0.84790000  0.58520000  0.64959000  1.0 0.9369428027
H  H1  1  0.36590000  0.25010000  0.09780000  1.0 0.1272073667
H  H2  1  0.63410000  0.74990000  0.59780000  1.0 0.1272073667
H  H3  1  0.75010000  0.13410000  0.34780000  1.0 0.1272073667
H  H4  1  0.24990000  0.86590000  0.84780000  1.0 0.1272073667
H  H5  1  0.86590000  0.24990000  0.15220000  1.0 0.1272073667
H  H6  1  0.13410000  0.75010000  0.65220000  1.0 0.1272073667
H  H7  1  0.25010000  0.36590000  0.90220000  1.0 0.1272073667
H  H8  1  0.74990000  0.63410000  0.40220000  1.0 0.1272073667
H  H9  1  0.22790000  0.16880000  0.37350000  1.0 0.1225679907
H  H10  1  0.77210000  0.83120000  0.87350000  1.0 0.1225679907
H  H11  1  0.66880000  0.27210000  0.62350000  1.0 0.1225679907
H  H12  1  0.33120000  0.72790000  0.12350000  1.0 0.1225679907
H  H13  1  0.72790000  0.33120000  0.87650000  1.0 0.1225679907
H  H14  1  0.27210000  0.66880000  0.37650000  1.0 0.1225679907
H  H15  1  0.16880000  0.22790000  0.62650000  1.0 0.1225679907
H  H16  1  0.83120000  0.77210000  0.12650000  1.0 0.1225679907
H  H17  1  0.43290000  0.05520000  0.29280000  1.0 0.1272073667
H  H18  1  0.56710000  0.94480000  0.79280000  1.0 0.1272073667
H  H19  1  0.55520000  0.06710000  0.54280000  1.0 0.1272073667
H  H20  1  0.44480000  0.93290000  0.04280000  1.0 0.1272073667
H  H21  1  0.93290000  0.44480000  0.95720000  1.0 0.1272073667
H  H22  1  0.06710000  0.55520000  0.45720000  1.0 0.1272073667
H  H23  1  0.05520000  0.43290000  0.70720000  1.0 0.1272073667
H  H24  1  0.94480000  0.56710000  0.20720000  1.0 0.1272073667
C  C1  1  0.48640000  0.14480000  0.10800000  1.0 0.6267694998
C  C2  1  0.51360000  0.85520000  0.60800000  1.0 0.6267694998
C  C3  1  0.64480000  0.01360000  0.35800000  1.0 0.6267694998
C  C4  1  0.35520000  0.98640000  0.85800000  1.0 0.6267694998
C  C5  1  0.98640000  0.35520000  0.14200000  1.0 0.6267694998
C  C6  1  0.01360000  0.64480000  0.64200000  1.0 0.6267694998
C  C7  1  0.14480000  0.48640000  0.89200000  1.0 0.6267694998
C  C8  1  0.85520000  0.51360000  0.39200000  1.0 0.6267694998
C  C9  1  0.23100000  0.28790000  0.21230000  1.0 0.5988947246
C  C10  1  0.76900000  0.71210000  0.71230000  1.0 0.5988947246
C  C11  1  0.78790000  0.26900000  0.46230000  1.0 0.5988947246
C  C12  1  0.21210000  0.73100000  0.96230000  1.0 0.5988947246
C  C13  1  0.73100000  0.21210000  0.03770000  1.0 0.5988947246
C  C14  1  0.26900000  0.78790000  0.53770000  1.0 0.5988947246
C  C15  1  0.28790000  0.23100000  0.78770000  1.0 0.5988947246
C  C16  1  0.71210000  0.76900000  0.28770000  1.0 0.5988947246
C  C17  1  0.31000000  0.04400000  0.44950000  1.0 0.5988947246
C  C18  1  0.69000000  0.95600000  0.94950000  1.0 0.5988947246
C  C19  1  0.54400000  0.19000000  0.69950000  1.0 0.5988947246
C  C20  1  0.45600000  0.81000000  0.19950000  1.0 0.5988947246
C  C21  1  0.81000000  0.45600000  0.80050000  1.0 0.5988947246
C  C22  1  0.19000000  0.54400000  0.30050000  1.0 0.5988947246
C  C23  1  0.04400000  0.31000000  0.55050000  1.0 0.5988947246
C  C24  1  0.95600000  0.69000000  0.05050000  1.0 0.5988947246
C  C25  1  0.41090000  0.15080000  0.18090000  1.0 -0.0545974058
C  C26  1  0.58910000  0.84920000  0.68090000  1.0 -0.0545974058
C  C27  1  0.65080000  0.08910000  0.43090000  1.0 -0.0545974058
C  C28  1  0.34920000  0.91090000  0.93090000  1.0 -0.0545974058
C  C29  1  0.91090000  0.34920000  0.06910000  1.0 -0.0545974058
C  C30  1  0.08910000  0.65080000  0.56910000  1.0 -0.0545974058
C  C31  1  0.15080000  0.41090000  0.81910000  1.0 -0.0551879909
C  C32  1  0.84920000  0.58910000  0.31910000  1.0 -0.0545974058
C  C33  1  0.35620000  0.21300000  0.16040000  1.0 -0.0998574068
C  C34  1  0.64380000  0.78700000  0.66040000  1.0 -0.0998574068
C  C35  1  0.71300000  0.14380000  0.41040000  1.0 -0.0998574068
C  C36  1  0.28700000  0.85620000  0.91040000  1.0 -0.0998574068
C  C37  1  0.85620000  0.28700000  0.08960000  1.0 -0.0998574068
C  C38  1  0.14380000  0.71300000  0.58960000  1.0 -0.0998574068
C  C39  1  0.21300000  0.35620000  0.83960000  1.0 -0.0998574068
C  C40  1  0.78700000  0.64380000  0.33960000  1.0 -0.0998574068
C  C41  1  0.28700000  0.22000000  0.23320000  1.0 -0.0446055215
C  C42  1  0.71300000  0.78000000  0.73320000  1.0 -0.0446055215
C  C43  1  0.72000000  0.21300000  0.48320000  1.0 -0.0446055215
C  C44  1  0.28000000  0.78700000  0.98320000  1.0 -0.0446055215
C  C45  1  0.78700000  0.28000000  0.01680000  1.0 -0.0446055215
C  C46  1  0.21300000  0.72000000  0.51680000  1.0 -0.0446055215
C  C47  1  0.22000000  0.28700000  0.76680000  1.0 -0.0446055215
C  C48  1  0.78000000  0.71300000  0.26680000  1.0 -0.0446055215
C  C49  1  0.27380000  0.16420000  0.32490000  1.0 -0.0998574068
C  C50  1  0.72620000  0.83580000  0.82490000  1.0 -0.0998574068
C  C51  1  0.66420000  0.22620000  0.57490000  1.0 -0.0998574068
C  C52  1  0.33580000  0.77380000  0.07490000  1.0 -0.0998574068
C  C53  1  0.77380000  0.33580000  0.92510000  1.0 -0.0998574068
C  C54  1  0.22620000  0.66420000  0.42510000  1.0 -0.0998574068
C  C55  1  0.16420000  0.27380000  0.67510000  1.0 -0.0998574068
C  C56  1  0.83580000  0.72620000  0.17510000  1.0 -0.0998574068
C  C57  1  0.32590000  0.10230000  0.34710000  1.0 -0.0316552986
C  C58  1  0.67410000  0.89770000  0.84710000  1.0 -0.0316552986
C  C59  1  0.60230000  0.17410000  0.59710000  1.0 -0.0316552986
C  C60  1  0.39770000  0.82590000  0.09710000  1.0 -0.0316552986
C  C61  1  0.82590000  0.39770000  0.90290000  1.0 -0.0316552986
C  C62  1  0.17410000  0.60230000  0.40290000  1.0 -0.0316552986
C  C63  1  0.10230000  0.32590000  0.65290000  1.0 -0.0316552986
C  C64  1  0.89770000  0.67410000  0.15290000  1.0 -0.0316552986
C  C65  1  0.39610000  0.09590000  0.27630000  1.0 -0.081258392
C  C66  1  0.60390000  0.90410000  0.77630000  1.0 -0.081258392
C  C67  1  0.59590000  0.10390000  0.52630000  1.0 -0.081258392
C  C68  1  0.40410000  0.89610000  0.02630000  1.0 -0.081258392
C  C69  1  0.89610000  0.40410000  0.97370000  1.0 -0.081258392
C  C70  1  0.10390000  0.59590000  0.47370000  1.0 -0.081258392
C  C71  1  0.09590000  0.39610000  0.72370000  1.0 -0.081258392
C  C72  1  0.90410000  0.60390000  0.22370000  1.0 -0.081258392
O  O1  1  0.48898000  0.17430000  0.00020000  1.0 -0.6501511988
O  O2  1  0.51102000  0.82570000  0.50020000  1.0 -0.6501511988
O  O3  1  0.67430000  0.01102000  0.25020000  1.0 -0.6501511988
O  O4  1  0.32570000  0.98898000  0.75020000  1.0 -0.6501511988
O  O5  1  0.98898000  0.32570000  0.24980000  1.0 -0.6501511988
O  O6  1  0.01102000  0.67430000  0.74980000  1.0 -0.6501511988
O  O7  1  0.17430000  0.48898000  0.99980000  1.0 -0.6501511988
O  O8  1  0.82570000  0.51102000  0.49980000  1.0 -0.6501511988
O  O9  1  0.54590000  0.11390000  0.16190000  1.0 -0.5274509322
O  O10  1  0.45410000  0.88610000  0.66190000  1.0 -0.5274509322
O  O11  1  0.61390000  0.95410000  0.41190000  1.0 -0.5274509322
O  O12  1  0.38610000  0.04590000  0.91190000  1.0 -0.5274509322
O  O13  1  0.04590000  0.38610000  0.08810000  1.0 -0.5274509322
O  O14  1  0.95410000  0.61390000  0.58810000  1.0 -0.5274509322
O  O15  1  0.11390000  0.54590000  0.83810000  1.0 -0.5274509322
O  O16  1  0.88610000  0.45410000  0.33810000  1.0 -0.5274509322
O  O17  1  0.25000000  0.34540000  0.14010000  1.0 -0.5274509322
O  O18  1  0.75000000  0.65460000  0.64010000  1.0 -0.5274509322
O  O19  1  0.84540000  0.25000000  0.39010000  1.0 -0.5274509322
O  O20  1  0.15460000  0.75000000  0.89010000  1.0 -0.5274509322
O  O21  1  0.75000000  0.15460000  0.10990000  1.0 -0.5274509322
O  O22  1  0.25000000  0.84540000  0.60990000  1.0 -0.5274509322
O  O23  1  0.34540000  0.25000000  0.85990000  1.0 -0.5274509322
O  O24  1  0.65460000  0.75000000  0.35990000  1.0 -0.5274509322
O  O25  1  0.16580000  0.29000000  0.26690000  1.0 -0.6396719162
O  O26  1  0.83420000  0.71000000  0.76690000  1.0 -0.6396719162
O  O27  1  0.79000000  0.33420000  0.51690000  1.0 -0.6396719162
O  O28  1  0.21000000  0.66580000  0.01690000  1.0 -0.6396719162
O  O29  1  0.66580000  0.21000000  0.98310000  1.0 -0.6396719162
O  O30  1  0.33420000  0.79000000  0.48310000  1.0 -0.6396719162
O  O31  1  0.29000000  0.16580000  0.73310000  1.0 -0.6396719162
O  O32  1  0.71000000  0.83420000  0.23310000  1.0 -0.6396719162
O  O33  1  0.24820000  0.05150000  0.51410000  1.0 -0.6396719162
O  O34  1  0.75180000  0.94850000  0.01410000  1.0 -0.6396719162
O  O35  1  0.55150000  0.25180000  0.76410000  1.0 -0.6396719162
O  O36  1  0.44850000  0.74820000  0.26410000  1.0 -0.6396719162
O  O37  1  0.74820000  0.44850000  0.73590000  1.0 -0.6396719162
O  O38  1  0.25180000  0.55150000  0.23590000  1.0 -0.6396719162
O  O39  1  0.05150000  0.24820000  0.48590000  1.0 -0.6396719162
O  O40  1  0.94850000  0.75180000  0.98590000  1.0 -0.6396719162
O  O41  1  0.36310000  0.98830000  0.46400000  1.0 -0.5579005238
O  O42  1  0.63690000  0.01170000  0.96400000  1.0 -0.5579005238
O  O43  1  0.48830000  0.13690000  0.71400000  1.0 -0.5579005238
O  O44  1  0.51170000  0.86310000  0.21400000  1.0 -0.5579005238
O  O45  1  0.86310000  0.51170000  0.78600000  1.0 -0.5579005238
O  O46  1  0.13690000  0.48830000  0.28600000  1.0 -0.5579005238
O  O47  1  0.98830000  0.36310000  0.53600000  1.0 -0.5579005238
O  O48  1  0.01170000  0.63690000  0.03600000  1.0 -0.5579005238
