# DDEC6 charges by PACMAN v1.1 (https://github.com/mtap-research/PACMAN-charge/)
data_WAJLEA_ion_pacman
_symmetry_space_group_name_H-M   'P 1'
_cell_length_a   16.02310000
_cell_length_b   16.02310000
_cell_length_c   18.52000000
_cell_angle_alpha   90.00000000
_cell_angle_beta   90.00000000
_cell_angle_gamma   120.00000000
_symmetry_Int_Tables_number   1
_chemical_formula_structural   CrCo2H40C42N12ClO8
_chemical_formula_sum   'Cr3 Co6 H120 C126 N36 Cl3 O24'
_cell_volume   4117.79479477
_cell_formula_units_Z   3
loop_
 _symmetry_equiv_pos_site_id
 _symmetry_equiv_pos_as_xyz
  1  'x, y, z'
loop_
 _atom_site_type_symbol
 _atom_site_label
 _atom_site_symmetry_multiplicity
 _atom_site_fract_x
 _atom_site_fract_y
 _atom_site_fract_z
 _atom_site_occupancy
 _atom_site_charge
Cr  Cr1  1  0.43673000  0.00000000  0.16667000  1.0 0.7222476301
Cr  Cr2  1  0.00000000  0.43673000  0.83333000  1.0 0.7222476301
Cr  Cr3  1  0.56327000  0.56327000  0.50000000  1.0 0.7222476301
Co  Co1  1  0.21940000  0.72262000  0.99767000  1.0 0.7222476301
Co  Co2  1  0.27738000  0.49678000  0.66434000  1.0 0.7222476301
Co  Co3  1  0.50322000  0.78060000  0.33100000  1.0 0.7222476301
Co  Co4  1  0.72262000  0.21940000  0.00233000  1.0 0.7222476301
Co  Co5  1  0.49678000  0.27738000  0.33566000  1.0 0.7222476301
Co  Co6  1  0.78060000  0.50322000  0.66900000  1.0 0.7222476301
H  H1  1  0.97680000  0.59510000  0.24910000  1.0 0.1193556476
H  H2  1  0.40490000  0.38170000  0.91577000  1.0 0.1193556476
H  H3  1  0.61830000  0.02320000  0.58243000  1.0 0.1193556476
H  H4  1  0.59510000  0.97680000  0.75090000  1.0 0.1193556476
H  H5  1  0.38170000  0.40490000  0.08423000  1.0 0.1193556476
H  H6  1  0.02320000  0.61830000  0.41757000  1.0 0.1193556476
H  H7  1  0.01630000  0.73840000  0.19690000  1.0 0.1295155022
H  H8  1  0.26160000  0.27790000  0.86357000  1.0 0.1295155022
H  H9  1  0.72210000  0.98370000  0.53023000  1.0 0.1295155022
H  H10  1  0.73840000  0.01630000  0.80310000  1.0 0.1295155022
H  H11  1  0.27790000  0.26160000  0.13643000  1.0 0.1295155022
H  H12  1  0.98370000  0.72210000  0.46977000  1.0 0.1295155022
H  H13  1  0.10990000  0.93650000  0.06190000  1.0 0.1500410327
H  H14  1  0.06350000  0.17340000  0.72857000  1.0 0.1500410327
H  H15  1  0.82660000  0.89010000  0.39523000  1.0 0.1500410327
H  H16  1  0.93650000  0.10990000  0.93810000  1.0 0.1500410327
H  H17  1  0.17340000  0.06350000  0.27143000  1.0 0.1500410327
H  H18  1  0.89010000  0.82660000  0.60477000  1.0 0.1500410327
H  H19  1  0.11950000  0.91030000  0.14370000  1.0 0.157805974
H  H20  1  0.08970000  0.20920000  0.81037000  1.0 0.157805974
H  H21  1  0.79080000  0.88050000  0.47703000  1.0 0.157805974
H  H22  1  0.91030000  0.11950000  0.85630000  1.0 0.157805974
H  H23  1  0.20920000  0.08970000  0.18963000  1.0 0.157805974
H  H24  1  0.88050000  0.79080000  0.52297000  1.0 0.157805974
H  H25  1  0.01890000  0.85110000  0.10220000  1.0 0.1426045547
H  H26  1  0.14890000  0.16780000  0.76887000  1.0 0.1426045547
H  H27  1  0.83220000  0.98110000  0.43553000  1.0 0.1426045547
H  H28  1  0.85110000  0.01890000  0.89780000  1.0 0.1426045547
H  H29  1  0.16780000  0.14890000  0.23113000  1.0 0.1426045547
H  H30  1  0.98110000  0.83220000  0.56447000  1.0 0.1426045547
H  H31  1  0.33730000  0.97540000  0.91960000  1.0 0.0927681717
H  H32  1  0.02460000  0.36190000  0.58627000  1.0 0.0927681717
H  H33  1  0.63810000  0.66270000  0.25293000  1.0 0.0927681717
H  H34  1  0.97540000  0.33730000  0.08040000  1.0 0.0927681717
H  H35  1  0.36190000  0.02460000  0.41373000  1.0 0.0927681717
H  H36  1  0.66270000  0.63810000  0.74707000  1.0 0.0927681717
H  H37  1  0.37830000  0.87010000  0.82400000  1.0 0.1193556476
H  H38  1  0.12990000  0.50820000  0.49067000  1.0 0.1193556476
H  H39  1  0.49180000  0.62170000  0.15733000  1.0 0.1193556476
H  H40  1  0.87010000  0.37830000  0.17600000  1.0 0.1193556476
H  H41  1  0.50820000  0.12990000  0.50933000  1.0 0.1193556476
H  H42  1  0.62170000  0.49180000  0.84267000  1.0 0.1193556476
H  H43  1  0.41960000  0.87420000  0.90340000  1.0 0.1295155022
H  H44  1  0.12580000  0.54540000  0.57007000  1.0 0.1295155022
H  H45  1  0.45460000  0.58040000  0.23673000  1.0 0.1193556476
H  H46  1  0.87420000  0.41960000  0.09660000  1.0 0.1295155022
H  H47  1  0.54540000  0.12580000  0.42993000  1.0 0.1295155022
H  H48  1  0.58040000  0.45460000  0.76327000  1.0 0.1295155022
H  H49  1  0.24940000  0.55680000  0.89810000  1.0 0.1500410327
H  H50  1  0.44320000  0.69260000  0.56477000  1.0 0.1500410327
H  H51  1  0.30740000  0.75060000  0.23143000  1.0 0.1500410327
H  H52  1  0.55680000  0.24940000  0.10190000  1.0 0.1500410327
H  H53  1  0.69260000  0.44320000  0.43523000  1.0 0.1500410327
H  H54  1  0.75060000  0.30740000  0.76857000  1.0 0.1500410327
H  H55  1  0.36260000  0.59750000  0.90990000  1.0 0.0781291592
H  H56  1  0.40250000  0.76510000  0.57657000  1.0 0.0781291592
H  H57  1  0.23490000  0.63740000  0.24323000  1.0 0.0781291592
H  H58  1  0.59750000  0.36260000  0.09010000  1.0 0.0781291592
H  H59  1  0.76510000  0.40250000  0.42343000  1.0 0.0781291592
H  H60  1  0.63740000  0.23490000  0.75677000  1.0 0.0781291592
H  H61  1  0.19780000  0.43610000  0.08650000  1.0 0.157805974
H  H62  1  0.56390000  0.76170000  0.75317000  1.0 0.157805974
H  H63  1  0.23830000  0.80220000  0.41983000  1.0 0.157805974
H  H64  1  0.43610000  0.19780000  0.91350000  1.0 0.157805974
H  H65  1  0.76170000  0.56390000  0.24683000  1.0 0.157805974
H  H66  1  0.80220000  0.23830000  0.58017000  1.0 0.157805974
H  H67  1  0.08880000  0.40290000  0.10780000  1.0 0.1426045547
H  H68  1  0.59710000  0.68590000  0.77447000  1.0 0.1426045547
H  H69  1  0.31410000  0.91120000  0.44113000  1.0 0.1426045547
H  H70  1  0.40290000  0.08880000  0.89220000  1.0 0.1426045547
H  H71  1  0.68590000  0.59710000  0.22553000  1.0 0.1426045547
H  H72  1  0.91120000  0.31410000  0.55887000  1.0 0.1426045547
H  H73  1  0.17310000  0.45680000  0.16590000  1.0 0.1500410327
H  H74  1  0.54320000  0.71630000  0.83257000  1.0 0.1500410327
H  H75  1  0.28370000  0.82690000  0.49923000  1.0 0.1500410327
H  H76  1  0.45680000  0.17310000  0.83410000  1.0 0.1500410327
H  H77  1  0.71630000  0.54320000  0.16743000  1.0 0.1500410327
H  H78  1  0.82690000  0.28370000  0.50077000  1.0 0.1500410327
H  H79  1  0.04170000  0.49680000  0.20320000  1.0 0.1092769782
H  H80  1  0.50320000  0.54490000  0.86987000  1.0 0.1092769782
H  H81  1  0.45510000  0.95830000  0.53653000  1.0 0.1092769782
H  H82  1  0.49680000  0.04170000  0.79680000  1.0 0.1092769782
H  H83  1  0.54490000  0.50320000  0.13013000  1.0 0.1092769782
H  H84  1  0.95830000  0.45510000  0.46347000  1.0 0.1092769782
H  H85  1  0.24190000  0.92990000  0.85790000  1.0 0.1295155022
H  H86  1  0.07010000  0.31200000  0.52457000  1.0 0.1295155022
H  H87  1  0.68800000  0.75810000  0.19123000  1.0 0.1295155022
H  H88  1  0.92990000  0.24190000  0.14210000  1.0 0.1295155022
H  H89  1  0.31200000  0.07010000  0.47543000  1.0 0.1295155022
H  H90  1  0.75810000  0.68800000  0.80877000  1.0 0.1295155022
H  H91  1  0.14830000  0.82410000  0.86560000  1.0 0.1426045547
H  H92  1  0.17590000  0.32420000  0.53227000  1.0 0.1426045547
H  H93  1  0.67580000  0.85170000  0.19893000  1.0 0.1426045547
H  H94  1  0.82410000  0.14830000  0.13440000  1.0 0.1426045547
H  H95  1  0.32420000  0.17590000  0.46773000  1.0 0.1426045547
H  H96  1  0.85170000  0.67580000  0.80107000  1.0 0.1426045547
H  H97  1  0.35940000  0.87640000  0.81850000  1.0 0.1092769782
H  H98  1  0.12360000  0.48300000  0.48517000  1.0 0.1092769782
H  H99  1  0.51700000  0.64060000  0.15183000  1.0 0.1092769782
H  H100  1  0.87640000  0.35940000  0.18150000  1.0 0.1092769782
H  H101  1  0.48300000  0.12360000  0.51483000  1.0 0.1092769782
H  H102  1  0.64060000  0.51700000  0.84817000  1.0 0.1092769782
H  H103  1  0.25710000  0.78140000  0.80340000  1.0 0.1193556476
H  H104  1  0.21860000  0.47570000  0.47007000  1.0 0.1193556476
H  H105  1  0.52430000  0.74290000  0.13673000  1.0 0.1193556476
H  H106  1  0.78140000  0.25710000  0.19660000  1.0 0.1193556476
H  H107  1  0.47570000  0.21860000  0.52993000  1.0 0.1193556476
H  H108  1  0.74290000  0.52430000  0.86327000  1.0 0.1193556476
H  H109  1  0.41460000  0.71160000  0.98840000  1.0 0.1426045547
H  H110  1  0.28840000  0.70300000  0.65507000  1.0 0.1426045547
H  H111  1  0.29700000  0.58540000  0.32173000  1.0 0.1426045547
H  H112  1  0.71160000  0.41460000  0.01160000  1.0 0.1426045547
H  H113  1  0.70300000  0.28840000  0.34493000  1.0 0.1426045547
H  H114  1  0.58540000  0.29700000  0.67827000  1.0 0.1426045547
H  H115  1  0.39700000  0.64550000  0.91860000  1.0 0.0781291592
H  H116  1  0.35450000  0.75150000  0.58527000  1.0 0.0781291592
H  H117  1  0.24850000  0.60300000  0.25193000  1.0 0.0781291592
H  H118  1  0.64550000  0.39700000  0.08140000  1.0 0.0781291592
H  H119  1  0.75150000  0.35450000  0.41473000  1.0 0.0781291592
H  H120  1  0.60300000  0.24850000  0.74807000  1.0 0.0781291592
C  C1  1  0.37790000  0.88360000  0.09670000  1.0 -0.0488924241
C  C2  1  0.11640000  0.49430000  0.76337000  1.0 -0.0488924241
C  C3  1  0.50570000  0.62210000  0.43003000  1.0 -0.0488924241
C  C4  1  0.88360000  0.37790000  0.90330000  1.0 -0.0488924241
C  C5  1  0.49430000  0.11640000  0.23663000  1.0 -0.0488924241
C  C6  1  0.62210000  0.50570000  0.56997000  1.0 -0.0488924241
C  C7  1  0.56010000  0.06730000  0.10540000  1.0 -0.0488924241
C  C8  1  0.93270000  0.49280000  0.77207000  1.0 -0.0488924241
C  C9  1  0.50720000  0.43990000  0.43873000  1.0 -0.0488924241
C  C10  1  0.06730000  0.56010000  0.89460000  1.0 -0.0488924241
C  C11  1  0.49280000  0.93270000  0.22793000  1.0 -0.0488924241
C  C12  1  0.43990000  0.50720000  0.56127000  1.0 -0.0488924241
C  C13  1  0.37720000  0.06530000  0.10520000  1.0 -0.181488501
C  C14  1  0.93470000  0.31190000  0.77187000  1.0 -0.181488501
C  C15  1  0.68810000  0.62280000  0.43853000  1.0 -0.181488501
C  C16  1  0.06530000  0.37720000  0.89480000  1.0 -0.181488501
C  C17  1  0.31190000  0.93470000  0.22813000  1.0 -0.181488501
C  C18  1  0.62280000  0.68810000  0.56147000  1.0 -0.181488501
C  C19  1  0.01800000  0.61610000  0.20820000  1.0 -0.0488924241
C  C20  1  0.38390000  0.40190000  0.87487000  1.0 -0.0488924241
C  C21  1  0.59810000  0.98200000  0.54153000  1.0 -0.0488924241
C  C22  1  0.61610000  0.01800000  0.79180000  1.0 -0.0488924241
C  C23  1  0.40190000  0.38390000  0.12513000  1.0 -0.0488924241
C  C24  1  0.98200000  0.59810000  0.45847000  1.0 -0.0488924241
C  C25  1  0.03910000  0.69880000  0.17690000  1.0 -0.1573025331
C  C26  1  0.30120000  0.34030000  0.84357000  1.0 -0.1573025331
C  C27  1  0.65970000  0.96090000  0.51023000  1.0 -0.1573025331
C  C28  1  0.69880000  0.03910000  0.82310000  1.0 -0.1573025331
C  C29  1  0.34030000  0.30120000  0.15643000  1.0 -0.1573025331
C  C30  1  0.96090000  0.65970000  0.48977000  1.0 -0.1573025331
C  C31  1  0.09420000  0.72670000  0.11520000  1.0 0.157805974
C  C32  1  0.27330000  0.36750000  0.78187000  1.0 0.157805974
C  C33  1  0.63250000  0.90580000  0.44853000  1.0 0.157805974
C  C34  1  0.72670000  0.09420000  0.88480000  1.0 0.157805974
C  C35  1  0.36750000  0.27330000  0.21813000  1.0 0.157805974
C  C36  1  0.90580000  0.63250000  0.55147000  1.0 0.157805974
C  C37  1  0.11900000  0.81180000  0.07020000  1.0 0.3158081154
C  C38  1  0.18820000  0.30720000  0.73687000  1.0 0.3158081154
C  C39  1  0.69280000  0.88100000  0.40353000  1.0 0.3158081154
C  C40  1  0.81180000  0.11900000  0.92980000  1.0 0.3158081154
C  C41  1  0.30720000  0.18820000  0.26313000  1.0 0.3158081154
C  C42  1  0.88100000  0.69280000  0.59647000  1.0 0.3158081154
C  C43  1  0.08910000  0.88400000  0.09700000  1.0 -0.4859808505
C  C44  1  0.11600000  0.20510000  0.76367000  1.0 -0.4859808505
C  C45  1  0.79490000  0.91090000  0.43033000  1.0 -0.4859808505
C  C46  1  0.88400000  0.08910000  0.90300000  1.0 -0.4859808505
C  C47  1  0.20510000  0.11600000  0.23633000  1.0 -0.4859808505
C  C48  1  0.91090000  0.79490000  0.56967000  1.0 -0.4859808505
C  C49  1  0.19120000  0.89650000  0.95830000  1.0 0.0573498761
C  C50  1  0.10350000  0.29470000  0.62497000  1.0 0.0573498761
C  C51  1  0.70530000  0.80880000  0.29163000  1.0 0.0573498761
C  C52  1  0.89650000  0.19120000  0.04170000  1.0 0.0573498761
C  C53  1  0.29470000  0.10350000  0.37503000  1.0 0.0573498761
C  C54  1  0.80880000  0.70530000  0.70837000  1.0 0.0573498761
C  C55  1  0.28100000  0.91420000  0.92530000  1.0 0.0403159258
C  C56  1  0.08580000  0.36680000  0.59197000  1.0 0.0403159258
C  C57  1  0.63320000  0.71900000  0.25863000  1.0 0.0403159258
C  C58  1  0.91420000  0.28100000  0.07470000  1.0 0.0403159258
C  C59  1  0.36680000  0.08580000  0.40803000  1.0 0.0403159258
C  C60  1  0.71900000  0.63320000  0.74137000  1.0 0.0403159258
C  C61  1  0.36390000  0.83640000  0.87100000  1.0 -0.1285108794
C  C62  1  0.16360000  0.52750000  0.53767000  1.0 -0.1285108794
C  C63  1  0.47250000  0.63610000  0.20433000  1.0 -0.1285108794
C  C64  1  0.83640000  0.36390000  0.12900000  1.0 -0.1285108794
C  C65  1  0.52750000  0.16360000  0.46233000  1.0 -0.1285108794
C  C66  1  0.63610000  0.47250000  0.79567000  1.0 -0.1285108794
C  C67  1  0.35330000  0.74940000  0.86140000  1.0 -0.0488924241
C  C68  1  0.25060000  0.60390000  0.52807000  1.0 -0.0488924241
C  C69  1  0.39610000  0.64670000  0.19473000  1.0 -0.0488924241
C  C70  1  0.74940000  0.35330000  0.13860000  1.0 -0.0488924241
C  C71  1  0.60390000  0.25060000  0.47193000  1.0 -0.0488924241
C  C72  1  0.64670000  0.39610000  0.80527000  1.0 -0.0488924241
C  C73  1  0.30570000  0.59950000  0.92840000  1.0 -0.058903888
C  C74  1  0.40050000  0.70620000  0.59507000  1.0 -0.058903888
C  C75  1  0.29380000  0.69430000  0.26173000  1.0 -0.058903888
C  C76  1  0.59950000  0.30570000  0.07160000  1.0 -0.058903888
C  C77  1  0.70620000  0.40050000  0.40493000  1.0 -0.058903888
C  C78  1  0.69430000  0.29380000  0.73827000  1.0 -0.058903888
C  C79  1  0.28800000  0.56850000  0.00160000  1.0 0.0403159258
C  C80  1  0.43150000  0.71950000  0.66827000  1.0 0.0403159258
C  C81  1  0.28050000  0.71200000  0.33493000  1.0 0.0403159258
C  C82  1  0.56850000  0.28800000  0.99840000  1.0 0.0403159258
C  C83  1  0.71950000  0.43150000  0.33173000  1.0 0.0403159258
C  C84  1  0.71200000  0.28050000  0.66507000  1.0 0.0403159258
C  C85  1  0.17060000  0.54730000  0.08990000  1.0 0.2864449154
C  C86  1  0.45270000  0.62330000  0.75657000  1.0 0.2864449154
C  C87  1  0.37670000  0.82940000  0.42323000  1.0 0.2864449154
C  C88  1  0.54730000  0.17060000  0.91010000  1.0 0.2864449154
C  C89  1  0.62330000  0.45270000  0.24343000  1.0 0.2864449154
C  C90  1  0.82940000  0.37670000  0.57677000  1.0 0.2864449154
C  C91  1  0.15640000  0.45270000  0.11470000  1.0 -0.5260369095
C  C92  1  0.54730000  0.70370000  0.78137000  1.0 -0.5260369095
C  C93  1  0.29630000  0.84360000  0.44803000  1.0 -0.5260369095
C  C94  1  0.45270000  0.15640000  0.88530000  1.0 -0.5260369095
C  C95  1  0.70370000  0.54730000  0.21863000  1.0 -0.5260369095
C  C96  1  0.84360000  0.29630000  0.55197000  1.0 -0.5260369095
C  C97  1  0.11590000  0.59110000  0.12210000  1.0 0.1426045547
C  C98  1  0.40890000  0.52480000  0.78877000  1.0 0.1426045547
C  C99  1  0.47520000  0.88410000  0.45543000  1.0 0.1426045547
C  C100  1  0.59110000  0.11590000  0.87790000  1.0 0.1426045547
C  C101  1  0.52480000  0.40890000  0.21123000  1.0 0.1426045547
C  C102  1  0.88410000  0.47520000  0.54457000  1.0 0.1426045547
C  C103  1  0.05680000  0.55620000  0.18110000  1.0 -0.2520213991
C  C104  1  0.44380000  0.50060000  0.84777000  1.0 -0.2520213991
C  C105  1  0.49940000  0.94320000  0.51443000  1.0 -0.2520213991
C  C106  1  0.55620000  0.05680000  0.81890000  1.0 -0.2520213991
C  C107  1  0.50060000  0.44380000  0.15223000  1.0 -0.2520213991
C  C108  1  0.94320000  0.49940000  0.48557000  1.0 -0.2520213991
C  C109  1  0.20890000  0.87230000  0.88920000  1.0 -0.0767491889
C  C110  1  0.12770000  0.33660000  0.55587000  1.0 -0.0767491889
C  C111  1  0.66340000  0.79110000  0.22253000  1.0 -0.0767491889
C  C112  1  0.87230000  0.20890000  0.11080000  1.0 -0.0767491889
C  C113  1  0.33660000  0.12770000  0.44413000  1.0 -0.0767491889
C  C114  1  0.79110000  0.66340000  0.77747000  1.0 -0.0767491889
C  C115  1  0.30900000  0.81500000  0.83950000  1.0 -0.058903888
C  C116  1  0.18500000  0.49400000  0.50617000  1.0 -0.058903888
C  C117  1  0.50600000  0.69100000  0.17283000  1.0 -0.058903888
C  C118  1  0.81500000  0.30900000  0.16050000  1.0 -0.058903888
C  C119  1  0.49400000  0.18500000  0.49383000  1.0 -0.058903888
C  C120  1  0.69100000  0.50600000  0.82717000  1.0 -0.058903888
C  C121  1  0.36470000  0.66400000  0.95550000  1.0 0.0403159258
C  C122  1  0.33600000  0.70070000  0.62217000  1.0 0.0403159258
C  C123  1  0.29930000  0.63530000  0.28883000  1.0 0.0403159258
C  C124  1  0.66400000  0.36470000  0.04450000  1.0 0.0403159258
C  C125  1  0.70070000  0.33600000  0.37783000  1.0 0.0403159258
C  C126  1  0.63530000  0.29930000  0.71117000  1.0 0.0403159258
N  N1  1  0.33760000  0.82040000  0.05820000  1.0 -0.3605480636
N  N2  1  0.17960000  0.51720000  0.72487000  1.0 -0.3605480636
N  N3  1  0.48280000  0.66240000  0.39153000  1.0 -0.3605480636
N  N4  1  0.82040000  0.33760000  0.94180000  1.0 -0.3605480636
N  N5  1  0.51720000  0.17960000  0.27513000  1.0 -0.3605480636
N  N6  1  0.66240000  0.48280000  0.60847000  1.0 -0.3605480636
N  N7  1  0.62790000  0.11230000  0.07170000  1.0 -0.3605480636
N  N8  1  0.88770000  0.51560000  0.73837000  1.0 -0.3605480636
N  N9  1  0.48440000  0.37210000  0.40503000  1.0 -0.3605480636
N  N10  1  0.11230000  0.62790000  0.92830000  1.0 -0.3605480636
N  N11  1  0.51560000  0.88770000  0.26163000  1.0 -0.3605480636
N  N12  1  0.37210000  0.48440000  0.59497000  1.0 -0.3605480636
N  N13  1  0.34530000  0.10140000  0.07040000  1.0 -0.3185895601
N  N14  1  0.89860000  0.24390000  0.73707000  1.0 -0.3185895601
N  N15  1  0.75610000  0.65470000  0.40373000  1.0 -0.3185895601
N  N16  1  0.10140000  0.34530000  0.92960000  1.0 -0.3185895601
N  N17  1  0.24390000  0.89860000  0.26293000  1.0 -0.3185895601
N  N18  1  0.65470000  0.75610000  0.59627000  1.0 -0.3185895601
N  N19  1  0.13230000  0.67350000  0.08980000  1.0 -0.2818442354
N  N20  1  0.32650000  0.45880000  0.75647000  1.0 -0.2818442354
N  N21  1  0.54120000  0.86770000  0.42313000  1.0 -0.2818442354
N  N22  1  0.67350000  0.13230000  0.91020000  1.0 -0.2818442354
N  N23  1  0.45880000  0.32650000  0.24353000  1.0 -0.2818442354
N  N24  1  0.86770000  0.54120000  0.57687000  1.0 -0.2818442354
N  N25  1  0.16310000  0.81880000  0.01230000  1.0 -0.3185895601
N  N26  1  0.18120000  0.34430000  0.67897000  1.0 -0.3185895601
N  N27  1  0.65570000  0.83690000  0.34563000  1.0 -0.3185895601
N  N28  1  0.81880000  0.16310000  0.98770000  1.0 -0.3185895601
N  N29  1  0.34430000  0.18120000  0.32103000  1.0 -0.3185895601
N  N30  1  0.83690000  0.65570000  0.65437000  1.0 -0.3185895601
N  N31  1  0.22620000  0.59770000  0.03770000  1.0 -0.3396961261
N  N32  1  0.40230000  0.62850000  0.70437000  1.0 -0.3396961261
N  N33  1  0.37150000  0.77380000  0.37103000  1.0 -0.3396961261
N  N34  1  0.59770000  0.22620000  0.96230000  1.0 -0.3396961261
N  N35  1  0.62850000  0.40230000  0.29563000  1.0 -0.3396961261
N  N36  1  0.77380000  0.37150000  0.62897000  1.0 -0.3396961261
Cl  Cl1  1  0.00000000  0.39010000  0.33333333  1.0 1.1982163022
Cl  Cl2  1  0.39010000  0.00000000  0.66666667  1.0 1.2083105872
Cl  Cl3  1  0.60990000  0.60990000  0.00000000  1.0 1.1940896343
O  O1  1  0.27120000  0.83200000  0.90460000  1.0 -0.058903888
O  O2  1  0.16800000  0.43920000  0.57127000  1.0 -0.058903888
O  O3  1  0.56080000  0.72880000  0.23793000  1.0 -0.058903888
O  O4  1  0.83200000  0.27120000  0.09540000  1.0 -0.058903888
O  O5  1  0.43920000  0.16800000  0.42873000  1.0 -0.058903888
O  O6  1  0.72880000  0.56080000  0.76207000  1.0 -0.058903888
O  O7  1  0.32350000  0.70090000  0.92620000  1.0 -0.1035980751
O  O8  1  0.29910000  0.62260000  0.59287000  1.0 -0.1035980751
O  O9  1  0.37740000  0.67650000  0.25953000  1.0 -0.1035980751
O  O10  1  0.70090000  0.32350000  0.07380000  1.0 -0.1035980751
O  O11  1  0.62260000  0.29910000  0.40713000  1.0 -0.1035980751
O  O12  1  0.67650000  0.37740000  0.74047000  1.0 -0.1035980751
O  O13  1  0.99140000  0.33260000  0.39593000  1.0 -0.5245260765
O  O14  1  0.00860000  0.34120000  0.27073000  1.0 -0.5245260765
O  O15  1  0.08300000  0.47800000  0.34513000  1.0 -0.5245260765
O  O16  1  0.91700000  0.39500000  0.32153000  1.0 -0.5245260765
O  O17  1  0.34120000  0.00860000  0.72927000  1.0 -0.5245260765
O  O18  1  0.33260000  0.99140000  0.60407000  1.0 -0.5260369095
O  O19  1  0.39500000  0.91700000  0.67847000  1.0 -0.5245260765
O  O20  1  0.47800000  0.08300000  0.65487000  1.0 -0.5245260765
O  O21  1  0.66740000  0.65880000  0.06260000  1.0 -0.5245260765
O  O22  1  0.65880000  0.66740000  0.93740000  1.0 -0.5245260765
O  O23  1  0.52200000  0.60500000  0.01180000  1.0 -0.5245260765
O  O24  1  0.60500000  0.52200000  0.98820000  1.0 -0.5245260765
