# DDEC6 charges by PACMAN v1.1 (https://github.com/mtap-research/PACMAN-charge/)
data_WANGIF_ASR_pacman
_symmetry_space_group_name_H-M   'P 1'
_cell_length_a   21.77320000
_cell_length_b   21.77320000
_cell_length_c   13.56790000
_cell_angle_alpha   90.00000000
_cell_angle_beta   90.00000000
_cell_angle_gamma   90.00000000
_symmetry_Int_Tables_number   1
_chemical_formula_structural   Cu5H26C44(NO13)2
_chemical_formula_sum   'Cu20 H104 C176 N8 O104'
_cell_volume   6432.16472122
_cell_formula_units_Z   4
loop_
 _symmetry_equiv_pos_site_id
 _symmetry_equiv_pos_as_xyz
  1  'x, y, z'
loop_
 _atom_site_type_symbol
 _atom_site_label
 _atom_site_symmetry_multiplicity
 _atom_site_fract_x
 _atom_site_fract_y
 _atom_site_fract_z
 _atom_site_occupancy
 _atom_site_charge
Cu  Cu1  1  0.24844000  0.34658000  0.28705000  1.0 0.742996419
Cu  Cu2  1  0.75156000  0.65342000  0.28705000  1.0 0.742996419
Cu  Cu3  1  0.65342000  0.24844000  0.71295000  1.0 0.742996419
Cu  Cu4  1  0.34658000  0.75156000  0.71295000  1.0 0.742996419
Cu  Cu5  1  0.25156000  0.84658000  0.71295000  1.0 0.742996419
Cu  Cu6  1  0.74844000  0.15342000  0.71295000  1.0 0.742996419
Cu  Cu7  1  0.84658000  0.74844000  0.28705000  1.0 0.742996419
Cu  Cu8  1  0.15342000  0.25156000  0.28705000  1.0 0.742996419
Cu  Cu9  1  0.13899000  0.36101000  0.44728000  1.0 0.809951449
Cu  Cu10  1  0.86101000  0.63899000  0.44728000  1.0 0.809951449
Cu  Cu11  1  0.63899000  0.13899000  0.55272000  1.0 0.809951449
Cu  Cu12  1  0.36101000  0.86101000  0.55272000  1.0 0.809951449
Cu  Cu13  1  0.21479000  0.71479000  0.79027000  1.0 0.809951449
Cu  Cu14  1  0.13042000  0.63042000  0.78133000  1.0 0.8585756814
Cu  Cu15  1  0.78521000  0.28521000  0.79027000  1.0 0.809951449
Cu  Cu16  1  0.86958000  0.36958000  0.78133000  1.0 0.8585756814
Cu  Cu17  1  0.28521000  0.21479000  0.20973000  1.0 0.809951449
Cu  Cu18  1  0.36958000  0.13042000  0.21867000  1.0 0.8585756814
Cu  Cu19  1  0.71479000  0.78521000  0.20973000  1.0 0.809951449
Cu  Cu20  1  0.63042000  0.86958000  0.21867000  1.0 0.8585756814
H  H1  1  0.37070000  0.58568000  0.24291000  1.0 0.2912982499
H  H2  1  0.34441000  0.62320000  0.97126000  1.0 0.141174962
H  H3  1  0.34848000  0.50475000  0.36427000  1.0 0.1299777005
H  H4  1  0.36344000  0.47637000  0.15048000  1.0 0.1106071279
H  H5  1  0.19828000  0.50784000  0.01398000  1.0 0.1181457138
H  H6  1  0.20969000  0.51601000  0.56474000  1.0 0.1299777005
H  H7  1  0.33512000  0.65202000  0.54273000  1.0 0.141174962
H  H8  1  0.51501000  0.59964000  0.41189000  1.0 0.141174962
H  H9  1  0.57783000  0.59098000  0.27506000  1.0 0.1106071279
H  H10  1  0.53514000  0.57010000  0.11854000  1.0 0.141174962
H  H11  1  0.13787000  0.43246000  0.28396000  1.0 0.240188271
H  H12  1  0.14367000  0.37345000  0.24893000  1.0 0.2216857953
H  H13  1  0.62930000  0.41432000  0.24291000  1.0 0.2912982499
H  H14  1  0.65559000  0.37680000  0.97126000  1.0 0.141174962
H  H15  1  0.65152000  0.49525000  0.36427000  1.0 0.1299777005
H  H16  1  0.63656000  0.52363000  0.15048000  1.0 0.1106071279
H  H17  1  0.80172000  0.49216000  0.01398000  1.0 0.1181457138
H  H18  1  0.79031000  0.48399000  0.56474000  1.0 0.1299777005
H  H19  1  0.66488000  0.34798000  0.54273000  1.0 0.141174962
H  H20  1  0.48499000  0.40036000  0.41189000  1.0 0.141174962
H  H21  1  0.42217000  0.40902000  0.27506000  1.0 0.1106071279
H  H22  1  0.46486000  0.42990000  0.11854000  1.0 0.141174962
H  H23  1  0.86213000  0.56754000  0.28396000  1.0 0.240188271
H  H24  1  0.85633000  0.62655000  0.24893000  1.0 0.2216857953
H  H25  1  0.41432000  0.37070000  0.75709000  1.0 0.2912982499
H  H26  1  0.37680000  0.34441000  0.02874000  1.0 0.141174962
H  H27  1  0.49525000  0.34848000  0.63573000  1.0 0.1299777005
H  H28  1  0.52363000  0.36344000  0.84952000  1.0 0.1106071279
H  H29  1  0.49216000  0.19828000  0.98602000  1.0 0.1181457138
H  H30  1  0.48399000  0.20969000  0.43526000  1.0 0.1299777005
H  H31  1  0.34798000  0.33512000  0.45727000  1.0 0.141174962
H  H32  1  0.40036000  0.51501000  0.58811000  1.0 0.141174962
H  H33  1  0.40902000  0.57783000  0.72494000  1.0 0.1106071279
H  H34  1  0.42990000  0.53514000  0.88146000  1.0 0.141174962
H  H35  1  0.56754000  0.13787000  0.71604000  1.0 0.240188271
H  H36  1  0.62655000  0.14367000  0.75107000  1.0 0.2216857953
H  H37  1  0.58568000  0.62930000  0.75709000  1.0 0.2912982499
H  H38  1  0.62320000  0.65559000  0.02874000  1.0 0.141174962
H  H39  1  0.50475000  0.65152000  0.63573000  1.0 0.1299777005
H  H40  1  0.47637000  0.63656000  0.84952000  1.0 0.1106071279
H  H41  1  0.50784000  0.80172000  0.98602000  1.0 0.1181457138
H  H42  1  0.51601000  0.79031000  0.43526000  1.0 0.1299777005
H  H43  1  0.65202000  0.66488000  0.45727000  1.0 0.141174962
H  H44  1  0.59964000  0.48499000  0.58811000  1.0 0.141174962
H  H45  1  0.59098000  0.42217000  0.72494000  1.0 0.1106071279
H  H46  1  0.57010000  0.46486000  0.88146000  1.0 0.141174962
H  H47  1  0.43246000  0.86213000  0.71604000  1.0 0.240188271
H  H48  1  0.37345000  0.85633000  0.75107000  1.0 0.2216857953
H  H49  1  0.12930000  0.08568000  0.75709000  1.0 0.2912982499
H  H50  1  0.15559000  0.12320000  0.02874000  1.0 0.141174962
H  H51  1  0.15152000  0.00475000  0.63573000  1.0 0.1299777005
H  H52  1  0.13656000  0.97637000  0.84952000  1.0 0.1106071279
H  H53  1  0.30172000  0.00784000  0.98602000  1.0 0.1181457138
H  H54  1  0.29031000  0.01601000  0.43526000  1.0 0.1299777005
H  H55  1  0.16488000  0.15202000  0.45727000  1.0 0.141174962
H  H56  1  0.98499000  0.09964000  0.58811000  1.0 0.141174962
H  H57  1  0.92217000  0.09098000  0.72494000  1.0 0.1106071279
H  H58  1  0.96486000  0.07010000  0.88146000  1.0 0.141174962
H  H59  1  0.36213000  0.93246000  0.71604000  1.0 0.240188271
H  H60  1  0.35633000  0.87345000  0.75107000  1.0 0.2216857953
H  H61  1  0.87070000  0.91432000  0.75709000  1.0 0.2912982499
H  H62  1  0.84441000  0.87680000  0.02874000  1.0 0.141174962
H  H63  1  0.84848000  0.99525000  0.63573000  1.0 0.1299777005
H  H64  1  0.86344000  0.02363000  0.84952000  1.0 0.1106071279
H  H65  1  0.69828000  0.99216000  0.98602000  1.0 0.1181457138
H  H66  1  0.70969000  0.98399000  0.43526000  1.0 0.1299777005
H  H67  1  0.83512000  0.84798000  0.45727000  1.0 0.141174962
H  H68  1  0.01501000  0.90036000  0.58811000  1.0 0.141174962
H  H69  1  0.07783000  0.90902000  0.72494000  1.0 0.1106071279
H  H70  1  0.03514000  0.92990000  0.88146000  1.0 0.141174962
H  H71  1  0.63787000  0.06754000  0.71604000  1.0 0.240188271
H  H72  1  0.64367000  0.12655000  0.75107000  1.0 0.2216857953
H  H73  1  0.08568000  0.87070000  0.24291000  1.0 0.2912982499
H  H74  1  0.12320000  0.84441000  0.97126000  1.0 0.141174962
H  H75  1  0.00475000  0.84848000  0.36427000  1.0 0.1299777005
H  H76  1  0.97637000  0.86344000  0.15048000  1.0 0.1106071279
H  H77  1  0.00784000  0.69828000  0.01398000  1.0 0.1181457138
H  H78  1  0.01601000  0.70969000  0.56474000  1.0 0.1299777005
H  H79  1  0.15202000  0.83512000  0.54273000  1.0 0.141174962
H  H80  1  0.09964000  0.01501000  0.41189000  1.0 0.141174962
H  H81  1  0.09098000  0.07783000  0.27506000  1.0 0.1106071279
H  H82  1  0.07010000  0.03514000  0.11854000  1.0 0.141174962
H  H83  1  0.93246000  0.63787000  0.28396000  1.0 0.240188271
H  H84  1  0.87345000  0.64367000  0.24893000  1.0 0.2216857953
H  H85  1  0.91432000  0.12930000  0.24291000  1.0 0.2912982499
H  H86  1  0.87680000  0.15559000  0.97126000  1.0 0.141174962
H  H87  1  0.99525000  0.15152000  0.36427000  1.0 0.1299777005
H  H88  1  0.02363000  0.13656000  0.15048000  1.0 0.1106071279
H  H89  1  0.99216000  0.30172000  0.01398000  1.0 0.1181457138
H  H90  1  0.98399000  0.29031000  0.56474000  1.0 0.1299777005
H  H91  1  0.84798000  0.16488000  0.54273000  1.0 0.141174962
H  H92  1  0.90036000  0.98499000  0.41189000  1.0 0.141174962
H  H93  1  0.90902000  0.92217000  0.27506000  1.0 0.1106071279
H  H94  1  0.92990000  0.96486000  0.11854000  1.0 0.141174962
H  H95  1  0.06754000  0.36213000  0.28396000  1.0 0.240188271
H  H96  1  0.12655000  0.35633000  0.24893000  1.0 0.2216857953
H  H97  1  0.20547000  0.29453000  0.14274000  1.0 0.3639147823
H  H98  1  0.21437000  0.28563000  0.43350000  1.0 0.3717516507
H  H99  1  0.79453000  0.70547000  0.14274000  1.0 0.3639147823
H  H100  1  0.78563000  0.71437000  0.43350000  1.0 0.3717516507
H  H101  1  0.70547000  0.20547000  0.85726000  1.0 0.3639147823
H  H102  1  0.71437000  0.21437000  0.56650000  1.0 0.3717516507
H  H103  1  0.29453000  0.79453000  0.85726000  1.0 0.3639147823
H  H104  1  0.28563000  0.78563000  0.56650000  1.0 0.3717516507
C  C1  1  0.22900000  0.61030000  0.91250000  1.0 0.5582585728
C  C2  1  0.26380000  0.57220000  0.98380000  1.0 0.0022295012
C  C3  1  0.32630000  0.58880000  0.00300000  1.0 -0.2214220146
C  C4  1  0.35910000  0.55440000  0.06730000  1.0 0.2216857953
C  C5  1  0.44620000  0.57630000  0.17060000  1.0 0.3717516507
C  C6  1  0.43640000  0.59420000  0.33350000  1.0 0.3491260504
C  C7  1  0.34880000  0.58230000  0.44520000  1.0 0.2216857953
C  C8  1  0.32760000  0.52660000  0.41480000  1.0 -0.2498847161
C  C9  1  0.27570000  0.50220000  0.45770000  1.0 0.0136384965
C  C10  1  0.24980000  0.43990000  0.42690000  1.0 0.5532178676
C  C11  1  0.24770000  0.43770000  0.15530000  1.0 0.2665359771
C  C12  1  0.27720000  0.48550000  0.09240000  1.0 0.031403253
C  C13  1  0.33770000  0.50120000  0.11030000  1.0 -0.2722743476
C  C14  1  0.23930000  0.52020000  0.02720000  1.0 -0.167616464
C  C15  1  0.24540000  0.53310000  0.53510000  1.0 -0.1503542306
C  C16  1  0.26870000  0.58890000  0.56710000  1.0 0.0022295012
C  C17  1  0.23610000  0.62160000  0.64920000  1.0 0.5775788223
C  C18  1  0.31960000  0.61340000  0.52170000  1.0 -0.2143696824
C  C19  1  0.49800000  0.59470000  0.34790000  1.0 -0.2814420515
C  C20  1  0.53450000  0.58800000  0.26760000  1.0 -0.0020814466
C  C21  1  0.51010000  0.57680000  0.17490000  1.0 -0.2884199859
C  C22  1  0.25900000  0.41550000  0.11700000  1.0 0.2769826969
C  C23  1  0.77100000  0.38970000  0.91250000  1.0 0.5582585728
C  C24  1  0.73620000  0.42780000  0.98380000  1.0 0.0022295012
C  C25  1  0.67370000  0.41120000  0.00300000  1.0 -0.2214220146
C  C26  1  0.64090000  0.44560000  0.06730000  1.0 0.2216857953
C  C27  1  0.55380000  0.42370000  0.17060000  1.0 0.3717516507
C  C28  1  0.56360000  0.40580000  0.33350000  1.0 0.3491260504
C  C29  1  0.65120000  0.41770000  0.44520000  1.0 0.2216857953
C  C30  1  0.67240000  0.47340000  0.41480000  1.0 -0.2498847161
C  C31  1  0.72430000  0.49780000  0.45770000  1.0 0.0136384965
C  C32  1  0.75020000  0.56010000  0.42690000  1.0 0.5532178676
C  C33  1  0.75230000  0.56230000  0.15530000  1.0 0.2665359771
C  C34  1  0.72280000  0.51450000  0.09240000  1.0 0.031403253
C  C35  1  0.66230000  0.49880000  0.11030000  1.0 -0.2722743476
C  C36  1  0.76070000  0.47980000  0.02720000  1.0 -0.167616464
C  C37  1  0.75460000  0.46690000  0.53510000  1.0 -0.1503542306
C  C38  1  0.73130000  0.41110000  0.56710000  1.0 0.0022295012
C  C39  1  0.76390000  0.37840000  0.64920000  1.0 0.5775788223
C  C40  1  0.68040000  0.38660000  0.52170000  1.0 -0.2143696824
C  C41  1  0.50200000  0.40530000  0.34790000  1.0 -0.2814420515
C  C42  1  0.46550000  0.41200000  0.26760000  1.0 -0.0020814466
C  C43  1  0.48990000  0.42320000  0.17490000  1.0 -0.2884199859
C  C44  1  0.74100000  0.58450000  0.11700000  1.0 0.2769826969
C  C45  1  0.38970000  0.22900000  0.08750000  1.0 0.5582585728
C  C46  1  0.42780000  0.26380000  0.01620000  1.0 0.0022295012
C  C47  1  0.41120000  0.32630000  0.99700000  1.0 -0.2214220146
C  C48  1  0.44560000  0.35910000  0.93270000  1.0 0.2216857953
C  C49  1  0.42370000  0.44620000  0.82940000  1.0 0.3717516507
C  C50  1  0.40580000  0.43640000  0.66650000  1.0 0.3491260504
C  C51  1  0.41770000  0.34880000  0.55480000  1.0 0.2216857953
C  C52  1  0.47340000  0.32760000  0.58520000  1.0 -0.2498847161
C  C53  1  0.49780000  0.27570000  0.54230000  1.0 0.0136384965
C  C54  1  0.56010000  0.24980000  0.57310000  1.0 0.5532178676
C  C55  1  0.56230000  0.24770000  0.84470000  1.0 0.2665359771
C  C56  1  0.51450000  0.27720000  0.90760000  1.0 0.031403253
C  C57  1  0.49880000  0.33770000  0.88970000  1.0 -0.2722743476
C  C58  1  0.47980000  0.23930000  0.97280000  1.0 -0.167616464
C  C59  1  0.46690000  0.24540000  0.46490000  1.0 -0.1503542306
C  C60  1  0.41110000  0.26870000  0.43290000  1.0 0.0022295012
C  C61  1  0.37840000  0.23610000  0.35080000  1.0 0.5775788223
C  C62  1  0.38660000  0.31960000  0.47830000  1.0 -0.2143696824
C  C63  1  0.40530000  0.49800000  0.65210000  1.0 -0.2814420515
C  C64  1  0.41200000  0.53450000  0.73240000  1.0 -0.0020814466
C  C65  1  0.42320000  0.51010000  0.82510000  1.0 -0.2884199859
C  C66  1  0.58450000  0.25900000  0.88300000  1.0 0.2769826969
C  C67  1  0.61030000  0.77100000  0.08750000  1.0 0.5582585728
C  C68  1  0.57220000  0.73620000  0.01620000  1.0 0.0022295012
C  C69  1  0.58880000  0.67370000  0.99700000  1.0 -0.2214220146
C  C70  1  0.55440000  0.64090000  0.93270000  1.0 0.2216857953
C  C71  1  0.57630000  0.55380000  0.82940000  1.0 0.3717516507
C  C72  1  0.59420000  0.56360000  0.66650000  1.0 0.3491260504
C  C73  1  0.58230000  0.65120000  0.55480000  1.0 0.2216857953
C  C74  1  0.52660000  0.67240000  0.58520000  1.0 -0.2498847161
C  C75  1  0.50220000  0.72430000  0.54230000  1.0 0.0136384965
C  C76  1  0.43990000  0.75020000  0.57310000  1.0 0.5532178676
C  C77  1  0.43770000  0.75230000  0.84470000  1.0 0.2665359771
C  C78  1  0.48550000  0.72280000  0.90760000  1.0 0.031403253
C  C79  1  0.50120000  0.66230000  0.88970000  1.0 -0.2722743476
C  C80  1  0.52020000  0.76070000  0.97280000  1.0 -0.167616464
C  C81  1  0.53310000  0.75460000  0.46490000  1.0 -0.1503542306
C  C82  1  0.58890000  0.73130000  0.43290000  1.0 0.0022295012
C  C83  1  0.62160000  0.76390000  0.35080000  1.0 0.5775788223
C  C84  1  0.61340000  0.68040000  0.47830000  1.0 -0.2143696824
C  C85  1  0.59470000  0.50200000  0.65210000  1.0 -0.2814420515
C  C86  1  0.58800000  0.46550000  0.73240000  1.0 -0.0020814466
C  C87  1  0.57680000  0.48990000  0.82510000  1.0 -0.2884199859
C  C88  1  0.41550000  0.74100000  0.88300000  1.0 0.2769826969
C  C89  1  0.27100000  0.11030000  0.08750000  1.0 0.5582585728
C  C90  1  0.23620000  0.07220000  0.01620000  1.0 0.0022295012
C  C91  1  0.17370000  0.08880000  0.99700000  1.0 -0.2214220146
C  C92  1  0.14090000  0.05440000  0.93270000  1.0 0.2216857953
C  C93  1  0.05380000  0.07630000  0.82940000  1.0 0.3717516507
C  C94  1  0.06360000  0.09420000  0.66650000  1.0 0.3491260504
C  C95  1  0.15120000  0.08230000  0.55480000  1.0 0.2216857953
C  C96  1  0.17240000  0.02660000  0.58520000  1.0 -0.2498847161
C  C97  1  0.22430000  0.00220000  0.54230000  1.0 0.0136384965
C  C98  1  0.25020000  0.93990000  0.57310000  1.0 0.5532178676
C  C99  1  0.25230000  0.93770000  0.84470000  1.0 0.2665359771
C  C100  1  0.22280000  0.98550000  0.90760000  1.0 0.031403253
C  C101  1  0.16230000  0.00120000  0.88970000  1.0 -0.2722743476
C  C102  1  0.26070000  0.02020000  0.97280000  1.0 -0.167616464
C  C103  1  0.25460000  0.03310000  0.46490000  1.0 -0.1503542306
C  C104  1  0.23130000  0.08890000  0.43290000  1.0 0.0022295012
C  C105  1  0.26390000  0.12160000  0.35080000  1.0 0.5775788223
C  C106  1  0.18040000  0.11340000  0.47830000  1.0 -0.2143696824
C  C107  1  0.00200000  0.09470000  0.65210000  1.0 -0.2814420515
C  C108  1  0.96550000  0.08800000  0.73240000  1.0 -0.0020814466
C  C109  1  0.98990000  0.07680000  0.82510000  1.0 -0.2884199859
C  C110  1  0.24100000  0.91550000  0.88300000  1.0 0.2769826969
C  C111  1  0.72900000  0.88970000  0.08750000  1.0 0.5582585728
C  C112  1  0.76380000  0.92780000  0.01620000  1.0 0.0022295012
C  C113  1  0.82630000  0.91120000  0.99700000  1.0 -0.2214220146
C  C114  1  0.85910000  0.94560000  0.93270000  1.0 0.2216857953
C  C115  1  0.94620000  0.92370000  0.82940000  1.0 0.3717516507
C  C116  1  0.93640000  0.90580000  0.66650000  1.0 0.3491260504
C  C117  1  0.84880000  0.91770000  0.55480000  1.0 0.2216857953
C  C118  1  0.82760000  0.97340000  0.58520000  1.0 -0.2498847161
C  C119  1  0.77570000  0.99780000  0.54230000  1.0 0.0136384965
C  C120  1  0.74980000  0.06010000  0.57310000  1.0 0.5532178676
C  C121  1  0.74770000  0.06230000  0.84470000  1.0 0.2665359771
C  C122  1  0.77720000  0.01450000  0.90760000  1.0 0.031403253
C  C123  1  0.83770000  0.99880000  0.88970000  1.0 -0.2722743476
C  C124  1  0.73930000  0.97980000  0.97280000  1.0 -0.167616464
C  C125  1  0.74540000  0.96690000  0.46490000  1.0 -0.1503542306
C  C126  1  0.76870000  0.91110000  0.43290000  1.0 0.0022295012
C  C127  1  0.73610000  0.87840000  0.35080000  1.0 0.5775788223
C  C128  1  0.81960000  0.88660000  0.47830000  1.0 -0.2143696824
C  C129  1  0.99800000  0.90530000  0.65210000  1.0 -0.2814420515
C  C130  1  0.03450000  0.91200000  0.73240000  1.0 -0.0020814466
C  C131  1  0.01010000  0.92320000  0.82510000  1.0 -0.2884199859
C  C132  1  0.75900000  0.08450000  0.88300000  1.0 0.2769826969
C  C133  1  0.11030000  0.72900000  0.91250000  1.0 0.5582585728
C  C134  1  0.07220000  0.76380000  0.98380000  1.0 0.0022295012
C  C135  1  0.08880000  0.82630000  0.00300000  1.0 -0.2214220146
C  C136  1  0.05440000  0.85910000  0.06730000  1.0 0.2216857953
C  C137  1  0.07630000  0.94620000  0.17060000  1.0 0.3717516507
C  C138  1  0.09420000  0.93640000  0.33350000  1.0 0.3491260504
C  C139  1  0.08230000  0.84880000  0.44520000  1.0 0.2216857953
C  C140  1  0.02660000  0.82760000  0.41480000  1.0 -0.2498847161
C  C141  1  0.00220000  0.77570000  0.45770000  1.0 0.0136384965
C  C142  1  0.93990000  0.74980000  0.42690000  1.0 0.5532178676
C  C143  1  0.93770000  0.74770000  0.15530000  1.0 0.2665359771
C  C144  1  0.98550000  0.77720000  0.09240000  1.0 0.031403253
C  C145  1  0.00120000  0.83770000  0.11030000  1.0 -0.2722743476
C  C146  1  0.02020000  0.73930000  0.02720000  1.0 -0.167616464
C  C147  1  0.03310000  0.74540000  0.53510000  1.0 -0.1503542306
C  C148  1  0.08890000  0.76870000  0.56710000  1.0 0.0022295012
C  C149  1  0.12160000  0.73610000  0.64920000  1.0 0.5775788223
C  C150  1  0.11340000  0.81960000  0.52170000  1.0 -0.2143696824
C  C151  1  0.09470000  0.99800000  0.34790000  1.0 -0.2814420515
C  C152  1  0.08800000  0.03450000  0.26760000  1.0 -0.0020814466
C  C153  1  0.07680000  0.01010000  0.17490000  1.0 -0.2884199859
C  C154  1  0.91550000  0.75900000  0.11700000  1.0 0.2769826969
C  C155  1  0.88970000  0.27100000  0.91250000  1.0 0.5582585728
C  C156  1  0.92780000  0.23620000  0.98380000  1.0 0.0022295012
C  C157  1  0.91120000  0.17370000  0.00300000  1.0 -0.2214220146
C  C158  1  0.94560000  0.14090000  0.06730000  1.0 0.2216857953
C  C159  1  0.92370000  0.05380000  0.17060000  1.0 0.3717516507
C  C160  1  0.90580000  0.06360000  0.33350000  1.0 0.3491260504
C  C161  1  0.91770000  0.15120000  0.44520000  1.0 0.2216857953
C  C162  1  0.97340000  0.17240000  0.41480000  1.0 -0.2498847161
C  C163  1  0.99780000  0.22430000  0.45770000  1.0 0.0136384965
C  C164  1  0.06010000  0.25020000  0.42690000  1.0 0.5532178676
C  C165  1  0.06230000  0.25230000  0.15530000  1.0 0.2665359771
C  C166  1  0.01450000  0.22280000  0.09240000  1.0 0.031403253
C  C167  1  0.99880000  0.16230000  0.11030000  1.0 -0.2722743476
C  C168  1  0.97980000  0.26070000  0.02720000  1.0 -0.167616464
C  C169  1  0.96690000  0.25460000  0.53510000  1.0 -0.1503542306
C  C170  1  0.91110000  0.23130000  0.56710000  1.0 0.0022295012
C  C171  1  0.87840000  0.26390000  0.64920000  1.0 0.5775788223
C  C172  1  0.88660000  0.18040000  0.52170000  1.0 -0.2143696824
C  C173  1  0.90530000  0.00200000  0.34790000  1.0 -0.2814420515
C  C174  1  0.91200000  0.96550000  0.26760000  1.0 -0.0020814466
C  C175  1  0.92320000  0.98990000  0.17490000  1.0 -0.2884199859
C  C176  1  0.08450000  0.24100000  0.11700000  1.0 0.2769826969
N  N1  1  0.41100000  0.58550000  0.24870000  1.0 -0.3314514847
N  N2  1  0.58900000  0.41450000  0.24870000  1.0 -0.3314514847
N  N3  1  0.41450000  0.41100000  0.75130000  1.0 -0.3314514847
N  N4  1  0.58550000  0.58900000  0.75130000  1.0 -0.3314514847
N  N5  1  0.08900000  0.08550000  0.75130000  1.0 -0.3314514847
N  N6  1  0.91100000  0.91450000  0.75130000  1.0 -0.3314514847
N  N7  1  0.08550000  0.91100000  0.24870000  1.0 -0.3314514847
N  N8  1  0.91450000  0.08900000  0.24870000  1.0 -0.3314514847
O  O1  1  0.25040000  0.65980000  0.88630000  1.0 -0.4869462753
O  O2  1  0.17760000  0.58750000  0.88330000  1.0 -0.5307307819
O  O3  1  0.42130000  0.56980000  0.07800000  1.0 -0.2498847161
O  O4  1  0.40200000  0.61220000  0.41400000  1.0 -0.2344201932
O  O5  1  0.28270000  0.40830000  0.37330000  1.0 -0.5138490403
O  O6  1  0.19790000  0.42890000  0.45630000  1.0 -0.5363391021
O  O7  1  0.12250000  0.39580000  0.28980000  1.0 -0.1503542306
O  O8  1  0.28640000  0.39440000  0.18270000  1.0 -0.3503475318
O  O9  1  0.19150000  0.43790000  0.17480000  1.0 -0.3314514847
O  O10  1  0.25970000  0.66960000  0.68620000  1.0 -0.555805465
O  O11  1  0.18710000  0.59770000  0.68020000  1.0 -0.5307307819
O  O12  1  0.21260000  0.38710000  0.07610000  1.0 -0.2649456168
O  O13  1  0.74960000  0.34020000  0.88630000  1.0 -0.4869462753
O  O14  1  0.82240000  0.41250000  0.88330000  1.0 -0.5307307819
O  O15  1  0.57870000  0.43020000  0.07800000  1.0 -0.2498847161
O  O16  1  0.59800000  0.38780000  0.41400000  1.0 -0.2344201932
O  O17  1  0.71730000  0.59170000  0.37330000  1.0 -0.5138490403
O  O18  1  0.80210000  0.57110000  0.45630000  1.0 -0.5363391021
O  O19  1  0.87750000  0.60420000  0.28980000  1.0 -0.1503542306
O  O20  1  0.71360000  0.60560000  0.18270000  1.0 -0.3503475318
O  O21  1  0.80850000  0.56210000  0.17480000  1.0 -0.3314514847
O  O22  1  0.74030000  0.33040000  0.68620000  1.0 -0.555805465
O  O23  1  0.81290000  0.40230000  0.68020000  1.0 -0.5307307819
O  O24  1  0.78740000  0.61290000  0.07610000  1.0 -0.2722743476
O  O25  1  0.34020000  0.25040000  0.11370000  1.0 -0.4869462753
O  O26  1  0.41250000  0.17760000  0.11670000  1.0 -0.5307307819
O  O27  1  0.43020000  0.42130000  0.92200000  1.0 -0.2498847161
O  O28  1  0.38780000  0.40200000  0.58600000  1.0 -0.2344201932
O  O29  1  0.59170000  0.28270000  0.62670000  1.0 -0.5138490403
O  O30  1  0.57110000  0.19790000  0.54370000  1.0 -0.5363391021
O  O31  1  0.60420000  0.12250000  0.71020000  1.0 -0.1503542306
O  O32  1  0.60560000  0.28640000  0.81730000  1.0 -0.3503475318
O  O33  1  0.56210000  0.19150000  0.82520000  1.0 -0.3314514847
O  O34  1  0.33040000  0.25970000  0.31380000  1.0 -0.555805465
O  O35  1  0.40230000  0.18710000  0.31980000  1.0 -0.5307307819
O  O36  1  0.61290000  0.21260000  0.92390000  1.0 -0.2722743476
O  O37  1  0.65980000  0.74960000  0.11370000  1.0 -0.4869462753
O  O38  1  0.58750000  0.82240000  0.11670000  1.0 -0.5307307819
O  O39  1  0.56980000  0.57870000  0.92200000  1.0 -0.2498847161
O  O40  1  0.61220000  0.59800000  0.58600000  1.0 -0.2344201932
O  O41  1  0.40830000  0.71730000  0.62670000  1.0 -0.5138490403
O  O42  1  0.42890000  0.80210000  0.54370000  1.0 -0.5363391021
O  O43  1  0.39580000  0.87750000  0.71020000  1.0 -0.1503542306
O  O44  1  0.39440000  0.71360000  0.81730000  1.0 -0.3503475318
O  O45  1  0.43790000  0.80850000  0.82520000  1.0 -0.3314514847
O  O46  1  0.66960000  0.74030000  0.31380000  1.0 -0.555805465
O  O47  1  0.59770000  0.81290000  0.31980000  1.0 -0.5307307819
O  O48  1  0.38710000  0.78740000  0.92390000  1.0 -0.2722743476
O  O49  1  0.24960000  0.15980000  0.11370000  1.0 -0.4869462753
O  O50  1  0.32240000  0.08750000  0.11670000  1.0 -0.5307307819
O  O51  1  0.07870000  0.06980000  0.92200000  1.0 -0.2498847161
O  O52  1  0.09800000  0.11220000  0.58600000  1.0 -0.2344201932
O  O53  1  0.21730000  0.90830000  0.62670000  1.0 -0.5138490403
O  O54  1  0.30210000  0.92890000  0.54370000  1.0 -0.5363391021
O  O55  1  0.37750000  0.89580000  0.71020000  1.0 -0.1503542306
O  O56  1  0.21360000  0.89440000  0.81730000  1.0 -0.3503475318
O  O57  1  0.30850000  0.93790000  0.82520000  1.0 -0.3314514847
O  O58  1  0.24030000  0.16960000  0.31380000  1.0 -0.555805465
O  O59  1  0.31290000  0.09770000  0.31980000  1.0 -0.5307307819
O  O60  1  0.28740000  0.88710000  0.92390000  1.0 -0.2722743476
O  O61  1  0.75040000  0.84020000  0.11370000  1.0 -0.4869462753
O  O62  1  0.67760000  0.91250000  0.11670000  1.0 -0.5307307819
O  O63  1  0.92130000  0.93020000  0.92200000  1.0 -0.2498847161
O  O64  1  0.90200000  0.88780000  0.58600000  1.0 -0.2344201932
O  O65  1  0.78270000  0.09170000  0.62670000  1.0 -0.5138490403
O  O66  1  0.69790000  0.07110000  0.54370000  1.0 -0.5363391021
O  O67  1  0.62250000  0.10420000  0.71020000  1.0 -0.1503542306
O  O68  1  0.78640000  0.10560000  0.81730000  1.0 -0.3503475318
O  O69  1  0.69150000  0.06210000  0.82520000  1.0 -0.3314514847
O  O70  1  0.75970000  0.83040000  0.31380000  1.0 -0.555805465
O  O71  1  0.68710000  0.90230000  0.31980000  1.0 -0.5307307819
O  O72  1  0.71260000  0.11290000  0.92390000  1.0 -0.2722743476
O  O73  1  0.15980000  0.75040000  0.88630000  1.0 -0.4869462753
O  O74  1  0.08750000  0.67760000  0.88330000  1.0 -0.5307307819
O  O75  1  0.06980000  0.92130000  0.07800000  1.0 -0.2498847161
O  O76  1  0.11220000  0.90200000  0.41400000  1.0 -0.2344201932
O  O77  1  0.90830000  0.78270000  0.37330000  1.0 -0.5138490403
O  O78  1  0.92890000  0.69790000  0.45630000  1.0 -0.5363391021
O  O79  1  0.89580000  0.62250000  0.28980000  1.0 -0.1503542306
O  O80  1  0.89440000  0.78640000  0.18270000  1.0 -0.3503475318
O  O81  1  0.93790000  0.69150000  0.17480000  1.0 -0.3314514847
O  O82  1  0.16960000  0.75970000  0.68620000  1.0 -0.555805465
O  O83  1  0.09770000  0.68710000  0.68020000  1.0 -0.5307307819
O  O84  1  0.88710000  0.71260000  0.07610000  1.0 -0.2722743476
O  O85  1  0.84020000  0.24960000  0.88630000  1.0 -0.4869462753
O  O86  1  0.91250000  0.32240000  0.88330000  1.0 -0.5307307819
O  O87  1  0.93020000  0.07870000  0.07800000  1.0 -0.2498847161
O  O88  1  0.88780000  0.09800000  0.41400000  1.0 -0.2344201932
O  O89  1  0.09170000  0.21730000  0.37330000  1.0 -0.5138490403
O  O90  1  0.07110000  0.30210000  0.45630000  1.0 -0.5363391021
O  O91  1  0.10420000  0.37750000  0.28980000  1.0 -0.1503542306
O  O92  1  0.10560000  0.21360000  0.18270000  1.0 -0.3503475318
O  O93  1  0.06210000  0.30850000  0.17480000  1.0 -0.3314514847
O  O94  1  0.83040000  0.24030000  0.68620000  1.0 -0.555805465
O  O95  1  0.90230000  0.31290000  0.68020000  1.0 -0.5307307819
O  O96  1  0.11290000  0.28740000  0.07610000  1.0 -0.2722743476
O  O97  1  0.21590000  0.28410000  0.20320000  1.0 -0.7882093394
O  O98  1  0.19640000  0.30360000  0.38500000  1.0 -0.7958829755
O  O99  1  0.78410000  0.71590000  0.20320000  1.0 -0.7882093394
O  O100  1  0.80360000  0.69640000  0.38500000  1.0 -0.7958829755
O  O101  1  0.71590000  0.21590000  0.79680000  1.0 -0.7882093394
O  O102  1  0.69640000  0.19640000  0.61500000  1.0 -0.7958829755
O  O103  1  0.28410000  0.78410000  0.79680000  1.0 -0.7882093394
O  O104  1  0.30360000  0.80360000  0.61500000  1.0 -0.7958829755
