# DDEC6 charges by PACMAN v1.1 (https://github.com/mtap-research/PACMAN-charge/)
data_WANHOL_ASR_pacman
_symmetry_space_group_name_H-M   'P 1'
_cell_length_a   16.77010000
_cell_length_b   16.77010000
_cell_length_c   16.77010000
_cell_angle_alpha   67.79840000
_cell_angle_beta   67.79840000
_cell_angle_gamma   67.79840000
_symmetry_Int_Tables_number   1
_chemical_formula_structural   CuH7C13(O2F)2
_chemical_formula_sum   'Cu6 H42 C78 O24 F12'
_cell_volume   3887.94145284
_cell_formula_units_Z   6
loop_
 _symmetry_equiv_pos_site_id
 _symmetry_equiv_pos_as_xyz
  1  'x, y, z'
loop_
 _atom_site_type_symbol
 _atom_site_label
 _atom_site_symmetry_multiplicity
 _atom_site_fract_x
 _atom_site_fract_y
 _atom_site_fract_z
 _atom_site_occupancy
 _atom_site_charge
Cu  Cu1  1  0.92499000  0.49492000  0.49492000  1.0 0.8736114341
Cu  Cu2  1  0.49492000  0.49492000  0.92499000  1.0 0.8736114341
Cu  Cu3  1  0.49492000  0.92499000  0.49492000  1.0 0.8736114341
Cu  Cu4  1  0.07501000  0.50508000  0.50508000  1.0 0.8736114341
Cu  Cu5  1  0.50508000  0.50508000  0.07501000  1.0 0.8736114341
Cu  Cu6  1  0.50508000  0.07501000  0.50508000  1.0 0.8736114341
H  H1  1  0.77080000  0.47130000  0.77080000  1.0 0.1354129848
H  H2  1  0.47130000  0.77080000  0.77080000  1.0 0.1354129848
H  H3  1  0.77080000  0.77080000  0.47130000  1.0 0.1354129848
H  H4  1  0.22920000  0.22920000  0.52870000  1.0 0.1354129848
H  H5  1  0.22920000  0.52870000  0.22920000  1.0 0.1354129848
H  H6  1  0.52870000  0.22920000  0.22920000  1.0 0.1354129848
H  H7  1  0.00000000  0.47890000  0.78660000  1.0 0.1173779033
H  H8  1  0.47890000  0.78660000  0.00000000  1.0 0.1173779033
H  H9  1  0.78660000  0.00000000  0.47890000  1.0 0.1173779033
H  H10  1  0.00000000  0.21340000  0.52110000  1.0 0.1173779033
H  H11  1  0.21340000  0.52110000  0.00000000  1.0 0.1173779033
H  H12  1  0.52110000  0.00000000  0.21340000  1.0 0.1173779033
H  H13  1  0.00000000  0.52110000  0.21340000  1.0 0.1173779033
H  H14  1  0.52110000  0.21340000  0.00000000  1.0 0.1173779033
H  H15  1  0.21340000  0.00000000  0.52110000  1.0 0.1173779033
H  H16  1  0.00000000  0.78660000  0.47890000  1.0 0.1173779033
H  H17  1  0.78660000  0.47890000  0.00000000  1.0 0.1173779033
H  H18  1  0.47890000  0.00000000  0.78660000  1.0 0.1173779033
H  H19  1  0.14990000  0.41640000  0.98930000  1.0 0.0939934062
H  H20  1  0.41640000  0.98930000  0.14990000  1.0 0.0939934062
H  H21  1  0.98930000  0.14990000  0.41640000  1.0 0.0939934062
H  H22  1  0.85010000  0.01070000  0.58360000  1.0 0.0939934062
H  H23  1  0.01070000  0.58360000  0.85010000  1.0 0.0939934062
H  H24  1  0.58360000  0.85010000  0.01070000  1.0 0.0939934062
H  H25  1  0.85010000  0.58360000  0.01070000  1.0 0.0939934062
H  H26  1  0.58360000  0.01070000  0.85010000  1.0 0.0939934062
H  H27  1  0.01070000  0.85010000  0.58360000  1.0 0.0939934062
H  H28  1  0.14990000  0.98930000  0.41640000  1.0 0.0939934062
H  H29  1  0.98930000  0.41640000  0.14990000  1.0 0.0939934062
H  H30  1  0.41640000  0.14990000  0.98930000  1.0 0.0939934062
H  H31  1  0.07070000  0.40490000  0.90780000  1.0 0.20337622
H  H32  1  0.40490000  0.90780000  0.07070000  1.0 0.20337622
H  H33  1  0.90780000  0.07070000  0.40490000  1.0 0.20337622
H  H34  1  0.92930000  0.09220000  0.59510000  1.0 0.20337622
H  H35  1  0.09220000  0.59510000  0.92930000  1.0 0.20337622
H  H36  1  0.59510000  0.92930000  0.09220000  1.0 0.20337622
H  H37  1  0.92930000  0.59510000  0.09220000  1.0 0.20337622
H  H38  1  0.59510000  0.09220000  0.92930000  1.0 0.20337622
H  H39  1  0.09220000  0.92930000  0.59510000  1.0 0.20337622
H  H40  1  0.07070000  0.90780000  0.40490000  1.0 0.20337622
H  H41  1  0.90780000  0.40490000  0.07070000  1.0 0.20337622
H  H42  1  0.40490000  0.07070000  0.90780000  1.0 0.20337622
C  C1  1  0.93336000  0.47946000  0.66626000  1.0 0.5856484064
C  C2  1  0.47946000  0.66626000  0.93336000  1.0 0.5856484064
C  C3  1  0.66626000  0.93336000  0.47946000  1.0 0.5856484064
C  C4  1  0.06664000  0.33374000  0.52054000  1.0 0.5856484064
C  C5  1  0.33374000  0.52054000  0.06664000  1.0 0.5856484064
C  C6  1  0.52054000  0.06664000  0.33374000  1.0 0.5856484064
C  C7  1  0.06664000  0.52054000  0.33374000  1.0 0.5856484064
C  C8  1  0.52054000  0.33374000  0.06664000  1.0 0.5856484064
C  C9  1  0.33374000  0.06664000  0.52054000  1.0 0.5856484064
C  C10  1  0.93336000  0.66626000  0.47946000  1.0 0.5856484064
C  C11  1  0.66626000  0.47946000  0.93336000  1.0 0.5856484064
C  C12  1  0.47946000  0.93336000  0.66626000  1.0 0.5856484064
C  C13  1  0.89212000  0.47542000  0.76332000  1.0 -0.0219050807
C  C14  1  0.47542000  0.76332000  0.89212000  1.0 -0.0219050807
C  C15  1  0.76332000  0.89212000  0.47542000  1.0 -0.0219050807
C  C16  1  0.10788000  0.23668000  0.52458000  1.0 -0.0219050807
C  C17  1  0.23668000  0.52458000  0.10788000  1.0 -0.0219050807
C  C18  1  0.52458000  0.10788000  0.23668000  1.0 -0.0219050807
C  C19  1  0.10788000  0.52458000  0.23668000  1.0 -0.0219050807
C  C20  1  0.52458000  0.23668000  0.10788000  1.0 -0.0219050807
C  C21  1  0.23668000  0.10788000  0.52458000  1.0 -0.0219050807
C  C22  1  0.89212000  0.76332000  0.47542000  1.0 -0.0219050807
C  C23  1  0.76332000  0.47542000  0.89212000  1.0 -0.0219050807
C  C24  1  0.47542000  0.89212000  0.76332000  1.0 -0.0219050807
C  C25  1  0.80351000  0.47371000  0.80351000  1.0 -0.1188620627
C  C26  1  0.47371000  0.80351000  0.80351000  1.0 -0.1188620627
C  C27  1  0.80351000  0.80351000  0.47371000  1.0 -0.1188620627
C  C28  1  0.19649000  0.19649000  0.52629000  1.0 -0.1188620627
C  C29  1  0.19649000  0.52629000  0.19649000  1.0 -0.1188620627
C  C30  1  0.52629000  0.19649000  0.19649000  1.0 -0.1188620627
C  C31  1  0.94024000  0.47894000  0.81284000  1.0 -0.1420766786
C  C32  1  0.47894000  0.81284000  0.94024000  1.0 -0.1420766786
C  C33  1  0.81284000  0.94024000  0.47894000  1.0 -0.1420766786
C  C34  1  0.05976000  0.18716000  0.52106000  1.0 -0.1420766786
C  C35  1  0.18716000  0.52106000  0.05976000  1.0 -0.1420766786
C  C36  1  0.52106000  0.05976000  0.18716000  1.0 -0.1420766786
C  C37  1  0.05976000  0.52106000  0.18716000  1.0 -0.1420766786
C  C38  1  0.52106000  0.18716000  0.05976000  1.0 -0.1420766786
C  C39  1  0.18716000  0.05976000  0.52106000  1.0 -0.1420766786
C  C40  1  0.94024000  0.81284000  0.47894000  1.0 -0.1420766786
C  C41  1  0.81284000  0.47894000  0.94024000  1.0 -0.1420766786
C  C42  1  0.47894000  0.94024000  0.81284000  1.0 -0.1420766786
C  C43  1  0.90085000  0.48255000  0.90085000  1.0 0.0744002946
C  C44  1  0.48255000  0.90085000  0.90085000  1.0 0.0744002946
C  C45  1  0.90085000  0.90085000  0.48255000  1.0 0.0744002946
C  C46  1  0.09915000  0.09915000  0.51745000  1.0 0.0744002946
C  C47  1  0.09915000  0.51745000  0.09915000  1.0 0.0744002946
C  C48  1  0.51745000  0.09915000  0.09915000  1.0 0.0744002946
C  C49  1  0.95218000  0.49023000  0.95218000  1.0 0.0041131523
C  C50  1  0.49023000  0.95218000  0.95218000  1.0 0.0041131523
C  C51  1  0.95218000  0.95218000  0.49023000  1.0 0.0050702157
C  C52  1  0.04782000  0.04782000  0.50977000  1.0 0.0041131523
C  C53  1  0.04782000  0.50977000  0.04782000  1.0 0.0050702157
C  C54  1  0.50977000  0.04782000  0.04782000  1.0 0.0050702157
C  C55  1  0.08880000  0.45130000  0.99360000  1.0 -0.1188620627
C  C56  1  0.45130000  0.99360000  0.08880000  1.0 -0.1188620627
C  C57  1  0.99360000  0.08880000  0.45130000  1.0 -0.1188620627
C  C58  1  0.91120000  0.00640000  0.54870000  1.0 -0.1188620627
C  C59  1  0.00640000  0.54870000  0.91120000  1.0 -0.1188620627
C  C60  1  0.54870000  0.91120000  0.00640000  1.0 -0.1188620627
C  C61  1  0.91120000  0.54870000  0.00640000  1.0 -0.1188620627
C  C62  1  0.54870000  0.00640000  0.91120000  1.0 -0.1188620627
C  C63  1  0.00640000  0.91120000  0.54870000  1.0 -0.1188620627
C  C64  1  0.08880000  0.99360000  0.45130000  1.0 -0.1188620627
C  C65  1  0.99360000  0.45130000  0.08880000  1.0 -0.1188620627
C  C66  1  0.45130000  0.08880000  0.99360000  1.0 -0.1188620627
C  C67  1  0.04010000  0.44370000  0.94640000  1.0 0.0163221353
C  C68  1  0.44370000  0.94640000  0.04010000  1.0 0.0163221353
C  C69  1  0.94640000  0.04010000  0.44370000  1.0 0.0163221353
C  C70  1  0.95990000  0.05360000  0.55630000  1.0 0.0163221353
C  C71  1  0.05360000  0.55630000  0.95990000  1.0 0.0163221353
C  C72  1  0.55630000  0.95990000  0.05360000  1.0 0.0163221353
C  C73  1  0.95990000  0.55630000  0.05360000  1.0 0.0163221353
C  C74  1  0.55630000  0.05360000  0.95990000  1.0 0.0163221353
C  C75  1  0.05360000  0.95990000  0.55630000  1.0 0.0163221353
C  C76  1  0.04010000  0.94640000  0.44370000  1.0 0.0163221353
C  C77  1  0.94640000  0.44370000  0.04010000  1.0 0.0163221353
C  C78  1  0.44370000  0.04010000  0.94640000  1.0 0.0163221353
O  O1  1  0.88505000  0.47861000  0.62452000  1.0 -0.5215794854
O  O2  1  0.47861000  0.62452000  0.88505000  1.0 -0.5215794854
O  O3  1  0.62452000  0.88505000  0.47861000  1.0 -0.5215794854
O  O4  1  0.11495000  0.37548000  0.52139000  1.0 -0.5215794854
O  O5  1  0.37548000  0.52139000  0.11495000  1.0 -0.5215794854
O  O6  1  0.52139000  0.11495000  0.37548000  1.0 -0.5215794854
O  O7  1  0.11495000  0.52139000  0.37548000  1.0 -0.5215794854
O  O8  1  0.52139000  0.37548000  0.11495000  1.0 -0.5215794854
O  O9  1  0.37548000  0.11495000  0.52139000  1.0 -0.5215794854
O  O10  1  0.88505000  0.62452000  0.47861000  1.0 -0.5215794854
O  O11  1  0.62452000  0.47861000  0.88505000  1.0 -0.5215794854
O  O12  1  0.47861000  0.88505000  0.62452000  1.0 -0.5215794854
O  O13  1  0.01257000  0.48552000  0.63307000  1.0 -0.5270617666
O  O14  1  0.48552000  0.63307000  0.01257000  1.0 -0.5270617666
O  O15  1  0.63307000  0.01257000  0.48552000  1.0 -0.5270617666
O  O16  1  0.98743000  0.36693000  0.51448000  1.0 -0.5270617666
O  O17  1  0.36693000  0.51448000  0.98743000  1.0 -0.5270617666
O  O18  1  0.51448000  0.98743000  0.36693000  1.0 -0.5270617666
O  O19  1  0.98743000  0.51448000  0.36693000  1.0 -0.5270617666
O  O20  1  0.51448000  0.36693000  0.98743000  1.0 -0.5270617666
O  O21  1  0.36693000  0.98743000  0.51448000  1.0 -0.5270617666
O  O22  1  0.01257000  0.63307000  0.48552000  1.0 -0.5270617666
O  O23  1  0.63307000  0.48552000  0.01257000  1.0 -0.5270617666
O  O24  1  0.48552000  0.01257000  0.63307000  1.0 -0.5270617666
F  F1  1  0.08940000  0.37330000  0.89970000  1.0 -0.1698101647
F  F2  1  0.37330000  0.89970000  0.08940000  1.0 -0.1698101647
F  F3  1  0.89970000  0.08940000  0.37330000  1.0 -0.1698101647
F  F4  1  0.91060000  0.10030000  0.62670000  1.0 -0.1698101647
F  F5  1  0.10030000  0.62670000  0.91060000  1.0 -0.1698101647
F  F6  1  0.62670000  0.91060000  0.10030000  1.0 -0.1698101647
F  F7  1  0.91060000  0.62670000  0.10030000  1.0 -0.1698101647
F  F8  1  0.62670000  0.10030000  0.91060000  1.0 -0.1698101647
F  F9  1  0.10030000  0.91060000  0.62670000  1.0 -0.1698101647
F  F10  1  0.08940000  0.89970000  0.37330000  1.0 -0.1698101647
F  F11  1  0.89970000  0.37330000  0.08940000  1.0 -0.1698101647
F  F12  1  0.37330000  0.08940000  0.89970000  1.0 -0.1698101647
