# DDEC6 charges by PACMAN v1.1 (https://github.com/mtap-research/PACMAN-charge/)
data_WAPTAL_FSR_pacman
_symmetry_space_group_name_H-M   'P 1'
_cell_length_a   15.08820000
_cell_length_b   16.18480000
_cell_length_c   27.42940000
_cell_angle_alpha   90.00000000
_cell_angle_beta   105.47900000
_cell_angle_gamma   90.00000000
_symmetry_Int_Tables_number   1
_chemical_formula_structural   Nd2AsP2H4W11(CO27)2
_chemical_formula_sum   'Nd8 As4 P8 H16 W44 C8 O216'
_cell_volume   6455.28923169
_cell_formula_units_Z   4
loop_
 _symmetry_equiv_pos_site_id
 _symmetry_equiv_pos_as_xyz
  1  'x, y, z'
loop_
 _atom_site_type_symbol
 _atom_site_label
 _atom_site_symmetry_multiplicity
 _atom_site_fract_x
 _atom_site_fract_y
 _atom_site_fract_z
 _atom_site_occupancy
 _atom_site_charge
Nd  Nd1  1  0.19766000  0.43436000  0.47446000  1.0 2.3003201533
Nd  Nd2  1  0.80234000  0.93436000  0.02554000  1.0 2.3003201533
Nd  Nd3  1  0.80234000  0.56564000  0.52554000  1.0 2.3096102524
Nd  Nd4  1  0.19766000  0.06564000  0.97446000  1.0 2.3096102524
Nd  Nd5  1  0.34901000  0.28267000  0.73803000  1.0 2.1809064198
Nd  Nd6  1  0.65099000  0.78267000  0.76197000  1.0 2.1809064198
Nd  Nd7  1  0.65099000  0.71733000  0.26197000  1.0 2.1809064198
Nd  Nd8  1  0.34901000  0.21733000  0.23803000  1.0 2.1809064198
As  As1  1  0.24251000  0.67761000  0.47260000  1.0 1.2183289576
As  As2  1  0.75749000  0.17761000  0.02740000  1.0 1.2356694985
As  As3  1  0.75749000  0.32239000  0.52740000  1.0 1.2356694985
As  As4  1  0.24251000  0.82239000  0.97260000  1.0 1.2183289576
P  P1  1  0.48300000  0.43290000  0.67723000  1.0 1.3912847985
P  P2  1  0.51700000  0.93290000  0.82277000  1.0 1.3912847985
P  P3  1  0.51700000  0.56710000  0.32277000  1.0 1.3912847985
P  P4  1  0.48300000  0.06710000  0.17723000  1.0 1.3912847985
P  P5  1  0.58760000  0.58950000  0.68384000  1.0 1.3548011828
P  P6  1  0.41240000  0.08950000  0.81616000  1.0 1.3557772684
P  P7  1  0.41240000  0.41050000  0.31616000  1.0 1.3548011828
P  P8  1  0.58760000  0.91050000  0.18384000  1.0 1.3557772684
H  H1  1  0.50450000  0.58830000  0.76170000  1.0 0.3881626922
H  H2  1  0.49550000  0.08830000  0.73830000  1.0 0.3881626922
H  H3  1  0.49550000  0.41170000  0.23830000  1.0 0.3881626922
H  H4  1  0.50450000  0.91170000  0.26170000  1.0 0.3881626922
H  H5  1  0.66600000  0.44810000  0.74170000  1.0 0.2020561334
H  H6  1  0.33400000  0.94810000  0.75830000  1.0 0.2020561334
H  H7  1  0.33400000  0.55190000  0.25830000  1.0 0.2020561334
H  H8  1  0.66600000  0.05190000  0.24170000  1.0 0.2020561334
H  H9  1  0.60140000  0.43180000  0.77700000  1.0 0.2020561334
H  H10  1  0.39860000  0.93180000  0.72300000  1.0 0.2020561334
H  H11  1  0.39860000  0.56820000  0.22300000  1.0 0.2020561334
H  H12  1  0.60140000  0.06820000  0.27700000  1.0 0.2020561334
H  H13  1  0.65580000  0.51520000  0.78120000  1.0 0.1852516282
H  H14  1  0.34420000  0.01520000  0.71880000  1.0 0.1852516282
H  H15  1  0.34420000  0.48480000  0.21880000  1.0 0.1852516282
H  H16  1  0.65580000  0.98480000  0.28120000  1.0 0.1852516282
W  W1  1  0.43736000  0.77557000  0.54977000  1.0 2.4212102257
W  W2  1  0.56264000  0.27557000  0.95023000  1.0 2.4290557977
W  W3  1  0.56264000  0.22443000  0.45023000  1.0 2.4212102257
W  W4  1  0.43736000  0.72443000  0.04977000  1.0 2.4290557977
W  W5  1  0.24824000  0.71858000  0.60784000  1.0 2.4290557977
W  W6  1  0.75176000  0.21858000  0.89216000  1.0 2.4212102257
W  W7  1  0.75176000  0.28142000  0.39216000  1.0 2.4290557977
W  W8  1  0.24824000  0.78142000  0.10784000  1.0 2.4290557977
W  W9  1  0.41423000  0.76642000  0.42514000  1.0 2.4290557977
W  W10  1  0.58577000  0.26642000  0.07486000  1.0 2.4290557977
W  W11  1  0.58577000  0.23358000  0.57486000  1.0 2.4409311926
W  W12  1  0.41423000  0.73358000  0.92514000  1.0 2.4409311926
W  W13  1  0.06641000  0.63245000  0.52389000  1.0 2.4409311926
W  W14  1  0.93359000  0.13245000  0.97611000  1.0 2.4409311926
W  W15  1  0.93359000  0.36755000  0.47611000  1.0 2.4409311926
W  W16  1  0.06641000  0.86755000  0.02389000  1.0 2.4409311926
W  W17  1  0.10234000  0.84035000  0.52336000  1.0 2.332827096
W  W18  1  0.89766000  0.34035000  0.97664000  1.0 2.332827096
W  W19  1  0.89766000  0.15965000  0.47664000  1.0 2.332827096
W  W20  1  0.10234000  0.65965000  0.02336000  1.0 2.3356313753
W  W21  1  0.04153000  0.62283000  0.38882000  1.0 2.4025417018
W  W22  1  0.95847000  0.12283000  0.11118000  1.0 2.4025417018
W  W23  1  0.95847000  0.37717000  0.61118000  1.0 2.4025417018
W  W24  1  0.04153000  0.87717000  0.88882000  1.0 2.4025417018
W  W25  1  0.19792000  0.69752000  0.33239000  1.0 2.4212102257
W  W26  1  0.80208000  0.19752000  0.16761000  1.0 2.4212102257
W  W27  1  0.80208000  0.30248000  0.66761000  1.0 2.4212102257
W  W28  1  0.19792000  0.80248000  0.83239000  1.0 2.4212102257
W  W29  1  0.29361000  0.90629000  0.47186000  1.0 2.3246924925
W  W30  1  0.70639000  0.40629000  0.02814000  1.0 2.3096102524
W  W31  1  0.70639000  0.09371000  0.52814000  1.0 2.3096102524
W  W32  1  0.29361000  0.59371000  0.97186000  1.0 2.332827096
W  W33  1  0.07902000  0.83109000  0.38492000  1.0 2.2774524737
W  W34  1  0.92098000  0.33109000  0.11508000  1.0 2.2937616158
W  W35  1  0.92098000  0.16891000  0.61508000  1.0 2.2937616158
W  W36  1  0.07902000  0.66891000  0.88492000  1.0 2.3003201533
W  W37  1  0.40520000  0.56078000  0.58223000  1.0 2.4789454389
W  W38  1  0.59480000  0.06078000  0.91777000  1.0 2.4789454389
W  W39  1  0.59480000  0.43922000  0.41777000  1.0 2.4789454389
W  W40  1  0.40520000  0.93922000  0.08223000  1.0 2.4789454389
W  W41  1  0.62793000  0.45274000  0.60308000  1.0 2.4409311926
W  W42  1  0.37207000  0.95274000  0.89692000  1.0 2.4457747984
W  W43  1  0.37207000  0.54726000  0.39692000  1.0 2.4409311926
W  W44  1  0.62793000  0.04726000  0.10308000  1.0 2.4409311926
C  C1  1  0.54490000  0.51120000  0.71940000  1.0 -0.1825705867
C  C2  1  0.45510000  0.01120000  0.78060000  1.0 -0.1825705867
C  C3  1  0.45510000  0.48880000  0.28060000  1.0 -0.1825705867
C  C4  1  0.54490000  0.98880000  0.21940000  1.0 -0.1825705867
C  C5  1  0.62420000  0.47310000  0.75840000  1.0 -0.313341279
C  C6  1  0.37580000  0.97310000  0.74160000  1.0 -0.313341279
C  C7  1  0.37580000  0.52690000  0.24160000  1.0 -0.313341279
C  C8  1  0.62420000  0.02690000  0.25840000  1.0 -0.313341279
O  O1  1  0.31440000  0.61880000  0.60510000  1.0 -0.8295052838
O  O2  1  0.68560000  0.11880000  0.89490000  1.0 -0.8295052838
O  O3  1  0.68560000  0.38120000  0.39490000  1.0 -0.8295052838
O  O4  1  0.31440000  0.88120000  0.10510000  1.0 -0.8295052838
O  O5  1  0.08740000  0.63670000  0.32870000  1.0 -0.8905963154
O  O6  1  0.91260000  0.13670000  0.17130000  1.0 -0.8905963154
O  O7  1  0.91260000  0.36330000  0.67130000  1.0 -0.8905963154
O  O8  1  0.08740000  0.86330000  0.82870000  1.0 -0.8905963154
O  O9  1  0.18040000  0.71550000  0.51640000  1.0 -0.9164566499
O  O10  1  0.81960000  0.21550000  0.98360000  1.0 -0.9164566499
O  O11  1  0.81960000  0.28450000  0.48360000  1.0 -0.9164566499
O  O12  1  0.18040000  0.78450000  0.01640000  1.0 -0.9164566499
O  O13  1  0.50030000  0.62170000  0.64460000  1.0 -0.7020480121
O  O14  1  0.49970000  0.12170000  0.85540000  1.0 -0.7020480121
O  O15  1  0.49970000  0.37830000  0.35540000  1.0 -0.7020480121
O  O16  1  0.50030000  0.87830000  0.14460000  1.0 -0.7020480121
O  O17  1  0.06650000  0.83950000  0.45170000  1.0 -0.8484782081
O  O18  1  0.93350000  0.33950000  0.04830000  1.0 -0.8484782081
O  O19  1  0.93350000  0.16050000  0.54830000  1.0 -0.8484782081
O  O20  1  0.06650000  0.66050000  0.95170000  1.0 -0.8484782081
O  O21  1  0.04660000  0.92630000  0.53630000  1.0 -0.5114993643
O  O22  1  0.95340000  0.42630000  0.96370000  1.0 -0.5162568839
O  O23  1  0.95340000  0.07370000  0.46370000  1.0 -0.5162568839
O  O24  1  0.04660000  0.57370000  0.03630000  1.0 -0.5162568839
O  O25  1  0.65040000  0.54220000  0.65650000  1.0 -0.6723830652
O  O26  1  0.34960000  0.04220000  0.84350000  1.0 -0.6723830652
O  O27  1  0.34960000  0.45780000  0.34350000  1.0 -0.6723830652
O  O28  1  0.65040000  0.95780000  0.15650000  1.0 -0.6723830652
O  O29  1  0.51410000  0.50650000  0.57570000  1.0 -0.8210357598
O  O30  1  0.48590000  0.00650000  0.92430000  1.0 -0.8210357598
O  O31  1  0.48590000  0.49350000  0.42430000  1.0 -0.8210357598
O  O32  1  0.51410000  0.99350000  0.07570000  1.0 -0.8210357598
O  O33  1  0.53590000  0.79090000  0.59710000  1.0 -0.5489000961
O  O34  1  0.46410000  0.29090000  0.90290000  1.0 -0.5489000961
O  O35  1  0.46410000  0.20910000  0.40290000  1.0 -0.5489000961
O  O36  1  0.53590000  0.70910000  0.09710000  1.0 -0.5489000961
O  O37  1  0.38430000  0.87750000  0.43290000  1.0 -0.8295052838
O  O38  1  0.61570000  0.37750000  0.06710000  1.0 -0.8295052838
O  O39  1  0.61570000  0.12250000  0.56710000  1.0 -0.8295052838
O  O40  1  0.38430000  0.62250000  0.93290000  1.0 -0.8295052838
O  O41  1  0.59800000  0.35510000  0.56830000  1.0 -0.8115920302
O  O42  1  0.40200000  0.85510000  0.93170000  1.0 -0.8115920302
O  O43  1  0.40200000  0.64490000  0.43170000  1.0 -0.8115920302
O  O44  1  0.59800000  0.14490000  0.06830000  1.0 -0.8115920302
O  O45  1  0.13810000  0.65800000  0.59420000  1.0 -0.8484782081
O  O46  1  0.86190000  0.15800000  0.90580000  1.0 -0.8484782081
O  O47  1  0.86190000  0.34200000  0.40580000  1.0 -0.8484782081
O  O48  1  0.13810000  0.84200000  0.09420000  1.0 -0.8484782081
O  O49  1  0.16400000  0.70690000  0.41420000  1.0 -0.8905963154
O  O50  1  0.83600000  0.20690000  0.08580000  1.0 -0.8905963154
O  O51  1  0.83600000  0.29310000  0.58580000  1.0 -0.8905963154
O  O52  1  0.16400000  0.79310000  0.91420000  1.0 -0.8905963154
O  O53  1  0.13170000  0.54540000  0.51780000  1.0 -0.8210357598
O  O54  1  0.86830000  0.04540000  0.98220000  1.0 -0.8210357598
O  O55  1  0.86830000  0.45460000  0.48220000  1.0 -0.8210357598
O  O56  1  0.13170000  0.95460000  0.01780000  1.0 -0.8210357598
O  O57  1  0.55450000  0.39620000  0.65300000  1.0 -0.7020480121
O  O58  1  0.44550000  0.89620000  0.84700000  1.0 -0.7020480121
O  O59  1  0.44550000  0.60380000  0.34700000  1.0 -0.7020480121
O  O60  1  0.55450000  0.10380000  0.15300000  1.0 -0.7020480121
O  O61  1  0.20270000  0.69940000  0.27130000  1.0 -0.5489000961
O  O62  1  0.79730000  0.19940000  0.22870000  1.0 -0.5591881823
O  O63  1  0.79730000  0.30060000  0.72870000  1.0 -0.5591881823
O  O64  1  0.20270000  0.80060000  0.77130000  1.0 -0.5591881823
O  O65  1  0.13400000  0.79900000  0.33160000  1.0 -0.866897757
O  O66  1  0.86600000  0.29900000  0.16840000  1.0 -0.8645431947
O  O67  1  0.86600000  0.20100000  0.66840000  1.0 -0.8645431947
O  O68  1  0.13400000  0.70100000  0.83160000  1.0 -0.866897757
O  O69  1  0.02430000  0.75600000  0.52790000  1.0 -0.8210357598
O  O70  1  0.97570000  0.25600000  0.97210000  1.0 -0.8210357598
O  O71  1  0.97570000  0.24400000  0.47210000  1.0 -0.8210357598
O  O72  1  0.02430000  0.74400000  0.02790000  1.0 -0.8295052838
O  O73  1  0.21730000  0.89220000  0.51290000  1.0 -0.8210357598
O  O74  1  0.78270000  0.39220000  0.98710000  1.0 -0.8210357598
O  O75  1  0.78270000  0.10780000  0.48710000  1.0 -0.8210357598
O  O76  1  0.21730000  0.60780000  0.01290000  1.0 -0.8210357598
O  O77  1  0.49870000  0.77540000  0.39430000  1.0 -0.5657752406
O  O78  1  0.50130000  0.27540000  0.10570000  1.0 -0.5591881823
O  O79  1  0.50130000  0.22460000  0.60570000  1.0 -0.5657752406
O  O80  1  0.49870000  0.72460000  0.89430000  1.0 -0.5591881823
O  O81  1  0.27670000  0.73040000  0.67160000  1.0 -0.5114993643
O  O82  1  0.72330000  0.23040000  0.82840000  1.0 -0.5114993643
O  O83  1  0.72330000  0.26960000  0.32840000  1.0 -0.5114993643
O  O84  1  0.27670000  0.76960000  0.17160000  1.0 -0.5114993643
O  O85  1  0.49010000  0.76260000  0.49400000  1.0 -0.8210357598
O  O86  1  0.50990000  0.26260000  0.00600000  1.0 -0.8210357598
O  O87  1  0.50990000  0.23740000  0.50600000  1.0 -0.8210357598
O  O88  1  0.49010000  0.73740000  0.99400000  1.0 -0.8210357598
O  O89  1  0.31500000  0.76610000  0.47680000  1.0 -0.8905963154
O  O90  1  0.68500000  0.26610000  0.02320000  1.0 -0.8905963154
O  O91  1  0.68500000  0.23390000  0.52320000  1.0 -0.8905963154
O  O92  1  0.31500000  0.73390000  0.97680000  1.0 -0.8905963154
O  O93  1  0.02050000  0.64940000  0.45360000  1.0 -0.8295052838
O  O94  1  0.97950000  0.14940000  0.04640000  1.0 -0.8295052838
O  O95  1  0.97950000  0.35060000  0.54640000  1.0 -0.8295052838
O  O96  1  0.02050000  0.85060000  0.95360000  1.0 -0.8295052838
O  O97  1  0.42330000  0.65470000  0.54760000  1.0 -0.8210357598
O  O98  1  0.57670000  0.15470000  0.95240000  1.0 -0.8210357598
O  O99  1  0.57670000  0.34530000  0.45240000  1.0 -0.8210357598
O  O100  1  0.42330000  0.84530000  0.04760000  1.0 -0.8295052838
O  O101  1  0.34800000  0.76840000  0.58750000  1.0 -0.8400614942
O  O102  1  0.65200000  0.26840000  0.91250000  1.0 -0.8400614942
O  O103  1  0.65200000  0.23160000  0.41250000  1.0 -0.8400614942
O  O104  1  0.34800000  0.73160000  0.08750000  1.0 -0.8400614942
O  O105  1  0.40540000  0.47720000  0.63650000  1.0 -0.68416291
O  O106  1  0.59460000  0.97720000  0.86350000  1.0 -0.68416291
O  O107  1  0.59460000  0.52280000  0.36350000  1.0 -0.68416291
O  O108  1  0.40540000  0.02280000  0.13650000  1.0 -0.6860610795
O  O109  1  0.18010000  0.81760000  0.59010000  1.0 -0.8295052838
O  O110  1  0.81990000  0.31760000  0.90990000  1.0 -0.8295052838
O  O111  1  0.81990000  0.18240000  0.40990000  1.0 -0.8295052838
O  O112  1  0.18010000  0.68240000  0.09010000  1.0 -0.8400614942
O  O113  1  0.99650000  0.74520000  0.36980000  1.0 -0.8295052838
O  O114  1  0.00350000  0.24520000  0.13020000  1.0 -0.8295052838
O  O115  1  0.00350000  0.25480000  0.63020000  1.0 -0.8295052838
O  O116  1  0.99650000  0.75480000  0.86980000  1.0 -0.8295052838
O  O117  1  0.93720000  0.57800000  0.35840000  1.0 -0.5412441221
O  O118  1  0.06280000  0.07800000  0.14160000  1.0 -0.5412441221
O  O119  1  0.06280000  0.42200000  0.64160000  1.0 -0.5412441221
O  O120  1  0.93720000  0.92200000  0.85840000  1.0 -0.5412441221
O  O121  1  0.19920000  0.88510000  0.41550000  1.0 -0.8210357598
O  O122  1  0.80080000  0.38510000  0.08450000  1.0 -0.8210357598
O  O123  1  0.80080000  0.11490000  0.58450000  1.0 -0.8210357598
O  O124  1  0.19920000  0.61490000  0.91550000  1.0 -0.8210357598
O  O125  1  0.64040000  0.65560000  0.71770000  1.0 -0.7307657477
O  O126  1  0.35960000  0.15560000  0.78230000  1.0 -0.7307657477
O  O127  1  0.35960000  0.34440000  0.28230000  1.0 -0.7307657477
O  O128  1  0.64040000  0.84440000  0.21770000  1.0 -0.7307657477
O  O129  1  0.73350000  0.40020000  0.64580000  1.0 -0.8210357598
O  O130  1  0.26650000  0.90020000  0.85420000  1.0 -0.8210357598
O  O131  1  0.26650000  0.59980000  0.35420000  1.0 -0.8210357598
O  O132  1  0.73350000  0.09980000  0.14580000  1.0 -0.8210357598
O  O133  1  0.32720000  0.50760000  0.53510000  1.0 -0.7760812592
O  O134  1  0.67280000  0.00760000  0.96490000  1.0 -0.7744546485
O  O135  1  0.67280000  0.49240000  0.46490000  1.0 -0.7744546485
O  O136  1  0.32720000  0.99240000  0.03510000  1.0 -0.7760812592
O  O137  1  0.11490000  0.54040000  0.41360000  1.0 -0.8400614942
O  O138  1  0.88510000  0.04040000  0.08640000  1.0 -0.8400614942
O  O139  1  0.88510000  0.45960000  0.58640000  1.0 -0.8400614942
O  O140  1  0.11490000  0.95960000  0.91360000  1.0 -0.8400614942
O  O141  1  0.30710000  0.75200000  0.37020000  1.0 -0.8484782081
O  O142  1  0.69290000  0.25200000  0.12980000  1.0 -0.8484782081
O  O143  1  0.69290000  0.24800000  0.62980000  1.0 -0.8484782081
O  O144  1  0.30710000  0.74800000  0.87020000  1.0 -0.8484782081
O  O145  1  0.96950000  0.59410000  0.53870000  1.0 -0.8115920302
O  O146  1  0.03050000  0.09410000  0.96130000  1.0 -0.8115920302
O  O147  1  0.03050000  0.40590000  0.46130000  1.0 -0.8115920302
O  O148  1  0.96950000  0.90590000  0.03870000  1.0 -0.8115920302
O  O149  1  0.68700000  0.50090000  0.56610000  1.0 -0.7307657477
O  O150  1  0.31300000  0.00090000  0.93390000  1.0 -0.7307657477
O  O151  1  0.31300000  0.49910000  0.43390000  1.0 -0.7307657477
O  O152  1  0.68700000  0.99910000  0.06610000  1.0 -0.7307657477
O  O153  1  0.44360000  0.36980000  0.70620000  1.0 -0.705429569
O  O154  1  0.55640000  0.86980000  0.79380000  1.0 -0.7020480121
O  O155  1  0.55640000  0.63020000  0.29380000  1.0 -0.705429569
O  O156  1  0.44360000  0.13020000  0.20620000  1.0 -0.705429569
O  O157  1  0.40240000  0.88370000  0.52980000  1.0 -0.8295052838
O  O158  1  0.59760000  0.38370000  0.97020000  1.0 -0.8295052838
O  O159  1  0.59760000  0.11630000  0.47020000  1.0 -0.8295052838
O  O160  1  0.40240000  0.61630000  0.02980000  1.0 -0.8295052838
O  O161  1  0.30660000  0.01130000  0.46940000  1.0 -0.5412441221
O  O162  1  0.69340000  0.51130000  0.03060000  1.0 -0.5489000961
O  O163  1  0.69340000  0.98870000  0.53060000  1.0 -0.5412441221
O  O164  1  0.30660000  0.48870000  0.96940000  1.0 -0.5489000961
O  O165  1  0.01470000  0.91200000  0.35650000  1.0 -0.5412441221
O  O166  1  0.98530000  0.41200000  0.14350000  1.0 -0.5489000961
O  O167  1  0.98530000  0.08800000  0.64350000  1.0 -0.5489000961
O  O168  1  0.01470000  0.58800000  0.85650000  1.0 -0.5412441221
O  O169  1  0.47900000  0.55030000  0.74350000  1.0 -0.338845874
O  O170  1  0.52100000  0.05030000  0.75650000  1.0 -0.338845874
O  O171  1  0.52100000  0.44970000  0.25650000  1.0 -0.338845874
O  O172  1  0.47900000  0.94970000  0.24350000  1.0 -0.338845874
O  O173  1  0.16570000  0.28090000  0.47400000  1.0 -0.3875587237
O  O174  1  0.83430000  0.78090000  0.02600000  1.0 -0.3875587237
O  O175  1  0.83430000  0.71910000  0.52600000  1.0 -0.3875587237
O  O176  1  0.16570000  0.21910000  0.97400000  1.0 -0.3992348563
O  O177  1  0.20490000  0.38580000  0.56120000  1.0 -0.2702665043
O  O178  1  0.79510000  0.88580000  0.93880000  1.0 -0.2702665043
O  O179  1  0.79510000  0.61420000  0.43880000  1.0 -0.2773425829
O  O180  1  0.20490000  0.11420000  0.06120000  1.0 -0.2702665043
O  O181  1  0.34260000  0.34720000  0.48900000  1.0 -0.2496141445
O  O182  1  0.65740000  0.84720000  0.01100000  1.0 -0.2496141445
O  O183  1  0.65740000  0.65280000  0.51100000  1.0 -0.2413947832
O  O184  1  0.34260000  0.15280000  0.98900000  1.0 -0.2413947832
O  O185  1  0.16950000  0.37360000  0.38740000  1.0 -0.4984542878
O  O186  1  0.83050000  0.87360000  0.11260000  1.0 -0.4984542878
O  O187  1  0.83050000  0.62640000  0.61260000  1.0 -0.4910064292
O  O188  1  0.16950000  0.12640000  0.88740000  1.0 -0.4984542878
O  O189  1  0.50860000  0.27050000  0.79520000  1.0 -0.1487068262
O  O190  1  0.49140000  0.77050000  0.70480000  1.0 -0.1487068262
O  O191  1  0.49140000  0.72950000  0.20480000  1.0 -0.1487068262
O  O192  1  0.50860000  0.22950000  0.29520000  1.0 -0.1487068262
O  O193  1  0.37390000  0.39730000  0.80370000  1.0 -0.3211230885
O  O194  1  0.62610000  0.89730000  0.69630000  1.0 -0.3211230885
O  O195  1  0.62610000  0.60270000  0.19630000  1.0 -0.3279767733
O  O196  1  0.37390000  0.10270000  0.30370000  1.0 -0.3279767733
O  O197  1  0.21570000  0.20280000  0.68610000  1.0 -0.3739077103
O  O198  1  0.78430000  0.70280000  0.81390000  1.0 -0.3817902457
O  O199  1  0.78430000  0.79720000  0.31390000  1.0 -0.3817902457
O  O200  1  0.21570000  0.29720000  0.18610000  1.0 -0.3817902457
O  O201  1  0.24150000  0.38970000  0.69040000  1.0 -0.3031371784
O  O202  1  0.75850000  0.88970000  0.80960000  1.0 -0.313341279
O  O203  1  0.75850000  0.61030000  0.30960000  1.0 -0.3031371784
O  O204  1  0.24150000  0.11030000  0.19040000  1.0 -0.3031371784
O  O205  1  0.22340000  0.29160000  0.78210000  1.0 -0.4265679669
O  O206  1  0.77660000  0.79160000  0.71790000  1.0 -0.4072064709
O  O207  1  0.77660000  0.70840000  0.21790000  1.0 -0.4072064709
O  O208  1  0.22340000  0.20840000  0.28210000  1.0 -0.4169523966
O  O209  1  0.38200000  0.21120000  0.67340000  1.0 -0.2626671445
O  O210  1  0.61800000  0.71120000  0.82660000  1.0 -0.2702665043
O  O211  1  0.61800000  0.78880000  0.32660000  1.0 -0.2773425829
O  O212  1  0.38200000  0.28880000  0.17340000  1.0 -0.2702665043
O  O213  1  0.44440000  0.17800000  0.69360000  1.0 0.1121038992
O  O214  1  0.55560000  0.67800000  0.80640000  1.0 0.1121038992
O  O215  1  0.55560000  0.82200000  0.30640000  1.0 0.1121038992
O  O216  1  0.44440000  0.32200000  0.19360000  1.0 0.1121038992
