# DDEC6 charges by PACMAN v1.1 (https://github.com/mtap-research/PACMAN-charge/)
data_WAPTEP_FSR_pacman
_symmetry_space_group_name_H-M   'P 1'
_cell_length_a   14.98800000
_cell_length_b   16.10100000
_cell_length_c   27.40400000
_cell_angle_alpha   90.00000000
_cell_angle_beta   105.19800000
_cell_angle_gamma   90.00000000
_symmetry_Int_Tables_number   1
_chemical_formula_structural   Sm2AsP2H4W11(CO27)2
_chemical_formula_sum   'Sm8 As4 P8 H16 W44 C8 O216'
_cell_volume   6381.89050037
_cell_formula_units_Z   4
loop_
 _symmetry_equiv_pos_site_id
 _symmetry_equiv_pos_as_xyz
  1  'x, y, z'
loop_
 _atom_site_type_symbol
 _atom_site_label
 _atom_site_symmetry_multiplicity
 _atom_site_fract_x
 _atom_site_fract_y
 _atom_site_fract_z
 _atom_site_occupancy
 _atom_site_charge
Sm  Sm1  1  0.19790000  0.43487000  0.47406000  1.0 2.3405970105
Sm  Sm2  1  0.80210000  0.93487000  0.02594000  1.0 2.3476586509
Sm  Sm3  1  0.80210000  0.56513000  0.52594000  1.0 2.3405970105
Sm  Sm4  1  0.19790000  0.06513000  0.97406000  1.0 2.3476586509
Sm  Sm5  1  0.34954000  0.28552000  0.74108000  1.0 2.2011119295
Sm  Sm6  1  0.65046000  0.78552000  0.75892000  1.0 2.2011119295
Sm  Sm7  1  0.65046000  0.71448000  0.25892000  1.0 2.2011119295
Sm  Sm8  1  0.34954000  0.21448000  0.24108000  1.0 2.2011119295
As  As1  1  0.24190000  0.67913000  0.47134000  1.0 1.2135884531
As  As2  1  0.75810000  0.17913000  0.02866000  1.0 1.2135884531
As  As3  1  0.75810000  0.32087000  0.52866000  1.0 1.2135884531
As  As4  1  0.24190000  0.82087000  0.97134000  1.0 1.2212668824
P  P1  1  0.47900000  0.43570000  0.67660000  1.0 1.3707129527
P  P2  1  0.52100000  0.93570000  0.82340000  1.0 1.3707129527
P  P3  1  0.52100000  0.56430000  0.32340000  1.0 1.3707129527
P  P4  1  0.47900000  0.06430000  0.17660000  1.0 1.3707129527
P  P5  1  0.58550000  0.59120000  0.68290000  1.0 1.3389384914
P  P6  1  0.41450000  0.09120000  0.81710000  1.0 1.3389384914
P  P7  1  0.41450000  0.40880000  0.31710000  1.0 1.3389384914
P  P8  1  0.58550000  0.90880000  0.18290000  1.0 1.3389384914
H  H1  1  0.50360000  0.59490000  0.75980000  1.0 0.3714940119
H  H2  1  0.49640000  0.09490000  0.74020000  1.0 0.3714940119
H  H3  1  0.49640000  0.40510000  0.24020000  1.0 0.3714940119
H  H4  1  0.50360000  0.90510000  0.25980000  1.0 0.3714940119
H  H5  1  0.65660000  0.45570000  0.74230000  1.0 0.2022482697
H  H6  1  0.34340000  0.95570000  0.75770000  1.0 0.2022482697
H  H7  1  0.34340000  0.54430000  0.25770000  1.0 0.2022482697
H  H8  1  0.65660000  0.04430000  0.24230000  1.0 0.2022482697
H  H9  1  0.59140000  0.44320000  0.77800000  1.0 0.2022482697
H  H10  1  0.40860000  0.94320000  0.72200000  1.0 0.2022482697
H  H11  1  0.40860000  0.55680000  0.22200000  1.0 0.2022482697
H  H12  1  0.59140000  0.05680000  0.27800000  1.0 0.2022482697
H  H13  1  0.64650000  0.52640000  0.77980000  1.0 0.1774204876
H  H14  1  0.35350000  0.02640000  0.72020000  1.0 0.1774204876
H  H15  1  0.35350000  0.47360000  0.22020000  1.0 0.1774204876
H  H16  1  0.64650000  0.97360000  0.27980000  1.0 0.1774204876
W  W1  1  0.43685000  0.77863000  0.54787000  1.0 2.4110286403
W  W2  1  0.56315000  0.27863000  0.95213000  1.0 2.4003040617
W  W3  1  0.56315000  0.22137000  0.45213000  1.0 2.4003040617
W  W4  1  0.43685000  0.72137000  0.04787000  1.0 2.4003040617
W  W5  1  0.24699000  0.72041000  0.60641000  1.0 2.4003040617
W  W6  1  0.75301000  0.22041000  0.89359000  1.0 2.3946619201
W  W7  1  0.75301000  0.27959000  0.39359000  1.0 2.4003040617
W  W8  1  0.24699000  0.77959000  0.10641000  1.0 2.4003040617
W  W9  1  0.41315000  0.76913000  0.42306000  1.0 2.4188932518
W  W10  1  0.58685000  0.26913000  0.07694000  1.0 2.4188932518
W  W11  1  0.58685000  0.23087000  0.57694000  1.0 2.4188932518
W  W12  1  0.41315000  0.73087000  0.92306000  1.0 2.4188932518
W  W13  1  0.06488000  0.63257000  0.52318000  1.0 2.4504196811
W  W14  1  0.93512000  0.13257000  0.97682000  1.0 2.4504196811
W  W15  1  0.93512000  0.36743000  0.47682000  1.0 2.4504196811
W  W16  1  0.06488000  0.86743000  0.02318000  1.0 2.4449591804
W  W17  1  0.09950000  0.84190000  0.52240000  1.0 2.3178706336
W  W18  1  0.90050000  0.34190000  0.97760000  1.0 2.332199471
W  W19  1  0.90050000  0.15810000  0.47760000  1.0 2.332199471
W  W20  1  0.09950000  0.65810000  0.02240000  1.0 2.3405970105
W  W21  1  0.04073000  0.62212000  0.38814000  1.0 2.4003040617
W  W22  1  0.95927000  0.12212000  0.11186000  1.0 2.4110286403
W  W23  1  0.95927000  0.37788000  0.61186000  1.0 2.4110286403
W  W24  1  0.04073000  0.87788000  0.88814000  1.0 2.4110286403
W  W25  1  0.19659000  0.69890000  0.33069000  1.0 2.4110286403
W  W26  1  0.80341000  0.19890000  0.16931000  1.0 2.4188932518
W  W27  1  0.80341000  0.30110000  0.66931000  1.0 2.4188932518
W  W28  1  0.19659000  0.80110000  0.83069000  1.0 2.4188932518
W  W29  1  0.29110000  0.90915000  0.47017000  1.0 2.3178706336
W  W30  1  0.70890000  0.40915000  0.02983000  1.0 2.332199471
W  W31  1  0.70890000  0.09085000  0.52983000  1.0 2.332199471
W  W32  1  0.29110000  0.59085000  0.97017000  1.0 2.3178706336
W  W33  1  0.07616000  0.83213000  0.38383000  1.0 2.2369932103
W  W34  1  0.92384000  0.33213000  0.11617000  1.0 2.2343676257
W  W35  1  0.92384000  0.16787000  0.61617000  1.0 2.2369932103
W  W36  1  0.07616000  0.66787000  0.88383000  1.0 2.2613244224
W  W37  1  0.40529000  0.56206000  0.58034000  1.0 2.4703563023
W  W38  1  0.59471000  0.06206000  0.91966000  1.0 2.4703563023
W  W39  1  0.59471000  0.43794000  0.41966000  1.0 2.4703563023
W  W40  1  0.40529000  0.93794000  0.08034000  1.0 2.4703563023
W  W41  1  0.62845000  0.45176000  0.60439000  1.0 2.4613452125
W  W42  1  0.37155000  0.95176000  0.89561000  1.0 2.4613452125
W  W43  1  0.37155000  0.54824000  0.39561000  1.0 2.4613452125
W  W44  1  0.62845000  0.04824000  0.10439000  1.0 2.4613452125
C  C1  1  0.53800000  0.51800000  0.72000000  1.0 -0.131742714
C  C2  1  0.46200000  0.01800000  0.78000000  1.0 -0.131742714
C  C3  1  0.46200000  0.48200000  0.28000000  1.0 -0.131742714
C  C4  1  0.53800000  0.98200000  0.22000000  1.0 -0.131742714
C  C5  1  0.61500000  0.48300000  0.75830000  1.0 -0.3120669555
C  C6  1  0.38500000  0.98300000  0.74170000  1.0 -0.3120669555
C  C7  1  0.38500000  0.51700000  0.24170000  1.0 -0.3120669555
C  C8  1  0.61500000  0.01700000  0.25830000  1.0 -0.3120669555
O  O1  1  0.31180000  0.62060000  0.60270000  1.0 -0.8207259572
O  O2  1  0.68820000  0.12060000  0.89730000  1.0 -0.8207259572
O  O3  1  0.68820000  0.37940000  0.39730000  1.0 -0.8207259572
O  O4  1  0.31180000  0.87940000  0.10270000  1.0 -0.8207259572
O  O5  1  0.08690000  0.63960000  0.32820000  1.0 -0.8834044767
O  O6  1  0.91310000  0.13960000  0.17180000  1.0 -0.8834044767
O  O7  1  0.91310000  0.36040000  0.67180000  1.0 -0.8894040947
O  O8  1  0.08690000  0.86040000  0.82820000  1.0 -0.8834044767
O  O9  1  0.17810000  0.71680000  0.51520000  1.0 -0.9181869161
O  O10  1  0.82190000  0.21680000  0.98480000  1.0 -0.9181869161
O  O11  1  0.82190000  0.28320000  0.48480000  1.0 -0.9181869161
O  O12  1  0.17810000  0.78320000  0.01520000  1.0 -0.9181869161
O  O13  1  0.49920000  0.62520000  0.64100000  1.0 -0.697497828
O  O14  1  0.50080000  0.12520000  0.85900000  1.0 -0.697497828
O  O15  1  0.50080000  0.37480000  0.35900000  1.0 -0.697497828
O  O16  1  0.49920000  0.87480000  0.14100000  1.0 -0.697497828
O  O17  1  0.06260000  0.84250000  0.45110000  1.0 -0.8417904721
O  O18  1  0.93740000  0.34250000  0.04890000  1.0 -0.8417904721
O  O19  1  0.93740000  0.15750000  0.54890000  1.0 -0.8417904721
O  O20  1  0.06260000  0.65750000  0.95110000  1.0 -0.8417904721
O  O21  1  0.04130000  0.92510000  0.53610000  1.0 -0.4911983045
O  O22  1  0.95870000  0.42510000  0.96390000  1.0 -0.5004673334
O  O23  1  0.95870000  0.07490000  0.46390000  1.0 -0.5004673334
O  O24  1  0.04130000  0.57490000  0.03610000  1.0 -0.5004673334
O  O25  1  0.64850000  0.54150000  0.65730000  1.0 -0.6721003246
O  O26  1  0.35150000  0.04150000  0.84270000  1.0 -0.6721003246
O  O27  1  0.35150000  0.45850000  0.34270000  1.0 -0.6721003246
O  O28  1  0.64850000  0.95850000  0.15730000  1.0 -0.6721003246
O  O29  1  0.51440000  0.50530000  0.57570000  1.0 -0.811948223
O  O30  1  0.48560000  0.00530000  0.92430000  1.0 -0.811948223
O  O31  1  0.48560000  0.49470000  0.42430000  1.0 -0.811948223
O  O32  1  0.51440000  0.99470000  0.07570000  1.0 -0.811948223
O  O33  1  0.53350000  0.79510000  0.59570000  1.0 -0.5205472093
O  O34  1  0.46650000  0.29510000  0.90430000  1.0 -0.5205472093
O  O35  1  0.46650000  0.20490000  0.40430000  1.0 -0.5205472093
O  O36  1  0.53350000  0.70490000  0.09570000  1.0 -0.5205472093
O  O37  1  0.38200000  0.88100000  0.43040000  1.0 -0.8207259572
O  O38  1  0.61800000  0.38100000  0.06960000  1.0 -0.8207259572
O  O39  1  0.61800000  0.11900000  0.56960000  1.0 -0.8207259572
O  O40  1  0.38200000  0.61900000  0.93040000  1.0 -0.8279571013
O  O41  1  0.59620000  0.35240000  0.57060000  1.0 -0.8207259572
O  O42  1  0.40380000  0.85240000  0.92940000  1.0 -0.8207259572
O  O43  1  0.40380000  0.64760000  0.42940000  1.0 -0.8207259572
O  O44  1  0.59620000  0.14760000  0.07060000  1.0 -0.8207259572
O  O45  1  0.13400000  0.65860000  0.59250000  1.0 -0.8603494298
O  O46  1  0.86600000  0.15860000  0.90750000  1.0 -0.8603494298
O  O47  1  0.86600000  0.34140000  0.40750000  1.0 -0.8603494298
O  O48  1  0.13400000  0.84140000  0.09250000  1.0 -0.8603494298
O  O49  1  0.16290000  0.70760000  0.41280000  1.0 -0.8894040947
O  O50  1  0.83710000  0.20760000  0.08720000  1.0 -0.8894040947
O  O51  1  0.83710000  0.29240000  0.58720000  1.0 -0.8894040947
O  O52  1  0.16290000  0.79240000  0.91280000  1.0 -0.8894040947
O  O53  1  0.13120000  0.54620000  0.51530000  1.0 -0.8279571013
O  O54  1  0.86880000  0.04620000  0.98470000  1.0 -0.8279571013
O  O55  1  0.86880000  0.45380000  0.48470000  1.0 -0.8279571013
O  O56  1  0.13120000  0.95380000  0.01530000  1.0 -0.8279571013
O  O57  1  0.55280000  0.39840000  0.65340000  1.0 -0.6910297703
O  O58  1  0.44720000  0.89840000  0.84660000  1.0 -0.6910297703
O  O59  1  0.44720000  0.60160000  0.34660000  1.0 -0.6910297703
O  O60  1  0.55280000  0.10160000  0.15340000  1.0 -0.6910297703
O  O61  1  0.20260000  0.70080000  0.26900000  1.0 -0.5817892533
O  O62  1  0.79740000  0.20080000  0.23100000  1.0 -0.5817892533
O  O63  1  0.79740000  0.29920000  0.73100000  1.0 -0.5817892533
O  O64  1  0.20260000  0.79920000  0.76900000  1.0 -0.5817892533
O  O65  1  0.12930000  0.80170000  0.33020000  1.0 -0.8603494298
O  O66  1  0.87070000  0.30170000  0.16980000  1.0 -0.8603494298
O  O67  1  0.87070000  0.19830000  0.66980000  1.0 -0.8603494298
O  O68  1  0.12930000  0.69830000  0.83020000  1.0 -0.8603494298
O  O69  1  0.02240000  0.75520000  0.52750000  1.0 -0.8279571013
O  O70  1  0.97760000  0.25520000  0.97250000  1.0 -0.8279571013
O  O71  1  0.97760000  0.24480000  0.47250000  1.0 -0.8279571013
O  O72  1  0.02240000  0.74480000  0.02750000  1.0 -0.8279571013
O  O73  1  0.21540000  0.89550000  0.51040000  1.0 -0.7916239184
O  O74  1  0.78460000  0.39550000  0.98960000  1.0 -0.7916239184
O  O75  1  0.78460000  0.10450000  0.48960000  1.0 -0.7916239184
O  O76  1  0.21540000  0.60450000  0.01040000  1.0 -0.7916239184
O  O77  1  0.49660000  0.77740000  0.39200000  1.0 -0.5416854304
O  O78  1  0.50340000  0.27740000  0.10800000  1.0 -0.5416854304
O  O79  1  0.50340000  0.22260000  0.60800000  1.0 -0.5416854304
O  O80  1  0.49660000  0.72260000  0.89200000  1.0 -0.5416854304
O  O81  1  0.27690000  0.73250000  0.66910000  1.0 -0.4911983045
O  O82  1  0.72310000  0.23250000  0.83090000  1.0 -0.4911983045
O  O83  1  0.72310000  0.26750000  0.33090000  1.0 -0.5004673334
O  O84  1  0.27690000  0.76750000  0.16910000  1.0 -0.4911983045
O  O85  1  0.48810000  0.76650000  0.49100000  1.0 -0.811948223
O  O86  1  0.51190000  0.26650000  0.00900000  1.0 -0.811948223
O  O87  1  0.51190000  0.23350000  0.50900000  1.0 -0.811948223
O  O88  1  0.48810000  0.73350000  0.99100000  1.0 -0.811948223
O  O89  1  0.31390000  0.76790000  0.47370000  1.0 -0.8894040947
O  O90  1  0.68610000  0.26790000  0.02630000  1.0 -0.8894040947
O  O91  1  0.68610000  0.23210000  0.52630000  1.0 -0.8894040947
O  O92  1  0.31390000  0.73210000  0.97370000  1.0 -0.8894040947
O  O93  1  0.02130000  0.64650000  0.45190000  1.0 -0.8207259572
O  O94  1  0.97870000  0.14650000  0.04810000  1.0 -0.8279571013
O  O95  1  0.97870000  0.35350000  0.54810000  1.0 -0.8279571013
O  O96  1  0.02130000  0.85350000  0.95190000  1.0 -0.8279571013
O  O97  1  0.42380000  0.65470000  0.54660000  1.0 -0.799950419
O  O98  1  0.57620000  0.15470000  0.95340000  1.0 -0.799950419
O  O99  1  0.57620000  0.34530000  0.45340000  1.0 -0.799950419
O  O100  1  0.42380000  0.84530000  0.04660000  1.0 -0.799950419
O  O101  1  0.34620000  0.77150000  0.58470000  1.0 -0.8417904721
O  O102  1  0.65380000  0.27150000  0.91530000  1.0 -0.8417904721
O  O103  1  0.65380000  0.22850000  0.41530000  1.0 -0.8417904721
O  O104  1  0.34620000  0.72850000  0.08470000  1.0 -0.8417904721
O  O105  1  0.40400000  0.48100000  0.63500000  1.0 -0.6761161716
O  O106  1  0.59600000  0.98100000  0.86500000  1.0 -0.6761161716
O  O107  1  0.59600000  0.51900000  0.36500000  1.0 -0.6721003246
O  O108  1  0.40400000  0.01900000  0.13500000  1.0 -0.6761161716
O  O109  1  0.17990000  0.81940000  0.58850000  1.0 -0.8207259572
O  O110  1  0.82010000  0.31940000  0.91150000  1.0 -0.8207259572
O  O111  1  0.82010000  0.18060000  0.41150000  1.0 -0.8207259572
O  O112  1  0.17990000  0.68060000  0.08850000  1.0 -0.8207259572
O  O113  1  0.99550000  0.74620000  0.36900000  1.0 -0.799950419
O  O114  1  0.00450000  0.24620000  0.13100000  1.0 -0.799950419
O  O115  1  0.00450000  0.25380000  0.63100000  1.0 -0.799950419
O  O116  1  0.99550000  0.75380000  0.86900000  1.0 -0.799950419
O  O117  1  0.93490000  0.57480000  0.35590000  1.0 -0.599303959
O  O118  1  0.06510000  0.07480000  0.14410000  1.0 -0.599303959
O  O119  1  0.06510000  0.42520000  0.64410000  1.0 -0.599303959
O  O120  1  0.93490000  0.92520000  0.85590000  1.0 -0.599303959
O  O121  1  0.19590000  0.88850000  0.41260000  1.0 -0.8279571013
O  O122  1  0.80410000  0.38850000  0.08740000  1.0 -0.8279571013
O  O123  1  0.80410000  0.11150000  0.58740000  1.0 -0.8279571013
O  O124  1  0.19590000  0.61150000  0.91260000  1.0 -0.8279571013
O  O125  1  0.64100000  0.66160000  0.71670000  1.0 -0.753607912
O  O126  1  0.35900000  0.16160000  0.78330000  1.0 -0.753607912
O  O127  1  0.35900000  0.33840000  0.28330000  1.0 -0.7555975151
O  O128  1  0.64100000  0.83840000  0.21670000  1.0 -0.753607912
O  O129  1  0.73280000  0.39930000  0.64880000  1.0 -0.8279571013
O  O130  1  0.26720000  0.89930000  0.85120000  1.0 -0.8279571013
O  O131  1  0.26720000  0.60070000  0.35120000  1.0 -0.8279571013
O  O132  1  0.73280000  0.10070000  0.14880000  1.0 -0.8279571013
O  O133  1  0.32700000  0.50860000  0.53230000  1.0 -0.7916239184
O  O134  1  0.67300000  0.00860000  0.96770000  1.0 -0.7916239184
O  O135  1  0.67300000  0.49140000  0.46770000  1.0 -0.7916239184
O  O136  1  0.32700000  0.99140000  0.03230000  1.0 -0.7916239184
O  O137  1  0.11340000  0.54020000  0.41400000  1.0 -0.8207259572
O  O138  1  0.88660000  0.04020000  0.08600000  1.0 -0.8279571013
O  O139  1  0.88660000  0.45980000  0.58600000  1.0 -0.8279571013
O  O140  1  0.11340000  0.95980000  0.91400000  1.0 -0.8279571013
O  O141  1  0.30320000  0.75330000  0.36680000  1.0 -0.8417904721
O  O142  1  0.69680000  0.25330000  0.13320000  1.0 -0.8417904721
O  O143  1  0.69680000  0.24670000  0.63320000  1.0 -0.8417904721
O  O144  1  0.30320000  0.74670000  0.86680000  1.0 -0.8417904721
O  O145  1  0.96760000  0.59180000  0.53860000  1.0 -0.8279571013
O  O146  1  0.03240000  0.09180000  0.96140000  1.0 -0.8279571013
O  O147  1  0.03240000  0.40820000  0.46140000  1.0 -0.8279571013
O  O148  1  0.96760000  0.90820000  0.03860000  1.0 -0.8279571013
O  O149  1  0.68790000  0.50170000  0.56620000  1.0 -0.7756938916
O  O150  1  0.31210000  0.00170000  0.93380000  1.0 -0.7756938916
O  O151  1  0.31210000  0.49830000  0.43380000  1.0 -0.7756938916
O  O152  1  0.68790000  0.99830000  0.06620000  1.0 -0.7756938916
O  O153  1  0.43980000  0.37120000  0.70600000  1.0 -0.7120310199
O  O154  1  0.56020000  0.87120000  0.79400000  1.0 -0.7120310199
O  O155  1  0.56020000  0.62880000  0.29400000  1.0 -0.7120310199
O  O156  1  0.43980000  0.12880000  0.20600000  1.0 -0.7120310199
O  O157  1  0.40380000  0.88990000  0.52830000  1.0 -0.8417904721
O  O158  1  0.59620000  0.38990000  0.97170000  1.0 -0.8417904721
O  O159  1  0.59620000  0.11010000  0.47170000  1.0 -0.8465722632
O  O160  1  0.40380000  0.61010000  0.02830000  1.0 -0.8465722632
O  O161  1  0.30170000  0.01490000  0.46790000  1.0 -0.5488100034
O  O162  1  0.69830000  0.51490000  0.03210000  1.0 -0.5488100034
O  O163  1  0.69830000  0.98510000  0.53210000  1.0 -0.5488100034
O  O164  1  0.30170000  0.48510000  0.96790000  1.0 -0.5488100034
O  O165  1  0.01340000  0.91280000  0.35540000  1.0 -0.5004673334
O  O166  1  0.98660000  0.41280000  0.14460000  1.0 -0.5058747363
O  O167  1  0.98660000  0.08720000  0.64460000  1.0 -0.5058747363
O  O168  1  0.01340000  0.58720000  0.85540000  1.0 -0.5004673334
O  O169  1  0.47700000  0.55700000  0.74170000  1.0 -0.3272013423
O  O170  1  0.52300000  0.05700000  0.75830000  1.0 -0.3272013423
O  O171  1  0.52300000  0.44300000  0.25830000  1.0 -0.3272013423
O  O172  1  0.47700000  0.94300000  0.24170000  1.0 -0.3272013423
O  O173  1  0.16750000  0.28400000  0.47380000  1.0 -0.3509776127
O  O174  1  0.83250000  0.78400000  0.02620000  1.0 -0.3612388354
O  O175  1  0.83250000  0.71600000  0.52620000  1.0 -0.3509776127
O  O176  1  0.16750000  0.21600000  0.97380000  1.0 -0.3612388354
O  O177  1  0.21030000  0.38500000  0.56060000  1.0 -0.3509776127
O  O178  1  0.78970000  0.88500000  0.93940000  1.0 -0.3509776127
O  O179  1  0.78970000  0.61500000  0.43940000  1.0 -0.3509776127
O  O180  1  0.21030000  0.11500000  0.06060000  1.0 -0.3509776127
O  O181  1  0.34500000  0.34940000  0.48700000  1.0 -0.2350488436
O  O182  1  0.65500000  0.84940000  0.01300000  1.0 -0.2289345842
O  O183  1  0.65500000  0.65060000  0.51300000  1.0 -0.2289345842
O  O184  1  0.34500000  0.15060000  0.98700000  1.0 -0.2249284816
O  O185  1  0.17040000  0.37360000  0.38860000  1.0 -0.4803416711
O  O186  1  0.82960000  0.87360000  0.11140000  1.0 -0.4911983045
O  O187  1  0.82960000  0.62640000  0.61140000  1.0 -0.4803416711
O  O188  1  0.17040000  0.12640000  0.88860000  1.0 -0.4911983045
O  O189  1  0.50650000  0.27850000  0.79920000  1.0 -0.1612876412
O  O190  1  0.49350000  0.77850000  0.70080000  1.0 -0.1612876412
O  O191  1  0.49350000  0.72150000  0.20080000  1.0 -0.1612876412
O  O192  1  0.50650000  0.22150000  0.29920000  1.0 -0.1612876412
O  O193  1  0.36700000  0.39800000  0.80530000  1.0 -0.3700602484
O  O194  1  0.63300000  0.89800000  0.69470000  1.0 -0.3700602484
O  O195  1  0.63300000  0.60200000  0.19470000  1.0 -0.3700602484
O  O196  1  0.36700000  0.10200000  0.30530000  1.0 -0.3700602484
O  O197  1  0.21600000  0.21300000  0.69210000  1.0 -0.4803416711
O  O198  1  0.78400000  0.71300000  0.80790000  1.0 -0.4803416711
O  O199  1  0.78400000  0.78700000  0.30790000  1.0 -0.4707850349
O  O200  1  0.21600000  0.28700000  0.19210000  1.0 -0.4707850349
O  O201  1  0.24300000  0.38900000  0.69290000  1.0 -0.2884543519
O  O202  1  0.75700000  0.88900000  0.80710000  1.0 -0.2824540567
O  O203  1  0.75700000  0.61100000  0.30710000  1.0 -0.2824540567
O  O204  1  0.24300000  0.11100000  0.19290000  1.0 -0.2884543519
O  O205  1  0.22200000  0.29600000  0.78770000  1.0 -0.3193749767
O  O206  1  0.77800000  0.79600000  0.71230000  1.0 -0.3193749767
O  O207  1  0.77800000  0.70400000  0.21230000  1.0 -0.3193749767
O  O208  1  0.22200000  0.20400000  0.28770000  1.0 -0.3193749767
O  O209  1  0.38600000  0.20900000  0.68000000  1.0 -0.258281691
O  O210  1  0.61400000  0.70900000  0.82000000  1.0 -0.258281691
O  O211  1  0.61400000  0.79100000  0.32000000  1.0 -0.258281691
O  O212  1  0.38600000  0.29100000  0.18000000  1.0 -0.258281691
O  O213  1  0.45200000  0.19100000  0.69800000  1.0 0.1354321483
O  O214  1  0.54800000  0.69100000  0.80200000  1.0 0.1347702387
O  O215  1  0.54800000  0.80900000  0.30200000  1.0 0.1354321483
O  O216  1  0.45200000  0.30900000  0.19800000  1.0 0.1347702387
