# DDEC6 charges by PACMAN v1.1 (https://github.com/mtap-research/PACMAN-charge/)
data_WAPTIT_FSR_pacman
_symmetry_space_group_name_H-M   'P 1'
_cell_length_a   14.93470000
_cell_length_b   16.02480000
_cell_length_c   27.30000000
_cell_angle_alpha   90.00000000
_cell_angle_beta   105.06500000
_cell_angle_gamma   90.00000000
_symmetry_Int_Tables_number   1
_chemical_formula_structural   Eu2AsP2H4W11(CO27)2
_chemical_formula_sum   'Eu8 As4 P8 H16 W44 C8 O216'
_cell_volume   6309.03926616
_cell_formula_units_Z   4
loop_
 _symmetry_equiv_pos_site_id
 _symmetry_equiv_pos_as_xyz
  1  'x, y, z'
loop_
 _atom_site_type_symbol
 _atom_site_label
 _atom_site_symmetry_multiplicity
 _atom_site_fract_x
 _atom_site_fract_y
 _atom_site_fract_z
 _atom_site_occupancy
 _atom_site_charge
Eu  Eu1  1  0.19817000  0.43529000  0.47401000  1.0 2.3179005601
Eu  Eu2  1  0.80183000  0.93529000  0.02599000  1.0 2.3179005601
Eu  Eu3  1  0.80183000  0.56471000  0.52599000  1.0 2.3179005601
Eu  Eu4  1  0.19817000  0.06471000  0.97401000  1.0 2.3179005601
Eu  Eu5  1  0.34969000  0.28610000  0.74173000  1.0 2.1823710718
Eu  Eu6  1  0.65031000  0.78610000  0.75827000  1.0 2.1823710718
Eu  Eu7  1  0.65031000  0.71390000  0.25827000  1.0 2.1823710718
Eu  Eu8  1  0.34969000  0.21390000  0.24173000  1.0 2.1823710718
As  As1  1  0.24133000  0.67963000  0.47103000  1.0 1.1888554611
As  As2  1  0.75867000  0.17963000  0.02897000  1.0 1.1888554611
As  As3  1  0.75867000  0.32037000  0.52897000  1.0 1.1888554611
As  As4  1  0.24133000  0.82037000  0.97103000  1.0 1.1888554611
P  P1  1  0.47780000  0.43520000  0.67646000  1.0 1.3791718402
P  P2  1  0.52220000  0.93520000  0.82354000  1.0 1.3791718402
P  P3  1  0.52220000  0.56480000  0.32354000  1.0 1.3791718402
P  P4  1  0.47780000  0.06480000  0.17646000  1.0 1.3791718402
P  P5  1  0.58420000  0.59210000  0.68246000  1.0 1.3511856117
P  P6  1  0.41580000  0.09210000  0.81754000  1.0 1.3511856117
P  P7  1  0.41580000  0.40790000  0.31754000  1.0 1.3511856117
P  P8  1  0.58420000  0.90790000  0.18246000  1.0 1.3511856117
H  H1  1  0.49950000  0.59600000  0.76090000  1.0 0.3817274341
H  H2  1  0.50050000  0.09600000  0.73910000  1.0 0.3817274341
H  H3  1  0.50050000  0.40400000  0.23910000  1.0 0.3817274341
H  H4  1  0.49950000  0.90400000  0.26090000  1.0 0.3817274341
H  H5  1  0.65780000  0.45370000  0.74010000  1.0 0.200179457
H  H6  1  0.34220000  0.95370000  0.75990000  1.0 0.200179457
H  H7  1  0.34220000  0.54630000  0.25990000  1.0 0.200179457
H  H8  1  0.65780000  0.04630000  0.24010000  1.0 0.200179457
H  H9  1  0.59180000  0.43700000  0.77530000  1.0 0.200179457
H  H10  1  0.40820000  0.93700000  0.72470000  1.0 0.200179457
H  H11  1  0.40820000  0.56300000  0.22470000  1.0 0.200179457
H  H12  1  0.59180000  0.06300000  0.27530000  1.0 0.200179457
H  H13  1  0.64860000  0.52030000  0.78060000  1.0 0.1816386797
H  H14  1  0.35140000  0.02030000  0.71940000  1.0 0.1816386797
H  H15  1  0.35140000  0.47970000  0.21940000  1.0 0.1816386797
H  H16  1  0.64860000  0.97970000  0.28060000  1.0 0.1816386797
W  W1  1  0.43637000  0.77956000  0.54730000  1.0 2.4065847316
W  W2  1  0.56363000  0.27956000  0.95270000  1.0 2.4065847316
W  W3  1  0.56363000  0.22044000  0.45270000  1.0 2.4065847316
W  W4  1  0.43637000  0.72044000  0.04730000  1.0 2.4065847316
W  W5  1  0.24652000  0.72083000  0.60623000  1.0 2.4324356832
W  W6  1  0.75348000  0.22083000  0.89377000  1.0 2.4324356832
W  W7  1  0.75348000  0.27917000  0.39377000  1.0 2.4324356832
W  W8  1  0.24652000  0.77917000  0.10623000  1.0 2.4324356832
W  W9  1  0.41300000  0.76997000  0.42245000  1.0 2.4004755833
W  W10  1  0.58700000  0.26997000  0.07755000  1.0 2.4004755833
W  W11  1  0.58700000  0.23003000  0.57755000  1.0 2.4004755833
W  W12  1  0.41300000  0.73003000  0.92245000  1.0 2.4004755833
W  W13  1  0.06467000  0.63232000  0.52313000  1.0 2.4565335232
W  W14  1  0.93533000  0.13232000  0.97687000  1.0 2.4565335232
W  W15  1  0.93533000  0.36768000  0.47687000  1.0 2.4565335232
W  W16  1  0.06467000  0.86768000  0.02313000  1.0 2.4565335232
W  W17  1  0.09859000  0.84228000  0.52227000  1.0 2.3179005601
W  W18  1  0.90141000  0.34228000  0.97773000  1.0 2.3179005601
W  W19  1  0.90141000  0.15772000  0.47773000  1.0 2.3179005601
W  W20  1  0.09859000  0.65772000  0.02227000  1.0 2.3179005601
W  W21  1  0.04060000  0.62175000  0.38821000  1.0 2.3870662966
W  W22  1  0.95940000  0.12175000  0.11179000  1.0 2.3870662966
W  W23  1  0.95940000  0.37825000  0.61179000  1.0 2.3870662966
W  W24  1  0.04060000  0.87825000  0.88821000  1.0 2.3870662966
W  W25  1  0.19631000  0.69905000  0.33043000  1.0 2.4004755833
W  W26  1  0.80369000  0.19905000  0.16957000  1.0 2.4004755833
W  W27  1  0.80369000  0.30095000  0.66957000  1.0 2.4004755833
W  W28  1  0.19631000  0.80095000  0.83043000  1.0 2.4004755833
W  W29  1  0.29042000  0.91013000  0.46969000  1.0 2.3774685778
W  W30  1  0.70958000  0.41013000  0.03031000  1.0 2.3774685778
W  W31  1  0.70958000  0.08987000  0.53031000  1.0 2.3774685778
W  W32  1  0.29042000  0.58987000  0.96969000  1.0 2.3774685778
W  W33  1  0.07512000  0.83232000  0.38365000  1.0 2.2689841308
W  W34  1  0.92488000  0.33232000  0.11635000  1.0 2.2689841308
W  W35  1  0.92488000  0.16768000  0.61635000  1.0 2.2689841308
W  W36  1  0.07512000  0.66768000  0.88365000  1.0 2.2689841308
W  W37  1  0.40510000  0.56265000  0.57990000  1.0 2.474249176
W  W38  1  0.59490000  0.06265000  0.92010000  1.0 2.474249176
W  W39  1  0.59490000  0.43735000  0.42010000  1.0 2.474249176
W  W40  1  0.40510000  0.93735000  0.07990000  1.0 2.474249176
W  W41  1  0.62869000  0.45155000  0.60463000  1.0 2.4544004717
W  W42  1  0.37131000  0.95155000  0.89537000  1.0 2.4544004717
W  W43  1  0.37131000  0.54845000  0.39537000  1.0 2.4565335232
W  W44  1  0.62869000  0.04845000  0.10463000  1.0 2.4565335232
C  C1  1  0.54060000  0.51810000  0.72030000  1.0 -0.1438047371
C  C2  1  0.45940000  0.01810000  0.77970000  1.0 -0.1438047371
C  C3  1  0.45940000  0.48190000  0.27970000  1.0 -0.1438047371
C  C4  1  0.54060000  0.98190000  0.22030000  1.0 -0.1438047371
C  C5  1  0.61600000  0.47900000  0.75720000  1.0 -0.3131707647
C  C6  1  0.38400000  0.97900000  0.74280000  1.0 -0.3131707647
C  C7  1  0.38400000  0.52100000  0.24280000  1.0 -0.3131707647
C  C8  1  0.61600000  0.02100000  0.25720000  1.0 -0.3131707647
O  O1  1  0.31150000  0.61910000  0.60250000  1.0 -0.8208048166
O  O2  1  0.68850000  0.11910000  0.89750000  1.0 -0.8208048166
O  O3  1  0.68850000  0.38090000  0.39750000  1.0 -0.8208048166
O  O4  1  0.31150000  0.88090000  0.10250000  1.0 -0.8208048166
O  O5  1  0.08960000  0.63690000  0.32750000  1.0 -0.8587409712
O  O6  1  0.91040000  0.13690000  0.17250000  1.0 -0.8587409712
O  O7  1  0.91040000  0.36310000  0.67250000  1.0 -0.8587409712
O  O8  1  0.08960000  0.86310000  0.82750000  1.0 -0.8587409712
O  O9  1  0.17870000  0.71660000  0.51490000  1.0 -0.9116262427
O  O10  1  0.82130000  0.21660000  0.98510000  1.0 -0.9116262427
O  O11  1  0.82130000  0.28340000  0.48510000  1.0 -0.9116262427
O  O12  1  0.17870000  0.78340000  0.01490000  1.0 -0.9116262427
O  O13  1  0.49910000  0.62560000  0.64220000  1.0 -0.700834794
O  O14  1  0.50090000  0.12560000  0.85780000  1.0 -0.700834794
O  O15  1  0.50090000  0.37440000  0.35780000  1.0 -0.700834794
O  O16  1  0.49910000  0.87440000  0.14220000  1.0 -0.700834794
O  O17  1  0.06080000  0.84210000  0.45050000  1.0 -0.8385371945
O  O18  1  0.93920000  0.34210000  0.04950000  1.0 -0.8385371945
O  O19  1  0.93920000  0.15790000  0.54950000  1.0 -0.8385371945
O  O20  1  0.06080000  0.65790000  0.95050000  1.0 -0.8385371945
O  O21  1  0.04040000  0.92780000  0.53520000  1.0 -0.5076039366
O  O22  1  0.95960000  0.42780000  0.96480000  1.0 -0.5076039366
O  O23  1  0.95960000  0.07220000  0.46480000  1.0 -0.5076039366
O  O24  1  0.04040000  0.57220000  0.03520000  1.0 -0.5076039366
O  O25  1  0.64870000  0.54310000  0.65730000  1.0 -0.671579764
O  O26  1  0.35130000  0.04310000  0.84270000  1.0 -0.671579764
O  O27  1  0.35130000  0.45690000  0.34270000  1.0 -0.671579764
O  O28  1  0.64870000  0.95690000  0.15730000  1.0 -0.671579764
O  O29  1  0.51480000  0.50590000  0.57490000  1.0 -0.8208048166
O  O30  1  0.48520000  0.00590000  0.92510000  1.0 -0.8208048166
O  O31  1  0.48520000  0.49410000  0.42510000  1.0 -0.8208048166
O  O32  1  0.51480000  0.99410000  0.07490000  1.0 -0.8208048166
O  O33  1  0.53550000  0.79550000  0.59380000  1.0 -0.5213653229
O  O34  1  0.46450000  0.29550000  0.90620000  1.0 -0.5213653229
O  O35  1  0.46450000  0.20450000  0.40620000  1.0 -0.5213653229
O  O36  1  0.53550000  0.70450000  0.09380000  1.0 -0.5213653229
O  O37  1  0.38290000  0.88130000  0.42980000  1.0 -0.8146715246
O  O38  1  0.61710000  0.38130000  0.07020000  1.0 -0.8146715246
O  O39  1  0.61710000  0.11870000  0.57020000  1.0 -0.8146715246
O  O40  1  0.38290000  0.61870000  0.92980000  1.0 -0.8146715246
O  O41  1  0.59830000  0.35090000  0.57120000  1.0 -0.8208048166
O  O42  1  0.40170000  0.85090000  0.92880000  1.0 -0.8146715246
O  O43  1  0.40170000  0.64910000  0.42880000  1.0 -0.8208048166
O  O44  1  0.59830000  0.14910000  0.07120000  1.0 -0.8208048166
O  O45  1  0.13560000  0.65820000  0.59340000  1.0 -0.8587409712
O  O46  1  0.86440000  0.15820000  0.90660000  1.0 -0.8587409712
O  O47  1  0.86440000  0.34180000  0.40660000  1.0 -0.8587409712
O  O48  1  0.13560000  0.84180000  0.09340000  1.0 -0.8587409712
O  O49  1  0.16180000  0.70770000  0.41250000  1.0 -0.8893318481
O  O50  1  0.83820000  0.20770000  0.08750000  1.0 -0.8893318481
O  O51  1  0.83820000  0.29230000  0.58750000  1.0 -0.8893318481
O  O52  1  0.16180000  0.79230000  0.91250000  1.0 -0.8893318481
O  O53  1  0.13110000  0.54620000  0.51600000  1.0 -0.8208048166
O  O54  1  0.86890000  0.04620000  0.98400000  1.0 -0.8208048166
O  O55  1  0.86890000  0.45380000  0.48400000  1.0 -0.8208048166
O  O56  1  0.13110000  0.95380000  0.01600000  1.0 -0.8208048166
O  O57  1  0.55130000  0.39600000  0.65400000  1.0 -0.700834794
O  O58  1  0.44870000  0.89600000  0.84600000  1.0 -0.700834794
O  O59  1  0.44870000  0.60400000  0.34600000  1.0 -0.700834794
O  O60  1  0.55130000  0.10400000  0.15400000  1.0 -0.700834794
O  O61  1  0.20080000  0.70230000  0.26850000  1.0 -0.5623370938
O  O62  1  0.79920000  0.20230000  0.23150000  1.0 -0.5623370938
O  O63  1  0.79920000  0.29770000  0.73150000  1.0 -0.5623370938
O  O64  1  0.20080000  0.79770000  0.76850000  1.0 -0.5623370938
O  O65  1  0.13030000  0.80000000  0.33040000  1.0 -0.8469944677
O  O66  1  0.86970000  0.30000000  0.16960000  1.0 -0.8469944677
O  O67  1  0.86970000  0.20000000  0.66960000  1.0 -0.8469944677
O  O68  1  0.13030000  0.70000000  0.83040000  1.0 -0.8469944677
O  O69  1  0.02110000  0.75730000  0.52740000  1.0 -0.8146715246
O  O70  1  0.97890000  0.25730000  0.97260000  1.0 -0.8146715246
O  O71  1  0.97890000  0.24270000  0.47260000  1.0 -0.8146715246
O  O72  1  0.02110000  0.74270000  0.02740000  1.0 -0.8146715246
O  O73  1  0.21140000  0.89540000  0.51100000  1.0 -0.8293784044
O  O74  1  0.78860000  0.39540000  0.98900000  1.0 -0.8293784044
O  O75  1  0.78860000  0.10460000  0.48900000  1.0 -0.8293784044
O  O76  1  0.21140000  0.60460000  0.01100000  1.0 -0.8293784044
O  O77  1  0.49820000  0.77850000  0.39220000  1.0 -0.5213653229
O  O78  1  0.50180000  0.27850000  0.10780000  1.0 -0.5213653229
O  O79  1  0.50180000  0.22150000  0.60780000  1.0 -0.5213653229
O  O80  1  0.49820000  0.72150000  0.89220000  1.0 -0.5213653229
O  O81  1  0.27540000  0.73290000  0.67040000  1.0 -0.5213653229
O  O82  1  0.72460000  0.23290000  0.82960000  1.0 -0.5213653229
O  O83  1  0.72460000  0.26710000  0.32960000  1.0 -0.5213653229
O  O84  1  0.27540000  0.76710000  0.17040000  1.0 -0.5213653229
O  O85  1  0.48900000  0.76670000  0.48960000  1.0 -0.8002964191
O  O86  1  0.51100000  0.26670000  0.01040000  1.0 -0.8002964191
O  O87  1  0.51100000  0.23330000  0.51040000  1.0 -0.8002964191
O  O88  1  0.48900000  0.73330000  0.98960000  1.0 -0.8002964191
O  O89  1  0.31350000  0.76950000  0.47430000  1.0 -0.8893318481
O  O90  1  0.68650000  0.26950000  0.02570000  1.0 -0.8893318481
O  O91  1  0.68650000  0.23050000  0.52570000  1.0 -0.8893318481
O  O92  1  0.31350000  0.73050000  0.97430000  1.0 -0.8893318481
O  O93  1  0.01800000  0.64880000  0.45240000  1.0 -0.8293784044
O  O94  1  0.98200000  0.14880000  0.04760000  1.0 -0.8293784044
O  O95  1  0.98200000  0.35120000  0.54760000  1.0 -0.8293784044
O  O96  1  0.01800000  0.85120000  0.95240000  1.0 -0.8293784044
O  O97  1  0.42440000  0.65710000  0.54510000  1.0 -0.8208048166
O  O98  1  0.57560000  0.15710000  0.95490000  1.0 -0.8208048166
O  O99  1  0.57560000  0.34290000  0.45490000  1.0 -0.8208048166
O  O100  1  0.42440000  0.84290000  0.04510000  1.0 -0.8208048166
O  O101  1  0.34590000  0.77230000  0.58470000  1.0 -0.8385371945
O  O102  1  0.65410000  0.27230000  0.91530000  1.0 -0.8385371945
O  O103  1  0.65410000  0.22770000  0.41530000  1.0 -0.8385371945
O  O104  1  0.34590000  0.72770000  0.08470000  1.0 -0.8385371945
O  O105  1  0.40170000  0.48000000  0.63540000  1.0 -0.671579764
O  O106  1  0.59830000  0.98000000  0.86460000  1.0 -0.671579764
O  O107  1  0.59830000  0.52000000  0.36460000  1.0 -0.671579764
O  O108  1  0.40170000  0.02000000  0.13540000  1.0 -0.671579764
O  O109  1  0.17760000  0.82120000  0.58840000  1.0 -0.8293784044
O  O110  1  0.82240000  0.32120000  0.91160000  1.0 -0.8293784044
O  O111  1  0.82240000  0.17880000  0.41160000  1.0 -0.8293784044
O  O112  1  0.17760000  0.67880000  0.08840000  1.0 -0.8293784044
O  O113  1  0.99470000  0.74590000  0.36960000  1.0 -0.8002964191
O  O114  1  0.00530000  0.24590000  0.13040000  1.0 -0.8002964191
O  O115  1  0.00530000  0.25410000  0.63040000  1.0 -0.8002964191
O  O116  1  0.99470000  0.75410000  0.86960000  1.0 -0.8002964191
O  O117  1  0.93740000  0.57430000  0.35770000  1.0 -0.5331345679
O  O118  1  0.06260000  0.07430000  0.14230000  1.0 -0.5392304939
O  O119  1  0.06260000  0.42570000  0.64230000  1.0 -0.5392304939
O  O120  1  0.93740000  0.92570000  0.85770000  1.0 -0.5331345679
O  O121  1  0.19480000  0.88780000  0.41260000  1.0 -0.8293784044
O  O122  1  0.80520000  0.38780000  0.08740000  1.0 -0.8293784044
O  O123  1  0.80520000  0.11220000  0.58740000  1.0 -0.8293784044
O  O124  1  0.19480000  0.61220000  0.91260000  1.0 -0.8293784044
O  O125  1  0.63720000  0.65860000  0.71630000  1.0 -0.7274942927
O  O126  1  0.36280000  0.15860000  0.78370000  1.0 -0.7274942927
O  O127  1  0.36280000  0.34140000  0.28370000  1.0 -0.7274942927
O  O128  1  0.63720000  0.84140000  0.21630000  1.0 -0.7274942927
O  O129  1  0.73320000  0.40040000  0.64830000  1.0 -0.8208048166
O  O130  1  0.26680000  0.90040000  0.85170000  1.0 -0.8208048166
O  O131  1  0.26680000  0.59960000  0.35170000  1.0 -0.8208048166
O  O132  1  0.73320000  0.09960000  0.14830000  1.0 -0.8208048166
O  O133  1  0.32790000  0.50800000  0.53320000  1.0 -0.7489007494
O  O134  1  0.67210000  0.00800000  0.96680000  1.0 -0.7489007494
O  O135  1  0.67210000  0.49200000  0.46680000  1.0 -0.7489007494
O  O136  1  0.32790000  0.99200000  0.03320000  1.0 -0.7489007494
O  O137  1  0.11420000  0.54050000  0.41260000  1.0 -0.8002964191
O  O138  1  0.88580000  0.04050000  0.08740000  1.0 -0.8002964191
O  O139  1  0.88580000  0.45950000  0.58740000  1.0 -0.8002964191
O  O140  1  0.11420000  0.95950000  0.91260000  1.0 -0.8002964191
O  O141  1  0.30500000  0.75400000  0.36790000  1.0 -0.8385371945
O  O142  1  0.69500000  0.25400000  0.13210000  1.0 -0.8385371945
O  O143  1  0.69500000  0.24600000  0.63210000  1.0 -0.8385371945
O  O144  1  0.30500000  0.74600000  0.86790000  1.0 -0.8385371945
O  O145  1  0.96580000  0.59200000  0.53770000  1.0 -0.8293784044
O  O146  1  0.03420000  0.09200000  0.96230000  1.0 -0.8293784044
O  O147  1  0.03420000  0.40800000  0.46230000  1.0 -0.8293784044
O  O148  1  0.96580000  0.90800000  0.03770000  1.0 -0.8293784044
O  O149  1  0.69130000  0.49880000  0.56770000  1.0 -0.7489007494
O  O150  1  0.30870000  0.99880000  0.93230000  1.0 -0.7489007494
O  O151  1  0.30870000  0.50120000  0.43230000  1.0 -0.7489007494
O  O152  1  0.69130000  0.00120000  0.06770000  1.0 -0.7489007494
O  O153  1  0.43540000  0.37450000  0.70500000  1.0 -0.700834794
O  O154  1  0.56460000  0.87450000  0.79500000  1.0 -0.700834794
O  O155  1  0.56460000  0.62550000  0.29500000  1.0 -0.700834794
O  O156  1  0.43540000  0.12550000  0.20500000  1.0 -0.700834794
O  O157  1  0.40170000  0.88850000  0.52820000  1.0 -0.8293784044
O  O158  1  0.59830000  0.38850000  0.97180000  1.0 -0.8293784044
O  O159  1  0.59830000  0.11150000  0.47180000  1.0 -0.8293784044
O  O160  1  0.40170000  0.61150000  0.02820000  1.0 -0.8293784044
O  O161  1  0.30350000  0.01540000  0.46800000  1.0 -0.5331345679
O  O162  1  0.69650000  0.51540000  0.03200000  1.0 -0.5331345679
O  O163  1  0.69650000  0.98460000  0.53200000  1.0 -0.5331345679
O  O164  1  0.30350000  0.48460000  0.96800000  1.0 -0.5331345679
O  O165  1  0.00990000  0.91310000  0.35420000  1.0 -0.5392304939
O  O166  1  0.99010000  0.41310000  0.14580000  1.0 -0.5392304939
O  O167  1  0.99010000  0.08690000  0.64580000  1.0 -0.5392304939
O  O168  1  0.00990000  0.58690000  0.85420000  1.0 -0.5392304939
O  O169  1  0.47430000  0.55770000  0.74240000  1.0 -0.3398385172
O  O170  1  0.52570000  0.05770000  0.75760000  1.0 -0.3398385172
O  O171  1  0.52570000  0.44230000  0.25760000  1.0 -0.3398385172
O  O172  1  0.47430000  0.94230000  0.24240000  1.0 -0.3398385172
O  O173  1  0.16750000  0.28270000  0.47460000  1.0 -0.3279521487
O  O174  1  0.83250000  0.78270000  0.02540000  1.0 -0.3398385172
O  O175  1  0.83250000  0.71730000  0.52540000  1.0 -0.3398385172
O  O176  1  0.16750000  0.21730000  0.97460000  1.0 -0.3398385172
O  O177  1  0.21120000  0.38730000  0.56060000  1.0 -0.4006849311
O  O178  1  0.78880000  0.88730000  0.93940000  1.0 -0.4006849311
O  O179  1  0.78880000  0.61270000  0.43940000  1.0 -0.4006849311
O  O180  1  0.21120000  0.11270000  0.06060000  1.0 -0.4006849311
O  O181  1  0.34190000  0.35080000  0.48560000  1.0 -0.3131707647
O  O182  1  0.65810000  0.85080000  0.01440000  1.0 -0.3154381595
O  O183  1  0.65810000  0.64920000  0.51440000  1.0 -0.3131707647
O  O184  1  0.34190000  0.14920000  0.98560000  1.0 -0.3131707647
O  O185  1  0.17000000  0.37430000  0.38920000  1.0 -0.5076039366
O  O186  1  0.83000000  0.87430000  0.11080000  1.0 -0.5076039366
O  O187  1  0.83000000  0.62570000  0.61080000  1.0 -0.5076039366
O  O188  1  0.17000000  0.12570000  0.88920000  1.0 -0.5076039366
O  O189  1  0.50910000  0.27770000  0.79740000  1.0 -0.2023943893
O  O190  1  0.49090000  0.77770000  0.70260000  1.0 -0.2023943893
O  O191  1  0.49090000  0.72230000  0.20260000  1.0 -0.2023943893
O  O192  1  0.50910000  0.22230000  0.29740000  1.0 -0.2023943893
O  O193  1  0.37020000  0.40190000  0.80490000  1.0 -0.3279521487
O  O194  1  0.62980000  0.90190000  0.69510000  1.0 -0.3279521487
O  O195  1  0.62980000  0.59810000  0.19510000  1.0 -0.3279521487
O  O196  1  0.37020000  0.09810000  0.30490000  1.0 -0.3279521487
O  O197  1  0.21690000  0.20970000  0.69020000  1.0 -0.4391732148
O  O198  1  0.78310000  0.70970000  0.80980000  1.0 -0.4391732148
O  O199  1  0.78310000  0.79030000  0.30980000  1.0 -0.4391732148
O  O200  1  0.21690000  0.29030000  0.19020000  1.0 -0.4391732148
O  O201  1  0.24010000  0.38450000  0.69250000  1.0 -0.2927955619
O  O202  1  0.75990000  0.88450000  0.80750000  1.0 -0.2927955619
O  O203  1  0.75990000  0.61550000  0.30750000  1.0 -0.2927955619
O  O204  1  0.24010000  0.11550000  0.19250000  1.0 -0.2927955619
O  O205  1  0.22420000  0.29450000  0.78410000  1.0 -0.4464426494
O  O206  1  0.77580000  0.79450000  0.71590000  1.0 -0.4464426494
O  O207  1  0.77580000  0.70550000  0.21590000  1.0 -0.4464426494
O  O208  1  0.22420000  0.20550000  0.28410000  1.0 -0.4464426494
O  O209  1  0.38300000  0.21200000  0.67700000  1.0 -0.1948177896
O  O210  1  0.61700000  0.71200000  0.82300000  1.0 -0.1948177896
O  O211  1  0.61700000  0.78800000  0.32300000  1.0 -0.1948177896
O  O212  1  0.38300000  0.28800000  0.17700000  1.0 -0.1948177896
O  O213  1  0.44000000  0.18800000  0.69500000  1.0 0.1121532985
O  O214  1  0.56000000  0.68800000  0.80500000  1.0 0.1121532985
O  O215  1  0.56000000  0.81200000  0.30500000  1.0 0.1121532985
O  O216  1  0.44000000  0.31200000  0.19500000  1.0 0.1121532985
