# DDEC6 charges by PACMAN v1.1 (https://github.com/mtap-research/PACMAN-charge/)
data_WARFAY01_FSR_pacman
_symmetry_space_group_name_H-M   'P 1'
_cell_length_a   14.93440000
_cell_length_b   14.93440000
_cell_length_c   19.13320000
_cell_angle_alpha   90.00000000
_cell_angle_beta   90.00000000
_cell_angle_gamma   90.00000000
_symmetry_Int_Tables_number   1
_chemical_formula_structural   ZnH28C20NO4
_chemical_formula_sum   'Zn8 H224 C160 N8 O32'
_cell_volume   4267.39819945
_cell_formula_units_Z   8
loop_
 _symmetry_equiv_pos_site_id
 _symmetry_equiv_pos_as_xyz
  1  'x, y, z'
loop_
 _atom_site_type_symbol
 _atom_site_label
 _atom_site_symmetry_multiplicity
 _atom_site_fract_x
 _atom_site_fract_y
 _atom_site_fract_z
 _atom_site_occupancy
 _atom_site_charge
Zn  Zn1  1  0.50000000  0.00000000  0.16175000  1.0 0.6693801234
Zn  Zn2  1  0.00000000  0.50000000  0.33825000  1.0 0.6693801234
Zn  Zn3  1  0.00000000  0.50000000  0.83825000  1.0 0.6693801234
Zn  Zn4  1  0.50000000  0.00000000  0.66175000  1.0 0.6693801234
Zn  Zn5  1  0.50000000  0.00000000  0.31481000  1.0 0.6693801234
Zn  Zn6  1  0.00000000  0.50000000  0.18519000  1.0 0.6693801234
Zn  Zn7  1  0.00000000  0.50000000  0.68519000  1.0 0.6693801234
Zn  Zn8  1  0.50000000  0.00000000  0.81481000  1.0 0.6693801234
H  H1  1  0.61930000  0.93330000  0.04580000  1.0 0.0621184957
H  H2  1  0.56670000  0.11930000  0.04580000  1.0 0.0621184957
H  H3  1  0.38070000  0.06670000  0.04580000  1.0 0.0621184957
H  H4  1  0.43330000  0.88070000  0.04580000  1.0 0.0621184957
H  H5  1  0.11930000  0.56670000  0.45420000  1.0 0.0621184957
H  H6  1  0.88070000  0.43330000  0.45420000  1.0 0.0621184957
H  H7  1  0.93330000  0.61930000  0.45420000  1.0 0.0621184957
H  H8  1  0.06670000  0.38070000  0.45420000  1.0 0.0621184957
H  H9  1  0.88070000  0.56670000  0.95420000  1.0 0.0621184957
H  H10  1  0.93330000  0.38070000  0.95420000  1.0 0.0621184957
H  H11  1  0.11930000  0.43330000  0.95420000  1.0 0.0621184957
H  H12  1  0.06670000  0.61930000  0.95420000  1.0 0.0621184957
H  H13  1  0.38070000  0.93330000  0.54580000  1.0 0.0621184957
H  H14  1  0.61930000  0.06670000  0.54580000  1.0 0.0621184957
H  H15  1  0.56670000  0.88070000  0.54580000  1.0 0.0621184957
H  H16  1  0.43330000  0.11930000  0.54580000  1.0 0.0621184957
H  H17  1  0.53430000  0.86770000  0.04610000  1.0 0.0621184957
H  H18  1  0.63230000  0.03430000  0.04610000  1.0 0.0621184957
H  H19  1  0.46570000  0.13230000  0.04610000  1.0 0.0621184957
H  H20  1  0.36770000  0.96570000  0.04610000  1.0 0.0621184957
H  H21  1  0.03430000  0.63230000  0.45390000  1.0 0.0621184957
H  H22  1  0.96570000  0.36770000  0.45390000  1.0 0.0621184957
H  H23  1  0.86770000  0.53430000  0.45390000  1.0 0.0621184957
H  H24  1  0.13230000  0.46570000  0.45390000  1.0 0.0621184957
H  H25  1  0.96570000  0.63230000  0.95390000  1.0 0.0621184957
H  H26  1  0.86770000  0.46570000  0.95390000  1.0 0.0621184957
H  H27  1  0.03430000  0.36770000  0.95390000  1.0 0.0621184957
H  H28  1  0.13230000  0.53430000  0.95390000  1.0 0.0621184957
H  H29  1  0.46570000  0.86770000  0.54610000  1.0 0.0621184957
H  H30  1  0.53430000  0.13230000  0.54610000  1.0 0.0621184957
H  H31  1  0.63230000  0.96570000  0.54610000  1.0 0.0621184957
H  H32  1  0.36770000  0.03430000  0.54610000  1.0 0.0621184957
H  H33  1  0.53420000  0.86670000  0.93190000  1.0 0.0621184957
H  H34  1  0.63330000  0.03420000  0.93190000  1.0 0.0621184957
H  H35  1  0.46580000  0.13330000  0.93190000  1.0 0.0621184957
H  H36  1  0.36670000  0.96580000  0.93190000  1.0 0.0621184957
H  H37  1  0.03420000  0.63330000  0.56810000  1.0 0.0621184957
H  H38  1  0.96580000  0.36670000  0.56810000  1.0 0.0621184957
H  H39  1  0.86670000  0.53420000  0.56810000  1.0 0.0621184957
H  H40  1  0.13330000  0.46580000  0.56810000  1.0 0.0621184957
H  H41  1  0.96580000  0.63330000  0.06810000  1.0 0.0621184957
H  H42  1  0.86670000  0.46580000  0.06810000  1.0 0.0621184957
H  H43  1  0.03420000  0.36670000  0.06810000  1.0 0.0621184957
H  H44  1  0.13330000  0.53420000  0.06810000  1.0 0.0621184957
H  H45  1  0.46580000  0.86670000  0.43190000  1.0 0.0621184957
H  H46  1  0.53420000  0.13330000  0.43190000  1.0 0.0621184957
H  H47  1  0.63330000  0.96580000  0.43190000  1.0 0.0621184957
H  H48  1  0.36670000  0.03420000  0.43190000  1.0 0.0621184957
H  H49  1  0.61960000  0.93190000  0.93160000  1.0 0.0621184957
H  H50  1  0.56810000  0.11960000  0.93160000  1.0 0.0621184957
H  H51  1  0.38040000  0.06810000  0.93160000  1.0 0.0621184957
H  H52  1  0.43190000  0.88040000  0.93160000  1.0 0.0621184957
H  H53  1  0.11960000  0.56810000  0.56840000  1.0 0.0621184957
H  H54  1  0.88040000  0.43190000  0.56840000  1.0 0.0621184957
H  H55  1  0.93190000  0.61960000  0.56840000  1.0 0.0621184957
H  H56  1  0.06810000  0.38040000  0.56840000  1.0 0.0621184957
H  H57  1  0.88040000  0.56810000  0.06840000  1.0 0.0621184957
H  H58  1  0.93190000  0.38040000  0.06840000  1.0 0.0621184957
H  H59  1  0.11960000  0.43190000  0.06840000  1.0 0.0621184957
H  H60  1  0.06810000  0.61960000  0.06840000  1.0 0.0621184957
H  H61  1  0.38040000  0.93190000  0.43160000  1.0 0.0621184957
H  H62  1  0.61960000  0.06810000  0.43160000  1.0 0.0621184957
H  H63  1  0.56810000  0.88040000  0.43160000  1.0 0.0621184957
H  H64  1  0.43190000  0.11960000  0.43160000  1.0 0.0621184957
H  H65  1  0.59380000  0.90220000  0.93050000  1.0 0.067330566
H  H66  1  0.59780000  0.09380000  0.93050000  1.0 0.067330566
H  H67  1  0.40620000  0.09780000  0.93050000  1.0 0.067330566
H  H68  1  0.40220000  0.90620000  0.93050000  1.0 0.067330566
H  H69  1  0.09380000  0.59780000  0.56950000  1.0 0.067330566
H  H70  1  0.90620000  0.40220000  0.56950000  1.0 0.067330566
H  H71  1  0.90220000  0.59380000  0.56950000  1.0 0.067330566
H  H72  1  0.09780000  0.40620000  0.56950000  1.0 0.067330566
H  H73  1  0.90620000  0.59780000  0.06950000  1.0 0.067330566
H  H74  1  0.90220000  0.40620000  0.06950000  1.0 0.067330566
H  H75  1  0.09380000  0.40220000  0.06950000  1.0 0.067330566
H  H76  1  0.09780000  0.59380000  0.06950000  1.0 0.067330566
H  H77  1  0.40620000  0.90220000  0.43050000  1.0 0.067330566
H  H78  1  0.59380000  0.09780000  0.43050000  1.0 0.067330566
H  H79  1  0.59780000  0.90620000  0.43050000  1.0 0.067330566
H  H80  1  0.40220000  0.09380000  0.43050000  1.0 0.067330566
H  H81  1  0.50100000  0.86450000  0.93070000  1.0 0.0621184957
H  H82  1  0.63550000  0.00100000  0.93070000  1.0 0.0621184957
H  H83  1  0.49900000  0.13550000  0.93070000  1.0 0.0621184957
H  H84  1  0.36450000  0.99900000  0.93070000  1.0 0.0621184957
H  H85  1  0.00100000  0.63550000  0.56930000  1.0 0.0621184957
H  H86  1  0.99900000  0.36450000  0.56930000  1.0 0.0621184957
H  H87  1  0.86450000  0.50100000  0.56930000  1.0 0.0621184957
H  H88  1  0.13550000  0.49900000  0.56930000  1.0 0.0621184957
H  H89  1  0.99900000  0.63550000  0.06930000  1.0 0.0621184957
H  H90  1  0.86450000  0.49900000  0.06930000  1.0 0.0621184957
H  H91  1  0.00100000  0.36450000  0.06930000  1.0 0.0621184957
H  H92  1  0.13550000  0.50100000  0.06930000  1.0 0.0621184957
H  H93  1  0.49900000  0.86450000  0.43070000  1.0 0.0621184957
H  H94  1  0.50100000  0.13550000  0.43070000  1.0 0.0621184957
H  H95  1  0.63550000  0.99900000  0.43070000  1.0 0.0621184957
H  H96  1  0.36450000  0.00100000  0.43070000  1.0 0.0621184957
H  H97  1  0.50040000  0.86380000  0.04420000  1.0 0.0621184957
H  H98  1  0.63620000  0.00040000  0.04420000  1.0 0.0621184957
H  H99  1  0.49960000  0.13620000  0.04420000  1.0 0.0621184957
H  H100  1  0.36380000  0.99960000  0.04420000  1.0 0.0621184957
H  H101  1  0.00040000  0.63620000  0.45580000  1.0 0.0621184957
H  H102  1  0.99960000  0.36380000  0.45580000  1.0 0.0621184957
H  H103  1  0.86380000  0.50040000  0.45580000  1.0 0.0621184957
H  H104  1  0.13620000  0.49960000  0.45580000  1.0 0.0621184957
H  H105  1  0.99960000  0.63620000  0.95580000  1.0 0.0621184957
H  H106  1  0.86380000  0.49960000  0.95580000  1.0 0.0621184957
H  H107  1  0.00040000  0.36380000  0.95580000  1.0 0.0621184957
H  H108  1  0.13620000  0.50040000  0.95580000  1.0 0.0621184957
H  H109  1  0.49960000  0.86380000  0.54420000  1.0 0.0621184957
H  H110  1  0.50040000  0.13620000  0.54420000  1.0 0.0621184957
H  H111  1  0.63620000  0.99960000  0.54420000  1.0 0.0621184957
H  H112  1  0.36380000  0.00040000  0.54420000  1.0 0.0621184957
H  H113  1  0.59420000  0.90170000  0.04410000  1.0 0.067330566
H  H114  1  0.59830000  0.09420000  0.04410000  1.0 0.067330566
H  H115  1  0.40580000  0.09830000  0.04410000  1.0 0.067330566
H  H116  1  0.40170000  0.90580000  0.04410000  1.0 0.067330566
H  H117  1  0.09420000  0.59830000  0.45590000  1.0 0.067330566
H  H118  1  0.90580000  0.40170000  0.45590000  1.0 0.067330566
H  H119  1  0.90170000  0.59420000  0.45590000  1.0 0.067330566
H  H120  1  0.09830000  0.40580000  0.45590000  1.0 0.067330566
H  H121  1  0.90580000  0.59830000  0.95590000  1.0 0.067330566
H  H122  1  0.90170000  0.40580000  0.95590000  1.0 0.067330566
H  H123  1  0.09420000  0.40170000  0.95590000  1.0 0.067330566
H  H124  1  0.09830000  0.59420000  0.95590000  1.0 0.067330566
H  H125  1  0.40580000  0.90170000  0.54410000  1.0 0.067330566
H  H126  1  0.59420000  0.09830000  0.54410000  1.0 0.067330566
H  H127  1  0.59830000  0.90580000  0.54410000  1.0 0.067330566
H  H128  1  0.40170000  0.09420000  0.54410000  1.0 0.067330566
H  H129  1  0.57200000  0.88470000  0.04520000  1.0 0.067330566
H  H130  1  0.61530000  0.07200000  0.04520000  1.0 0.067330566
H  H131  1  0.42800000  0.11530000  0.04520000  1.0 0.067330566
H  H132  1  0.38470000  0.92800000  0.04520000  1.0 0.067330566
H  H133  1  0.07200000  0.61530000  0.45480000  1.0 0.067330566
H  H134  1  0.92800000  0.38470000  0.45480000  1.0 0.067330566
H  H135  1  0.88470000  0.57200000  0.45480000  1.0 0.067330566
H  H136  1  0.11530000  0.42800000  0.45480000  1.0 0.067330566
H  H137  1  0.92800000  0.61530000  0.95480000  1.0 0.067330566
H  H138  1  0.88470000  0.42800000  0.95480000  1.0 0.067330566
H  H139  1  0.07200000  0.38470000  0.95480000  1.0 0.067330566
H  H140  1  0.11530000  0.57200000  0.95480000  1.0 0.067330566
H  H141  1  0.42800000  0.88470000  0.54520000  1.0 0.067330566
H  H142  1  0.57200000  0.11530000  0.54520000  1.0 0.067330566
H  H143  1  0.61530000  0.92800000  0.54520000  1.0 0.067330566
H  H144  1  0.38470000  0.07200000  0.54520000  1.0 0.067330566
H  H145  1  0.63160000  0.96590000  0.04550000  1.0 0.0621184957
H  H146  1  0.53410000  0.13160000  0.04550000  1.0 0.0621184957
H  H147  1  0.36840000  0.03410000  0.04550000  1.0 0.0621184957
H  H148  1  0.46590000  0.86840000  0.04550000  1.0 0.0621184957
H  H149  1  0.13160000  0.53410000  0.45450000  1.0 0.0621184957
H  H150  1  0.86840000  0.46590000  0.45450000  1.0 0.0621184957
H  H151  1  0.96590000  0.63160000  0.45450000  1.0 0.0621184957
H  H152  1  0.03410000  0.36840000  0.45450000  1.0 0.0621184957
H  H153  1  0.86840000  0.53410000  0.95450000  1.0 0.0621184957
H  H154  1  0.96590000  0.36840000  0.95450000  1.0 0.0621184957
H  H155  1  0.13160000  0.46590000  0.95450000  1.0 0.0621184957
H  H156  1  0.03410000  0.63160000  0.95450000  1.0 0.0621184957
H  H157  1  0.36840000  0.96590000  0.54550000  1.0 0.0621184957
H  H158  1  0.63160000  0.03410000  0.54550000  1.0 0.0621184957
H  H159  1  0.53410000  0.86840000  0.54550000  1.0 0.0621184957
H  H160  1  0.46590000  0.13160000  0.54550000  1.0 0.0621184957
H  H161  1  0.63210000  0.96530000  0.93190000  1.0 0.0621184957
H  H162  1  0.53470000  0.13210000  0.93190000  1.0 0.0621184957
H  H163  1  0.36790000  0.03470000  0.93190000  1.0 0.0621184957
H  H164  1  0.46530000  0.86790000  0.93190000  1.0 0.0621184957
H  H165  1  0.13210000  0.53470000  0.56810000  1.0 0.0621184957
H  H166  1  0.86790000  0.46530000  0.56810000  1.0 0.0621184957
H  H167  1  0.96530000  0.63210000  0.56810000  1.0 0.0621184957
H  H168  1  0.03470000  0.36790000  0.56810000  1.0 0.0621184957
H  H169  1  0.86790000  0.53470000  0.06810000  1.0 0.0621184957
H  H170  1  0.96530000  0.36790000  0.06810000  1.0 0.0621184957
H  H171  1  0.13210000  0.46530000  0.06810000  1.0 0.0621184957
H  H172  1  0.03470000  0.63210000  0.06810000  1.0 0.0621184957
H  H173  1  0.36790000  0.96530000  0.43190000  1.0 0.0621184957
H  H174  1  0.63210000  0.03470000  0.43190000  1.0 0.0621184957
H  H175  1  0.53470000  0.86790000  0.43190000  1.0 0.0621184957
H  H176  1  0.46530000  0.13210000  0.43190000  1.0 0.0621184957
H  H177  1  0.57150000  0.88360000  0.93160000  1.0 0.067330566
H  H178  1  0.61640000  0.07150000  0.93160000  1.0 0.067330566
H  H179  1  0.42850000  0.11640000  0.93160000  1.0 0.067330566
H  H180  1  0.38360000  0.92850000  0.93160000  1.0 0.067330566
H  H181  1  0.07150000  0.61640000  0.56840000  1.0 0.067330566
H  H182  1  0.92850000  0.38360000  0.56840000  1.0 0.067330566
H  H183  1  0.88360000  0.57150000  0.56840000  1.0 0.067330566
H  H184  1  0.11640000  0.42850000  0.56840000  1.0 0.067330566
H  H185  1  0.92850000  0.61640000  0.06840000  1.0 0.067330566
H  H186  1  0.88360000  0.42850000  0.06840000  1.0 0.067330566
H  H187  1  0.07150000  0.38360000  0.06840000  1.0 0.067330566
H  H188  1  0.11640000  0.57150000  0.06840000  1.0 0.067330566
H  H189  1  0.42850000  0.88360000  0.43160000  1.0 0.067330566
H  H190  1  0.57150000  0.11640000  0.43160000  1.0 0.067330566
H  H191  1  0.61640000  0.92850000  0.43160000  1.0 0.067330566
H  H192  1  0.38360000  0.07150000  0.43160000  1.0 0.067330566
H  H193  1  0.34730000  0.74870000  0.13970000  1.0 0.1306418424
H  H194  1  0.75130000  0.84730000  0.13970000  1.0 0.1306418424
H  H195  1  0.65270000  0.25130000  0.13970000  1.0 0.1306418424
H  H196  1  0.24870000  0.15270000  0.13970000  1.0 0.1306418424
H  H197  1  0.84730000  0.75130000  0.36030000  1.0 0.1306418424
H  H198  1  0.15270000  0.24870000  0.36030000  1.0 0.1306418424
H  H199  1  0.74870000  0.34730000  0.36030000  1.0 0.1306418424
H  H200  1  0.25130000  0.65270000  0.36030000  1.0 0.1306418424
H  H201  1  0.15270000  0.75130000  0.86030000  1.0 0.1306418424
H  H202  1  0.74870000  0.65270000  0.86030000  1.0 0.1306418424
H  H203  1  0.84730000  0.24870000  0.86030000  1.0 0.1306418424
H  H204  1  0.25130000  0.34730000  0.86030000  1.0 0.1306418424
H  H205  1  0.65270000  0.74870000  0.63970000  1.0 0.1306418424
H  H206  1  0.34730000  0.25130000  0.63970000  1.0 0.1306418424
H  H207  1  0.75130000  0.15270000  0.63970000  1.0 0.1306418424
H  H208  1  0.24870000  0.84730000  0.63970000  1.0 0.1306418424
H  H209  1  0.36280000  0.76110000  0.35120000  1.0 0.1306418424
H  H210  1  0.73890000  0.86280000  0.35120000  1.0 0.1306418424
H  H211  1  0.63720000  0.23890000  0.35120000  1.0 0.1306418424
H  H212  1  0.26110000  0.13720000  0.35120000  1.0 0.1306418424
H  H213  1  0.86280000  0.73890000  0.14880000  1.0 0.1306418424
H  H214  1  0.13720000  0.26110000  0.14880000  1.0 0.1306418424
H  H215  1  0.76110000  0.36280000  0.14880000  1.0 0.1306418424
H  H216  1  0.23890000  0.63720000  0.14880000  1.0 0.1306418424
H  H217  1  0.13720000  0.73890000  0.64880000  1.0 0.1306418424
H  H218  1  0.76110000  0.63720000  0.64880000  1.0 0.1306418424
H  H219  1  0.86280000  0.26110000  0.64880000  1.0 0.1306418424
H  H220  1  0.23890000  0.36280000  0.64880000  1.0 0.1306418424
H  H221  1  0.63720000  0.76110000  0.85120000  1.0 0.1306418424
H  H222  1  0.36280000  0.23890000  0.85120000  1.0 0.1306418424
H  H223  1  0.73890000  0.13720000  0.85120000  1.0 0.1306418424
H  H224  1  0.26110000  0.86280000  0.85120000  1.0 0.1306418424
C  C1  1  0.55740000  0.92560000  0.02840000  1.0 -0.070239956
C  C2  1  0.57440000  0.05740000  0.02840000  1.0 -0.070239956
C  C3  1  0.44260000  0.07440000  0.02840000  1.0 -0.070239956
C  C4  1  0.42560000  0.94260000  0.02840000  1.0 -0.070239956
C  C5  1  0.05740000  0.57440000  0.47160000  1.0 -0.070239956
C  C6  1  0.94260000  0.42560000  0.47160000  1.0 -0.070239956
C  C7  1  0.92560000  0.55740000  0.47160000  1.0 -0.070239956
C  C8  1  0.07440000  0.44260000  0.47160000  1.0 -0.070239956
C  C9  1  0.94260000  0.57440000  0.97160000  1.0 -0.070239956
C  C10  1  0.92560000  0.44260000  0.97160000  1.0 -0.070239956
C  C11  1  0.05740000  0.42560000  0.97160000  1.0 -0.070239956
C  C12  1  0.07440000  0.55740000  0.97160000  1.0 -0.070239956
C  C13  1  0.44260000  0.92560000  0.52840000  1.0 -0.070239956
C  C14  1  0.55740000  0.07440000  0.52840000  1.0 -0.070239956
C  C15  1  0.57440000  0.94260000  0.52840000  1.0 -0.070239956
C  C16  1  0.42560000  0.05740000  0.52840000  1.0 -0.070239956
C  C17  1  0.55750000  0.92480000  0.94900000  1.0 -0.070239956
C  C18  1  0.57520000  0.05750000  0.94900000  1.0 -0.070239956
C  C19  1  0.44250000  0.07520000  0.94900000  1.0 -0.070239956
C  C20  1  0.42480000  0.94250000  0.94900000  1.0 -0.070239956
C  C21  1  0.05750000  0.57520000  0.55100000  1.0 -0.070239956
C  C22  1  0.94250000  0.42480000  0.55100000  1.0 -0.070239956
C  C23  1  0.92480000  0.55750000  0.55100000  1.0 -0.070239956
C  C24  1  0.07520000  0.44250000  0.55100000  1.0 -0.070239956
C  C25  1  0.94250000  0.57520000  0.05100000  1.0 -0.070239956
C  C26  1  0.92480000  0.44250000  0.05100000  1.0 -0.070239956
C  C27  1  0.05750000  0.42480000  0.05100000  1.0 -0.070239956
C  C28  1  0.07520000  0.55750000  0.05100000  1.0 -0.070239956
C  C29  1  0.44250000  0.92480000  0.44900000  1.0 -0.070239956
C  C30  1  0.55750000  0.07520000  0.44900000  1.0 -0.070239956
C  C31  1  0.57520000  0.94250000  0.44900000  1.0 -0.070239956
C  C32  1  0.42480000  0.05750000  0.44900000  1.0 -0.070239956
C  C33  1  0.58530000  0.96400000  0.94800000  1.0 -0.070239956
C  C34  1  0.53600000  0.08530000  0.94800000  1.0 -0.070239956
C  C35  1  0.41470000  0.03600000  0.94800000  1.0 -0.070239956
C  C36  1  0.46400000  0.91470000  0.94800000  1.0 -0.070239956
C  C37  1  0.08530000  0.53600000  0.55200000  1.0 -0.070239956
C  C38  1  0.91470000  0.46400000  0.55200000  1.0 -0.070239956
C  C39  1  0.96400000  0.58530000  0.55200000  1.0 -0.070239956
C  C40  1  0.03600000  0.41470000  0.55200000  1.0 -0.070239956
C  C41  1  0.91470000  0.53600000  0.05200000  1.0 -0.070239956
C  C42  1  0.96400000  0.41470000  0.05200000  1.0 -0.070239956
C  C43  1  0.08530000  0.46400000  0.05200000  1.0 -0.070239956
C  C44  1  0.03600000  0.58530000  0.05200000  1.0 -0.070239956
C  C45  1  0.41470000  0.96400000  0.44800000  1.0 -0.070239956
C  C46  1  0.58530000  0.03600000  0.44800000  1.0 -0.070239956
C  C47  1  0.53600000  0.91470000  0.44800000  1.0 -0.070239956
C  C48  1  0.46400000  0.08530000  0.44800000  1.0 -0.070239956
C  C49  1  0.53630000  0.08560000  0.02700000  1.0 -0.070239956
C  C50  1  0.41440000  0.03630000  0.02700000  1.0 -0.070239956
C  C51  1  0.46370000  0.91440000  0.02700000  1.0 -0.070239956
C  C52  1  0.58560000  0.96370000  0.02700000  1.0 -0.070239956
C  C53  1  0.03630000  0.41440000  0.47300000  1.0 -0.070239956
C  C54  1  0.96370000  0.58560000  0.47300000  1.0 -0.070239956
C  C55  1  0.08560000  0.53630000  0.47300000  1.0 -0.070239956
C  C56  1  0.91440000  0.46370000  0.47300000  1.0 -0.070239956
C  C57  1  0.96370000  0.41440000  0.97300000  1.0 -0.070239956
C  C58  1  0.08560000  0.46370000  0.97300000  1.0 -0.070239956
C  C59  1  0.03630000  0.58560000  0.97300000  1.0 -0.070239956
C  C60  1  0.91440000  0.53630000  0.97300000  1.0 -0.070239956
C  C61  1  0.46370000  0.08560000  0.52700000  1.0 -0.070239956
C  C62  1  0.53630000  0.91440000  0.52700000  1.0 -0.070239956
C  C63  1  0.41440000  0.96370000  0.52700000  1.0 -0.070239956
C  C64  1  0.58560000  0.03630000  0.52700000  1.0 -0.070239956
C  C65  1  0.40800000  0.98600000  0.02790000  1.0 -0.070239956
C  C66  1  0.51400000  0.90800000  0.02790000  1.0 -0.070239956
C  C67  1  0.59200000  0.01400000  0.02790000  1.0 -0.070239956
C  C68  1  0.48600000  0.09200000  0.02790000  1.0 -0.070239956
C  C69  1  0.90800000  0.51400000  0.47210000  1.0 -0.070239956
C  C70  1  0.09200000  0.48600000  0.47210000  1.0 -0.070239956
C  C71  1  0.98600000  0.40800000  0.47210000  1.0 -0.070239956
C  C72  1  0.01400000  0.59200000  0.47210000  1.0 -0.070239956
C  C73  1  0.09200000  0.51400000  0.97210000  1.0 -0.070239956
C  C74  1  0.98600000  0.59200000  0.97210000  1.0 -0.070239956
C  C75  1  0.90800000  0.48600000  0.97210000  1.0 -0.070239956
C  C76  1  0.01400000  0.40800000  0.97210000  1.0 -0.070239956
C  C77  1  0.59200000  0.98600000  0.52790000  1.0 -0.070239956
C  C78  1  0.40800000  0.01400000  0.52790000  1.0 -0.070239956
C  C79  1  0.51400000  0.09200000  0.52790000  1.0 -0.070239956
C  C80  1  0.48600000  0.90800000  0.52790000  1.0 -0.070239956
C  C81  1  0.51380000  0.90750000  0.94890000  1.0 -0.070239956
C  C82  1  0.59250000  0.01380000  0.94890000  1.0 -0.070239956
C  C83  1  0.48620000  0.09250000  0.94890000  1.0 -0.070239956
C  C84  1  0.40750000  0.98620000  0.94890000  1.0 -0.070239956
C  C85  1  0.01380000  0.59250000  0.55110000  1.0 -0.070239956
C  C86  1  0.98620000  0.40750000  0.55110000  1.0 -0.070239956
C  C87  1  0.90750000  0.51380000  0.55110000  1.0 -0.070239956
C  C88  1  0.09250000  0.48620000  0.55110000  1.0 -0.070239956
C  C89  1  0.98620000  0.59250000  0.05110000  1.0 -0.070239956
C  C90  1  0.90750000  0.48620000  0.05110000  1.0 -0.070239956
C  C91  1  0.01380000  0.40750000  0.05110000  1.0 -0.070239956
C  C92  1  0.09250000  0.51380000  0.05110000  1.0 -0.070239956
C  C93  1  0.48620000  0.90750000  0.44890000  1.0 -0.070239956
C  C94  1  0.51380000  0.09250000  0.44890000  1.0 -0.070239956
C  C95  1  0.59250000  0.98620000  0.44890000  1.0 -0.070239956
C  C96  1  0.40750000  0.01380000  0.44890000  1.0 -0.070239956
C  C97  1  0.42570000  0.84630000  0.23950000  1.0 0.326328146
C  C98  1  0.65370000  0.92570000  0.23950000  1.0 0.326328146
C  C99  1  0.57430000  0.15370000  0.23950000  1.0 0.326328146
C  C100  1  0.34630000  0.07430000  0.23950000  1.0 0.326328146
C  C101  1  0.92570000  0.65370000  0.26050000  1.0 0.326328146
C  C102  1  0.07430000  0.34630000  0.26050000  1.0 0.326328146
C  C103  1  0.84630000  0.42570000  0.26050000  1.0 0.326328146
C  C104  1  0.15370000  0.57430000  0.26050000  1.0 0.326328146
C  C105  1  0.07430000  0.65370000  0.76050000  1.0 0.326328146
C  C106  1  0.84630000  0.57430000  0.76050000  1.0 0.326328146
C  C107  1  0.92570000  0.34630000  0.76050000  1.0 0.326328146
C  C108  1  0.15370000  0.42570000  0.76050000  1.0 0.326328146
C  C109  1  0.57430000  0.84630000  0.73950000  1.0 0.326328146
C  C110  1  0.42570000  0.15370000  0.73950000  1.0 0.326328146
C  C111  1  0.65370000  0.07430000  0.73950000  1.0 0.326328146
C  C112  1  0.34630000  0.92570000  0.73950000  1.0 0.326328146
C  C113  1  0.36360000  0.76800000  0.24460000  1.0 0.0295568464
C  C114  1  0.73200000  0.86360000  0.24460000  1.0 0.0295568464
C  C115  1  0.63640000  0.23200000  0.24460000  1.0 0.0295568464
C  C116  1  0.26800000  0.13640000  0.24460000  1.0 0.0295568464
C  C117  1  0.86360000  0.73200000  0.25540000  1.0 0.0295568464
C  C118  1  0.13640000  0.26800000  0.25540000  1.0 0.0295568464
C  C119  1  0.76800000  0.36360000  0.25540000  1.0 0.0295568464
C  C120  1  0.23200000  0.63640000  0.25540000  1.0 0.0295568464
C  C121  1  0.13640000  0.73200000  0.75540000  1.0 0.0295568464
C  C122  1  0.76800000  0.63640000  0.75540000  1.0 0.0295568464
C  C123  1  0.86360000  0.26800000  0.75540000  1.0 0.0295568464
C  C124  1  0.23200000  0.36360000  0.75540000  1.0 0.0295568464
C  C125  1  0.63640000  0.76800000  0.74460000  1.0 0.0295568464
C  C126  1  0.36360000  0.23200000  0.74460000  1.0 0.0295568464
C  C127  1  0.73200000  0.13640000  0.74460000  1.0 0.0295568464
C  C128  1  0.26800000  0.86360000  0.74460000  1.0 0.0295568464
C  C129  1  0.32740000  0.72960000  0.18450000  1.0 -0.1453068082
C  C130  1  0.77040000  0.82740000  0.18450000  1.0 -0.1453068082
C  C131  1  0.67260000  0.27040000  0.18450000  1.0 -0.1453068082
C  C132  1  0.22960000  0.17260000  0.18450000  1.0 -0.1453068082
C  C133  1  0.82740000  0.77040000  0.31550000  1.0 -0.1453068082
C  C134  1  0.17260000  0.22960000  0.31550000  1.0 -0.1453068082
C  C135  1  0.72960000  0.32740000  0.31550000  1.0 -0.1453068082
C  C136  1  0.27040000  0.67260000  0.31550000  1.0 -0.1453068082
C  C137  1  0.17260000  0.77040000  0.81550000  1.0 -0.1453068082
C  C138  1  0.72960000  0.67260000  0.81550000  1.0 -0.1453068082
C  C139  1  0.82740000  0.22960000  0.81550000  1.0 -0.1453068082
C  C140  1  0.27040000  0.32740000  0.81550000  1.0 -0.1453068082
C  C141  1  0.67260000  0.72960000  0.68450000  1.0 -0.1453068082
C  C142  1  0.32740000  0.27040000  0.68450000  1.0 -0.1453068082
C  C143  1  0.77040000  0.17260000  0.68450000  1.0 -0.1453068082
C  C144  1  0.22960000  0.82740000  0.68450000  1.0 -0.1453068082
C  C145  1  0.33610000  0.73730000  0.31010000  1.0 -0.1650700935
C  C146  1  0.76270000  0.83610000  0.31010000  1.0 -0.1650700935
C  C147  1  0.66390000  0.26270000  0.31010000  1.0 -0.1650700935
C  C148  1  0.23730000  0.16390000  0.31010000  1.0 -0.1650700935
C  C149  1  0.83610000  0.76270000  0.18990000  1.0 -0.1650700935
C  C150  1  0.16390000  0.23730000  0.18990000  1.0 -0.1650700935
C  C151  1  0.73730000  0.33610000  0.18990000  1.0 -0.1650700935
C  C152  1  0.26270000  0.66390000  0.18990000  1.0 -0.1650700935
C  C153  1  0.16390000  0.76270000  0.68990000  1.0 -0.1650700935
C  C154  1  0.73730000  0.66390000  0.68990000  1.0 -0.1650700935
C  C155  1  0.83610000  0.23730000  0.68990000  1.0 -0.1650700935
C  C156  1  0.26270000  0.33610000  0.68990000  1.0 -0.1650700935
C  C157  1  0.66390000  0.73730000  0.81010000  1.0 -0.1650700935
C  C158  1  0.33610000  0.26270000  0.81010000  1.0 -0.1650700935
C  C159  1  0.76270000  0.16390000  0.81010000  1.0 -0.1650700935
C  C160  1  0.23730000  0.83610000  0.81010000  1.0 -0.1650700935
N  N1  1  0.50000000  0.00000000  0.05480000  1.0 -0.0862193604
N  N2  1  0.00000000  0.50000000  0.44520000  1.0 -0.0862193604
N  N3  1  0.00000000  0.50000000  0.94520000  1.0 -0.0862193604
N  N4  1  0.50000000  0.00000000  0.55480000  1.0 -0.0862193604
N  N5  1  0.50000000  0.00000000  0.92130000  1.0 -0.0765109782
N  N6  1  0.00000000  0.50000000  0.57870000  1.0 -0.0765109782
N  N7  1  0.00000000  0.50000000  0.07870000  1.0 -0.0765109782
N  N8  1  0.50000000  0.00000000  0.42130000  1.0 -0.0765109782
O  O1  1  0.46583000  0.87053000  0.29456000  1.0 -0.476703252
O  O2  1  0.62947000  0.96583000  0.29456000  1.0 -0.476703252
O  O3  1  0.53417000  0.12947000  0.29456000  1.0 -0.476703252
O  O4  1  0.37053000  0.03417000  0.29456000  1.0 -0.476703252
O  O5  1  0.96583000  0.62947000  0.20544000  1.0 -0.476703252
O  O6  1  0.03417000  0.37053000  0.20544000  1.0 -0.476703252
O  O7  1  0.87053000  0.46583000  0.20544000  1.0 -0.476703252
O  O8  1  0.12947000  0.53417000  0.20544000  1.0 -0.476703252
O  O9  1  0.03417000  0.62947000  0.70544000  1.0 -0.476703252
O  O10  1  0.87053000  0.53417000  0.70544000  1.0 -0.476703252
O  O11  1  0.96583000  0.37053000  0.70544000  1.0 -0.476703252
O  O12  1  0.12947000  0.46583000  0.70544000  1.0 -0.476703252
O  O13  1  0.53417000  0.87053000  0.79456000  1.0 -0.476703252
O  O14  1  0.46583000  0.12947000  0.79456000  1.0 -0.476703252
O  O15  1  0.62947000  0.03417000  0.79456000  1.0 -0.476703252
O  O16  1  0.37053000  0.96583000  0.79456000  1.0 -0.476703252
O  O17  1  0.43176000  0.88385000  0.18088000  1.0 -0.4689264943
O  O18  1  0.61615000  0.93176000  0.18088000  1.0 -0.4689264943
O  O19  1  0.56824000  0.11615000  0.18088000  1.0 -0.4689264943
O  O20  1  0.38385000  0.06824000  0.18088000  1.0 -0.4689264943
O  O21  1  0.93176000  0.61615000  0.31912000  1.0 -0.4689264943
O  O22  1  0.06824000  0.38385000  0.31912000  1.0 -0.4689264943
O  O23  1  0.88385000  0.43176000  0.31912000  1.0 -0.4689264943
O  O24  1  0.11615000  0.56824000  0.31912000  1.0 -0.4689264943
O  O25  1  0.06824000  0.61615000  0.81912000  1.0 -0.4689264943
O  O26  1  0.88385000  0.56824000  0.81912000  1.0 -0.4689264943
O  O27  1  0.93176000  0.38385000  0.81912000  1.0 -0.4689264943
O  O28  1  0.11615000  0.43176000  0.81912000  1.0 -0.4689264943
O  O29  1  0.56824000  0.88385000  0.68088000  1.0 -0.4689264943
O  O30  1  0.43176000  0.11615000  0.68088000  1.0 -0.4689264943
O  O31  1  0.61615000  0.06824000  0.68088000  1.0 -0.4689264943
O  O32  1  0.38385000  0.93176000  0.68088000  1.0 -0.4689264943
