# DDEC6 charges by PACMAN v1.1 (https://github.com/mtap-research/PACMAN-charge/)
data_WARFIG_ASR_pacman
_symmetry_space_group_name_H-M   'P 1'
_cell_length_a   14.92350000
_cell_length_b   14.92350000
_cell_length_c   19.14570000
_cell_angle_alpha   90.00000000
_cell_angle_beta   90.00000000
_cell_angle_gamma   90.00000000
_symmetry_Int_Tables_number   1
_chemical_formula_structural   CuH28C20NO4
_chemical_formula_sum   'Cu8 H224 C160 N8 O32'
_cell_volume   4263.95516392
_cell_formula_units_Z   8
loop_
 _symmetry_equiv_pos_site_id
 _symmetry_equiv_pos_as_xyz
  1  'x, y, z'
loop_
 _atom_site_type_symbol
 _atom_site_label
 _atom_site_symmetry_multiplicity
 _atom_site_fract_x
 _atom_site_fract_y
 _atom_site_fract_z
 _atom_site_occupancy
 _atom_site_charge
Cu  Cu1  1  0.50000000  0.00000000  0.16183000  1.0 0.4857161668
Cu  Cu2  1  0.00000000  0.50000000  0.33817000  1.0 0.4857161668
Cu  Cu3  1  0.00000000  0.50000000  0.83817000  1.0 0.4857161668
Cu  Cu4  1  0.50000000  0.00000000  0.66183000  1.0 0.4857161668
Cu  Cu5  1  0.50000000  0.00000000  0.31476000  1.0 0.4735962477
Cu  Cu6  1  0.00000000  0.50000000  0.18524000  1.0 0.4735962477
Cu  Cu7  1  0.00000000  0.50000000  0.68524000  1.0 0.4735962477
Cu  Cu8  1  0.50000000  0.00000000  0.81476000  1.0 0.4735962477
H  H1  1  0.61800000  0.93070000  0.04590000  1.0 0.0634480043
H  H2  1  0.56930000  0.11800000  0.04590000  1.0 0.0634480043
H  H3  1  0.38200000  0.06930000  0.04590000  1.0 0.0634480043
H  H4  1  0.43070000  0.88200000  0.04590000  1.0 0.0634480043
H  H5  1  0.11800000  0.56930000  0.45410000  1.0 0.0634480043
H  H6  1  0.93070000  0.61800000  0.45410000  1.0 0.0634480043
H  H7  1  0.88200000  0.43070000  0.45410000  1.0 0.0634480043
H  H8  1  0.06930000  0.38200000  0.45410000  1.0 0.0634480043
H  H9  1  0.88200000  0.56930000  0.95410000  1.0 0.0634480043
H  H10  1  0.93070000  0.38200000  0.95410000  1.0 0.0634480043
H  H11  1  0.11800000  0.43070000  0.95410000  1.0 0.0634480043
H  H12  1  0.06930000  0.61800000  0.95410000  1.0 0.0634480043
H  H13  1  0.38200000  0.93070000  0.54590000  1.0 0.0634480043
H  H14  1  0.56930000  0.88200000  0.54590000  1.0 0.0634480043
H  H15  1  0.61800000  0.06930000  0.54590000  1.0 0.0634480043
H  H16  1  0.43070000  0.11800000  0.54590000  1.0 0.0634480043
H  H17  1  0.53160000  0.86680000  0.04630000  1.0 0.0634480043
H  H18  1  0.63320000  0.03160000  0.04630000  1.0 0.0634480043
H  H19  1  0.46840000  0.13320000  0.04630000  1.0 0.0634480043
H  H20  1  0.36680000  0.96840000  0.04630000  1.0 0.0634480043
H  H21  1  0.03160000  0.63320000  0.45370000  1.0 0.0634480043
H  H22  1  0.86680000  0.53160000  0.45370000  1.0 0.0634480043
H  H23  1  0.96840000  0.36680000  0.45370000  1.0 0.0634480043
H  H24  1  0.13320000  0.46840000  0.45370000  1.0 0.0634480043
H  H25  1  0.96840000  0.63320000  0.95370000  1.0 0.0634480043
H  H26  1  0.86680000  0.46840000  0.95370000  1.0 0.0634480043
H  H27  1  0.03160000  0.36680000  0.95370000  1.0 0.0634480043
H  H28  1  0.13320000  0.53160000  0.95370000  1.0 0.0634480043
H  H29  1  0.46840000  0.86680000  0.54630000  1.0 0.0634480043
H  H30  1  0.63320000  0.96840000  0.54630000  1.0 0.0634480043
H  H31  1  0.53160000  0.13320000  0.54630000  1.0 0.0634480043
H  H32  1  0.36680000  0.03160000  0.54630000  1.0 0.0634480043
H  H33  1  0.53080000  0.86630000  0.93200000  1.0 0.0634480043
H  H34  1  0.63370000  0.03080000  0.93200000  1.0 0.0634480043
H  H35  1  0.46920000  0.13370000  0.93200000  1.0 0.0634480043
H  H36  1  0.36630000  0.96920000  0.93200000  1.0 0.0634480043
H  H37  1  0.03080000  0.63370000  0.56800000  1.0 0.0634480043
H  H38  1  0.86630000  0.53080000  0.56800000  1.0 0.0634480043
H  H39  1  0.96920000  0.36630000  0.56800000  1.0 0.0634480043
H  H40  1  0.13370000  0.46920000  0.56800000  1.0 0.0634480043
H  H41  1  0.96920000  0.63370000  0.06800000  1.0 0.0634480043
H  H42  1  0.86630000  0.46920000  0.06800000  1.0 0.0634480043
H  H43  1  0.03080000  0.36630000  0.06800000  1.0 0.0634480043
H  H44  1  0.13370000  0.53080000  0.06800000  1.0 0.0634480043
H  H45  1  0.46920000  0.86630000  0.43200000  1.0 0.0634480043
H  H46  1  0.63370000  0.96920000  0.43200000  1.0 0.0634480043
H  H47  1  0.53080000  0.13370000  0.43200000  1.0 0.0634480043
H  H48  1  0.36630000  0.03080000  0.43200000  1.0 0.0634480043
H  H49  1  0.61770000  0.92940000  0.93160000  1.0 0.0634480043
H  H50  1  0.57060000  0.11770000  0.93160000  1.0 0.0634480043
H  H51  1  0.38230000  0.07060000  0.93160000  1.0 0.0634480043
H  H52  1  0.42940000  0.88230000  0.93160000  1.0 0.0634480043
H  H53  1  0.11770000  0.57060000  0.56840000  1.0 0.0634480043
H  H54  1  0.92940000  0.61770000  0.56840000  1.0 0.0634480043
H  H55  1  0.88230000  0.42940000  0.56840000  1.0 0.0634480043
H  H56  1  0.07060000  0.38230000  0.56840000  1.0 0.0634480043
H  H57  1  0.88230000  0.57060000  0.06840000  1.0 0.0634480043
H  H58  1  0.92940000  0.38230000  0.06840000  1.0 0.0634480043
H  H59  1  0.11770000  0.42940000  0.06840000  1.0 0.0634480043
H  H60  1  0.07060000  0.61770000  0.06840000  1.0 0.0634480043
H  H61  1  0.38230000  0.92940000  0.43160000  1.0 0.0634480043
H  H62  1  0.57060000  0.88230000  0.43160000  1.0 0.0634480043
H  H63  1  0.61770000  0.07060000  0.43160000  1.0 0.0634480043
H  H64  1  0.42940000  0.11770000  0.43160000  1.0 0.0634480043
H  H65  1  0.59290000  0.90110000  0.93030000  1.0 0.0662751933
H  H66  1  0.59890000  0.09290000  0.93030000  1.0 0.0662751933
H  H67  1  0.40710000  0.09890000  0.93030000  1.0 0.0662751933
H  H68  1  0.40110000  0.90710000  0.93030000  1.0 0.0662751933
H  H69  1  0.09290000  0.59890000  0.56970000  1.0 0.0662751933
H  H70  1  0.90110000  0.59290000  0.56970000  1.0 0.0662751933
H  H71  1  0.90710000  0.40110000  0.56970000  1.0 0.0662751933
H  H72  1  0.09890000  0.40710000  0.56970000  1.0 0.0662751933
H  H73  1  0.90710000  0.59890000  0.06970000  1.0 0.0662751933
H  H74  1  0.90110000  0.40710000  0.06970000  1.0 0.0662751933
H  H75  1  0.09290000  0.40110000  0.06970000  1.0 0.0662751933
H  H76  1  0.09890000  0.59290000  0.06970000  1.0 0.0662751933
H  H77  1  0.40710000  0.90110000  0.43030000  1.0 0.0662751933
H  H78  1  0.59890000  0.90710000  0.43030000  1.0 0.0662751933
H  H79  1  0.59290000  0.09890000  0.43030000  1.0 0.0662751933
H  H80  1  0.40110000  0.09290000  0.43030000  1.0 0.0662751933
H  H81  1  0.49960000  0.86430000  0.93040000  1.0 0.0662751933
H  H82  1  0.63570000  0.99960000  0.93040000  1.0 0.0662751933
H  H83  1  0.50040000  0.13570000  0.93040000  1.0 0.0662751933
H  H84  1  0.36430000  0.00040000  0.93040000  1.0 0.0662751933
H  H85  1  0.99960000  0.63570000  0.56960000  1.0 0.0662751933
H  H86  1  0.86430000  0.49960000  0.56960000  1.0 0.0662751933
H  H87  1  0.00040000  0.36430000  0.56960000  1.0 0.0662751933
H  H88  1  0.13570000  0.50040000  0.56960000  1.0 0.0662751933
H  H89  1  0.00040000  0.63570000  0.06960000  1.0 0.0662751933
H  H90  1  0.86430000  0.50040000  0.06960000  1.0 0.0662751933
H  H91  1  0.99960000  0.36430000  0.06960000  1.0 0.0662751933
H  H92  1  0.13570000  0.49960000  0.06960000  1.0 0.0662751933
H  H93  1  0.50040000  0.86430000  0.43040000  1.0 0.0662751933
H  H94  1  0.63570000  0.00040000  0.43040000  1.0 0.0662751933
H  H95  1  0.49960000  0.13570000  0.43040000  1.0 0.0662751933
H  H96  1  0.36430000  0.99960000  0.43040000  1.0 0.0662751933
H  H97  1  0.49870000  0.86340000  0.04430000  1.0 0.0634480043
H  H98  1  0.63660000  0.99870000  0.04430000  1.0 0.0634480043
H  H99  1  0.50130000  0.13660000  0.04430000  1.0 0.0634480043
H  H100  1  0.36340000  0.00130000  0.04430000  1.0 0.0634480043
H  H101  1  0.99870000  0.63660000  0.45570000  1.0 0.0634480043
H  H102  1  0.86340000  0.49870000  0.45570000  1.0 0.0634480043
H  H103  1  0.00130000  0.36340000  0.45570000  1.0 0.0634480043
H  H104  1  0.13660000  0.50130000  0.45570000  1.0 0.0634480043
H  H105  1  0.00130000  0.63660000  0.95570000  1.0 0.0634480043
H  H106  1  0.86340000  0.50130000  0.95570000  1.0 0.0634480043
H  H107  1  0.99870000  0.36340000  0.95570000  1.0 0.0634480043
H  H108  1  0.13660000  0.49870000  0.95570000  1.0 0.0634480043
H  H109  1  0.50130000  0.86340000  0.54430000  1.0 0.0634480043
H  H110  1  0.63660000  0.00130000  0.54430000  1.0 0.0634480043
H  H111  1  0.49870000  0.13660000  0.54430000  1.0 0.0634480043
H  H112  1  0.36340000  0.99870000  0.54430000  1.0 0.0634480043
H  H113  1  0.59350000  0.90040000  0.04410000  1.0 0.0634480043
H  H114  1  0.59960000  0.09350000  0.04410000  1.0 0.0634480043
H  H115  1  0.40650000  0.09960000  0.04410000  1.0 0.0634480043
H  H116  1  0.40040000  0.90650000  0.04410000  1.0 0.0634480043
H  H117  1  0.09350000  0.59960000  0.45590000  1.0 0.0634480043
H  H118  1  0.90040000  0.59350000  0.45590000  1.0 0.0634480043
H  H119  1  0.90650000  0.40040000  0.45590000  1.0 0.0634480043
H  H120  1  0.09960000  0.40650000  0.45590000  1.0 0.0634480043
H  H121  1  0.90650000  0.59960000  0.95590000  1.0 0.0634480043
H  H122  1  0.90040000  0.40650000  0.95590000  1.0 0.0634480043
H  H123  1  0.09350000  0.40040000  0.95590000  1.0 0.0634480043
H  H124  1  0.09960000  0.59350000  0.95590000  1.0 0.0634480043
H  H125  1  0.40650000  0.90040000  0.54410000  1.0 0.0634480043
H  H126  1  0.59960000  0.90650000  0.54410000  1.0 0.0634480043
H  H127  1  0.59350000  0.09960000  0.54410000  1.0 0.0634480043
H  H128  1  0.40040000  0.09350000  0.54410000  1.0 0.0634480043
H  H129  1  0.56820000  0.88190000  0.04620000  1.0 0.0634480043
H  H130  1  0.61810000  0.06820000  0.04620000  1.0 0.0634480043
H  H131  1  0.43180000  0.11810000  0.04620000  1.0 0.0634480043
H  H132  1  0.38190000  0.93180000  0.04620000  1.0 0.0634480043
H  H133  1  0.06820000  0.61810000  0.45380000  1.0 0.0634480043
H  H134  1  0.88190000  0.56820000  0.45380000  1.0 0.0634480043
H  H135  1  0.93180000  0.38190000  0.45380000  1.0 0.0634480043
H  H136  1  0.11810000  0.43180000  0.45380000  1.0 0.0634480043
H  H137  1  0.93180000  0.61810000  0.95380000  1.0 0.0634480043
H  H138  1  0.88190000  0.43180000  0.95380000  1.0 0.0634480043
H  H139  1  0.06820000  0.38190000  0.95380000  1.0 0.0634480043
H  H140  1  0.11810000  0.56820000  0.95380000  1.0 0.0634480043
H  H141  1  0.43180000  0.88190000  0.54620000  1.0 0.0634480043
H  H142  1  0.61810000  0.93180000  0.54620000  1.0 0.0634480043
H  H143  1  0.56820000  0.11810000  0.54620000  1.0 0.0634480043
H  H144  1  0.38190000  0.06820000  0.54620000  1.0 0.0634480043
H  H145  1  0.63080000  0.96150000  0.04560000  1.0 0.0634480043
H  H146  1  0.53850000  0.13080000  0.04560000  1.0 0.0634480043
H  H147  1  0.36920000  0.03850000  0.04560000  1.0 0.0634480043
H  H148  1  0.46150000  0.86920000  0.04560000  1.0 0.0634480043
H  H149  1  0.13080000  0.53850000  0.45440000  1.0 0.0634480043
H  H150  1  0.96150000  0.63080000  0.45440000  1.0 0.0634480043
H  H151  1  0.86920000  0.46150000  0.45440000  1.0 0.0634480043
H  H152  1  0.03850000  0.36920000  0.45440000  1.0 0.0634480043
H  H153  1  0.86920000  0.53850000  0.95440000  1.0 0.0634480043
H  H154  1  0.96150000  0.36920000  0.95440000  1.0 0.0634480043
H  H155  1  0.13080000  0.46150000  0.95440000  1.0 0.0634480043
H  H156  1  0.03850000  0.63080000  0.95440000  1.0 0.0634480043
H  H157  1  0.36920000  0.96150000  0.54560000  1.0 0.0634480043
H  H158  1  0.53850000  0.86920000  0.54560000  1.0 0.0634480043
H  H159  1  0.63080000  0.03850000  0.54560000  1.0 0.0634480043
H  H160  1  0.46150000  0.13080000  0.54560000  1.0 0.0634480043
H  H161  1  0.63210000  0.96310000  0.93150000  1.0 0.0634480043
H  H162  1  0.53690000  0.13210000  0.93150000  1.0 0.0634480043
H  H163  1  0.36790000  0.03690000  0.93150000  1.0 0.0634480043
H  H164  1  0.46310000  0.86790000  0.93150000  1.0 0.0634480043
H  H165  1  0.13210000  0.53690000  0.56850000  1.0 0.0634480043
H  H166  1  0.96310000  0.63210000  0.56850000  1.0 0.0634480043
H  H167  1  0.86790000  0.46310000  0.56850000  1.0 0.0634480043
H  H168  1  0.03690000  0.36790000  0.56850000  1.0 0.0634480043
H  H169  1  0.86790000  0.53690000  0.06850000  1.0 0.0634480043
H  H170  1  0.96310000  0.36790000  0.06850000  1.0 0.0634480043
H  H171  1  0.13210000  0.46310000  0.06850000  1.0 0.0634480043
H  H172  1  0.03690000  0.63210000  0.06850000  1.0 0.0634480043
H  H173  1  0.36790000  0.96310000  0.43150000  1.0 0.0634480043
H  H174  1  0.53690000  0.86790000  0.43150000  1.0 0.0634480043
H  H175  1  0.63210000  0.03690000  0.43150000  1.0 0.0634480043
H  H176  1  0.46310000  0.13210000  0.43150000  1.0 0.0634480043
H  H177  1  0.56950000  0.88180000  0.93200000  1.0 0.0634480043
H  H178  1  0.61820000  0.06950000  0.93200000  1.0 0.0634480043
H  H179  1  0.43050000  0.11820000  0.93200000  1.0 0.0634480043
H  H180  1  0.38180000  0.93050000  0.93200000  1.0 0.0634480043
H  H181  1  0.06950000  0.61820000  0.56800000  1.0 0.0634480043
H  H182  1  0.88180000  0.56950000  0.56800000  1.0 0.0634480043
H  H183  1  0.93050000  0.38180000  0.56800000  1.0 0.0634480043
H  H184  1  0.11820000  0.43050000  0.56800000  1.0 0.0634480043
H  H185  1  0.93050000  0.61820000  0.06800000  1.0 0.0634480043
H  H186  1  0.88180000  0.43050000  0.06800000  1.0 0.0634480043
H  H187  1  0.06950000  0.38180000  0.06800000  1.0 0.0634480043
H  H188  1  0.11820000  0.56950000  0.06800000  1.0 0.0634480043
H  H189  1  0.43050000  0.88180000  0.43200000  1.0 0.0634480043
H  H190  1  0.61820000  0.93050000  0.43200000  1.0 0.0634480043
H  H191  1  0.56950000  0.11820000  0.43200000  1.0 0.0634480043
H  H192  1  0.38180000  0.06950000  0.43200000  1.0 0.0634480043
H  H193  1  0.34700000  0.74890000  0.13960000  1.0 0.1341999982
H  H194  1  0.75110000  0.84700000  0.13960000  1.0 0.1341999982
H  H195  1  0.65300000  0.25110000  0.13960000  1.0 0.1341999982
H  H196  1  0.24890000  0.15300000  0.13960000  1.0 0.1341999982
H  H197  1  0.84700000  0.75110000  0.36040000  1.0 0.1341999982
H  H198  1  0.74890000  0.34700000  0.36040000  1.0 0.1341999982
H  H199  1  0.15300000  0.24890000  0.36040000  1.0 0.1341999982
H  H200  1  0.25110000  0.65300000  0.36040000  1.0 0.1341999982
H  H201  1  0.15300000  0.75110000  0.86040000  1.0 0.1341999982
H  H202  1  0.74890000  0.65300000  0.86040000  1.0 0.1341999982
H  H203  1  0.84700000  0.24890000  0.86040000  1.0 0.1341999982
H  H204  1  0.25110000  0.34700000  0.86040000  1.0 0.1341999982
H  H205  1  0.65300000  0.74890000  0.63960000  1.0 0.1341999982
H  H206  1  0.75110000  0.15300000  0.63960000  1.0 0.1341999982
H  H207  1  0.34700000  0.25110000  0.63960000  1.0 0.1341999982
H  H208  1  0.24890000  0.84700000  0.63960000  1.0 0.1341999982
H  H209  1  0.36330000  0.76080000  0.35090000  1.0 0.1411197362
H  H210  1  0.73920000  0.86330000  0.35090000  1.0 0.1411197362
H  H211  1  0.63670000  0.23920000  0.35090000  1.0 0.1411197362
H  H212  1  0.26080000  0.13670000  0.35090000  1.0 0.1411197362
H  H213  1  0.86330000  0.73920000  0.14910000  1.0 0.1411197362
H  H214  1  0.76080000  0.36330000  0.14910000  1.0 0.1411197362
H  H215  1  0.13670000  0.26080000  0.14910000  1.0 0.1411197362
H  H216  1  0.23920000  0.63670000  0.14910000  1.0 0.1411197362
H  H217  1  0.13670000  0.73920000  0.64910000  1.0 0.1411197362
H  H218  1  0.76080000  0.63670000  0.64910000  1.0 0.1411197362
H  H219  1  0.86330000  0.26080000  0.64910000  1.0 0.1411197362
H  H220  1  0.23920000  0.36330000  0.64910000  1.0 0.1411197362
H  H221  1  0.63670000  0.76080000  0.85090000  1.0 0.1411197362
H  H222  1  0.73920000  0.13670000  0.85090000  1.0 0.1411197362
H  H223  1  0.36330000  0.23920000  0.85090000  1.0 0.1411197362
H  H224  1  0.26080000  0.86330000  0.85090000  1.0 0.1411197362
C  C1  1  0.55580000  0.92430000  0.02870000  1.0 -0.0704772256
C  C2  1  0.57570000  0.05580000  0.02870000  1.0 -0.0704772256
C  C3  1  0.44420000  0.07570000  0.02870000  1.0 -0.0704772256
C  C4  1  0.42430000  0.94420000  0.02870000  1.0 -0.0704772256
C  C5  1  0.05580000  0.57570000  0.47130000  1.0 -0.0704772256
C  C6  1  0.92430000  0.55580000  0.47130000  1.0 -0.0704772256
C  C7  1  0.94420000  0.42430000  0.47130000  1.0 -0.0704772256
C  C8  1  0.07570000  0.44420000  0.47130000  1.0 -0.0704772256
C  C9  1  0.94420000  0.57570000  0.97130000  1.0 -0.0704772256
C  C10  1  0.92430000  0.44420000  0.97130000  1.0 -0.0704772256
C  C11  1  0.05580000  0.42430000  0.97130000  1.0 -0.0704772256
C  C12  1  0.07570000  0.55580000  0.97130000  1.0 -0.0704772256
C  C13  1  0.44420000  0.92430000  0.52870000  1.0 -0.0704772256
C  C14  1  0.57570000  0.94420000  0.52870000  1.0 -0.0704772256
C  C15  1  0.55580000  0.07570000  0.52870000  1.0 -0.0704772256
C  C16  1  0.42430000  0.05580000  0.52870000  1.0 -0.0704772256
C  C17  1  0.55550000  0.92390000  0.94900000  1.0 -0.0704772256
C  C18  1  0.57610000  0.05550000  0.94900000  1.0 -0.0704772256
C  C19  1  0.44450000  0.07610000  0.94900000  1.0 -0.0704772256
C  C20  1  0.42390000  0.94450000  0.94900000  1.0 -0.0704772256
C  C21  1  0.05550000  0.57610000  0.55100000  1.0 -0.0704772256
C  C22  1  0.92390000  0.55550000  0.55100000  1.0 -0.0704772256
C  C23  1  0.94450000  0.42390000  0.55100000  1.0 -0.0704772256
C  C24  1  0.07610000  0.44450000  0.55100000  1.0 -0.0704772256
C  C25  1  0.94450000  0.57610000  0.05100000  1.0 -0.0704772256
C  C26  1  0.92390000  0.44450000  0.05100000  1.0 -0.0704772256
C  C27  1  0.05550000  0.42390000  0.05100000  1.0 -0.0704772256
C  C28  1  0.07610000  0.55550000  0.05100000  1.0 -0.0704772256
C  C29  1  0.44450000  0.92390000  0.44900000  1.0 -0.0704772256
C  C30  1  0.57610000  0.94450000  0.44900000  1.0 -0.0704772256
C  C31  1  0.55550000  0.07610000  0.44900000  1.0 -0.0704772256
C  C32  1  0.42390000  0.05550000  0.44900000  1.0 -0.0704772256
C  C33  1  0.58500000  0.96300000  0.94770000  1.0 -0.0704772256
C  C34  1  0.53700000  0.08500000  0.94770000  1.0 -0.0704772256
C  C35  1  0.41500000  0.03700000  0.94770000  1.0 -0.0704772256
C  C36  1  0.46300000  0.91500000  0.94770000  1.0 -0.0704772256
C  C37  1  0.08500000  0.53700000  0.55230000  1.0 -0.0704772256
C  C38  1  0.96300000  0.58500000  0.55230000  1.0 -0.0704772256
C  C39  1  0.91500000  0.46300000  0.55230000  1.0 -0.0704772256
C  C40  1  0.03700000  0.41500000  0.55230000  1.0 -0.0704772256
C  C41  1  0.91500000  0.53700000  0.05230000  1.0 -0.0704772256
C  C42  1  0.96300000  0.41500000  0.05230000  1.0 -0.0704772256
C  C43  1  0.08500000  0.46300000  0.05230000  1.0 -0.0704772256
C  C44  1  0.03700000  0.58500000  0.05230000  1.0 -0.0704772256
C  C45  1  0.41500000  0.96300000  0.44770000  1.0 -0.0704772256
C  C46  1  0.53700000  0.91500000  0.44770000  1.0 -0.0704772256
C  C47  1  0.58500000  0.03700000  0.44770000  1.0 -0.0704772256
C  C48  1  0.46300000  0.08500000  0.44770000  1.0 -0.0704772256
C  C49  1  0.53750000  0.08560000  0.02720000  1.0 -0.0704772256
C  C50  1  0.41440000  0.03750000  0.02720000  1.0 -0.0704772256
C  C51  1  0.46250000  0.91440000  0.02720000  1.0 -0.0704772256
C  C52  1  0.58560000  0.96250000  0.02720000  1.0 -0.0704772256
C  C53  1  0.03750000  0.41440000  0.47280000  1.0 -0.0704772256
C  C54  1  0.08560000  0.53750000  0.47280000  1.0 -0.0704772256
C  C55  1  0.96250000  0.58560000  0.47280000  1.0 -0.0704772256
C  C56  1  0.91440000  0.46250000  0.47280000  1.0 -0.0704772256
C  C57  1  0.96250000  0.41440000  0.97280000  1.0 -0.0704772256
C  C58  1  0.08560000  0.46250000  0.97280000  1.0 -0.0704772256
C  C59  1  0.03750000  0.58560000  0.97280000  1.0 -0.0704772256
C  C60  1  0.91440000  0.53750000  0.97280000  1.0 -0.0704772256
C  C61  1  0.46250000  0.08560000  0.52720000  1.0 -0.0704772256
C  C62  1  0.41440000  0.96250000  0.52720000  1.0 -0.0704772256
C  C63  1  0.53750000  0.91440000  0.52720000  1.0 -0.0704772256
C  C64  1  0.58560000  0.03750000  0.52720000  1.0 -0.0704772256
C  C65  1  0.40720000  0.98880000  0.02850000  1.0 -0.0704772256
C  C66  1  0.51120000  0.90720000  0.02850000  1.0 -0.0704772256
C  C67  1  0.59280000  0.01120000  0.02850000  1.0 -0.0704772256
C  C68  1  0.48880000  0.09280000  0.02850000  1.0 -0.0704772256
C  C69  1  0.90720000  0.51120000  0.47150000  1.0 -0.0704772256
C  C70  1  0.98880000  0.40720000  0.47150000  1.0 -0.0704772256
C  C71  1  0.09280000  0.48880000  0.47150000  1.0 -0.0704772256
C  C72  1  0.01120000  0.59280000  0.47150000  1.0 -0.0704772256
C  C73  1  0.09280000  0.51120000  0.97150000  1.0 -0.0704772256
C  C74  1  0.98880000  0.59280000  0.97150000  1.0 -0.0704772256
C  C75  1  0.90720000  0.48880000  0.97150000  1.0 -0.0704772256
C  C76  1  0.01120000  0.40720000  0.97150000  1.0 -0.0704772256
C  C77  1  0.59280000  0.98880000  0.52850000  1.0 -0.0704772256
C  C78  1  0.51120000  0.09280000  0.52850000  1.0 -0.0704772256
C  C79  1  0.40720000  0.01120000  0.52850000  1.0 -0.0704772256
C  C80  1  0.48880000  0.90720000  0.52850000  1.0 -0.0704772256
C  C81  1  0.51200000  0.90670000  0.94880000  1.0 -0.0704772256
C  C82  1  0.59330000  0.01200000  0.94880000  1.0 -0.0704772256
C  C83  1  0.48800000  0.09330000  0.94880000  1.0 -0.0704772256
C  C84  1  0.40670000  0.98800000  0.94880000  1.0 -0.0704772256
C  C85  1  0.01200000  0.59330000  0.55120000  1.0 -0.0704772256
C  C86  1  0.90670000  0.51200000  0.55120000  1.0 -0.0704772256
C  C87  1  0.98800000  0.40670000  0.55120000  1.0 -0.0704772256
C  C88  1  0.09330000  0.48800000  0.55120000  1.0 -0.0704772256
C  C89  1  0.98800000  0.59330000  0.05120000  1.0 -0.0704772256
C  C90  1  0.90670000  0.48800000  0.05120000  1.0 -0.0704772256
C  C91  1  0.01200000  0.40670000  0.05120000  1.0 -0.0704772256
C  C92  1  0.09330000  0.51200000  0.05120000  1.0 -0.0704772256
C  C93  1  0.48800000  0.90670000  0.44880000  1.0 -0.0704772256
C  C94  1  0.59330000  0.98800000  0.44880000  1.0 -0.0704772256
C  C95  1  0.51200000  0.09330000  0.44880000  1.0 -0.0704772256
C  C96  1  0.40670000  0.01200000  0.44880000  1.0 -0.0704772256
C  C97  1  0.42580000  0.84650000  0.23948000  1.0 0.3821624079
C  C98  1  0.65350000  0.92580000  0.23948000  1.0 0.3821624079
C  C99  1  0.57420000  0.15350000  0.23948000  1.0 0.3821624079
C  C100  1  0.34650000  0.07420000  0.23948000  1.0 0.3821624079
C  C101  1  0.92580000  0.65350000  0.26052000  1.0 0.3821624079
C  C102  1  0.84650000  0.42580000  0.26052000  1.0 0.3821624079
C  C103  1  0.07420000  0.34650000  0.26052000  1.0 0.3821624079
C  C104  1  0.15350000  0.57420000  0.26052000  1.0 0.3821624079
C  C105  1  0.07420000  0.65350000  0.76052000  1.0 0.3821624079
C  C106  1  0.84650000  0.57420000  0.76052000  1.0 0.3821624079
C  C107  1  0.92580000  0.34650000  0.76052000  1.0 0.3821624079
C  C108  1  0.15350000  0.42580000  0.76052000  1.0 0.3821624079
C  C109  1  0.57420000  0.84650000  0.73948000  1.0 0.3821624079
C  C110  1  0.65350000  0.07420000  0.73948000  1.0 0.3821624079
C  C111  1  0.42580000  0.15350000  0.73948000  1.0 0.3821624079
C  C112  1  0.34650000  0.92580000  0.73948000  1.0 0.3821624079
C  C113  1  0.36330000  0.76800000  0.24459000  1.0 0.030041147
C  C114  1  0.73200000  0.86330000  0.24459000  1.0 0.030041147
C  C115  1  0.63670000  0.23200000  0.24459000  1.0 0.030041147
C  C116  1  0.26800000  0.13670000  0.24459000  1.0 0.030041147
C  C117  1  0.86330000  0.73200000  0.25541000  1.0 0.030041147
C  C118  1  0.76800000  0.36330000  0.25541000  1.0 0.030041147
C  C119  1  0.13670000  0.26800000  0.25541000  1.0 0.030041147
C  C120  1  0.23200000  0.63670000  0.25541000  1.0 0.030041147
C  C121  1  0.13670000  0.73200000  0.75541000  1.0 0.030041147
C  C122  1  0.76800000  0.63670000  0.75541000  1.0 0.030041147
C  C123  1  0.86330000  0.26800000  0.75541000  1.0 0.030041147
C  C124  1  0.23200000  0.36330000  0.75541000  1.0 0.030041147
C  C125  1  0.63670000  0.76800000  0.74459000  1.0 0.030041147
C  C126  1  0.73200000  0.13670000  0.74459000  1.0 0.030041147
C  C127  1  0.36330000  0.23200000  0.74459000  1.0 0.030041147
C  C128  1  0.26800000  0.86330000  0.74459000  1.0 0.030041147
C  C129  1  0.32730000  0.72970000  0.18435000  1.0 -0.1473751097
C  C130  1  0.77030000  0.82730000  0.18435000  1.0 -0.1473751097
C  C131  1  0.67270000  0.27030000  0.18435000  1.0 -0.1473751097
C  C132  1  0.22970000  0.17270000  0.18435000  1.0 -0.1473751097
C  C133  1  0.82730000  0.77030000  0.31565000  1.0 -0.1473751097
C  C134  1  0.72970000  0.32730000  0.31565000  1.0 -0.1473751097
C  C135  1  0.17270000  0.22970000  0.31565000  1.0 -0.1473751097
C  C136  1  0.27030000  0.67270000  0.31565000  1.0 -0.1473751097
C  C137  1  0.17270000  0.77030000  0.81565000  1.0 -0.1473751097
C  C138  1  0.72970000  0.67270000  0.81565000  1.0 -0.1473751097
C  C139  1  0.82730000  0.22970000  0.81565000  1.0 -0.1473751097
C  C140  1  0.27030000  0.32730000  0.81565000  1.0 -0.1473751097
C  C141  1  0.67270000  0.72970000  0.68435000  1.0 -0.1473751097
C  C142  1  0.77030000  0.17270000  0.68435000  1.0 -0.1473751097
C  C143  1  0.32730000  0.27030000  0.68435000  1.0 -0.1473751097
C  C144  1  0.22970000  0.82730000  0.68435000  1.0 -0.1473751097
C  C145  1  0.33620000  0.73720000  0.30993000  1.0 -0.1606627732
C  C146  1  0.76280000  0.83620000  0.30993000  1.0 -0.1606627732
C  C147  1  0.66380000  0.26280000  0.30993000  1.0 -0.1606627732
C  C148  1  0.23720000  0.16380000  0.30993000  1.0 -0.1606627732
C  C149  1  0.83620000  0.76280000  0.19007000  1.0 -0.1606627732
C  C150  1  0.73720000  0.33620000  0.19007000  1.0 -0.1606627732
C  C151  1  0.16380000  0.23720000  0.19007000  1.0 -0.1606627732
C  C152  1  0.26280000  0.66380000  0.19007000  1.0 -0.1606627732
C  C153  1  0.16380000  0.76280000  0.69007000  1.0 -0.1606627732
C  C154  1  0.73720000  0.66380000  0.69007000  1.0 -0.1606627732
C  C155  1  0.83620000  0.23720000  0.69007000  1.0 -0.1606627732
C  C156  1  0.26280000  0.33620000  0.69007000  1.0 -0.1606627732
C  C157  1  0.66380000  0.73720000  0.80993000  1.0 -0.1606627732
C  C158  1  0.76280000  0.16380000  0.80993000  1.0 -0.1606627732
C  C159  1  0.33620000  0.26280000  0.80993000  1.0 -0.1606627732
C  C160  1  0.23720000  0.83620000  0.80993000  1.0 -0.1606627732
N  N1  1  0.50000000  0.00000000  0.05540000  1.0 -0.0704772256
N  N2  1  0.00000000  0.50000000  0.44460000  1.0 -0.0704772256
N  N3  1  0.00000000  0.50000000  0.94460000  1.0 -0.0704772256
N  N4  1  0.50000000  0.00000000  0.55540000  1.0 -0.0704772256
N  N5  1  0.50000000  0.00000000  0.92070000  1.0 -0.0603479418
N  N6  1  0.00000000  0.50000000  0.57930000  1.0 -0.0603479418
N  N7  1  0.00000000  0.50000000  0.07930000  1.0 -0.0603479418
N  N8  1  0.50000000  0.00000000  0.42070000  1.0 -0.0603479418
O  O1  1  0.46519000  0.87061000  0.29458000  1.0 -0.4703219003
O  O2  1  0.62939000  0.96519000  0.29458000  1.0 -0.4703219003
O  O3  1  0.53481000  0.12939000  0.29458000  1.0 -0.4703219003
O  O4  1  0.37061000  0.03481000  0.29458000  1.0 -0.4703219003
O  O5  1  0.96519000  0.62939000  0.20542000  1.0 -0.4703219003
O  O6  1  0.87061000  0.46519000  0.20542000  1.0 -0.4703219003
O  O7  1  0.03481000  0.37061000  0.20542000  1.0 -0.4703219003
O  O8  1  0.12939000  0.53481000  0.20542000  1.0 -0.4703219003
O  O9  1  0.03481000  0.62939000  0.70542000  1.0 -0.4703219003
O  O10  1  0.87061000  0.53481000  0.70542000  1.0 -0.4703219003
O  O11  1  0.96519000  0.37061000  0.70542000  1.0 -0.4703219003
O  O12  1  0.12939000  0.46519000  0.70542000  1.0 -0.4703219003
O  O13  1  0.53481000  0.87061000  0.79458000  1.0 -0.4703219003
O  O14  1  0.62939000  0.03481000  0.79458000  1.0 -0.4703219003
O  O15  1  0.46519000  0.12939000  0.79458000  1.0 -0.4703219003
O  O16  1  0.37061000  0.96519000  0.79458000  1.0 -0.4703219003
O  O17  1  0.43166000  0.88409000  0.18096000  1.0 -0.4604523937
O  O18  1  0.61591000  0.93166000  0.18096000  1.0 -0.4604523937
O  O19  1  0.56834000  0.11591000  0.18096000  1.0 -0.4604523937
O  O20  1  0.38409000  0.06834000  0.18096000  1.0 -0.4604523937
O  O21  1  0.93166000  0.61591000  0.31904000  1.0 -0.4604523937
O  O22  1  0.88409000  0.43166000  0.31904000  1.0 -0.4604523937
O  O23  1  0.06834000  0.38409000  0.31904000  1.0 -0.4604523937
O  O24  1  0.11591000  0.56834000  0.31904000  1.0 -0.4604523937
O  O25  1  0.06834000  0.61591000  0.81904000  1.0 -0.4604523937
O  O26  1  0.88409000  0.56834000  0.81904000  1.0 -0.4604523937
O  O27  1  0.93166000  0.38409000  0.81904000  1.0 -0.4604523937
O  O28  1  0.11591000  0.43166000  0.81904000  1.0 -0.4604523937
O  O29  1  0.56834000  0.88409000  0.68096000  1.0 -0.4604523937
O  O30  1  0.61591000  0.06834000  0.68096000  1.0 -0.4604523937
O  O31  1  0.43166000  0.11591000  0.68096000  1.0 -0.4604523937
O  O32  1  0.38409000  0.93166000  0.68096000  1.0 -0.4604523937
