# DDEC6 charges by PACMAN v1.1 (https://github.com/mtap-research/PACMAN-charge/)
data_WARFAY05_ASR_pacman
_symmetry_space_group_name_H-M   'P 1'
_cell_length_a   14.33350000
_cell_length_b   14.33350000
_cell_length_c   14.33350000
_cell_angle_alpha   116.76100000
_cell_angle_beta   116.76100000
_cell_angle_gamma   95.70800000
_symmetry_Int_Tables_number   1
_chemical_formula_structural   ZnH12C16NO4
_chemical_formula_sum   'Zn4 H48 C64 N4 O16'
_cell_volume   2172.56665755
_cell_formula_units_Z   4
loop_
 _symmetry_equiv_pos_site_id
 _symmetry_equiv_pos_as_xyz
  1  'x, y, z'
loop_
 _atom_site_type_symbol
 _atom_site_label
 _atom_site_symmetry_multiplicity
 _atom_site_fract_x
 _atom_site_fract_y
 _atom_site_fract_z
 _atom_site_occupancy
 _atom_site_charge
Zn  Zn1  1  0.07664000  0.07664000  0.00000000  1.0 0.7540765596
Zn  Zn2  1  0.42336000  0.42336000  0.00000000  1.0 0.7540765596
Zn  Zn3  1  0.92336000  0.92336000  0.00000000  1.0 0.7540765596
Zn  Zn4  1  0.57664000  0.57664000  0.00000000  1.0 0.7540765596
H  H1  1  0.34810000  0.95720000  0.09630000  1.0 0.1271316452
H  H2  1  0.86090000  0.25180000  0.90370000  1.0 0.1271316452
H  H3  1  0.95720000  0.86090000  0.60910000  1.0 0.1271316452
H  H4  1  0.25180000  0.34810000  0.39090000  1.0 0.1271316452
H  H5  1  0.63910000  0.54280000  0.39090000  1.0 0.1271316452
H  H6  1  0.15190000  0.24820000  0.60910000  1.0 0.1271316452
H  H7  1  0.24820000  0.63910000  0.09630000  1.0 0.1271316452
H  H8  1  0.54280000  0.15190000  0.90370000  1.0 0.1271316452
H  H9  1  0.65190000  0.04280000  0.90370000  1.0 0.1271316452
H  H10  1  0.13910000  0.74820000  0.09630000  1.0 0.1271316452
H  H11  1  0.04280000  0.13910000  0.39090000  1.0 0.1271316452
H  H12  1  0.74820000  0.65190000  0.60910000  1.0 0.1271316452
H  H13  1  0.36090000  0.45720000  0.60910000  1.0 0.1271316452
H  H14  1  0.84810000  0.75180000  0.39090000  1.0 0.1271316452
H  H15  1  0.75180000  0.36090000  0.90370000  1.0 0.1271316452
H  H16  1  0.45720000  0.84810000  0.09630000  1.0 0.1271316452
H  H17  1  0.27630000  0.08520000  0.99690000  1.0 0.0811106363
H  H18  1  0.08830000  0.27940000  0.00310000  1.0 0.0811106363
H  H19  1  0.08520000  0.08830000  0.80890000  1.0 0.0811106363
H  H20  1  0.27940000  0.27630000  0.19110000  1.0 0.0811106363
H  H21  1  0.41170000  0.41480000  0.19110000  1.0 0.0811106363
H  H22  1  0.22370000  0.22060000  0.80890000  1.0 0.0811106363
H  H23  1  0.22060000  0.41170000  0.99690000  1.0 0.0811106363
H  H24  1  0.41480000  0.22370000  0.00310000  1.0 0.0811106363
H  H25  1  0.72370000  0.91480000  0.00310000  1.0 0.0811106363
H  H26  1  0.91170000  0.72060000  0.99690000  1.0 0.0811106363
H  H27  1  0.91480000  0.91170000  0.19110000  1.0 0.0811106363
H  H28  1  0.72060000  0.72370000  0.80890000  1.0 0.0811106363
H  H29  1  0.58830000  0.58520000  0.80890000  1.0 0.0811106363
H  H30  1  0.77630000  0.77940000  0.19110000  1.0 0.0811106363
H  H31  1  0.77940000  0.58830000  0.00310000  1.0 0.0811106363
H  H32  1  0.58520000  0.77630000  0.99690000  1.0 0.0811106363
H  H33  1  0.34310000  0.20850000  0.12340000  1.0 0.0969838244
H  H34  1  0.08510000  0.21970000  0.87660000  1.0 0.0969838244
H  H35  1  0.20850000  0.08510000  0.86540000  1.0 0.0969838244
H  H36  1  0.21970000  0.34310000  0.13460000  1.0 0.0969838244
H  H37  1  0.41490000  0.29150000  0.13460000  1.0 0.0969838244
H  H38  1  0.15690000  0.28030000  0.86540000  1.0 0.0969838244
H  H39  1  0.28030000  0.41490000  0.12340000  1.0 0.0969838244
H  H40  1  0.29150000  0.15690000  0.87660000  1.0 0.0969838244
H  H41  1  0.65690000  0.79150000  0.87660000  1.0 0.0969838244
H  H42  1  0.91490000  0.78030000  0.12340000  1.0 0.0969838244
H  H43  1  0.79150000  0.91490000  0.13460000  1.0 0.0969838244
H  H44  1  0.78030000  0.65690000  0.86540000  1.0 0.0969838244
H  H45  1  0.58510000  0.70850000  0.86540000  1.0 0.0969838244
H  H46  1  0.84310000  0.71970000  0.13460000  1.0 0.0969838244
H  H47  1  0.71970000  0.58510000  0.87660000  1.0 0.0969838244
H  H48  1  0.70850000  0.84310000  0.12340000  1.0 0.0969838244
C  C1  1  0.15180000  0.92270000  0.07450000  1.0 0.5518194032
C  C2  1  0.84820000  0.07730000  0.92550000  1.0 0.5518194032
C  C3  1  0.92270000  0.84820000  0.77090000  1.0 0.5518194032
C  C4  1  0.07730000  0.15180000  0.22910000  1.0 0.5518194032
C  C5  1  0.65180000  0.57730000  0.22910000  1.0 0.5518194032
C  C6  1  0.34820000  0.42270000  0.77090000  1.0 0.5518194032
C  C7  1  0.42270000  0.65180000  0.07450000  1.0 0.5518194032
C  C8  1  0.57730000  0.34820000  0.92550000  1.0 0.5518194032
C  C9  1  0.23000000  0.86070000  0.09070000  1.0 0.0150138275
C  C10  1  0.77000000  0.13930000  0.90930000  1.0 0.0150138275
C  C11  1  0.86070000  0.77000000  0.63070000  1.0 0.0150138275
C  C12  1  0.13930000  0.23000000  0.36930000  1.0 0.0150138275
C  C13  1  0.73000000  0.63930000  0.36930000  1.0 0.0150138275
C  C14  1  0.27000000  0.36070000  0.63070000  1.0 0.0150138275
C  C15  1  0.36070000  0.73000000  0.09070000  1.0 0.0150138275
C  C16  1  0.63930000  0.27000000  0.90930000  1.0 0.0150138275
C  C17  1  0.32669000  0.89171000  0.09404000  1.0 -0.1223286497
C  C18  1  0.79767000  0.23265000  0.90596000  1.0 -0.1223286497
C  C19  1  0.89171000  0.79767000  0.56502000  1.0 -0.1223286497
C  C20  1  0.23265000  0.32669000  0.43498000  1.0 -0.1223286497
C  C21  1  0.70233000  0.60829000  0.43498000  1.0 -0.1223286497
C  C22  1  0.17331000  0.26735000  0.56502000  1.0 -0.1223286497
C  C23  1  0.26735000  0.70233000  0.09404000  1.0 -0.1223286497
C  C24  1  0.60829000  0.17331000  0.90596000  1.0 -0.1223286497
C  C25  1  0.67331000  0.10829000  0.90596000  1.0 -0.1223286497
C  C26  1  0.20233000  0.76735000  0.09404000  1.0 -0.1223286497
C  C27  1  0.10829000  0.20233000  0.43498000  1.0 -0.1223286497
C  C28  1  0.76735000  0.67331000  0.56502000  1.0 -0.1223286497
C  C29  1  0.29767000  0.39171000  0.56502000  1.0 -0.1223286497
C  C30  1  0.82669000  0.73265000  0.43498000  1.0 -0.1223286497
C  C31  1  0.73265000  0.29767000  0.90596000  1.0 -0.1223286497
C  C32  1  0.39171000  0.82669000  0.09404000  1.0 -0.1223286497
C  C33  1  0.28910000  0.16520000  0.03190000  1.0 -0.0592746969
C  C34  1  0.13330000  0.25720000  0.96810000  1.0 -0.0592746969
C  C35  1  0.16520000  0.13330000  0.87610000  1.0 -0.0592746969
C  C36  1  0.25720000  0.28910000  0.12390000  1.0 -0.0592746969
C  C37  1  0.36670000  0.33480000  0.12390000  1.0 -0.0592746969
C  C38  1  0.21090000  0.24280000  0.87610000  1.0 -0.0592746969
C  C39  1  0.24280000  0.36670000  0.03190000  1.0 -0.0592746969
C  C40  1  0.33480000  0.21090000  0.96810000  1.0 -0.0592746969
C  C41  1  0.71090000  0.83480000  0.96810000  1.0 -0.0592746969
C  C42  1  0.86670000  0.74280000  0.03190000  1.0 -0.0592746969
C  C43  1  0.83480000  0.86670000  0.12390000  1.0 -0.0592746969
C  C44  1  0.74280000  0.71090000  0.87610000  1.0 -0.0592746969
C  C45  1  0.63330000  0.66520000  0.87610000  1.0 -0.0592746969
C  C46  1  0.78910000  0.75720000  0.12390000  1.0 -0.0592746969
C  C47  1  0.75720000  0.63330000  0.96810000  1.0 -0.0592746969
C  C48  1  0.66520000  0.78910000  0.03190000  1.0 -0.0592746969
C  C49  1  0.23360000  0.12390000  0.94030000  1.0 -0.0379702257
C  C50  1  0.18360000  0.29330000  0.05970000  1.0 -0.0379702257
C  C51  1  0.12390000  0.18360000  0.89030000  1.0 -0.0379702257
C  C52  1  0.29330000  0.23360000  0.10970000  1.0 -0.0379702257
C  C53  1  0.31640000  0.37610000  0.10970000  1.0 -0.0379702257
C  C54  1  0.26640000  0.20670000  0.89030000  1.0 -0.0379702257
C  C55  1  0.20670000  0.31640000  0.94030000  1.0 -0.0379702257
C  C56  1  0.37610000  0.26640000  0.05970000  1.0 -0.0379702257
C  C57  1  0.76640000  0.87610000  0.05970000  1.0 -0.0379702257
C  C58  1  0.81640000  0.70670000  0.94030000  1.0 -0.0379702257
C  C59  1  0.87610000  0.81640000  0.10970000  1.0 -0.0379702257
C  C60  1  0.70670000  0.76640000  0.89030000  1.0 -0.0379702257
C  C61  1  0.68360000  0.62390000  0.89030000  1.0 -0.0379702257
C  C62  1  0.73360000  0.79330000  0.10970000  1.0 -0.0379702257
C  C63  1  0.79330000  0.68360000  0.05970000  1.0 -0.0379702257
C  C64  1  0.62390000  0.73360000  0.94030000  1.0 -0.0379702257
N  N1  1  0.18296000  0.18296000  0.00000000  1.0 -0.1063412087
N  N2  1  0.31704000  0.31704000  0.00000000  1.0 -0.1063412087
N  N3  1  0.81704000  0.81704000  0.00000000  1.0 -0.1063412087
N  N4  1  0.68296000  0.68296000  0.00000000  1.0 -0.1063412087
O  O1  1  0.17947000  0.00345000  0.06734000  1.0 -0.5310029866
O  O2  1  0.93611000  0.11213000  0.93266000  1.0 -0.5310029866
O  O3  1  0.00345000  0.93611000  0.82398000  1.0 -0.5310029866
O  O4  1  0.11213000  0.17947000  0.17602000  1.0 -0.5310029866
O  O5  1  0.56389000  0.49655000  0.17602000  1.0 -0.5310029866
O  O6  1  0.32053000  0.38787000  0.82398000  1.0 -0.5310029866
O  O7  1  0.38787000  0.56389000  0.06734000  1.0 -0.5310029866
O  O8  1  0.49655000  0.32053000  0.93266000  1.0 -0.5310029866
O  O9  1  0.82053000  0.99655000  0.93266000  1.0 -0.5310029866
O  O10  1  0.06389000  0.88787000  0.06734000  1.0 -0.5310029866
O  O11  1  0.99655000  0.06389000  0.17602000  1.0 -0.5310029866
O  O12  1  0.88787000  0.82053000  0.82398000  1.0 -0.5310029866
O  O13  1  0.43611000  0.50345000  0.82398000  1.0 -0.5310029866
O  O14  1  0.67947000  0.61213000  0.17602000  1.0 -0.5310029866
O  O15  1  0.61213000  0.43611000  0.93266000  1.0 -0.5310029866
O  O16  1  0.50345000  0.67947000  0.06734000  1.0 -0.5310029866
