# DDEC6 charges by PACMAN v1.1 (https://github.com/mtap-research/PACMAN-charge/)
data_WASKIN_ASR_pacman
_symmetry_space_group_name_H-M   'P 1'
_cell_length_a   24.95390000
_cell_length_b   24.95390000
_cell_length_c   24.79250000
_cell_angle_alpha   80.51700000
_cell_angle_beta   99.48300000
_cell_angle_gamma   101.66600000
_symmetry_Int_Tables_number   1
_chemical_formula_structural   Cu3H38C68(NO5)3
_chemical_formula_sum   'Cu24 H304 C544 N24 O120'
_cell_volume   14773.99368596
_cell_formula_units_Z   8
loop_
 _symmetry_equiv_pos_site_id
 _symmetry_equiv_pos_as_xyz
  1  'x, y, z'
loop_
 _atom_site_type_symbol
 _atom_site_label
 _atom_site_symmetry_multiplicity
 _atom_site_fract_x
 _atom_site_fract_y
 _atom_site_fract_z
 _atom_site_occupancy
 _atom_site_charge
Cu  Cu1  1  0.87300000  0.58260000  0.34000000  1.0 0.5916402118
Cu  Cu2  1  0.86670000  0.68190000  0.35320000  1.0 0.3956743667
Cu  Cu3  1  0.84433000  0.61019000  0.36930000  1.0 0.3956743667
Cu  Cu4  1  0.83989000  0.71297000  0.38290000  1.0 0.6315310674
Cu  Cu5  1  0.58260000  0.87300000  0.66000000  1.0 0.5916402118
Cu  Cu6  1  0.68190000  0.86670000  0.64680000  1.0 0.3956743667
Cu  Cu7  1  0.61019000  0.84433000  0.63070000  1.0 0.3956743667
Cu  Cu8  1  0.71297000  0.83989000  0.61710000  1.0 0.6315310674
Cu  Cu9  1  0.12700000  0.41740000  0.66000000  1.0 0.5916402118
Cu  Cu10  1  0.13330000  0.31810000  0.64680000  1.0 0.3956743667
Cu  Cu11  1  0.15567000  0.38981000  0.63070000  1.0 0.3956743667
Cu  Cu12  1  0.16011000  0.28703000  0.61710000  1.0 0.6315310674
Cu  Cu13  1  0.41740000  0.12700000  0.34000000  1.0 0.5916402118
Cu  Cu14  1  0.31810000  0.13330000  0.35320000  1.0 0.3956743667
Cu  Cu15  1  0.38981000  0.15567000  0.36930000  1.0 0.3956743667
Cu  Cu16  1  0.28703000  0.16011000  0.38290000  1.0 0.6315310674
Cu  Cu17  1  0.86640000  0.13360000  0.89580000  1.0 0.3741067426
Cu  Cu18  1  0.87610000  0.12390000  0.79370000  1.0 0.5671480176
Cu  Cu19  1  0.84900000  0.15100000  0.82280000  1.0 0.3780202346
Cu  Cu20  1  0.83875000  0.16125000  0.92760000  1.0 0.5671480176
Cu  Cu21  1  0.13360000  0.86640000  0.10420000  1.0 0.3741067426
Cu  Cu22  1  0.12390000  0.87610000  0.20630000  1.0 0.5631889777
Cu  Cu23  1  0.15100000  0.84900000  0.17720000  1.0 0.3780202346
Cu  Cu24  1  0.16125000  0.83875000  0.07240000  1.0 0.5671480176
H  H1  1  0.35412000  0.51624000  0.36001000  1.0 0.0702914667
H  H2  1  0.19754000  0.67360000  0.37117000  1.0 0.0895484817
H  H3  1  0.00867000  0.77471000  0.39391000  1.0 0.1208309015
H  H4  1  0.10417000  0.80153000  0.39435000  1.0 0.1208309015
H  H5  1  0.11410000  0.64764000  0.36912000  1.0 0.0895484817
H  H6  1  0.01860000  0.62082000  0.36868000  1.0 0.1093628614
H  H7  1  0.85454000  0.38298000  0.69643000  1.0 0.0608540604
H  H8  1  0.86025000  0.28947000  0.72115000  1.0 0.1093628614
H  H9  1  0.88861000  0.31049000  0.88271000  1.0 0.0895484817
H  H10  1  0.88292000  0.40400000  0.85796000  1.0 0.1000404025
H  H11  1  0.84927000  0.48053000  0.82935000  1.0 0.0895484817
H  H12  1  0.83975000  0.60457000  0.70206000  1.0 0.1000404025
H  H13  1  0.87507000  0.66115000  0.52862000  1.0 0.1093628614
H  H14  1  0.87133000  0.63409000  0.62309000  1.0 0.1000404025
H  H15  1  0.84466000  0.47340000  0.59952000  1.0 0.1000404025
H  H16  1  0.84840000  0.50046000  0.50505000  1.0 0.0804970859
H  H17  1  0.88358000  0.54890000  0.87565000  1.0 0.0804970859
H  H18  1  0.88445000  0.61401000  0.93392000  1.0 0.0895484817
H  H19  1  0.79439000  0.69971000  0.81122000  1.0 0.0804970859
H  H20  1  0.79351000  0.63461000  0.75295000  1.0 0.0702914667
H  H21  1  0.83893000  0.76973000  0.86063000  1.0 0.0804970859
H  H22  1  0.84589000  0.64483000  0.98736000  1.0 0.0895484817
H  H23  1  0.87444000  0.62596000  0.07422000  1.0 0.1093628614
H  H24  1  0.88287000  0.60253000  0.17021000  1.0 0.127136936
H  H25  1  0.84244000  0.74844000  0.18443000  1.0 0.0895484817
H  H26  1  0.83401000  0.77189000  0.08844000  1.0 0.0895484817
H  H27  1  0.84173000  0.85269000  0.83461000  1.0 0.0702914667
H  H28  1  0.85043000  0.94827000  0.80905000  1.0 0.1000404025
H  H29  1  0.86714000  0.96926000  0.97002000  1.0 0.0804970859
H  H30  1  0.86531000  0.43433000  0.88315000  1.0 0.0895484817
H  H31  1  0.86894000  0.34072000  0.91108000  1.0 0.1000404025
H  H32  1  0.83354000  0.31290000  0.75147000  1.0 0.1000404025
H  H33  1  0.82990000  0.40650000  0.72354000  1.0 0.0702914667
H  H34  1  0.83226000  0.63554000  0.73350000  1.0 0.0702914667
H  H35  1  0.84015000  0.50939000  0.85881000  1.0 0.0895484817
H  H36  1  0.84462000  0.68840000  0.55524000  1.0 0.1093628614
H  H37  1  0.84492000  0.66266000  0.65040000  1.0 0.1000404025
H  H38  1  0.84382000  0.50398000  0.63218000  1.0 0.0895484817
H  H39  1  0.84351000  0.52971000  0.53702000  1.0 0.0804970859
H  H40  1  0.77818000  0.65748000  0.79168000  1.0 0.0804970859
H  H41  1  0.77561000  0.71923000  0.85235000  1.0 0.0702914667
H  H42  1  0.88820000  0.64932000  0.96399000  1.0 0.0895484817
H  H43  1  0.89078000  0.58758000  0.90332000  1.0 0.0895484817
H  H44  1  0.82846000  0.79648000  0.89218000  1.0 0.0895484817
H  H45  1  0.82594000  0.67348000  0.02133000  1.0 0.0804970859
H  H46  1  0.84246000  0.81344000  0.12052000  1.0 0.0702914667
H  H47  1  0.84588000  0.79028000  0.21625000  1.0 0.1000404025
H  H48  1  0.80108000  0.62822000  0.19777000  1.0 0.1093628614
H  H49  1  0.79766000  0.65138000  0.10204000  1.0 0.1000404025
H  H50  1  0.84839000  0.88465000  0.86982000  1.0 0.0804970859
H  H51  1  0.85397000  0.98005000  0.84498000  1.0 0.1000404025
H  H52  1  0.80855000  0.99117000  0.99177000  1.0 0.1208309015
H  H53  1  0.80297000  0.89579000  0.01661000  1.0 0.1093628614
H  H54  1  0.62070000  0.50806000  0.68916000  1.0 0.0804970859
H  H55  1  0.65790000  0.46930000  0.66249000  1.0 0.0608540604
H  H56  1  0.72536000  0.41998000  0.65174000  1.0 0.0608540604
H  H57  1  0.61908000  0.27606000  0.68300000  1.0 0.0895484817
H  H58  1  0.55203000  0.32509000  0.69364000  1.0 0.0895484817
H  H59  1  0.77337000  0.35509000  0.65091000  1.0 0.0608540604
H  H60  1  0.95741000  0.27013000  0.59075000  1.0 0.1000404025
H  H61  1  0.86160000  0.24478000  0.58852000  1.0 0.0895484817
H  H62  1  0.86112000  0.37230000  0.67062000  1.0 0.0804970859
H  H63  1  0.95693000  0.39765000  0.67286000  1.0 0.1208309015
H  H64  1  0.85844000  0.87368000  0.99558000  1.0 0.0895484817
H  H65  1  0.29406000  0.56076000  0.38283000  1.0 0.0702914667
H  H66  1  0.42659000  0.67865000  0.34987000  1.0 0.0804970859
H  H67  1  0.37673000  0.74715000  0.35475000  1.0 0.0895484817
H  H68  1  0.24407000  0.62933000  0.38777000  1.0 0.0608540604
H  H69  1  0.30601000  0.33661000  0.37716000  1.0 0.1093628614
H  H70  1  0.33123000  0.43279000  0.37012000  1.0 0.1404775178
H  H71  1  0.48361000  0.42259000  0.34061000  1.0 0.0702914667
H  H72  1  0.45838000  0.32640000  0.34765000  1.0 0.0895484817
H  H73  1  0.49402000  0.29784000  0.34051000  1.0 0.1000404025
H  H74  1  0.51741000  0.39415000  0.33360000  1.0 0.0895484817
H  H75  1  0.35506000  0.40498000  0.30227000  1.0 0.1000404025
H  H76  1  0.33167000  0.30867000  0.30918000  1.0 0.1093628614
H  H77  1  0.51624000  0.35412000  0.63999000  1.0 0.0702914667
H  H78  1  0.67360000  0.19754000  0.62883000  1.0 0.0895484817
H  H79  1  0.77471000  0.00867000  0.60609000  1.0 0.1208309015
H  H80  1  0.80153000  0.10417000  0.60565000  1.0 0.1208309015
H  H81  1  0.64764000  0.11410000  0.63088000  1.0 0.0895484817
H  H82  1  0.62082000  0.01860000  0.63132000  1.0 0.1093628614
H  H83  1  0.38298000  0.85454000  0.30357000  1.0 0.0608540604
H  H84  1  0.28947000  0.86025000  0.27885000  1.0 0.1093628614
H  H85  1  0.31049000  0.88861000  0.11729000  1.0 0.0895484817
H  H86  1  0.40400000  0.88292000  0.14204000  1.0 0.1000404025
H  H87  1  0.48053000  0.84927000  0.17065000  1.0 0.0895484817
H  H88  1  0.60457000  0.83975000  0.29794000  1.0 0.1000404025
H  H89  1  0.66115000  0.87507000  0.47138000  1.0 0.1093628614
H  H90  1  0.63409000  0.87133000  0.37691000  1.0 0.1000404025
H  H91  1  0.47340000  0.84466000  0.40048000  1.0 0.1000404025
H  H92  1  0.50046000  0.84840000  0.49495000  1.0 0.0804970859
H  H93  1  0.54890000  0.88358000  0.12435000  1.0 0.0804970859
H  H94  1  0.61401000  0.88445000  0.06608000  1.0 0.0895484817
H  H95  1  0.69971000  0.79439000  0.18878000  1.0 0.0804970859
H  H96  1  0.63461000  0.79351000  0.24705000  1.0 0.0702914667
H  H97  1  0.76973000  0.83893000  0.13937000  1.0 0.0804970859
H  H98  1  0.64483000  0.84589000  0.01264000  1.0 0.0895484817
H  H99  1  0.62596000  0.87444000  0.92578000  1.0 0.1093628614
H  H100  1  0.60253000  0.88287000  0.82979000  1.0 0.127136936
H  H101  1  0.74844000  0.84244000  0.81557000  1.0 0.0895484817
H  H102  1  0.77189000  0.83401000  0.91156000  1.0 0.0895484817
H  H103  1  0.85269000  0.84173000  0.16539000  1.0 0.0702914667
H  H104  1  0.94827000  0.85043000  0.19095000  1.0 0.1000404025
H  H105  1  0.96926000  0.86714000  0.02998000  1.0 0.0804970859
H  H106  1  0.43433000  0.86531000  0.11685000  1.0 0.0895484817
H  H107  1  0.34072000  0.86894000  0.08892000  1.0 0.1000404025
H  H108  1  0.31290000  0.83354000  0.24853000  1.0 0.1000404025
H  H109  1  0.40650000  0.82990000  0.27646000  1.0 0.0702914667
H  H110  1  0.63554000  0.83226000  0.26650000  1.0 0.0702914667
H  H111  1  0.50939000  0.84015000  0.14119000  1.0 0.0895484817
H  H112  1  0.68840000  0.84462000  0.44476000  1.0 0.1093628614
H  H113  1  0.66266000  0.84492000  0.34960000  1.0 0.1000404025
H  H114  1  0.50398000  0.84382000  0.36782000  1.0 0.0895484817
H  H115  1  0.52971000  0.84351000  0.46298000  1.0 0.0804970859
H  H116  1  0.65748000  0.77818000  0.20831000  1.0 0.0804970859
H  H117  1  0.71923000  0.77561000  0.14765000  1.0 0.0702914667
H  H118  1  0.64932000  0.88820000  0.03601000  1.0 0.0895484817
H  H119  1  0.58758000  0.89078000  0.09668000  1.0 0.0895484817
H  H120  1  0.79648000  0.82846000  0.10782000  1.0 0.0895484817
H  H121  1  0.67348000  0.82594000  0.97867000  1.0 0.0804970859
H  H122  1  0.81344000  0.84246000  0.87948000  1.0 0.0702914667
H  H123  1  0.79028000  0.84588000  0.78375000  1.0 0.1000404025
H  H124  1  0.62822000  0.80108000  0.80223000  1.0 0.1093628614
H  H125  1  0.65138000  0.79766000  0.89796000  1.0 0.1000404025
H  H126  1  0.88465000  0.84839000  0.13018000  1.0 0.0804970859
H  H127  1  0.98005000  0.85397000  0.15502000  1.0 0.1000404025
H  H128  1  0.99117000  0.80855000  0.00823000  1.0 0.1208309015
H  H129  1  0.89579000  0.80297000  0.98339000  1.0 0.1093628614
H  H130  1  0.50806000  0.62070000  0.31084000  1.0 0.0804970859
H  H131  1  0.46930000  0.65790000  0.33751000  1.0 0.0608540604
H  H132  1  0.41998000  0.72536000  0.34826000  1.0 0.0608540604
H  H133  1  0.27606000  0.61908000  0.31700000  1.0 0.0895484817
H  H134  1  0.32509000  0.55203000  0.30636000  1.0 0.0895484817
H  H135  1  0.35509000  0.77337000  0.34909000  1.0 0.0608540604
H  H136  1  0.27013000  0.95741000  0.40925000  1.0 0.1000404025
H  H137  1  0.24478000  0.86160000  0.41148000  1.0 0.0895484817
H  H138  1  0.37230000  0.86112000  0.32938000  1.0 0.0804970859
H  H139  1  0.39765000  0.95693000  0.32714000  1.0 0.1208309015
H  H140  1  0.87368000  0.85844000  0.00442000  1.0 0.0895484817
H  H141  1  0.56076000  0.29406000  0.61717000  1.0 0.0702914667
H  H142  1  0.67865000  0.42659000  0.65013000  1.0 0.0804970859
H  H143  1  0.74715000  0.37673000  0.64524000  1.0 0.0895484817
H  H144  1  0.62933000  0.24407000  0.61223000  1.0 0.0608540604
H  H145  1  0.33661000  0.30601000  0.62284000  1.0 0.1093628614
H  H146  1  0.43279000  0.33123000  0.62988000  1.0 0.1404775178
H  H147  1  0.42259000  0.48361000  0.65939000  1.0 0.0702914667
H  H148  1  0.32640000  0.45838000  0.65235000  1.0 0.0895484817
H  H149  1  0.29784000  0.49402000  0.65949000  1.0 0.1000404025
H  H150  1  0.39415000  0.51741000  0.66640000  1.0 0.0895484817
H  H151  1  0.40498000  0.35506000  0.69773000  1.0 0.1000404025
H  H152  1  0.30867000  0.33167000  0.69082000  1.0 0.1093628614
H  H153  1  0.64588000  0.48376000  0.63999000  1.0 0.0702914667
H  H154  1  0.80246000  0.32640000  0.62883000  1.0 0.0895484817
H  H155  1  0.99133000  0.22529000  0.60609000  1.0 0.1208309015
H  H156  1  0.89583000  0.19847000  0.60565000  1.0 0.1208309015
H  H157  1  0.88590000  0.35236000  0.63088000  1.0 0.0895484817
H  H158  1  0.98140000  0.37918000  0.63132000  1.0 0.1093628614
H  H159  1  0.14546000  0.61702000  0.30357000  1.0 0.0608540604
H  H160  1  0.13975000  0.71053000  0.27885000  1.0 0.1093628614
H  H161  1  0.11139000  0.68951000  0.11729000  1.0 0.0895484817
H  H162  1  0.11708000  0.59600000  0.14204000  1.0 0.1000404025
H  H163  1  0.15073000  0.51947000  0.17065000  1.0 0.0895484817
H  H164  1  0.16025000  0.39543000  0.29794000  1.0 0.1000404025
H  H165  1  0.12493000  0.33885000  0.47138000  1.0 0.1093628614
H  H166  1  0.12867000  0.36591000  0.37691000  1.0 0.1000404025
H  H167  1  0.15534000  0.52660000  0.40048000  1.0 0.1000404025
H  H168  1  0.15160000  0.49954000  0.49495000  1.0 0.0804970859
H  H169  1  0.11642000  0.45110000  0.12435000  1.0 0.0804970859
H  H170  1  0.11555000  0.38599000  0.06608000  1.0 0.0895484817
H  H171  1  0.20561000  0.30029000  0.18878000  1.0 0.0804970859
H  H172  1  0.20649000  0.36539000  0.24705000  1.0 0.0702914667
H  H173  1  0.16107000  0.23027000  0.13937000  1.0 0.0804970859
H  H174  1  0.15411000  0.35517000  0.01264000  1.0 0.0895484817
H  H175  1  0.12556000  0.37404000  0.92578000  1.0 0.1093628614
H  H176  1  0.11713000  0.39747000  0.82979000  1.0 0.127136936
H  H177  1  0.15756000  0.25156000  0.81557000  1.0 0.0895484817
H  H178  1  0.16599000  0.22811000  0.91156000  1.0 0.0895484817
H  H179  1  0.15827000  0.14731000  0.16539000  1.0 0.0702914667
H  H180  1  0.14957000  0.05173000  0.19095000  1.0 0.1000404025
H  H181  1  0.13286000  0.03074000  0.02998000  1.0 0.0804970859
H  H182  1  0.13469000  0.56567000  0.11685000  1.0 0.0804970859
H  H183  1  0.13106000  0.65928000  0.08892000  1.0 0.1000404025
H  H184  1  0.16646000  0.68710000  0.24853000  1.0 0.1000404025
H  H185  1  0.17010000  0.59350000  0.27646000  1.0 0.0702914667
H  H186  1  0.16774000  0.36446000  0.26650000  1.0 0.0702914667
H  H187  1  0.15985000  0.49061000  0.14119000  1.0 0.0895484817
H  H188  1  0.15538000  0.31160000  0.44476000  1.0 0.1093628614
H  H189  1  0.15508000  0.33734000  0.34960000  1.0 0.1000404025
H  H190  1  0.15618000  0.49602000  0.36782000  1.0 0.0895484817
H  H191  1  0.15649000  0.47029000  0.46298000  1.0 0.0804970859
H  H192  1  0.22182000  0.34252000  0.20831000  1.0 0.0804970859
H  H193  1  0.22439000  0.28077000  0.14765000  1.0 0.0702914667
H  H194  1  0.11180000  0.35068000  0.03601000  1.0 0.0895484817
H  H195  1  0.10922000  0.41242000  0.09668000  1.0 0.0895484817
H  H196  1  0.17154000  0.20352000  0.10782000  1.0 0.0895484817
H  H197  1  0.17406000  0.32652000  0.97867000  1.0 0.0804970859
H  H198  1  0.15754000  0.18656000  0.87948000  1.0 0.0702914667
H  H199  1  0.15412000  0.20972000  0.78375000  1.0 0.1000404025
H  H200  1  0.19892000  0.37178000  0.80223000  1.0 0.1093628614
H  H201  1  0.20234000  0.34862000  0.89796000  1.0 0.1000404025
H  H202  1  0.15161000  0.11535000  0.13018000  1.0 0.0804970859
H  H203  1  0.14603000  0.01995000  0.15502000  1.0 0.1000404025
H  H204  1  0.19145000  0.00883000  0.00823000  1.0 0.1208309015
H  H205  1  0.19703000  0.10421000  0.98339000  1.0 0.1093628614
H  H206  1  0.37930000  0.49194000  0.31084000  1.0 0.0804970859
H  H207  1  0.34210000  0.53070000  0.33751000  1.0 0.0608540604
H  H208  1  0.27464000  0.58002000  0.34826000  1.0 0.0608540604
H  H209  1  0.38092000  0.72394000  0.31700000  1.0 0.0895484817
H  H210  1  0.44797000  0.67491000  0.30636000  1.0 0.0895484817
H  H211  1  0.22663000  0.64491000  0.34909000  1.0 0.0608540604
H  H212  1  0.04259000  0.72987000  0.40925000  1.0 0.1000404025
H  H213  1  0.13840000  0.75522000  0.41148000  1.0 0.0895484817
H  H214  1  0.13888000  0.62770000  0.32938000  1.0 0.0804970859
H  H215  1  0.04307000  0.60235000  0.32714000  1.0 0.1208309015
H  H216  1  0.14156000  0.12632000  0.00442000  1.0 0.0895484817
H  H217  1  0.70594000  0.43924000  0.61717000  1.0 0.0702914667
H  H218  1  0.57341000  0.32135000  0.65013000  1.0 0.0804970859
H  H219  1  0.62327000  0.25285000  0.64524000  1.0 0.0895484817
H  H220  1  0.75593000  0.37067000  0.61223000  1.0 0.0608540604
H  H221  1  0.69399000  0.66339000  0.62284000  1.0 0.1093628614
H  H222  1  0.66877000  0.56721000  0.62988000  1.0 0.1404775178
H  H223  1  0.51639000  0.57741000  0.65939000  1.0 0.0702914667
H  H224  1  0.54162000  0.67360000  0.65235000  1.0 0.0895484817
H  H225  1  0.50598000  0.70216000  0.65949000  1.0 0.1000404025
H  H226  1  0.48259000  0.60585000  0.66640000  1.0 0.0895484817
H  H227  1  0.64494000  0.59502000  0.69773000  1.0 0.1000404025
H  H228  1  0.66833000  0.69133000  0.69082000  1.0 0.1093628614
H  H229  1  0.48376000  0.64588000  0.36001000  1.0 0.0702914667
H  H230  1  0.32640000  0.80246000  0.37117000  1.0 0.0895484817
H  H231  1  0.22529000  0.99133000  0.39391000  1.0 0.1208309015
H  H232  1  0.19847000  0.89583000  0.39435000  1.0 0.1208309015
H  H233  1  0.35236000  0.88590000  0.36912000  1.0 0.0895484817
H  H234  1  0.37918000  0.98140000  0.36868000  1.0 0.1093628614
H  H235  1  0.61702000  0.14546000  0.69643000  1.0 0.0608540604
H  H236  1  0.71053000  0.13975000  0.72115000  1.0 0.1093628614
H  H237  1  0.68951000  0.11139000  0.88271000  1.0 0.0895484817
H  H238  1  0.59600000  0.11708000  0.85796000  1.0 0.1000404025
H  H239  1  0.51947000  0.15073000  0.82935000  1.0 0.0895484817
H  H240  1  0.39543000  0.16025000  0.70206000  1.0 0.1000404025
H  H241  1  0.33885000  0.12493000  0.52862000  1.0 0.1093628614
H  H242  1  0.36591000  0.12867000  0.62309000  1.0 0.1000404025
H  H243  1  0.52660000  0.15534000  0.59952000  1.0 0.1000404025
H  H244  1  0.49954000  0.15160000  0.50505000  1.0 0.0804970859
H  H245  1  0.45110000  0.11642000  0.87565000  1.0 0.0804970859
H  H246  1  0.38599000  0.11555000  0.93392000  1.0 0.0895484817
H  H247  1  0.30029000  0.20561000  0.81122000  1.0 0.0804970859
H  H248  1  0.36539000  0.20649000  0.75295000  1.0 0.0702914667
H  H249  1  0.23027000  0.16107000  0.86063000  1.0 0.0804970859
H  H250  1  0.35517000  0.15411000  0.98736000  1.0 0.0895484817
H  H251  1  0.37404000  0.12556000  0.07422000  1.0 0.1093628614
H  H252  1  0.39747000  0.11713000  0.17021000  1.0 0.127136936
H  H253  1  0.25156000  0.15756000  0.18443000  1.0 0.0895484817
H  H254  1  0.22811000  0.16599000  0.08844000  1.0 0.0895484817
H  H255  1  0.14731000  0.15827000  0.83461000  1.0 0.0702914667
H  H256  1  0.05173000  0.14957000  0.80905000  1.0 0.1000404025
H  H257  1  0.03074000  0.13286000  0.97002000  1.0 0.0804970859
H  H258  1  0.56567000  0.13469000  0.88315000  1.0 0.0804970859
H  H259  1  0.65928000  0.13106000  0.91108000  1.0 0.1000404025
H  H260  1  0.68710000  0.16646000  0.75147000  1.0 0.1000404025
H  H261  1  0.59350000  0.17010000  0.72354000  1.0 0.0702914667
H  H262  1  0.36446000  0.16774000  0.73350000  1.0 0.0702914667
H  H263  1  0.49061000  0.15985000  0.85881000  1.0 0.0895484817
H  H264  1  0.31160000  0.15538000  0.55524000  1.0 0.1093628614
H  H265  1  0.33734000  0.15508000  0.65040000  1.0 0.1000404025
H  H266  1  0.49602000  0.15618000  0.63218000  1.0 0.0895484817
H  H267  1  0.47029000  0.15649000  0.53702000  1.0 0.0804970859
H  H268  1  0.34252000  0.22182000  0.79168000  1.0 0.0804970859
H  H269  1  0.28077000  0.22439000  0.85235000  1.0 0.0702914667
H  H270  1  0.35068000  0.11180000  0.96399000  1.0 0.0895484817
H  H271  1  0.41242000  0.10922000  0.90332000  1.0 0.0895484817
H  H272  1  0.20352000  0.17154000  0.89218000  1.0 0.0895484817
H  H273  1  0.32652000  0.17406000  0.02133000  1.0 0.0804970859
H  H274  1  0.18656000  0.15754000  0.12052000  1.0 0.0702914667
H  H275  1  0.20972000  0.15412000  0.21625000  1.0 0.1000404025
H  H276  1  0.37178000  0.19892000  0.19777000  1.0 0.1093628614
H  H277  1  0.34862000  0.20234000  0.10204000  1.0 0.1000404025
H  H278  1  0.11535000  0.15161000  0.86982000  1.0 0.0804970859
H  H279  1  0.01995000  0.14603000  0.84498000  1.0 0.1000404025
H  H280  1  0.00883000  0.19145000  0.99177000  1.0 0.1208309015
H  H281  1  0.10421000  0.19703000  0.01661000  1.0 0.1093628614
H  H282  1  0.49194000  0.37930000  0.68916000  1.0 0.0804970859
H  H283  1  0.53070000  0.34210000  0.66249000  1.0 0.0608540604
H  H284  1  0.58002000  0.27464000  0.65174000  1.0 0.0608540604
H  H285  1  0.72394000  0.38092000  0.68300000  1.0 0.0895484817
H  H286  1  0.67491000  0.44797000  0.69364000  1.0 0.0895484817
H  H287  1  0.64491000  0.22663000  0.65091000  1.0 0.0608540604
H  H288  1  0.72987000  0.04259000  0.59075000  1.0 0.1000404025
H  H289  1  0.75522000  0.13840000  0.58852000  1.0 0.0895484817
H  H290  1  0.62770000  0.13888000  0.67062000  1.0 0.0804970859
H  H291  1  0.60235000  0.04307000  0.67286000  1.0 0.1208309015
H  H292  1  0.12632000  0.14156000  0.99558000  1.0 0.0895484817
H  H293  1  0.43924000  0.70594000  0.38283000  1.0 0.0702914667
H  H294  1  0.32135000  0.57341000  0.34987000  1.0 0.0804970859
H  H295  1  0.25285000  0.62327000  0.35475000  1.0 0.0895484817
H  H296  1  0.37067000  0.75593000  0.38777000  1.0 0.0608540604
H  H297  1  0.66339000  0.69399000  0.37716000  1.0 0.1093628614
H  H298  1  0.56721000  0.66877000  0.37012000  1.0 0.1404775178
H  H299  1  0.57741000  0.51639000  0.34061000  1.0 0.0702914667
H  H300  1  0.67360000  0.54162000  0.34765000  1.0 0.0895484817
H  H301  1  0.70216000  0.50598000  0.34051000  1.0 0.1000404025
H  H302  1  0.60585000  0.48259000  0.33360000  1.0 0.0895484817
H  H303  1  0.59502000  0.64494000  0.30227000  1.0 0.1000404025
H  H304  1  0.69133000  0.66833000  0.30918000  1.0 0.1093628614
C  C1  1  0.36840000  0.25960000  0.37000000  1.0 0.3029752599
C  C2  1  0.37980000  0.32240000  0.36310000  1.0 0.0029544244
C  C3  1  0.34210000  0.35410000  0.36970000  1.0 -0.1508559136
C  C4  1  0.35700000  0.41120000  0.36560000  1.0 -0.2626556255
C  C5  1  0.40980000  0.43680000  0.35470000  1.0 0.0318146411
C  C6  1  0.44750000  0.40510000  0.34800000  1.0 0.011137816
C  C7  1  0.43260000  0.34800000  0.35220000  1.0 0.0318146411
C  C8  1  0.42780000  0.49700000  0.35280000  1.0 0.0398718794
C  C9  1  0.39230000  0.53030000  0.35850000  1.0 -0.1203220497
C  C10  1  0.28660000  0.63800000  0.37900000  1.0 -0.0411448339
C  C11  1  0.32190000  0.60190000  0.37800000  1.0 -0.0490548017
C  C12  1  0.21160000  0.71180000  0.37280000  1.0 -0.2013270024
C  C13  1  0.17700000  0.74780000  0.37600000  1.0 0.1093628614
C  C14  1  0.00460000  0.69520000  0.38130000  1.0 0.0608540604
C  C15  1  0.03010000  0.74890000  0.38890000  1.0 -0.1708844029
C  C16  1  0.08680000  0.76480000  0.38910000  1.0 -0.109103927
C  C17  1  0.11810000  0.72710000  0.38180000  1.0 -0.0801124783
C  C18  1  0.09270000  0.67350000  0.37420000  1.0 -0.0015219184
C  C19  1  0.03590000  0.65750000  0.37390000  1.0 -0.1005040758
C  C20  1  0.94300000  0.68140000  0.37880000  1.0 -0.161523537
C  C21  1  0.87570000  0.23050000  0.81850000  1.0 0.1208309015
C  C22  1  0.86820000  0.40220000  0.77490000  1.0 0.0398718794
C  C23  1  0.86150000  0.36830000  0.73420000  1.0 -0.1310519114
C  C24  1  0.86490000  0.31270000  0.74890000  1.0 -0.2013270024
C  C25  1  0.87500000  0.29120000  0.80430000  1.0 0.0477665272
C  C26  1  0.88170000  0.32530000  0.84490000  1.0 -0.009656686
C  C27  1  0.87830000  0.38070000  0.83020000  1.0 0.0318146411
C  C28  1  0.84290000  0.54790000  0.77130000  1.0 0.0804970859
C  C29  1  0.85080000  0.49420000  0.79140000  1.0 -0.1708844029
C  C30  1  0.86080000  0.46060000  0.75610000  1.0 0.0608540604
C  C31  1  0.85510000  0.53430000  0.68050000  1.0 0.0702914667
C  C32  1  0.84510000  0.56790000  0.71580000  1.0 -0.2072177187
C  C33  1  0.86210000  0.58330000  0.50800000  1.0 0.0477665272
C  C34  1  0.86890000  0.62310000  0.54300000  1.0 0.0208651214
C  C35  1  0.86670000  0.60690000  0.59910000  1.0 0.0477665272
C  C36  1  0.85760000  0.55120000  0.62020000  1.0 -0.0801124783
C  C37  1  0.85090000  0.51150000  0.58510000  1.0 -0.1419040074
C  C38  1  0.85300000  0.52760000  0.52900000  1.0 -0.1508559136
C  C39  1  0.86630000  0.60170000  0.44760000  1.0 -0.0889753061
C  C40  1  0.83840000  0.58560000  0.80880000  1.0 -0.1005040758
C  C41  1  0.86550000  0.57950000  0.86260000  1.0 -0.0411448339
C  C42  1  0.86600000  0.61820000  0.89720000  1.0 -0.1708844029
C  C43  1  0.83950000  0.66290000  0.87800000  1.0 0.0608540604
C  C44  1  0.81250000  0.66910000  0.82430000  1.0 -0.0596609419
C  C45  1  0.81200000  0.63040000  0.78970000  1.0 -0.0698607116
C  C46  1  0.84160000  0.70140000  0.91810000  1.0 -0.0205950096
C  C47  1  0.84190000  0.75710000  0.89910000  1.0 -0.1203220497
C  C48  1  0.84660000  0.79420000  0.93650000  1.0 0.0029544244
C  C49  1  0.85060000  0.72000000  0.01170000  1.0 0.0029544244
C  C50  1  0.84610000  0.68290000  0.97440000  1.0 -0.0801124783
C  C51  1  0.85350000  0.70110000  0.07230000  1.0 0.0318146411
C  C52  1  0.86800000  0.65080000  0.09660000  1.0 -0.2543502746
C  C53  1  0.87290000  0.63690000  0.15360000  1.0 -0.1877739428
C  C54  1  0.86350000  0.67330000  0.18630000  1.0 -0.009656686
C  C55  1  0.84900000  0.72360000  0.16210000  1.0 0.0318146411
C  C56  1  0.84390000  0.73750000  0.10500000  1.0 0.011137816
C  C57  1  0.86880000  0.65800000  0.24800000  1.0 0.3067287209
C  C58  1  0.84920000  0.85420000  0.91750000  1.0 -0.0490548017
C  C59  1  0.84690000  0.87630000  0.86210000  1.0 -0.161523537
C  C60  1  0.85210000  0.93310000  0.84690000  1.0 -0.1203220497
C  C61  1  0.85960000  0.96780000  0.88710000  1.0 -0.0490548017
C  C62  1  0.86200000  0.94560000  0.94250000  1.0 0.0208651214
C  C63  1  0.85680000  0.88880000  0.95770000  1.0 -0.0490548017
C  C64  1  0.86380000  0.02900000  0.87100000  1.0 0.2791479009
C  C65  1  0.85120000  0.25780000  0.85030000  1.0 0.2666186543
C  C66  1  0.84720000  0.42920000  0.80070000  1.0 0.0477665272
C  C67  1  0.85890000  0.40970000  0.85640000  1.0 -0.1708844029
C  C68  1  0.86100000  0.35400000  0.87300000  1.0 -0.1005040758
C  C69  1  0.85160000  0.31800000  0.83390000  1.0 0.011137816
C  C70  1  0.84000000  0.33760000  0.77820000  1.0 -0.009656686
C  C71  1  0.83780000  0.39320000  0.76160000  1.0 -0.031092942
C  C72  1  0.84050000  0.56370000  0.70940000  1.0 -0.2222500404
C  C73  1  0.83560000  0.59820000  0.74630000  1.0 -0.0411448339
C  C74  1  0.83550000  0.57790000  0.80200000  1.0 -0.0801124783
C  C75  1  0.84020000  0.52320000  0.82080000  1.0 -0.031092942
C  C76  1  0.84520000  0.48880000  0.78380000  1.0 -0.2013270024
C  C77  1  0.84410000  0.61150000  0.53720000  1.0 0.011137816
C  C78  1  0.84440000  0.65100000  0.57090000  1.0 -0.1203220497
C  C79  1  0.84470000  0.63570000  0.62740000  1.0 -0.2013270024
C  C80  1  0.84440000  0.58080000  0.65020000  1.0 0.0398718794
C  C81  1  0.84400000  0.54140000  0.61660000  1.0 -0.0801124783
C  C82  1  0.84370000  0.55670000  0.56000000  1.0 0.0318146411
C  C83  1  0.84730000  0.63070000  0.47690000  1.0 0.2449537294
C  C84  1  0.83470000  0.61670000  0.84180000  1.0 0.0702914667
C  C85  1  0.80050000  0.65590000  0.82670000  1.0 -0.0698607116
C  C86  1  0.79890000  0.69250000  0.86270000  1.0 -0.109103927
C  C87  1  0.83170000  0.69010000  0.91390000  1.0 -0.031092942
C  C88  1  0.86580000  0.65100000  0.92900000  1.0 -0.0490548017
C  C89  1  0.86730000  0.61430000  0.89300000  1.0 -0.161523537
C  C90  1  0.82750000  0.72910000  0.95120000  1.0 -0.0015219184
C  C91  1  0.82730000  0.78430000  0.93040000  1.0 -0.0205950096
C  C92  1  0.82570000  0.82170000  0.96560000  1.0 0.1000404025
C  C93  1  0.82410000  0.74870000  0.04230000  1.0 -0.031092942
C  C94  1  0.82580000  0.71120000  0.00710000  1.0 -0.0411448339
C  C95  1  0.81980000  0.73460000  0.10230000  1.0 0.0208651214
C  C96  1  0.83410000  0.77590000  0.13620000  1.0 -0.1419040074
C  C97  1  0.83610000  0.76210000  0.19310000  1.0 -0.2371347718
C  C98  1  0.82380000  0.70700000  0.21600000  1.0 0.0029544244
C  C99  1  0.80950000  0.66590000  0.18210000  1.0 -0.1005040758
C  C100  1  0.80740000  0.67960000  0.12520000  1.0 -0.0698607116
C  C101  1  0.82520000  0.88120000  0.94560000  1.0 -0.009656686
C  C102  1  0.84030000  0.90630000  0.89460000  1.0 0.0029544244
C  C103  1  0.84360000  0.96300000  0.87980000  1.0 -0.0411448339
C  C104  1  0.83180000  0.99460000  0.91600000  1.0 0.0398718794
C  C105  1  0.81660000  0.96960000  0.96700000  1.0 -0.3290081941
C  C106  1  0.81330000  0.91290000  0.98180000  1.0 -0.1708844029
C  C107  1  0.83840000  0.05640000  0.90210000  1.0 0.0477665272
C  C108  1  0.83160000  0.69160000  0.27640000  1.0 0.1093628614
C  C109  1  0.54580000  0.53040000  0.68500000  1.0 0.0804970859
C  C110  1  0.58210000  0.49470000  0.68700000  1.0 -0.0490548017
C  C111  1  0.65110000  0.42430000  0.66600000  1.0 -0.009656686
C  C112  1  0.68610000  0.39030000  0.65900000  1.0 -0.0205950096
C  C113  1  0.61660000  0.31040000  0.67900000  1.0 -0.0698607116
C  C114  1  0.58140000  0.34440000  0.68600000  1.0 -0.0889753061
C  C115  1  0.75880000  0.31760000  0.64700000  1.0 -0.0801124783
C  C116  1  0.79230000  0.28430000  0.63400000  1.0 -0.2072177187
C  C117  1  0.96620000  0.33620000  0.63200000  1.0 -0.1203220497
C  C118  1  0.93790000  0.29090000  0.60700000  1.0 0.0398718794
C  C119  1  0.88100000  0.27580000  0.60600000  1.0 -0.0490548017
C  C120  1  0.85240000  0.30620000  0.62900000  1.0 0.0318146411
C  C121  1  0.88070000  0.35150000  0.65400000  1.0 -0.2072177187
C  C122  1  0.93760000  0.36660000  0.65600000  1.0 -0.1203220497
C  C123  1  0.02820000  0.34800000  0.63770000  1.0 0.2255965845
C  C124  1  0.39450000  0.67910000  0.35900000  1.0 -0.009656686
C  C125  1  0.35920000  0.71520000  0.36000000  1.0 -0.0596609419
C  C126  1  0.41060000  0.29420000  0.32550000  1.0 0.0398718794
C  C127  1  0.46580000  0.31960000  0.33300000  1.0 -0.1708844029
C  C128  1  0.47980000  0.37680000  0.32900000  1.0 -0.1310519114
C  C129  1  0.38320000  0.38320000  0.31000000  1.0 -0.0596609419
C  C130  1  0.43840000  0.40860000  0.31730000  1.0 0.0318146411
C  C131  1  0.36940000  0.32600000  0.31400000  1.0 -0.1005040758
C  C132  1  0.39560000  0.23300000  0.33310000  1.0 0.1208309015
C  C133  1  0.25960000  0.36840000  0.63000000  1.0 0.3029752599
C  C134  1  0.32240000  0.37980000  0.63690000  1.0 0.0029544244
C  C135  1  0.35410000  0.34210000  0.63030000  1.0 -0.1508559136
C  C136  1  0.41120000  0.35700000  0.63440000  1.0 -0.2626556255
C  C137  1  0.43680000  0.40980000  0.64530000  1.0 0.0318146411
C  C138  1  0.40510000  0.44750000  0.65200000  1.0 0.011137816
C  C139  1  0.34800000  0.43260000  0.64780000  1.0 0.0398718794
C  C140  1  0.49700000  0.42780000  0.64720000  1.0 0.0398718794
C  C141  1  0.53030000  0.39230000  0.64150000  1.0 -0.1203220497
C  C142  1  0.63800000  0.28660000  0.62100000  1.0 -0.0411448339
C  C143  1  0.60190000  0.32190000  0.62200000  1.0 -0.0490548017
C  C144  1  0.71180000  0.21160000  0.62720000  1.0 -0.2013270024
C  C145  1  0.74780000  0.17700000  0.62400000  1.0 0.1093628614
C  C146  1  0.69520000  0.00460000  0.61870000  1.0 0.0608540604
C  C147  1  0.74890000  0.03010000  0.61110000  1.0 -0.1708844029
C  C148  1  0.76480000  0.08680000  0.61090000  1.0 -0.109103927
C  C149  1  0.72710000  0.11810000  0.61820000  1.0 -0.0801124783
C  C150  1  0.67350000  0.09270000  0.62580000  1.0 -0.0015219184
C  C151  1  0.65750000  0.03590000  0.62610000  1.0 -0.1005040758
C  C152  1  0.68140000  0.94300000  0.62120000  1.0 -0.161523537
C  C153  1  0.23050000  0.87570000  0.18150000  1.0 0.1208309015
C  C154  1  0.40220000  0.86820000  0.22510000  1.0 0.0398718794
C  C155  1  0.36830000  0.86150000  0.26580000  1.0 -0.1310519114
C  C156  1  0.31270000  0.86490000  0.25110000  1.0 -0.2013270024
C  C157  1  0.29120000  0.87500000  0.19570000  1.0 0.0477665272
C  C158  1  0.32530000  0.88170000  0.15510000  1.0 -0.009656686
C  C159  1  0.38070000  0.87830000  0.16980000  1.0 0.0318146411
C  C160  1  0.54790000  0.84290000  0.22870000  1.0 0.0804970859
C  C161  1  0.49420000  0.85080000  0.20860000  1.0 -0.1708844029
C  C162  1  0.46060000  0.86080000  0.24390000  1.0 0.0608540604
C  C163  1  0.53430000  0.85510000  0.31950000  1.0 0.0702914667
C  C164  1  0.56790000  0.84510000  0.28420000  1.0 -0.2072177187
C  C165  1  0.58330000  0.86210000  0.49200000  1.0 0.0477665272
C  C166  1  0.62310000  0.86890000  0.45700000  1.0 0.0208651214
C  C167  1  0.60690000  0.86670000  0.40090000  1.0 0.0477665272
C  C168  1  0.55120000  0.85760000  0.37980000  1.0 -0.0801124783
C  C169  1  0.51150000  0.85090000  0.41490000  1.0 -0.1419040074
C  C170  1  0.52760000  0.85300000  0.47100000  1.0 -0.1508559136
C  C171  1  0.60170000  0.86630000  0.55240000  1.0 -0.0889753061
C  C172  1  0.58560000  0.83840000  0.19120000  1.0 -0.1005040758
C  C173  1  0.57950000  0.86550000  0.13740000  1.0 -0.0490548017
C  C174  1  0.61820000  0.86600000  0.10280000  1.0 -0.1708844029
C  C175  1  0.66290000  0.83950000  0.12200000  1.0 0.0608540604
C  C176  1  0.66910000  0.81250000  0.17570000  1.0 -0.0596609419
C  C177  1  0.63040000  0.81200000  0.21030000  1.0 -0.0698607116
C  C178  1  0.70140000  0.84160000  0.08190000  1.0 -0.0205950096
C  C179  1  0.75710000  0.84190000  0.10090000  1.0 -0.1203220497
C  C180  1  0.79420000  0.84660000  0.06350000  1.0 0.0029544244
C  C181  1  0.72000000  0.85060000  0.98830000  1.0 0.0029544244
C  C182  1  0.68290000  0.84610000  0.02560000  1.0 -0.0889753061
C  C183  1  0.70110000  0.85350000  0.92770000  1.0 0.0208651214
C  C184  1  0.65080000  0.86800000  0.90340000  1.0 -0.2543502746
C  C185  1  0.63690000  0.87290000  0.84640000  1.0 -0.1877739428
C  C186  1  0.67330000  0.86350000  0.81370000  1.0 -0.009656686
C  C187  1  0.72360000  0.84900000  0.83790000  1.0 0.0318146411
C  C188  1  0.73750000  0.84390000  0.89500000  1.0 0.011137816
C  C189  1  0.65800000  0.86880000  0.75200000  1.0 0.3067287209
C  C190  1  0.85420000  0.84920000  0.08250000  1.0 -0.0490548017
C  C191  1  0.87630000  0.84690000  0.13790000  1.0 -0.161523537
C  C192  1  0.93310000  0.85210000  0.15310000  1.0 -0.1203220497
C  C193  1  0.96780000  0.85960000  0.11290000  1.0 -0.0490548017
C  C194  1  0.94560000  0.86200000  0.05750000  1.0 0.0208651214
C  C195  1  0.88880000  0.85680000  0.04230000  1.0 -0.0490548017
C  C196  1  0.02900000  0.86380000  0.12900000  1.0 0.2791479009
C  C197  1  0.25780000  0.85120000  0.14970000  1.0 0.2666186543
C  C198  1  0.42920000  0.84720000  0.19930000  1.0 0.0477665272
C  C199  1  0.40970000  0.85890000  0.14360000  1.0 -0.1708844029
C  C200  1  0.35400000  0.86100000  0.12700000  1.0 -0.1005040758
C  C201  1  0.31800000  0.85160000  0.16610000  1.0 0.011137816
C  C202  1  0.33760000  0.84000000  0.22180000  1.0 -0.009656686
C  C203  1  0.39320000  0.83780000  0.23840000  1.0 -0.031092942
C  C204  1  0.56370000  0.84050000  0.29060000  1.0 -0.2222500404
C  C205  1  0.59820000  0.83560000  0.25370000  1.0 -0.0411448339
C  C206  1  0.57790000  0.83550000  0.19800000  1.0 -0.0698607116
C  C207  1  0.52320000  0.84020000  0.17920000  1.0 -0.031092942
C  C208  1  0.48880000  0.84520000  0.21620000  1.0 -0.2013270024
C  C209  1  0.61150000  0.84410000  0.46280000  1.0 0.011137816
C  C210  1  0.65100000  0.84440000  0.42910000  1.0 -0.1203220497
C  C211  1  0.63570000  0.84470000  0.37260000  1.0 -0.2013270024
C  C212  1  0.58080000  0.84440000  0.34980000  1.0 0.0398718794
C  C213  1  0.54140000  0.84400000  0.38340000  1.0 -0.0801124783
C  C214  1  0.55670000  0.84370000  0.44000000  1.0 0.0318146411
C  C215  1  0.63070000  0.84730000  0.52310000  1.0 0.2449537294
C  C216  1  0.61670000  0.83470000  0.15820000  1.0 0.0702914667
C  C217  1  0.65590000  0.80050000  0.17330000  1.0 -0.0698607116
C  C218  1  0.69250000  0.79890000  0.13730000  1.0 -0.109103927
C  C219  1  0.69010000  0.83170000  0.08610000  1.0 -0.031092942
C  C220  1  0.65100000  0.86580000  0.07100000  1.0 -0.0490548017
C  C221  1  0.61430000  0.86730000  0.10700000  1.0 -0.161523537
C  C222  1  0.72910000  0.82750000  0.04880000  1.0 -0.0015219184
C  C223  1  0.78430000  0.82730000  0.06960000  1.0 -0.0205950096
C  C224  1  0.82170000  0.82570000  0.03440000  1.0 0.1000404025
C  C225  1  0.74870000  0.82410000  0.95770000  1.0 -0.031092942
C  C226  1  0.71120000  0.82580000  0.99290000  1.0 -0.0411448339
C  C227  1  0.73460000  0.81980000  0.89770000  1.0 0.0208651214
C  C228  1  0.77590000  0.83410000  0.86380000  1.0 -0.1419040074
C  C229  1  0.76210000  0.83610000  0.80690000  1.0 -0.2371347718
C  C230  1  0.70700000  0.82380000  0.78400000  1.0 0.0029544244
C  C231  1  0.66590000  0.80950000  0.81790000  1.0 -0.1005040758
C  C232  1  0.67960000  0.80740000  0.87480000  1.0 -0.0698607116
C  C233  1  0.88120000  0.82520000  0.05440000  1.0 -0.009656686
C  C234  1  0.90630000  0.84030000  0.10540000  1.0 0.0029544244
C  C235  1  0.96300000  0.84360000  0.12020000  1.0 -0.0411448339
C  C236  1  0.99460000  0.83180000  0.08400000  1.0 0.0398718794
C  C237  1  0.96960000  0.81660000  0.03300000  1.0 -0.3290081941
C  C238  1  0.91290000  0.81330000  0.01820000  1.0 -0.1708844029
C  C239  1  0.05640000  0.83840000  0.09790000  1.0 0.0477665272
C  C240  1  0.69160000  0.83160000  0.72360000  1.0 0.1093628614
C  C241  1  0.53040000  0.54580000  0.31500000  1.0 0.0804970859
C  C242  1  0.49470000  0.58210000  0.31300000  1.0 -0.0490548017
C  C243  1  0.42430000  0.65110000  0.33400000  1.0 -0.009656686
C  C244  1  0.39030000  0.68610000  0.34100000  1.0 -0.009656686
C  C245  1  0.31040000  0.61660000  0.32100000  1.0 -0.0698607116
C  C246  1  0.34440000  0.58140000  0.31400000  1.0 -0.0889753061
C  C247  1  0.31760000  0.75880000  0.35300000  1.0 -0.0801124783
C  C248  1  0.28430000  0.79230000  0.36600000  1.0 -0.2072177187
C  C249  1  0.33620000  0.96620000  0.36800000  1.0 -0.1203220497
C  C250  1  0.29090000  0.93790000  0.39300000  1.0 0.0398718794
C  C251  1  0.27580000  0.88100000  0.39400000  1.0 -0.0490548017
C  C252  1  0.30620000  0.85240000  0.37100000  1.0 0.0318146411
C  C253  1  0.35150000  0.88070000  0.34600000  1.0 -0.2072177187
C  C254  1  0.36660000  0.93760000  0.34400000  1.0 -0.1203220497
C  C255  1  0.34800000  0.02820000  0.36230000  1.0 0.2255965845
C  C256  1  0.67910000  0.39450000  0.64100000  1.0 -0.009656686
C  C257  1  0.71520000  0.35920000  0.64000000  1.0 -0.0490548017
C  C258  1  0.29420000  0.41060000  0.67450000  1.0 0.0398718794
C  C259  1  0.31960000  0.46580000  0.66700000  1.0 -0.1708844029
C  C260  1  0.37680000  0.47980000  0.67100000  1.0 -0.1310519114
C  C261  1  0.38320000  0.38320000  0.69000000  1.0 -0.0490548017
C  C262  1  0.40860000  0.43840000  0.68270000  1.0 0.0318146411
C  C263  1  0.32600000  0.36940000  0.68600000  1.0 -0.1005040758
C  C264  1  0.23300000  0.39560000  0.66690000  1.0 0.1208309015
C  C265  1  0.63160000  0.74040000  0.63000000  1.0 0.3029752599
C  C266  1  0.62020000  0.67760000  0.63690000  1.0 0.0029544244
C  C267  1  0.65790000  0.64590000  0.63030000  1.0 -0.1508559136
C  C268  1  0.64300000  0.58880000  0.63440000  1.0 -0.2626556255
C  C269  1  0.59020000  0.56320000  0.64530000  1.0 0.0318146411
C  C270  1  0.55250000  0.59490000  0.65200000  1.0 0.011137816
C  C271  1  0.56740000  0.65200000  0.64780000  1.0 0.0318146411
C  C272  1  0.57220000  0.50300000  0.64720000  1.0 0.0398718794
C  C273  1  0.60770000  0.46970000  0.64150000  1.0 -0.1203220497
C  C274  1  0.71340000  0.36200000  0.62100000  1.0 -0.0411448339
C  C275  1  0.67810000  0.39810000  0.62200000  1.0 -0.0490548017
C  C276  1  0.78840000  0.28820000  0.62720000  1.0 -0.2013270024
C  C277  1  0.82300000  0.25220000  0.62400000  1.0 0.1093628614
C  C278  1  0.99540000  0.30480000  0.61870000  1.0 0.0608540604
C  C279  1  0.96990000  0.25110000  0.61110000  1.0 -0.1708844029
C  C280  1  0.91320000  0.23520000  0.61090000  1.0 -0.109103927
C  C281  1  0.88190000  0.27290000  0.61820000  1.0 -0.0801124783
C  C282  1  0.90730000  0.32650000  0.62580000  1.0 -0.0015219184
C  C283  1  0.96410000  0.34250000  0.62610000  1.0 -0.1005040758
C  C284  1  0.05700000  0.31860000  0.62120000  1.0 -0.161523537
C  C285  1  0.12430000  0.76950000  0.18150000  1.0 0.1208309015
C  C286  1  0.13180000  0.59780000  0.22510000  1.0 0.0398718794
C  C287  1  0.13850000  0.63170000  0.26580000  1.0 -0.1310519114
C  C288  1  0.13510000  0.68730000  0.25110000  1.0 -0.2013270024
C  C289  1  0.12500000  0.70880000  0.19570000  1.0 0.0477665272
C  C290  1  0.11830000  0.67470000  0.15510000  1.0 -0.009656686
C  C291  1  0.12170000  0.61930000  0.16980000  1.0 0.0318146411
C  C292  1  0.15710000  0.45210000  0.22870000  1.0 0.0804970859
C  C293  1  0.14920000  0.50580000  0.20860000  1.0 -0.161523537
C  C294  1  0.13920000  0.53940000  0.24390000  1.0 0.0608540604
C  C295  1  0.14490000  0.46570000  0.31950000  1.0 0.0702914667
C  C296  1  0.15490000  0.43210000  0.28420000  1.0 -0.2072177187
C  C297  1  0.13790000  0.41670000  0.49200000  1.0 0.0477665272
C  C298  1  0.13110000  0.37690000  0.45700000  1.0 0.0208651214
C  C299  1  0.13330000  0.39310000  0.40090000  1.0 0.0477665272
C  C300  1  0.14240000  0.44880000  0.37980000  1.0 -0.0801124783
C  C301  1  0.14910000  0.48850000  0.41490000  1.0 -0.1419040074
C  C302  1  0.14700000  0.47240000  0.47100000  1.0 -0.1508559136
C  C303  1  0.13370000  0.39830000  0.55240000  1.0 -0.0889753061
C  C304  1  0.16160000  0.41440000  0.19120000  1.0 -0.1005040758
C  C305  1  0.13450000  0.42050000  0.13740000  1.0 -0.0490548017
C  C306  1  0.13400000  0.38180000  0.10280000  1.0 -0.1708844029
C  C307  1  0.16050000  0.33710000  0.12200000  1.0 0.0702914667
C  C308  1  0.18750000  0.33090000  0.17570000  1.0 -0.0698607116
C  C309  1  0.18800000  0.36960000  0.21030000  1.0 -0.0698607116
C  C310  1  0.15840000  0.29860000  0.08190000  1.0 -0.0205950096
C  C311  1  0.15810000  0.24290000  0.10090000  1.0 -0.1203220497
C  C312  1  0.15340000  0.20580000  0.06350000  1.0 0.0029544244
C  C313  1  0.14940000  0.28000000  0.98830000  1.0 -0.0015219184
C  C314  1  0.15390000  0.31710000  0.02560000  1.0 -0.0801124783
C  C315  1  0.14650000  0.29890000  0.92770000  1.0 0.0208651214
C  C316  1  0.13200000  0.34920000  0.90340000  1.0 -0.2543502746
C  C317  1  0.12710000  0.36310000  0.84640000  1.0 -0.1877739428
C  C318  1  0.13650000  0.32670000  0.81370000  1.0 -0.009656686
C  C319  1  0.15100000  0.27640000  0.83790000  1.0 0.0318146411
C  C320  1  0.15610000  0.26250000  0.89500000  1.0 0.011137816
C  C321  1  0.13120000  0.34200000  0.75200000  1.0 0.3067287209
C  C322  1  0.15080000  0.14580000  0.08250000  1.0 -0.0490548017
C  C323  1  0.15310000  0.12370000  0.13790000  1.0 -0.161523537
C  C324  1  0.14790000  0.06690000  0.15310000  1.0 -0.1203220497
C  C325  1  0.14040000  0.03220000  0.11290000  1.0 -0.0490548017
C  C326  1  0.13800000  0.05440000  0.05750000  1.0 0.0208651214
C  C327  1  0.14320000  0.11120000  0.04230000  1.0 -0.0490548017
C  C328  1  0.13620000  0.97100000  0.12900000  1.0 0.2791479009
C  C329  1  0.14880000  0.74220000  0.14970000  1.0 0.2666186543
C  C330  1  0.15280000  0.57080000  0.19930000  1.0 0.0477665272
C  C331  1  0.14110000  0.59030000  0.14360000  1.0 -0.1708844029
C  C332  1  0.13900000  0.64600000  0.12700000  1.0 -0.1005040758
C  C333  1  0.14840000  0.68200000  0.16610000  1.0 0.011137816
C  C334  1  0.16000000  0.66240000  0.22180000  1.0 -0.009656686
C  C335  1  0.16220000  0.60680000  0.23840000  1.0 -0.031092942
C  C336  1  0.15950000  0.43630000  0.29060000  1.0 -0.2222500404
C  C337  1  0.16440000  0.40180000  0.25370000  1.0 -0.0411448339
C  C338  1  0.16450000  0.42210000  0.19800000  1.0 -0.0698607116
C  C339  1  0.15980000  0.47680000  0.17920000  1.0 -0.031092942
C  C340  1  0.15480000  0.51120000  0.21620000  1.0 -0.2013270024
C  C341  1  0.15590000  0.38850000  0.46280000  1.0 0.011137816
C  C342  1  0.15560000  0.34900000  0.42910000  1.0 -0.1203220497
C  C343  1  0.15530000  0.36430000  0.37260000  1.0 -0.2013270024
C  C344  1  0.15560000  0.41920000  0.34980000  1.0 0.0398718794
C  C345  1  0.15600000  0.45860000  0.38340000  1.0 -0.0801124783
C  C346  1  0.15630000  0.44330000  0.44000000  1.0 0.0318146411
C  C347  1  0.15270000  0.36930000  0.52310000  1.0 0.2449537294
C  C348  1  0.16530000  0.38330000  0.15820000  1.0 0.0702914667
C  C349  1  0.19950000  0.34410000  0.17330000  1.0 -0.0698607116
C  C350  1  0.20110000  0.30750000  0.13730000  1.0 -0.109103927
C  C351  1  0.16830000  0.30990000  0.08610000  1.0 -0.031092942
C  C352  1  0.13420000  0.34900000  0.07100000  1.0 -0.0490548017
C  C353  1  0.13270000  0.38570000  0.10700000  1.0 -0.161523537
C  C354  1  0.17250000  0.27090000  0.04880000  1.0 -0.0015219184
C  C355  1  0.17270000  0.21570000  0.06960000  1.0 -0.0205950096
C  C356  1  0.17430000  0.17830000  0.03440000  1.0 0.1000404025
C  C357  1  0.17590000  0.25130000  0.95770000  1.0 -0.031092942
C  C358  1  0.17420000  0.28880000  0.99290000  1.0 -0.0411448339
C  C359  1  0.18020000  0.26540000  0.89770000  1.0 0.0208651214
C  C360  1  0.16590000  0.22410000  0.86380000  1.0 -0.1419040074
C  C361  1  0.16390000  0.23790000  0.80690000  1.0 -0.2371347718
C  C362  1  0.17620000  0.29300000  0.78400000  1.0 0.0029544244
C  C363  1  0.19050000  0.33410000  0.81790000  1.0 -0.1005040758
C  C364  1  0.19260000  0.32040000  0.87480000  1.0 -0.0698607116
C  C365  1  0.17480000  0.11880000  0.05440000  1.0 -0.009656686
C  C366  1  0.15970000  0.09370000  0.10540000  1.0 -0.0015219184
C  C367  1  0.15640000  0.03700000  0.12020000  1.0 -0.0411448339
C  C368  1  0.16820000  0.00540000  0.08400000  1.0 0.0398718794
C  C369  1  0.18340000  0.03040000  0.03300000  1.0 -0.3290081941
C  C370  1  0.18670000  0.08710000  0.01820000  1.0 -0.1708844029
C  C371  1  0.16160000  0.94360000  0.09790000  1.0 0.0477665272
C  C372  1  0.16840000  0.30840000  0.72360000  1.0 0.1093628614
C  C373  1  0.45420000  0.46960000  0.31500000  1.0 0.0804970859
C  C374  1  0.41790000  0.50530000  0.31300000  1.0 -0.0490548017
C  C375  1  0.34890000  0.57570000  0.33400000  1.0 -0.009656686
C  C376  1  0.31390000  0.60970000  0.34100000  1.0 -0.0205950096
C  C377  1  0.38340000  0.68960000  0.32100000  1.0 -0.0698607116
C  C378  1  0.41860000  0.65560000  0.31400000  1.0 -0.0889753061
C  C379  1  0.24120000  0.68240000  0.35300000  1.0 -0.0801124783
C  C380  1  0.20770000  0.71570000  0.36600000  1.0 -0.2072177187
C  C381  1  0.03380000  0.66380000  0.36800000  1.0 -0.1203220497
C  C382  1  0.06210000  0.70910000  0.39300000  1.0 0.0398718794
C  C383  1  0.11900000  0.72420000  0.39400000  1.0 -0.0490548017
C  C384  1  0.14760000  0.69380000  0.37100000  1.0 0.0208651214
C  C385  1  0.11930000  0.64850000  0.34600000  1.0 -0.2072177187
C  C386  1  0.06240000  0.63340000  0.34400000  1.0 -0.1203220497
C  C387  1  0.97180000  0.65200000  0.36230000  1.0 0.2255965845
C  C388  1  0.60550000  0.32090000  0.64100000  1.0 -0.009656686
C  C389  1  0.64080000  0.28480000  0.64000000  1.0 -0.0490548017
C  C390  1  0.58940000  0.70580000  0.67450000  1.0 0.0398718794
C  C391  1  0.53420000  0.68040000  0.66700000  1.0 -0.1708844029
C  C392  1  0.52020000  0.62320000  0.67100000  1.0 -0.1310519114
C  C393  1  0.61680000  0.61680000  0.69000000  1.0 -0.0596609419
C  C394  1  0.56160000  0.59140000  0.68270000  1.0 0.0318146411
C  C395  1  0.63060000  0.67400000  0.68600000  1.0 -0.1005040758
C  C396  1  0.60440000  0.76700000  0.66690000  1.0 0.127136936
C  C397  1  0.74040000  0.63160000  0.37000000  1.0 0.3029752599
C  C398  1  0.67760000  0.62020000  0.36310000  1.0 0.0029544244
C  C399  1  0.64590000  0.65790000  0.36970000  1.0 -0.1508559136
C  C400  1  0.58880000  0.64300000  0.36560000  1.0 -0.2626556255
C  C401  1  0.56320000  0.59020000  0.35470000  1.0 0.0318146411
C  C402  1  0.59490000  0.55250000  0.34800000  1.0 0.011137816
C  C403  1  0.65200000  0.56740000  0.35220000  1.0 0.0318146411
C  C404  1  0.50300000  0.57220000  0.35280000  1.0 0.0398718794
C  C405  1  0.46970000  0.60770000  0.35850000  1.0 -0.1203220497
C  C406  1  0.36200000  0.71340000  0.37900000  1.0 -0.0411448339
C  C407  1  0.39810000  0.67810000  0.37800000  1.0 -0.0490548017
C  C408  1  0.28820000  0.78840000  0.37280000  1.0 -0.2013270024
C  C409  1  0.25220000  0.82300000  0.37600000  1.0 0.1093628614
C  C410  1  0.30480000  0.99540000  0.38130000  1.0 0.0608540604
C  C411  1  0.25110000  0.96990000  0.38890000  1.0 -0.1708844029
C  C412  1  0.23520000  0.91320000  0.38910000  1.0 -0.109103927
C  C413  1  0.27290000  0.88190000  0.38180000  1.0 -0.0801124783
C  C414  1  0.32650000  0.90730000  0.37420000  1.0 -0.0015219184
C  C415  1  0.34250000  0.96410000  0.37390000  1.0 -0.1005040758
C  C416  1  0.31860000  0.05700000  0.37880000  1.0 -0.161523537
C  C417  1  0.76950000  0.12430000  0.81850000  1.0 0.1208309015
C  C418  1  0.59780000  0.13180000  0.77490000  1.0 0.0398718794
C  C419  1  0.63170000  0.13850000  0.73420000  1.0 -0.1310519114
C  C420  1  0.68730000  0.13510000  0.74890000  1.0 -0.2013270024
C  C421  1  0.70880000  0.12500000  0.80430000  1.0 0.0477665272
C  C422  1  0.67470000  0.11830000  0.84490000  1.0 -0.009656686
C  C423  1  0.61930000  0.12170000  0.83020000  1.0 0.0318146411
C  C424  1  0.45210000  0.15710000  0.77130000  1.0 0.0804970859
C  C425  1  0.50580000  0.14920000  0.79140000  1.0 -0.161523537
C  C426  1  0.53940000  0.13920000  0.75610000  1.0 0.0608540604
C  C427  1  0.46570000  0.14490000  0.68050000  1.0 0.0702914667
C  C428  1  0.43210000  0.15490000  0.71580000  1.0 -0.2072177187
C  C429  1  0.41670000  0.13790000  0.50800000  1.0 0.0477665272
C  C430  1  0.37690000  0.13110000  0.54300000  1.0 0.0208651214
C  C431  1  0.39310000  0.13330000  0.59910000  1.0 0.0477665272
C  C432  1  0.44880000  0.14240000  0.62020000  1.0 -0.0801124783
C  C433  1  0.48850000  0.14910000  0.58510000  1.0 -0.1419040074
C  C434  1  0.47240000  0.14700000  0.52900000  1.0 -0.1508559136
C  C435  1  0.39830000  0.13370000  0.44760000  1.0 -0.0889753061
C  C436  1  0.41440000  0.16160000  0.80880000  1.0 -0.1005040758
C  C437  1  0.42050000  0.13450000  0.86260000  1.0 -0.0490548017
C  C438  1  0.38180000  0.13400000  0.89720000  1.0 -0.1708844029
C  C439  1  0.33710000  0.16050000  0.87800000  1.0 0.0608540604
C  C440  1  0.33090000  0.18750000  0.82430000  1.0 -0.0698607116
C  C441  1  0.36960000  0.18800000  0.78970000  1.0 -0.0698607116
C  C442  1  0.29860000  0.15840000  0.91810000  1.0 -0.0205950096
C  C443  1  0.24290000  0.15810000  0.89910000  1.0 -0.1203220497
C  C444  1  0.20580000  0.15340000  0.93650000  1.0 0.0029544244
C  C445  1  0.28000000  0.14940000  0.01170000  1.0 -0.0015219184
C  C446  1  0.31710000  0.15390000  0.97440000  1.0 -0.0801124783
C  C447  1  0.29890000  0.14650000  0.07230000  1.0 0.0208651214
C  C448  1  0.34920000  0.13200000  0.09660000  1.0 -0.2543502746
C  C449  1  0.36310000  0.12710000  0.15360000  1.0 -0.1877739428
C  C450  1  0.32670000  0.13650000  0.18630000  1.0 -0.009656686
C  C451  1  0.27640000  0.15100000  0.16210000  1.0 0.0318146411
C  C452  1  0.26250000  0.15610000  0.10500000  1.0 0.011137816
C  C453  1  0.34200000  0.13120000  0.24800000  1.0 0.3067287209
C  C454  1  0.14580000  0.15080000  0.91750000  1.0 -0.0490548017
C  C455  1  0.12370000  0.15310000  0.86210000  1.0 -0.161523537
C  C456  1  0.06690000  0.14790000  0.84690000  1.0 -0.1203220497
C  C457  1  0.03220000  0.14040000  0.88710000  1.0 -0.0490548017
C  C458  1  0.05440000  0.13800000  0.94250000  1.0 0.0208651214
C  C459  1  0.11120000  0.14320000  0.95770000  1.0 -0.0490548017
C  C460  1  0.97100000  0.13620000  0.87100000  1.0 0.2791479009
C  C461  1  0.74220000  0.14880000  0.85030000  1.0 0.2666186543
C  C462  1  0.57080000  0.15280000  0.80070000  1.0 0.0477665272
C  C463  1  0.59030000  0.14110000  0.85640000  1.0 -0.1708844029
C  C464  1  0.64600000  0.13900000  0.87300000  1.0 -0.1005040758
C  C465  1  0.68200000  0.14840000  0.83390000  1.0 0.011137816
C  C466  1  0.66240000  0.16000000  0.77820000  1.0 -0.009656686
C  C467  1  0.60680000  0.16220000  0.76160000  1.0 -0.031092942
C  C468  1  0.43630000  0.15950000  0.70940000  1.0 -0.2222500404
C  C469  1  0.40180000  0.16440000  0.74630000  1.0 -0.0411448339
C  C470  1  0.42210000  0.16450000  0.80200000  1.0 -0.0698607116
C  C471  1  0.47680000  0.15980000  0.82080000  1.0 -0.031092942
C  C472  1  0.51120000  0.15480000  0.78380000  1.0 -0.2013270024
C  C473  1  0.38850000  0.15590000  0.53720000  1.0 0.011137816
C  C474  1  0.34900000  0.15560000  0.57090000  1.0 -0.1203220497
C  C475  1  0.36430000  0.15530000  0.62740000  1.0 -0.2013270024
C  C476  1  0.41920000  0.15560000  0.65020000  1.0 0.0398718794
C  C477  1  0.45860000  0.15600000  0.61660000  1.0 -0.0801124783
C  C478  1  0.44330000  0.15630000  0.56000000  1.0 0.0318146411
C  C479  1  0.36930000  0.15270000  0.47690000  1.0 0.2449537294
C  C480  1  0.38330000  0.16530000  0.84180000  1.0 0.0702914667
C  C481  1  0.34410000  0.19950000  0.82670000  1.0 -0.0698607116
C  C482  1  0.30750000  0.20110000  0.86270000  1.0 -0.109103927
C  C483  1  0.30990000  0.16830000  0.91390000  1.0 -0.031092942
C  C484  1  0.34900000  0.13420000  0.92900000  1.0 -0.0490548017
C  C485  1  0.38570000  0.13270000  0.89300000  1.0 -0.161523537
C  C486  1  0.27090000  0.17250000  0.95120000  1.0 -0.0015219184
C  C487  1  0.21570000  0.17270000  0.93040000  1.0 -0.0205950096
C  C488  1  0.17830000  0.17430000  0.96560000  1.0 0.1000404025
C  C489  1  0.25130000  0.17590000  0.04230000  1.0 -0.031092942
C  C490  1  0.28880000  0.17420000  0.00710000  1.0 -0.0411448339
C  C491  1  0.26540000  0.18020000  0.10230000  1.0 0.0208651214
C  C492  1  0.22410000  0.16590000  0.13620000  1.0 -0.1419040074
C  C493  1  0.23790000  0.16390000  0.19310000  1.0 -0.2371347718
C  C494  1  0.29300000  0.17620000  0.21600000  1.0 0.0029544244
C  C495  1  0.33410000  0.19050000  0.18210000  1.0 -0.1005040758
C  C496  1  0.32040000  0.19260000  0.12520000  1.0 -0.0698607116
C  C497  1  0.11880000  0.17480000  0.94560000  1.0 -0.009656686
C  C498  1  0.09370000  0.15970000  0.89460000  1.0 -0.0015219184
C  C499  1  0.03700000  0.15640000  0.87980000  1.0 -0.0411448339
C  C500  1  0.00540000  0.16820000  0.91600000  1.0 0.0398718794
C  C501  1  0.03040000  0.18340000  0.96700000  1.0 -0.3290081941
C  C502  1  0.08710000  0.18670000  0.98180000  1.0 -0.1708844029
C  C503  1  0.94360000  0.16160000  0.90210000  1.0 0.0477665272
C  C504  1  0.30840000  0.16840000  0.27640000  1.0 0.1093628614
C  C505  1  0.46960000  0.45420000  0.68500000  1.0 0.0804970859
C  C506  1  0.50530000  0.41790000  0.68700000  1.0 -0.0490548017
C  C507  1  0.57570000  0.34890000  0.66600000  1.0 -0.009656686
C  C508  1  0.60970000  0.31390000  0.65900000  1.0 -0.009656686
C  C509  1  0.68960000  0.38340000  0.67900000  1.0 -0.0698607116
C  C510  1  0.65560000  0.41860000  0.68600000  1.0 -0.0889753061
C  C511  1  0.68240000  0.24120000  0.64700000  1.0 -0.0801124783
C  C512  1  0.71570000  0.20770000  0.63400000  1.0 -0.2072177187
C  C513  1  0.66380000  0.03380000  0.63200000  1.0 -0.1203220497
C  C514  1  0.70910000  0.06210000  0.60700000  1.0 0.0398718794
C  C515  1  0.72420000  0.11900000  0.60600000  1.0 -0.0490548017
C  C516  1  0.69380000  0.14760000  0.62900000  1.0 0.0318146411
C  C517  1  0.64850000  0.11930000  0.65400000  1.0 -0.2072177187
C  C518  1  0.63340000  0.06240000  0.65600000  1.0 -0.1203220497
C  C519  1  0.65200000  0.97180000  0.63770000  1.0 0.2255965845
C  C520  1  0.32090000  0.60550000  0.35900000  1.0 -0.009656686
C  C521  1  0.28480000  0.64080000  0.36000000  1.0 -0.0596609419
C  C522  1  0.70580000  0.58940000  0.32550000  1.0 0.0398718794
C  C523  1  0.68040000  0.53420000  0.33300000  1.0 -0.1708844029
C  C524  1  0.62320000  0.52020000  0.32900000  1.0 -0.1310519114
C  C525  1  0.61680000  0.61680000  0.31000000  1.0 -0.0596609419
C  C526  1  0.59140000  0.56160000  0.31730000  1.0 0.0318146411
C  C527  1  0.67400000  0.63060000  0.31400000  1.0 -0.1005040758
C  C528  1  0.76700000  0.60440000  0.33310000  1.0 0.127136936
C  C529  1  0.56090000  0.43910000  0.68500000  1.0 0.0398718794
C  C530  1  0.59870000  0.40130000  0.68000000  1.0 0.0318146411
C  C531  1  0.66780000  0.33220000  0.66500000  1.0 0.0318146411
C  C532  1  0.70410000  0.29590000  0.65300000  1.0 0.0398718794
C  C533  1  0.43910000  0.56090000  0.31500000  1.0 0.0398718794
C  C534  1  0.40130000  0.59870000  0.32000000  1.0 0.0318146411
C  C535  1  0.33220000  0.66780000  0.33500000  1.0 0.0208651214
C  C536  1  0.29590000  0.70410000  0.34700000  1.0 0.0398718794
C  C537  1  0.41440000  0.58560000  0.36180000  1.0 0.0318146411
C  C538  1  0.30520000  0.69480000  0.37030000  1.0 0.0398718794
C  C539  1  0.37670000  0.62330000  0.36770000  1.0 0.0318146411
C  C540  1  0.26720000  0.73280000  0.37200000  1.0 0.0608540604
C  C541  1  0.58560000  0.41440000  0.63820000  1.0 0.0318146411
C  C542  1  0.69480000  0.30520000  0.62970000  1.0 0.0398718794
C  C543  1  0.62330000  0.37670000  0.63230000  1.0 0.0318146411
C  C544  1  0.73280000  0.26720000  0.62800000  1.0 0.0608540604
N  N1  1  0.86290000  0.48070000  0.70060000  1.0 -0.161523537
N  N2  1  0.85090000  0.77570000  0.99280000  1.0 0.0608540604
N  N3  1  0.84540000  0.50900000  0.72810000  1.0 0.1404775178
N  N4  1  0.82400000  0.80380000  0.02160000  1.0 0.0029544244
N  N5  1  0.48070000  0.86290000  0.29940000  1.0 -0.161523537
N  N6  1  0.77570000  0.85090000  0.00720000  1.0 0.0608540604
N  N7  1  0.50900000  0.84540000  0.27190000  1.0 0.1404775178
N  N8  1  0.80380000  0.82400000  0.97840000  1.0 0.0029544244
N  N9  1  0.13710000  0.51930000  0.29940000  1.0 -0.161523537
N  N10  1  0.14910000  0.22430000  0.00720000  1.0 0.0608540604
N  N11  1  0.15460000  0.49100000  0.27190000  1.0 0.1404775178
N  N12  1  0.17600000  0.19620000  0.97840000  1.0 0.0029544244
N  N13  1  0.51930000  0.13710000  0.70060000  1.0 -0.161523537
N  N14  1  0.22430000  0.14910000  0.99280000  1.0 0.0608540604
N  N15  1  0.49100000  0.15460000  0.72810000  1.0 0.1404775178
N  N16  1  0.19620000  0.17600000  0.02160000  1.0 0.0029544244
N  N17  1  0.48930000  0.51070000  0.68400000  1.0 -0.2897671981
N  N18  1  0.77080000  0.22920000  0.62800000  1.0 0.1208309015
N  N19  1  0.51070000  0.48930000  0.31600000  1.0 -0.2897671981
N  N20  1  0.22920000  0.77080000  0.37200000  1.0 0.1208309015
N  N21  1  0.48340000  0.51660000  0.34940000  1.0 0.0029544244
N  N22  1  0.19550000  0.80450000  0.37300000  1.0 -0.1508559136
N  N23  1  0.51660000  0.48340000  0.65060000  1.0 0.0029544244
N  N24  1  0.80450000  0.19550000  0.62700000  1.0 -0.1508559136
O  O1  1  0.40770000  0.23310000  0.37200000  1.0 0.011137816
O  O2  1  0.31710000  0.23810000  0.37320000  1.0 -0.3645358605
O  O3  1  0.91830000  0.63390000  0.36700000  1.0 -0.0698607116
O  O4  1  0.91880000  0.71820000  0.38740000  1.0 -0.109103927
O  O5  1  0.87720000  0.20260000  0.78080000  1.0 -0.2626556255
O  O6  1  0.87320000  0.21040000  0.86810000  1.0 -0.1419040074
O  O7  1  0.86960000  0.56560000  0.41850000  1.0 -0.1419040074
O  O8  1  0.86560000  0.65200000  0.42820000  1.0 -0.1005040758
O  O9  1  0.87560000  0.60920000  0.26500000  1.0 -0.3367765246
O  O10  1  0.86910000  0.69590000  0.27680000  1.0 -0.009656686
O  O11  1  0.86440000  0.04720000  0.82060000  1.0 -0.3015578834
O  O12  1  0.86770000  0.05790000  0.90950000  1.0 0.011137816
O  O13  1  0.87530000  0.77110000  0.36010000  1.0 -0.1790835738
O  O14  1  0.86690000  0.49550000  0.32800000  1.0 -0.2263797073
O  O15  1  0.83740000  0.52040000  0.36270000  1.0 -0.161523537
O  O16  1  0.85530000  0.23030000  0.81280000  1.0 0.011137816
O  O17  1  0.84670000  0.24010000  0.89970000  1.0 -0.3239338917
O  O18  1  0.85110000  0.59630000  0.44650000  1.0 -0.0596609419
O  O19  1  0.84600000  0.68080000  0.46120000  1.0 -0.2675589544
O  O20  1  0.84040000  0.07140000  0.85160000  1.0 -0.109103927
O  O21  1  0.84050000  0.08510000  0.94040000  1.0 -0.1790835738
O  O22  1  0.83450000  0.64230000  0.29200000  1.0 -0.0889753061
O  O23  1  0.83720000  0.73140000  0.30170000  1.0 -0.2782611132
O  O24  1  0.84150000  0.79910000  0.39880000  1.0 -0.2782611132
O  O25  1  0.04950000  0.30910000  0.62900000  1.0 -0.1310519114
O  O26  1  0.04960000  0.39440000  0.65210000  1.0 -0.2626556255
O  O27  1  0.43250000  0.20710000  0.32990000  1.0 -0.1708844029
O  O28  1  0.34680000  0.21200000  0.34200000  1.0 -0.1005040758
O  O29  1  0.23310000  0.40770000  0.62800000  1.0 0.011137816
O  O30  1  0.23810000  0.31710000  0.62680000  1.0 -0.3645358605
O  O31  1  0.63390000  0.91830000  0.63300000  1.0 -0.0698607116
O  O32  1  0.71820000  0.91880000  0.61260000  1.0 -0.109103927
O  O33  1  0.20260000  0.87720000  0.21920000  1.0 -0.2626556255
O  O34  1  0.21040000  0.87320000  0.13190000  1.0 -0.1419040074
O  O35  1  0.56560000  0.86960000  0.58150000  1.0 -0.1419040074
O  O36  1  0.65200000  0.86560000  0.57180000  1.0 -0.109103927
O  O37  1  0.60920000  0.87560000  0.73500000  1.0 -0.3367765246
O  O38  1  0.69590000  0.86910000  0.72320000  1.0 -0.009656686
O  O39  1  0.04720000  0.86440000  0.17940000  1.0 -0.3015578834
O  O40  1  0.05790000  0.86770000  0.09050000  1.0 0.011137816
O  O41  1  0.77110000  0.87530000  0.63990000  1.0 -0.1790835738
O  O42  1  0.49550000  0.86690000  0.67200000  1.0 -0.2263797073
O  O43  1  0.52040000  0.83740000  0.63730000  1.0 -0.161523537
O  O44  1  0.23030000  0.85530000  0.18720000  1.0 0.011137816
O  O45  1  0.24010000  0.84670000  0.10030000  1.0 -0.3290081941
O  O46  1  0.59630000  0.85110000  0.55350000  1.0 -0.0596609419
O  O47  1  0.68080000  0.84600000  0.53880000  1.0 -0.2675589544
O  O48  1  0.07140000  0.84040000  0.14840000  1.0 -0.109103927
O  O49  1  0.08510000  0.84050000  0.05960000  1.0 -0.1790835738
O  O50  1  0.64230000  0.83450000  0.70800000  1.0 -0.0889753061
O  O51  1  0.73140000  0.83720000  0.69830000  1.0 -0.2782611132
O  O52  1  0.79910000  0.84150000  0.60120000  1.0 -0.2782611132
O  O53  1  0.30910000  0.04950000  0.37100000  1.0 -0.1310519114
O  O54  1  0.39440000  0.04960000  0.34790000  1.0 -0.2626556255
O  O55  1  0.20710000  0.43250000  0.67010000  1.0 -0.1708844029
O  O56  1  0.21200000  0.34680000  0.65800000  1.0 -0.1005040758
O  O57  1  0.59230000  0.76690000  0.62800000  1.0 0.011137816
O  O58  1  0.68290000  0.76190000  0.62680000  1.0 -0.3673897756
O  O59  1  0.08170000  0.36610000  0.63300000  1.0 -0.0698607116
O  O60  1  0.08120000  0.28180000  0.61260000  1.0 -0.109103927
O  O61  1  0.12280000  0.79740000  0.21920000  1.0 -0.2626556255
O  O62  1  0.12680000  0.78960000  0.13190000  1.0 -0.1419040074
O  O63  1  0.13040000  0.43440000  0.58150000  1.0 -0.1419040074
O  O64  1  0.13440000  0.34800000  0.57180000  1.0 -0.1005040758
O  O65  1  0.12440000  0.39080000  0.73500000  1.0 -0.3367765246
O  O66  1  0.13090000  0.30410000  0.72320000  1.0 -0.009656686
O  O67  1  0.13560000  0.95280000  0.17940000  1.0 -0.3015578834
O  O68  1  0.13230000  0.94210000  0.09050000  1.0 0.011137816
O  O69  1  0.12470000  0.22890000  0.63990000  1.0 -0.1708844029
O  O70  1  0.13310000  0.50450000  0.67200000  1.0 -0.2371347718
O  O71  1  0.16260000  0.47960000  0.63730000  1.0 -0.161523537
O  O72  1  0.14470000  0.76970000  0.18720000  1.0 0.011137816
O  O73  1  0.15330000  0.75990000  0.10030000  1.0 -0.3290081941
O  O74  1  0.14890000  0.40370000  0.55350000  1.0 -0.0596609419
O  O75  1  0.15400000  0.31920000  0.53880000  1.0 -0.2675589544
O  O76  1  0.15960000  0.92860000  0.14840000  1.0 -0.109103927
O  O77  1  0.15950000  0.91490000  0.05960000  1.0 -0.1790835738
O  O78  1  0.16550000  0.35770000  0.70800000  1.0 -0.0889753061
O  O79  1  0.16280000  0.26860000  0.69830000  1.0 -0.2782611132
O  O80  1  0.15850000  0.20090000  0.60120000  1.0 -0.2897671981
O  O81  1  0.95050000  0.69090000  0.37100000  1.0 -0.1310519114
O  O82  1  0.95040000  0.60560000  0.34790000  1.0 -0.2626556255
O  O83  1  0.56750000  0.79290000  0.67010000  1.0 -0.1708844029
O  O84  1  0.65320000  0.78800000  0.65800000  1.0 -0.1005040758
O  O85  1  0.76690000  0.59230000  0.37200000  1.0 0.011137816
O  O86  1  0.76190000  0.68290000  0.37320000  1.0 -0.3673897756
O  O87  1  0.36610000  0.08170000  0.36700000  1.0 -0.0698607116
O  O88  1  0.28180000  0.08120000  0.38740000  1.0 -0.109103927
O  O89  1  0.79740000  0.12280000  0.78080000  1.0 -0.2626556255
O  O90  1  0.78960000  0.12680000  0.86810000  1.0 -0.1419040074
O  O91  1  0.43440000  0.13040000  0.41850000  1.0 -0.1419040074
O  O92  1  0.34800000  0.13440000  0.42820000  1.0 -0.1005040758
O  O93  1  0.39080000  0.12440000  0.26500000  1.0 -0.3367765246
O  O94  1  0.30410000  0.13090000  0.27680000  1.0 -0.009656686
O  O95  1  0.95280000  0.13560000  0.82060000  1.0 -0.3015578834
O  O96  1  0.94210000  0.13230000  0.90950000  1.0 0.011137816
O  O97  1  0.22890000  0.12470000  0.36010000  1.0 -0.1790835738
O  O98  1  0.50450000  0.13310000  0.32800000  1.0 -0.2371347718
O  O99  1  0.47960000  0.16260000  0.36270000  1.0 -0.161523537
O  O100  1  0.76970000  0.14470000  0.81280000  1.0 0.0208651214
O  O101  1  0.75990000  0.15330000  0.89970000  1.0 -0.3239338917
O  O102  1  0.40370000  0.14890000  0.44650000  1.0 -0.0596609419
O  O103  1  0.31920000  0.15400000  0.46120000  1.0 -0.2675589544
O  O104  1  0.92860000  0.15960000  0.85160000  1.0 -0.109103927
O  O105  1  0.91490000  0.15950000  0.94040000  1.0 -0.1790835738
O  O106  1  0.35770000  0.16550000  0.29200000  1.0 -0.0889753061
O  O107  1  0.26860000  0.16280000  0.30170000  1.0 -0.2782611132
O  O108  1  0.20090000  0.15850000  0.39880000  1.0 -0.2782611132
O  O109  1  0.69090000  0.95050000  0.62900000  1.0 -0.1310519114
O  O110  1  0.60560000  0.95040000  0.65210000  1.0 -0.2626556255
O  O111  1  0.79290000  0.56750000  0.32990000  1.0 -0.1708844029
O  O112  1  0.78800000  0.65320000  0.34200000  1.0 -0.1005040758
O  O113  1  0.88080000  0.11920000  0.70660000  1.0 0.0702914667
O  O114  1  0.85840000  0.14160000  0.98160000  1.0 -0.1005040758
O  O115  1  0.85750000  0.14250000  0.73780000  1.0 -0.2072177187
O  O116  1  0.83640000  0.16360000  0.01630000  1.0 -0.1005040758
O  O117  1  0.11920000  0.88080000  0.29340000  1.0 0.0702914667
O  O118  1  0.14160000  0.85840000  0.01840000  1.0 -0.1005040758
O  O119  1  0.14250000  0.85750000  0.26220000  1.0 -0.2072177187
O  O120  1  0.16360000  0.83640000  0.98370000  1.0 -0.109103927
