# DDEC6 charges by PACMAN v1.1 (https://github.com/mtap-research/PACMAN-charge/)
data_WASMUB02_ASR_pacman
_symmetry_space_group_name_H-M   'P 1'
_cell_length_a   9.82270000
_cell_length_b   15.34800000
_cell_length_c   30.69300000
_cell_angle_alpha   90.00000000
_cell_angle_beta   90.00000000
_cell_angle_gamma   90.00000000
_symmetry_Int_Tables_number   1
_chemical_formula_structural   FeH32C44S4N9
_chemical_formula_sum   'Fe4 H128 C176 S16 N36'
_cell_volume   4627.23983612
_cell_formula_units_Z   4
loop_
 _symmetry_equiv_pos_site_id
 _symmetry_equiv_pos_as_xyz
  1  'x, y, z'
loop_
 _atom_site_type_symbol
 _atom_site_label
 _atom_site_symmetry_multiplicity
 _atom_site_fract_x
 _atom_site_fract_y
 _atom_site_fract_z
 _atom_site_occupancy
 _atom_site_charge
Fe  Fe1  1  0.50000000  0.73746000  0.71706000  1.0 0.4622816293
Fe  Fe2  1  0.50000000  0.26254000  0.28294000  1.0 0.4622816293
Fe  Fe3  1  0.50000000  0.76254000  0.21706000  1.0 0.4622816293
Fe  Fe4  1  0.50000000  0.23746000  0.78294000  1.0 0.4656971045
H  H1  1  0.59220000  0.90950000  0.66190000  1.0 0.0789111664
H  H2  1  0.59220000  0.09050000  0.33810000  1.0 0.0789111664
H  H3  1  0.40780000  0.59050000  0.16190000  1.0 0.0789111664
H  H4  1  0.40780000  0.40950000  0.83810000  1.0 0.0789111664
H  H5  1  0.40780000  0.09050000  0.33810000  1.0 0.0789111664
H  H6  1  0.40780000  0.90950000  0.66190000  1.0 0.0789111664
H  H7  1  0.59220000  0.40950000  0.83810000  1.0 0.0789111664
H  H8  1  0.59220000  0.59050000  0.16190000  1.0 0.0789111664
H  H9  1  0.79410000  0.69170000  0.68180000  1.0 0.0789111664
H  H10  1  0.79410000  0.30830000  0.31820000  1.0 0.0789111664
H  H11  1  0.20590000  0.80830000  0.18180000  1.0 0.0789111664
H  H12  1  0.20590000  0.19170000  0.81820000  1.0 0.0789111664
H  H13  1  0.20590000  0.30830000  0.31820000  1.0 0.0789111664
H  H14  1  0.20590000  0.69170000  0.68180000  1.0 0.0789111664
H  H15  1  0.79410000  0.19170000  0.81820000  1.0 0.0789111664
H  H16  1  0.79410000  0.80830000  0.18180000  1.0 0.0789111664
H  H17  1  0.71260000  0.93110000  0.60390000  1.0 0.0987706975
H  H18  1  0.71260000  0.06890000  0.39610000  1.0 0.0987706975
H  H19  1  0.28740000  0.56890000  0.10390000  1.0 0.0987706975
H  H20  1  0.28740000  0.43110000  0.89610000  1.0 0.0987706975
H  H21  1  0.28740000  0.06890000  0.39610000  1.0 0.0987706975
H  H22  1  0.28740000  0.93110000  0.60390000  1.0 0.0987706975
H  H23  1  0.71260000  0.43110000  0.89610000  1.0 0.0987706975
H  H24  1  0.71260000  0.56890000  0.10390000  1.0 0.0987706975
H  H25  1  0.90270000  0.69560000  0.61690000  1.0 0.0987706975
H  H26  1  0.90270000  0.30440000  0.38310000  1.0 0.0987706975
H  H27  1  0.09730000  0.80440000  0.11690000  1.0 0.0987706975
H  H28  1  0.09730000  0.19560000  0.88310000  1.0 0.0987706975
H  H29  1  0.09730000  0.30440000  0.38310000  1.0 0.0987706975
H  H30  1  0.09730000  0.69560000  0.61690000  1.0 0.0987706975
H  H31  1  0.90270000  0.19560000  0.88310000  1.0 0.0987706975
H  H32  1  0.90270000  0.80440000  0.11690000  1.0 0.0987706975
H  H33  1  0.28810000  0.77490000  0.36960000  1.0 0.0987706975
H  H34  1  0.28810000  0.22510000  0.63040000  1.0 0.0987706975
H  H35  1  0.71190000  0.72510000  0.86960000  1.0 0.0987706975
H  H36  1  0.71190000  0.27490000  0.13040000  1.0 0.0987706975
H  H37  1  0.71190000  0.22510000  0.63040000  1.0 0.0987706975
H  H38  1  0.71190000  0.77490000  0.36960000  1.0 0.0987706975
H  H39  1  0.28810000  0.27490000  0.13040000  1.0 0.0987706975
H  H40  1  0.28810000  0.72510000  0.86960000  1.0 0.0987706975
H  H41  1  0.07030000  0.90300000  0.28180000  1.0 0.0789111664
H  H42  1  0.07030000  0.09700000  0.71820000  1.0 0.0789111664
H  H43  1  0.92970000  0.59700000  0.78180000  1.0 0.0789111664
H  H44  1  0.92970000  0.40300000  0.21820000  1.0 0.0789111664
H  H45  1  0.92970000  0.09700000  0.71820000  1.0 0.0789111664
H  H46  1  0.92970000  0.90300000  0.28180000  1.0 0.0789111664
H  H47  1  0.07030000  0.40300000  0.21820000  1.0 0.0789111664
H  H48  1  0.07030000  0.59700000  0.78180000  1.0 0.0789111664
H  H49  1  0.43710000  0.73090000  0.31600000  1.0 0.0548616149
H  H50  1  0.43710000  0.26910000  0.68400000  1.0 0.0548616149
H  H51  1  0.56290000  0.76910000  0.81600000  1.0 0.0603223028
H  H52  1  0.56290000  0.23090000  0.18400000  1.0 0.0548616149
H  H53  1  0.56290000  0.26910000  0.68400000  1.0 0.0548616149
H  H54  1  0.56290000  0.73090000  0.31600000  1.0 0.0548616149
H  H55  1  0.43710000  0.23090000  0.18400000  1.0 0.0548616149
H  H56  1  0.43710000  0.76910000  0.81600000  1.0 0.0603223028
H  H57  1  0.24170000  0.87620000  0.23070000  1.0 0.0912809456
H  H58  1  0.24170000  0.12380000  0.76930000  1.0 0.0912809456
H  H59  1  0.75830000  0.62380000  0.73070000  1.0 0.0987706975
H  H60  1  0.75830000  0.37620000  0.26930000  1.0 0.0912809456
H  H61  1  0.75830000  0.12380000  0.76930000  1.0 0.0987706975
H  H62  1  0.75830000  0.87620000  0.23070000  1.0 0.0987706975
H  H63  1  0.24170000  0.37620000  0.26930000  1.0 0.0912809456
H  H64  1  0.24170000  0.62380000  0.73070000  1.0 0.0987706975
H  H65  1  0.43800000  0.91560000  0.28150000  1.0 0.0365575845
H  H66  1  0.43800000  0.08440000  0.71850000  1.0 0.0365575845
H  H67  1  0.56200000  0.58440000  0.78150000  1.0 0.0365575845
H  H68  1  0.56200000  0.41560000  0.21850000  1.0 0.0365575845
H  H69  1  0.56200000  0.08440000  0.71850000  1.0 0.0365575845
H  H70  1  0.56200000  0.91560000  0.28150000  1.0 0.0365575845
H  H71  1  0.43800000  0.41560000  0.21850000  1.0 0.0365575845
H  H72  1  0.43800000  0.58440000  0.78150000  1.0 0.0365575845
H  H73  1  0.27250000  0.96580000  0.33280000  1.0 0.1058215969
H  H74  1  0.27250000  0.03420000  0.66720000  1.0 0.1058215969
H  H75  1  0.72750000  0.53420000  0.83280000  1.0 0.1058215969
H  H76  1  0.72750000  0.46580000  0.16720000  1.0 0.1058215969
H  H77  1  0.72750000  0.03420000  0.66720000  1.0 0.1058215969
H  H78  1  0.72750000  0.96580000  0.33280000  1.0 0.1058215969
H  H79  1  0.27250000  0.46580000  0.16720000  1.0 0.1058215969
H  H80  1  0.27250000  0.53420000  0.83280000  1.0 0.1058215969
H  H81  1  0.05960000  0.73880000  0.31170000  1.0 0.0789111664
H  H82  1  0.05960000  0.26120000  0.68830000  1.0 0.0789111664
H  H83  1  0.94040000  0.76120000  0.81170000  1.0 0.0789111664
H  H84  1  0.94040000  0.23880000  0.18830000  1.0 0.0789111664
H  H85  1  0.94040000  0.26120000  0.68830000  1.0 0.0789111664
H  H86  1  0.94040000  0.73880000  0.31170000  1.0 0.0789111664
H  H87  1  0.05960000  0.23880000  0.18830000  1.0 0.0789111664
H  H88  1  0.05960000  0.76120000  0.81170000  1.0 0.0789111664
H  H89  1  0.23490000  0.69680000  0.26230000  1.0 0.0789111664
H  H90  1  0.23490000  0.30320000  0.73770000  1.0 0.0789111664
H  H91  1  0.76510000  0.80320000  0.76230000  1.0 0.0789111664
H  H92  1  0.76510000  0.19680000  0.23770000  1.0 0.0789111664
H  H93  1  0.76510000  0.30320000  0.73770000  1.0 0.0789111664
H  H94  1  0.76510000  0.69680000  0.26230000  1.0 0.0789111664
H  H95  1  0.23490000  0.19680000  0.23770000  1.0 0.0789111664
H  H96  1  0.23490000  0.80320000  0.76230000  1.0 0.0789111664
H  H97  1  0.92350000  0.89410000  0.65330000  1.0 0.0912809456
H  H98  1  0.92350000  0.10590000  0.34670000  1.0 0.0912809456
H  H99  1  0.07650000  0.60590000  0.15330000  1.0 0.0912809456
H  H100  1  0.07650000  0.39410000  0.84670000  1.0 0.0912809456
H  H101  1  0.07650000  0.10590000  0.34670000  1.0 0.0912809456
H  H102  1  0.07650000  0.89410000  0.65330000  1.0 0.0912809456
H  H103  1  0.92350000  0.39410000  0.84670000  1.0 0.0912809456
H  H104  1  0.92350000  0.60590000  0.15330000  1.0 0.0912809456
H  H105  1  0.78280000  0.84280000  0.70720000  1.0 0.0656764426
H  H106  1  0.78280000  0.15720000  0.29280000  1.0 0.0656764426
H  H107  1  0.21720000  0.65720000  0.20720000  1.0 0.0656764426
H  H108  1  0.21720000  0.34280000  0.79280000  1.0 0.0656764426
H  H109  1  0.21720000  0.15720000  0.29280000  1.0 0.0656764426
H  H110  1  0.21720000  0.84280000  0.70720000  1.0 0.0656764426
H  H111  1  0.78280000  0.34280000  0.79280000  1.0 0.0656764426
H  H112  1  0.78280000  0.65720000  0.20720000  1.0 0.0656764426
H  H113  1  0.57120000  0.69370000  0.62460000  1.0 0.0789111664
H  H114  1  0.57120000  0.30630000  0.37540000  1.0 0.0789111664
H  H115  1  0.42880000  0.80630000  0.12460000  1.0 0.0789111664
H  H116  1  0.42880000  0.19370000  0.87540000  1.0 0.0789111664
H  H117  1  0.42880000  0.30630000  0.37540000  1.0 0.0789111664
H  H118  1  0.42880000  0.69370000  0.62460000  1.0 0.0789111664
H  H119  1  0.57120000  0.19370000  0.87540000  1.0 0.0789111664
H  H120  1  0.57120000  0.80630000  0.12460000  1.0 0.0789111664
H  H121  1  0.71850000  0.74130000  0.56510000  1.0 0.0912809456
H  H122  1  0.71850000  0.25870000  0.43490000  1.0 0.0912809456
H  H123  1  0.28150000  0.75870000  0.06510000  1.0 0.0987706975
H  H124  1  0.28150000  0.24130000  0.93490000  1.0 0.0912809456
H  H125  1  0.28150000  0.25870000  0.43490000  1.0 0.0912809456
H  H126  1  0.28150000  0.74130000  0.56510000  1.0 0.0912809456
H  H127  1  0.71850000  0.24130000  0.93490000  1.0 0.0912809456
H  H128  1  0.71850000  0.75870000  0.06510000  1.0 0.0912809456
C  C1  1  0.50000000  0.90560000  0.77100000  1.0 0.3494662069
C  C2  1  0.50000000  0.09440000  0.22900000  1.0 0.3494662069
C  C3  1  0.50000000  0.59440000  0.27100000  1.0 0.3494662069
C  C4  1  0.50000000  0.40560000  0.72900000  1.0 0.3494662069
C  C5  1  0.65000000  0.86680000  0.65080000  1.0 -0.0576290391
C  C6  1  0.65000000  0.13320000  0.34920000  1.0 -0.0576290391
C  C7  1  0.35000000  0.63320000  0.15080000  1.0 -0.0576290391
C  C8  1  0.35000000  0.36680000  0.84920000  1.0 -0.0576290391
C  C9  1  0.35000000  0.13320000  0.34920000  1.0 -0.0576290391
C  C10  1  0.35000000  0.86680000  0.65080000  1.0 -0.0576290391
C  C11  1  0.65000000  0.36680000  0.84920000  1.0 -0.0576290391
C  C12  1  0.65000000  0.63320000  0.15080000  1.0 -0.0576290391
C  C13  1  0.76700000  0.73230000  0.66110000  1.0 0.0365575845
C  C14  1  0.76700000  0.26770000  0.33890000  1.0 0.0365575845
C  C15  1  0.23300000  0.76770000  0.16110000  1.0 0.0365575845
C  C16  1  0.23300000  0.23230000  0.83890000  1.0 0.0365575845
C  C17  1  0.23300000  0.26770000  0.33890000  1.0 0.0365575845
C  C18  1  0.23300000  0.73230000  0.66110000  1.0 0.0365575845
C  C19  1  0.76700000  0.23230000  0.83890000  1.0 0.0365575845
C  C20  1  0.76700000  0.76770000  0.16110000  1.0 0.0365575845
C  C21  1  0.72920000  0.88040000  0.61950000  1.0 -0.0981346389
C  C22  1  0.72920000  0.11960000  0.38050000  1.0 -0.0981346389
C  C23  1  0.27080000  0.61960000  0.11950000  1.0 -0.0981346389
C  C24  1  0.27080000  0.38040000  0.88050000  1.0 -0.0981346389
C  C25  1  0.27080000  0.11960000  0.38050000  1.0 -0.0981346389
C  C26  1  0.27080000  0.88040000  0.61950000  1.0 -0.0981346389
C  C27  1  0.72920000  0.38040000  0.88050000  1.0 -0.0981346389
C  C28  1  0.72920000  0.61960000  0.11950000  1.0 -0.0981346389
C  C29  1  0.84700000  0.74040000  0.62680000  1.0 -0.1094356175
C  C30  1  0.84700000  0.25960000  0.37320000  1.0 -0.1094356175
C  C31  1  0.15300000  0.75960000  0.12680000  1.0 -0.1094356175
C  C32  1  0.15300000  0.24040000  0.87320000  1.0 -0.1094356175
C  C33  1  0.15300000  0.25960000  0.37320000  1.0 -0.1094356175
C  C34  1  0.15300000  0.74040000  0.62680000  1.0 -0.1094356175
C  C35  1  0.84700000  0.24040000  0.87320000  1.0 -0.1094356175
C  C36  1  0.84700000  0.75960000  0.12680000  1.0 -0.1094356175
C  C37  1  0.50000000  0.04430000  0.80830000  1.0 0.4151894995
C  C38  1  0.50000000  0.95570000  0.19170000  1.0 0.4146547862
C  C39  1  0.50000000  0.45570000  0.30830000  1.0 0.4151894995
C  C40  1  0.50000000  0.54430000  0.69170000  1.0 0.4151894995
C  C41  1  0.84020000  0.83000000  0.60460000  1.0 0.0912809456
C  C42  1  0.84020000  0.17000000  0.39540000  1.0 0.0912809456
C  C43  1  0.15980000  0.67000000  0.10460000  1.0 0.0912809456
C  C44  1  0.15980000  0.33000000  0.89540000  1.0 0.0912809456
C  C45  1  0.15980000  0.17000000  0.39540000  1.0 0.0912809456
C  C46  1  0.15980000  0.83000000  0.60460000  1.0 0.0912809456
C  C47  1  0.84020000  0.33000000  0.89540000  1.0 0.0912809456
C  C48  1  0.84020000  0.67000000  0.10460000  1.0 0.0912809456
C  C49  1  0.92510000  0.84990000  0.56920000  1.0 -0.0713546784
C  C50  1  0.92510000  0.15010000  0.43080000  1.0 -0.0713546784
C  C51  1  0.07490000  0.65010000  0.06920000  1.0 -0.0713546784
C  C52  1  0.07490000  0.34990000  0.93080000  1.0 -0.0713546784
C  C53  1  0.07490000  0.15010000  0.43080000  1.0 -0.0713546784
C  C54  1  0.07490000  0.84990000  0.56920000  1.0 -0.0713546784
C  C55  1  0.92510000  0.34990000  0.93080000  1.0 -0.0713546784
C  C56  1  0.92510000  0.65010000  0.06920000  1.0 -0.0713546784
C  C57  1  0.00000000  0.89770000  0.49120000  1.0 -0.1094356175
C  C58  1  0.00000000  0.10230000  0.50880000  1.0 -0.1094356175
C  C59  1  0.00000000  0.60230000  0.99120000  1.0 -0.1094356175
C  C60  1  0.00000000  0.39770000  0.00880000  1.0 -0.1094356175
C  C61  1  0.00000000  0.89660000  0.44900000  1.0 -0.0902804411
C  C62  1  0.00000000  0.10340000  0.55100000  1.0 -0.0902804411
C  C63  1  0.00000000  0.60340000  0.94900000  1.0 -0.0902804411
C  C64  1  0.00000000  0.39660000  0.05100000  1.0 -0.0902804411
C  C65  1  0.06430000  0.87210000  0.36730000  1.0 -0.048082586
C  C66  1  0.06430000  0.12790000  0.63270000  1.0 -0.048082586
C  C67  1  0.93570000  0.62790000  0.86730000  1.0 -0.048082586
C  C68  1  0.93570000  0.37210000  0.13270000  1.0 -0.048082586
C  C69  1  0.93570000  0.12790000  0.63270000  1.0 -0.048082586
C  C70  1  0.93570000  0.87210000  0.36730000  1.0 -0.048082586
C  C71  1  0.06430000  0.37210000  0.13270000  1.0 -0.048082586
C  C72  1  0.06430000  0.62790000  0.86730000  1.0 -0.048082586
C  C73  1  0.16150000  0.84450000  0.33160000  1.0 0.0912809456
C  C74  1  0.16150000  0.15550000  0.66840000  1.0 0.0912809456
C  C75  1  0.83850000  0.65550000  0.83160000  1.0 0.0912809456
C  C76  1  0.83850000  0.34450000  0.16840000  1.0 0.0912809456
C  C77  1  0.83850000  0.15550000  0.66840000  1.0 0.0912809456
C  C78  1  0.83850000  0.84450000  0.33160000  1.0 0.0912809456
C  C79  1  0.16150000  0.34450000  0.16840000  1.0 0.0912809456
C  C80  1  0.16150000  0.65550000  0.83160000  1.0 0.0912809456
C  C81  1  0.27300000  0.79240000  0.34100000  1.0 -0.179501602
C  C82  1  0.27300000  0.20760000  0.65900000  1.0 -0.179501602
C  C83  1  0.72700000  0.70760000  0.84100000  1.0 -0.179501602
C  C84  1  0.72700000  0.29240000  0.15900000  1.0 -0.179501602
C  C85  1  0.72700000  0.20760000  0.65900000  1.0 -0.179501602
C  C86  1  0.72700000  0.79240000  0.34100000  1.0 -0.179501602
C  C87  1  0.27300000  0.29240000  0.15900000  1.0 -0.179501602
C  C88  1  0.27300000  0.70760000  0.84100000  1.0 -0.179501602
C  C89  1  0.14640000  0.87060000  0.28970000  1.0 -0.1217191867
C  C90  1  0.14640000  0.12940000  0.71030000  1.0 -0.1217191867
C  C91  1  0.85360000  0.62940000  0.78970000  1.0 -0.1217191867
C  C92  1  0.85360000  0.37060000  0.21030000  1.0 -0.1217191867
C  C93  1  0.85360000  0.12940000  0.71030000  1.0 -0.1217191867
C  C94  1  0.85360000  0.87060000  0.28970000  1.0 -0.1217191867
C  C95  1  0.14640000  0.37060000  0.21030000  1.0 -0.1217191867
C  C96  1  0.14640000  0.62940000  0.78970000  1.0 -0.1217191867
C  C97  1  0.36300000  0.76560000  0.30840000  1.0 0.0603223028
C  C98  1  0.36300000  0.23440000  0.69160000  1.0 0.0603223028
C  C99  1  0.63700000  0.73440000  0.80840000  1.0 0.0603223028
C  C100  1  0.63700000  0.26560000  0.19160000  1.0 0.0656764426
C  C101  1  0.63700000  0.23440000  0.69160000  1.0 0.0603223028
C  C102  1  0.63700000  0.76560000  0.30840000  1.0 0.0603223028
C  C103  1  0.36300000  0.26560000  0.19160000  1.0 0.0656764426
C  C104  1  0.36300000  0.73440000  0.80840000  1.0 0.0603223028
C  C105  1  0.24540000  0.84900000  0.25770000  1.0 0.1058215969
C  C106  1  0.24540000  0.15100000  0.74230000  1.0 0.1058215969
C  C107  1  0.75460000  0.65100000  0.75770000  1.0 0.1058215969
C  C108  1  0.75460000  0.34900000  0.24230000  1.0 0.1058215969
C  C109  1  0.75460000  0.15100000  0.74230000  1.0 0.1058215969
C  C110  1  0.75460000  0.84900000  0.25770000  1.0 0.1058215969
C  C111  1  0.24540000  0.34900000  0.24230000  1.0 0.1058215969
C  C112  1  0.24540000  0.65100000  0.75770000  1.0 0.1058215969
C  C113  1  0.36000000  0.88270000  0.28680000  1.0 0.0603223028
C  C114  1  0.36000000  0.11730000  0.71320000  1.0 0.0603223028
C  C115  1  0.64000000  0.61730000  0.78680000  1.0 0.0603223028
C  C116  1  0.64000000  0.38270000  0.21320000  1.0 0.0603223028
C  C117  1  0.64000000  0.11730000  0.71320000  1.0 0.0603223028
C  C118  1  0.64000000  0.88270000  0.28680000  1.0 0.0603223028
C  C119  1  0.36000000  0.38270000  0.21320000  1.0 0.0603223028
C  C120  1  0.36000000  0.61730000  0.78680000  1.0 0.0603223028
C  C121  1  0.26760000  0.91120000  0.31980000  1.0 -0.1880725599
C  C122  1  0.26760000  0.08880000  0.68020000  1.0 -0.1880725599
C  C123  1  0.73240000  0.58880000  0.81980000  1.0 -0.1880725599
C  C124  1  0.73240000  0.41120000  0.18020000  1.0 -0.1880725599
C  C125  1  0.73240000  0.08880000  0.68020000  1.0 -0.1880725599
C  C126  1  0.73240000  0.91120000  0.31980000  1.0 -0.1880725599
C  C127  1  0.26760000  0.41120000  0.18020000  1.0 -0.1880725599
C  C128  1  0.26760000  0.58880000  0.81980000  1.0 -0.1880725599
C  C129  1  0.13700000  0.77260000  0.30760000  1.0 -0.1482816242
C  C130  1  0.13700000  0.22740000  0.69240000  1.0 -0.1482816242
C  C131  1  0.86300000  0.72740000  0.80760000  1.0 -0.1482816242
C  C132  1  0.86300000  0.27260000  0.19240000  1.0 -0.1482816242
C  C133  1  0.86300000  0.22740000  0.69240000  1.0 -0.1482816242
C  C134  1  0.86300000  0.77260000  0.30760000  1.0 -0.1482816242
C  C135  1  0.13700000  0.27260000  0.19240000  1.0 -0.1482816242
C  C136  1  0.13700000  0.72740000  0.80760000  1.0 -0.1482816242
C  C137  1  0.23800000  0.75150000  0.27540000  1.0 0.0912809456
C  C138  1  0.23800000  0.24850000  0.72460000  1.0 0.0912809456
C  C139  1  0.76200000  0.74850000  0.77540000  1.0 0.0912809456
C  C140  1  0.76200000  0.25150000  0.22460000  1.0 0.0912809456
C  C141  1  0.76200000  0.24850000  0.72460000  1.0 0.0912809456
C  C142  1  0.76200000  0.75150000  0.27540000  1.0 0.0912809456
C  C143  1  0.23800000  0.25150000  0.22460000  1.0 0.0912809456
C  C144  1  0.23800000  0.74850000  0.77540000  1.0 0.0912809456
C  C145  1  0.85400000  0.85580000  0.64600000  1.0 -0.1307090093
C  C146  1  0.85400000  0.14420000  0.35400000  1.0 -0.1307090093
C  C147  1  0.14600000  0.64420000  0.14600000  1.0 -0.1307090093
C  C148  1  0.14600000  0.35580000  0.85400000  1.0 -0.1307090093
C  C149  1  0.14600000  0.14420000  0.35400000  1.0 -0.1307090093
C  C150  1  0.14600000  0.85580000  0.64600000  1.0 -0.1307090093
C  C151  1  0.85400000  0.35580000  0.85400000  1.0 -0.1307090093
C  C152  1  0.85400000  0.64420000  0.14600000  1.0 -0.1307090093
C  C153  1  0.76630000  0.82660000  0.67850000  1.0 0.0050495308
C  C154  1  0.76630000  0.17340000  0.32150000  1.0 0.0045969751
C  C155  1  0.23370000  0.67340000  0.17850000  1.0 0.0045969751
C  C156  1  0.23370000  0.32660000  0.82150000  1.0 0.0045969751
C  C157  1  0.23370000  0.17340000  0.32150000  1.0 0.0045969751
C  C158  1  0.23370000  0.82660000  0.67850000  1.0 0.0050495308
C  C159  1  0.76630000  0.32660000  0.82150000  1.0 0.0045969751
C  C160  1  0.76630000  0.67340000  0.17850000  1.0 0.0045969751
C  C161  1  0.63800000  0.73560000  0.62900000  1.0 -0.0348201893
C  C162  1  0.63800000  0.26440000  0.37100000  1.0 -0.0348201893
C  C163  1  0.36200000  0.76440000  0.12900000  1.0 -0.0348201893
C  C164  1  0.36200000  0.23560000  0.87100000  1.0 -0.0354837678
C  C165  1  0.36200000  0.26440000  0.37100000  1.0 -0.0348201893
C  C166  1  0.36200000  0.73560000  0.62900000  1.0 -0.0348201893
C  C167  1  0.63800000  0.23560000  0.87100000  1.0 -0.0354837678
C  C168  1  0.63800000  0.76440000  0.12900000  1.0 -0.0348201893
C  C169  1  0.72800000  0.76310000  0.59320000  1.0 -0.0902804411
C  C170  1  0.72800000  0.23690000  0.40680000  1.0 -0.0981346389
C  C171  1  0.27200000  0.73690000  0.09320000  1.0 -0.0981346389
C  C172  1  0.27200000  0.26310000  0.90680000  1.0 -0.0981346389
C  C173  1  0.27200000  0.23690000  0.40680000  1.0 -0.0981346389
C  C174  1  0.27200000  0.76310000  0.59320000  1.0 -0.0902804411
C  C175  1  0.72800000  0.26310000  0.90680000  1.0 -0.0981346389
C  C176  1  0.72800000  0.73690000  0.09320000  1.0 -0.0981346389
S  S1  1  0.84900000  0.88860000  0.52138000  1.0 0.0603223028
S  S2  1  0.84900000  0.11140000  0.47862000  1.0 0.0603223028
S  S3  1  0.15100000  0.61140000  0.02138000  1.0 0.0603223028
S  S4  1  0.15100000  0.38860000  0.97862000  1.0 0.0603223028
S  S5  1  0.15100000  0.11140000  0.47862000  1.0 0.0603223028
S  S6  1  0.15100000  0.88860000  0.52138000  1.0 0.0603223028
S  S7  1  0.84900000  0.38860000  0.97862000  1.0 0.0603223028
S  S8  1  0.84900000  0.61140000  0.02138000  1.0 0.0603223028
S  S9  1  0.14790000  0.90320000  0.41596000  1.0 0.0238192973
S  S10  1  0.14790000  0.09680000  0.58404000  1.0 0.0238192973
S  S11  1  0.85210000  0.59680000  0.91596000  1.0 0.0238192973
S  S12  1  0.85210000  0.40320000  0.08404000  1.0 0.0238192973
S  S13  1  0.85210000  0.09680000  0.58404000  1.0 0.0238192973
S  S14  1  0.85210000  0.90320000  0.41596000  1.0 0.0238192973
S  S15  1  0.14790000  0.40320000  0.08404000  1.0 0.0238192973
S  S16  1  0.14790000  0.59680000  0.91596000  1.0 0.0238192973
N  N1  1  0.50000000  0.86470000  0.74340000  1.0 -0.4813098437
N  N2  1  0.50000000  0.13530000  0.25660000  1.0 -0.4813098437
N  N3  1  0.50000000  0.63530000  0.24340000  1.0 -0.4813098437
N  N4  1  0.50000000  0.36470000  0.75660000  1.0 -0.4813098437
N  N5  1  0.65590000  0.77430000  0.66940000  1.0 -0.0777103506
N  N6  1  0.65590000  0.22570000  0.33060000  1.0 -0.0777103506
N  N7  1  0.34410000  0.72570000  0.16940000  1.0 -0.0777103506
N  N8  1  0.34410000  0.27430000  0.83060000  1.0 -0.0777103506
N  N9  1  0.34410000  0.22570000  0.33060000  1.0 -0.0777103506
N  N10  1  0.34410000  0.77430000  0.66940000  1.0 -0.0777103506
N  N11  1  0.65590000  0.27430000  0.83060000  1.0 -0.0777103506
N  N12  1  0.65590000  0.72570000  0.16940000  1.0 -0.0777103506
N  N13  1  0.50000000  0.61480000  0.69030000  1.0 -0.5233766786
N  N14  1  0.50000000  0.38520000  0.30970000  1.0 -0.5233766786
N  N15  1  0.50000000  0.88520000  0.19030000  1.0 -0.5233766786
N  N16  1  0.50000000  0.11480000  0.80970000  1.0 -0.5233766786
N  N17  1  0.65330000  0.71110000  0.76550000  1.0 -0.2299017411
N  N18  1  0.65330000  0.28890000  0.23450000  1.0 -0.2299017411
N  N19  1  0.34670000  0.78890000  0.26550000  1.0 -0.223495578
N  N20  1  0.34670000  0.21110000  0.73450000  1.0 -0.2299017411
N  N21  1  0.34670000  0.28890000  0.23450000  1.0 -0.2299017411
N  N22  1  0.34670000  0.71110000  0.76550000  1.0 -0.2299017411
N  N23  1  0.65330000  0.21110000  0.73450000  1.0 -0.2299017411
N  N24  1  0.65330000  0.78890000  0.26550000  1.0 -0.223495578
N  N25  1  0.50000000  0.95130000  0.81180000  1.0 -0.4609450079
N  N26  1  0.50000000  0.04870000  0.18820000  1.0 -0.4609450079
N  N27  1  0.50000000  0.54870000  0.31180000  1.0 -0.4609450079
N  N28  1  0.50000000  0.45130000  0.68820000  1.0 -0.4609450079
N  N29  1  0.33900000  0.80880000  0.26290000  1.0 -0.1307090093
N  N30  1  0.33900000  0.19120000  0.73710000  1.0 -0.1307090093
N  N31  1  0.66100000  0.69120000  0.76290000  1.0 -0.1307090093
N  N32  1  0.66100000  0.30880000  0.23710000  1.0 -0.1307090093
N  N33  1  0.66100000  0.19120000  0.73710000  1.0 -0.1307090093
N  N34  1  0.66100000  0.80880000  0.26290000  1.0 -0.1307090093
N  N35  1  0.33900000  0.30880000  0.23710000  1.0 -0.1307090093
N  N36  1  0.33900000  0.69120000  0.76290000  1.0 -0.1307090093
