# DDEC6 charges by PACMAN v1.1 (https://github.com/mtap-research/PACMAN-charge/)
data_WASNOU_ASR_pacman
_symmetry_space_group_name_H-M   'P 1'
_cell_length_a   10.70200000
_cell_length_b   11.18600000
_cell_length_c   22.58400000
_cell_angle_alpha   93.80000000
_cell_angle_beta   90.13000000
_cell_angle_gamma   115.57000000
_symmetry_Int_Tables_number   1
_chemical_formula_structural   Cu2H37C35(N5O4)2
_chemical_formula_sum   'Cu4 H74 C70 N20 O16'
_cell_volume   2432.00183248
_cell_formula_units_Z   2
loop_
 _symmetry_equiv_pos_site_id
 _symmetry_equiv_pos_as_xyz
  1  'x, y, z'
loop_
 _atom_site_type_symbol
 _atom_site_label
 _atom_site_symmetry_multiplicity
 _atom_site_fract_x
 _atom_site_fract_y
 _atom_site_fract_z
 _atom_site_occupancy
 _atom_site_charge
Cu  Cu1  1  0.50000000  0.50000000  0.50000000  1.0 0.6806107204
Cu  Cu2  1  0.79946000  0.48951000  0.27421000  1.0 0.6483202319
Cu  Cu3  1  0.20054000  0.51049000  0.72579000  1.0 0.6483202319
Cu  Cu4  1  0.00000000  0.00000000  0.00000000  1.0 0.7667333524
H  H1  1  0.36090000  0.68600000  0.48110000  1.0 0.1206730137
H  H2  1  0.63910000  0.31400000  0.51890000  1.0 0.1206730137
H  H3  1  0.67870000  0.67970000  0.39800000  1.0 0.1366170934
H  H4  1  0.32130000  0.32030000  0.60200000  1.0 0.1366170934
H  H5  1  0.63950000  0.86270000  0.36250000  1.0 0.1282615051
H  H6  1  0.36050000  0.13730000  0.63750000  1.0 0.1282615051
H  H7  1  0.33190000  0.87260000  0.42940000  1.0 0.1206730137
H  H8  1  0.66810000  0.12740000  0.57060000  1.0 0.1206730137
H  H9  1  0.44090000  0.94590000  0.38220000  1.0 0.1105942939
H  H10  1  0.55910000  0.05410000  0.61780000  1.0 0.1105942939
H  H11  1  0.47850000  0.09210000  0.46510000  1.0 0.1105942939
H  H12  1  0.52150000  0.90790000  0.53490000  1.0 0.1105942939
H  H13  1  0.60710000  0.06050000  0.45900000  1.0 0.1105942939
H  H14  1  0.39290000  0.93950000  0.54100000  1.0 0.1105942939
H  H15  1  0.59580000  0.40450000  0.16080000  1.0 0.1206730137
H  H16  1  0.40420000  0.59550000  0.83920000  1.0 0.1206730137
H  H17  1  0.85300000  0.76270000  0.21940000  1.0 0.1206730137
H  H18  1  0.14700000  0.23730000  0.78060000  1.0 0.1206730137
H  H19  1  0.72540000  0.78340000  0.13490000  1.0 0.1366170934
H  H20  1  0.27460000  0.21660000  0.86510000  1.0 0.1366170934
H  H21  1  0.57580000  0.55930000  0.04290000  1.0 0.1206730137
H  H22  1  0.42420000  0.44070000  0.95710000  1.0 0.1206730137
H  H23  1  0.46940000  0.44370000  0.07780000  1.0 0.1282615051
H  H24  1  0.53060000  0.55630000  0.92220000  1.0 0.1282615051
H  H25  1  0.48830000  0.70280000  0.08280000  1.0 0.1105942939
H  H26  1  0.51170000  0.29720000  0.91720000  1.0 0.1105942939
H  H27  1  0.37110000  0.57980000  0.04780000  1.0 0.1206730137
H  H28  1  0.62890000  0.42020000  0.95220000  1.0 0.1206730137
H  H29  1  0.40310000  0.61140000  0.17300000  1.0 0.0871895108
H  H30  1  0.59690000  0.38860000  0.82700000  1.0 0.0871895108
H  H31  1  0.28660000  0.48660000  0.13840000  1.0 0.1105942939
H  H32  1  0.71340000  0.51340000  0.86160000  1.0 0.1105942939
H  H33  1  0.18790000  0.61660000  0.10280000  1.0 0.1206730137
H  H34  1  0.81210000  0.38340000  0.89720000  1.0 0.1206730137
H  H35  1  0.30890000  0.74560000  0.13200000  1.0 0.1206730137
H  H36  1  0.69110000  0.25440000  0.86800000  1.0 0.1206730137
H  H37  1  0.98250000  0.50040000  0.16580000  1.0 0.1282615051
H  H38  1  0.01750000  0.49960000  0.83420000  1.0 0.1282615051
H  H39  1  0.11260000  0.70590000  0.31820000  1.0 0.1282615051
H  H40  1  0.88740000  0.29410000  0.68180000  1.0 0.1282615051
H  H41  1  0.31090000  0.77840000  0.25220000  1.0 0.1206730137
H  H42  1  0.68910000  0.22160000  0.74780000  1.0 0.1206730137
H  H43  1  0.52950000  0.53400000  0.26580000  1.0 0.1023046771
H  H44  1  0.47050000  0.46600000  0.73420000  1.0 0.1023046771
H  H45  1  0.59010000  0.29310000  0.36680000  1.0 0.1282615051
H  H46  1  0.40990000  0.70690000  0.63320000  1.0 0.1282615051
H  H47  1  0.36370000  0.28480000  0.38890000  1.0 0.1366170934
H  H48  1  0.63630000  0.71520000  0.61110000  1.0 0.1366170934
H  H49  1  0.27170000  0.48790000  0.36090000  1.0 0.1105942939
H  H50  1  0.72830000  0.51210000  0.63910000  1.0 0.1105942939
H  H51  1  0.29670000  0.51190000  0.29340000  1.0 0.1023046771
H  H52  1  0.70330000  0.48810000  0.70660000  1.0 0.1023046771
H  H53  1  0.07500000  0.35090000  0.30470000  1.0 0.1105942939
H  H54  1  0.92500000  0.64910000  0.69530000  1.0 0.1105942939
H  H55  1  0.13280000  0.26560000  0.33780000  1.0 0.1105942939
H  H56  1  0.86720000  0.73440000  0.66220000  1.0 0.1105942939
H  H57  1  0.16550000  0.31230000  0.21690000  1.0 0.1105942939
H  H58  1  0.83450000  0.68770000  0.78310000  1.0 0.1105942939
H  H59  1  0.23530000  0.23560000  0.24930000  1.0 0.1023046771
H  H60  1  0.76470000  0.76440000  0.75070000  1.0 0.1023046771
H  H61  1  0.94310000  0.14350000  0.23380000  1.0 0.1282615051
H  H62  1  0.05690000  0.85650000  0.76620000  1.0 0.1282615051
H  H63  1  0.01000000  0.06820000  0.26920000  1.0 0.1105942939
H  H64  1  0.99000000  0.93180000  0.73080000  1.0 0.1105942939
H  H65  1  0.95170000  0.12370000  0.11960000  1.0 0.1282615051
H  H66  1  0.04830000  0.87630000  0.88040000  1.0 0.1282615051
H  H67  1  0.13500000  0.94160000  0.20430000  1.0 0.1206730137
H  H68  1  0.86500000  0.05840000  0.79570000  1.0 0.1206730137
H  H69  1  0.12430000  0.87950000  0.09840000  1.0 0.1282615051
H  H70  1  0.87570000  0.12050000  0.90160000  1.0 0.1282615051
H  H71  1  0.94990000  0.58200000  0.58850000  1.0 0.1105942939
H  H72  1  0.05010000  0.41800000  0.41150000  1.0 0.1105942939
H  H73  1  0.80880000  0.50350000  0.04500000  1.0 0.1023046771
H  H74  1  0.19120000  0.49650000  0.95500000  1.0 0.1023046771
C  C1  1  0.43480000  0.70630000  0.45590000  1.0 0.0816604796
C  C2  1  0.56520000  0.29370000  0.54410000  1.0 0.0816604796
C  C3  1  0.60910000  0.70360000  0.41020000  1.0 -0.0117458409
C  C4  1  0.39090000  0.29640000  0.58980000  1.0 -0.0117458409
C  C5  1  0.58830000  0.80510000  0.39040000  1.0 -0.1298400086
C  C6  1  0.41170000  0.19490000  0.60960000  1.0 -0.1298400086
C  C7  1  0.42980000  0.91050000  0.42100000  1.0 -0.1298400086
C  C8  1  0.57020000  0.08950000  0.57900000  1.0 -0.1298400086
C  C9  1  0.50940000  0.02280000  0.46760000  1.0 -0.1981095966
C  C10  1  0.49060000  0.97720000  0.53240000  1.0 -0.1981095966
C  C11  1  0.64480000  0.49660000  0.16497000  1.0 0.0816604796
C  C12  1  0.35520000  0.50340000  0.83503000  1.0 0.0816604796
C  C13  1  0.78480000  0.69220000  0.19680000  1.0 -0.0516655256
C  C14  1  0.21520000  0.30780000  0.80320000  1.0 -0.0516655256
C  C15  1  0.71490000  0.70460000  0.15030000  1.0 -0.0958017815
C  C16  1  0.28510000  0.29540000  0.84970000  1.0 -0.0958017815
C  C17  1  0.52540000  0.53900000  0.07937000  1.0 -0.1207599394
C  C18  1  0.47460000  0.46100000  0.92063000  1.0 -0.1207599394
C  C19  1  0.43190000  0.60780000  0.08302000  1.0 -0.1734119911
C  C20  1  0.56810000  0.39220000  0.91698000  1.0 -0.1734119911
C  C21  1  0.34350000  0.58140000  0.13749000  1.0 -0.1981095966
C  C22  1  0.65650000  0.41860000  0.86251000  1.0 -0.1981095966
C  C23  1  0.25180000  0.65220000  0.13687000  1.0 -0.1207599394
C  C24  1  0.74820000  0.34780000  0.86313000  1.0 -0.1207599394
C  C25  1  0.03880000  0.56050000  0.19593000  1.0 0.1023046771
C  C26  1  0.96120000  0.43950000  0.80407000  1.0 0.1105942939
C  C27  1  0.11050000  0.67300000  0.27909000  1.0 -0.0410713149
C  C28  1  0.88950000  0.32700000  0.72091000  1.0 -0.0410713149
C  C29  1  0.22130000  0.71410000  0.24290000  1.0 -0.1298400086
C  C30  1  0.77870000  0.28590000  0.75710000  1.0 -0.1298400086
C  C31  1  0.51760000  0.47340000  0.29404000  1.0 0.0816604796
C  C32  1  0.48240000  0.52660000  0.70596000  1.0 0.0816604796
C  C33  1  0.55000000  0.34160000  0.34937000  1.0 -0.0293974058
C  C34  1  0.45000000  0.65840000  0.65063000  1.0 -0.0293974058
C  C35  1  0.42460000  0.33630000  0.36149000  1.0 -0.0941927467
C  C36  1  0.57540000  0.66370000  0.63851000  1.0 -0.0941927467
C  C37  1  0.28190000  0.44800000  0.32280000  1.0 -0.1298400086
C  C38  1  0.71810000  0.55200000  0.67720000  1.0 -0.1298400086
C  C39  1  0.15120000  0.32610000  0.30660000  1.0 -0.1925118525
C  C40  1  0.84880000  0.67390000  0.69340000  1.0 -0.1925118525
C  C41  1  0.15530000  0.25500000  0.24878000  1.0 -0.1925118525
C  C42  1  0.84470000  0.74500000  0.75122000  1.0 -0.1925118525
C  C43  1  0.02290000  0.12430000  0.23663000  1.0 -0.1083445434
C  C44  1  0.97710000  0.87570000  0.76337000  1.0 -0.1083445434
C  C45  1  0.99520000  0.06990000  0.12731000  1.0 0.1206730137
C  C46  1  0.00480000  0.93010000  0.87269000  1.0 0.1206730137
C  C47  1  0.09640000  0.96990000  0.17440000  1.0 -0.1350016106
C  C48  1  0.90360000  0.03010000  0.82560000  1.0 -0.1350016106
C  C49  1  0.09040000  0.93650000  0.11610000  1.0 -0.0293974058
C  C50  1  0.90960000  0.06350000  0.88390000  1.0 -0.0293974058
C  C51  1  0.79450000  0.60410000  0.50498000  1.0 0.5571556728
C  C52  1  0.20550000  0.39590000  0.49502000  1.0 0.5571556728
C  C53  1  0.90840000  0.55780000  0.50057000  1.0 -0.0293974058
C  C54  1  0.09160000  0.44220000  0.49943000  1.0 -0.0293974058
C  C55  1  0.96920000  0.54780000  0.55289000  1.0 -0.1577774097
C  C56  1  0.03080000  0.45220000  0.44711000  1.0 -0.1577774097
C  C57  1  0.94100000  0.51260000  0.44689000  1.0 -0.0240172535
C  C58  1  0.05900000  0.48740000  0.55311000  1.0 -0.0240172535
C  C59  1  0.88910000  0.53320000  0.38826000  1.0 0.5509502928
C  C60  1  0.11090000  0.46680000  0.61174000  1.0 0.5509502928
C  C61  1  0.92810000  0.72110000  0.99171000  1.0 0.5509502928
C  C62  1  0.07190000  0.27890000  0.00829000  1.0 0.5509502928
C  C63  1  0.96890000  0.60770000  0.99340000  1.0 -0.0410713149
C  C64  1  0.03110000  0.39230000  0.00660000  1.0 -0.0410713149
C  C65  1  0.08280000  0.60520000  0.96636000  1.0 -0.0293974058
C  C66  1  0.91720000  0.39480000  0.03364000  1.0 -0.0293974058
C  C67  1  0.88610000  0.50190000  0.02692000  1.0 -0.1577774097
C  C68  1  0.11390000  0.49810000  0.97308000  1.0 -0.1577774097
C  C69  1  0.17650000  0.70870000  0.92610000  1.0 0.5509502928
C  C70  1  0.82350000  0.29130000  0.07390000  1.0 0.5509502928
N  N1  1  0.47730000  0.80620000  0.41952000  1.0 0.0409321016
N  N2  1  0.52270000  0.19380000  0.58048000  1.0 0.0409321016
N  N3  1  0.51200000  0.64130000  0.45093000  1.0 -0.2803434887
N  N4  1  0.48800000  0.35870000  0.54907000  1.0 -0.2803434887
N  N5  1  0.60920000  0.43090000  0.30681000  1.0 -0.2803434887
N  N6  1  0.39080000  0.56910000  0.69319000  1.0 -0.2803434887
N  N7  1  0.40380000  0.41970000  0.32631000  1.0 0.0479519781
N  N8  1  0.59620000  0.58030000  0.67369000  1.0 0.0479519781
N  N9  1  0.03380000  0.05450000  0.18131000  1.0 0.0333141818
N  N10  1  0.96620000  0.94550000  0.81869000  1.0 0.0333141818
N  N11  1  0.02660000  0.99930000  0.08653000  1.0 -0.2905675281
N  N12  1  0.97340000  0.00070000  0.91347000  1.0 -0.2905675281
N  N13  1  0.74230000  0.56210000  0.20617000  1.0 -0.2905675281
N  N14  1  0.25770000  0.43790000  0.79383000  1.0 -0.2905675281
N  N15  1  0.62510000  0.57880000  0.12999000  1.0 0.0569587279
N  N16  1  0.37490000  0.42120000  0.87001000  1.0 0.0569587279
N  N17  1  0.17220000  0.64070000  0.19035000  1.0 0.0409321016
N  N18  1  0.82780000  0.35930000  0.80965000  1.0 0.0409321016
N  N19  1  0.99590000  0.57640000  0.24943000  1.0 -0.2803434887
N  N20  1  0.00410000  0.42360000  0.75057000  1.0 -0.2803434887
O  O1  1  0.81330000  0.70470000  0.53623000  1.0 -0.5590760667
O  O2  1  0.18670000  0.29530000  0.46377000  1.0 -0.5590760667
O  O3  1  0.68270000  0.52250000  0.47862000  1.0 -0.5463310439
O  O4  1  0.31730000  0.47750000  0.52138000  1.0 -0.5463310439
O  O5  1  0.88270000  0.63850000  0.38191000  1.0 -0.5463310439
O  O6  1  0.11730000  0.36150000  0.61809000  1.0 -0.5463310439
O  O7  1  0.86070000  0.44020000  0.34745000  1.0 -0.535008486
O  O8  1  0.13930000  0.55980000  0.65255000  1.0 -0.5294064441
O  O9  1  0.02660000  0.83560000  0.98806000  1.0 -0.5294064441
O  O10  1  0.97340000  0.16440000  0.01194000  1.0 -0.5294064441
O  O11  1  0.80450000  0.69610000  0.99486000  1.0 -0.5660937388
O  O12  1  0.19550000  0.30390000  0.00514000  1.0 -0.5660937388
O  O13  1  0.12620000  0.71790000  0.87869000  1.0 -0.5944065411
O  O14  1  0.87380000  0.28210000  0.12131000  1.0 -0.5955391485
O  O15  1  0.30020000  0.77200000  0.94255000  1.0 -0.5816354115
O  O16  1  0.69980000  0.22800000  0.05745000  1.0 -0.5816354115
