# DDEC6 charges by PACMAN v1.1 (https://github.com/mtap-research/PACMAN-charge/)
data_WASTUG_ASR_pacman
_symmetry_space_group_name_H-M   'P 1'
_cell_length_a   12.16550000
_cell_length_b   20.51440000
_cell_length_c   21.70120000
_cell_angle_alpha   90.00000000
_cell_angle_beta   90.00000000
_cell_angle_gamma   90.00000000
_symmetry_Int_Tables_number   1
_chemical_formula_structural   La4Mo12PH6(C9O20)2
_chemical_formula_sum   'La8 Mo24 P2 H12 C36 O80'
_cell_volume   5415.92363196
_cell_formula_units_Z   2
loop_
 _symmetry_equiv_pos_site_id
 _symmetry_equiv_pos_as_xyz
  1  'x, y, z'
loop_
 _atom_site_type_symbol
 _atom_site_label
 _atom_site_symmetry_multiplicity
 _atom_site_fract_x
 _atom_site_fract_y
 _atom_site_fract_z
 _atom_site_occupancy
 _atom_site_charge
La  La1  1  0.57413000  0.19017000  0.53228000  1.0 1.9072430692
La  La2  1  0.57413000  0.80983000  0.46772000  1.0 1.9072430692
La  La3  1  0.42587000  0.30983000  0.03228000  1.0 1.9072430692
La  La4  1  0.42587000  0.69017000  0.96772000  1.0 1.9072430692
La  La5  1  0.00249000  0.99399000  0.67651000  1.0 1.894271966
La  La6  1  0.00249000  0.00601000  0.32349000  1.0 1.894271966
La  La7  1  0.99751000  0.50601000  0.17651000  1.0 1.896178063
La  La8  1  0.99751000  0.49399000  0.82349000  1.0 1.896178063
Mo  Mo1  1  0.50642000  0.99505000  0.55926000  1.0 1.6406382284
Mo  Mo2  1  0.50642000  0.00495000  0.44074000  1.0 1.6468192897
Mo  Mo3  1  0.49358000  0.50495000  0.05926000  1.0 1.6468192897
Mo  Mo4  1  0.49358000  0.49505000  0.94074000  1.0 1.6406382284
Mo  Mo5  1  0.71618000  0.89892000  0.63135000  1.0 1.6878464979
Mo  Mo6  1  0.71618000  0.10108000  0.36865000  1.0 1.6878464979
Mo  Mo7  1  0.28382000  0.60108000  0.13135000  1.0 1.6878464979
Mo  Mo8  1  0.28382000  0.39892000  0.86865000  1.0 1.6878464979
Mo  Mo9  1  0.69594000  0.06461000  0.65793000  1.0 2.0395824276
Mo  Mo10  1  0.69594000  0.93539000  0.34207000  1.0 2.0395824276
Mo  Mo11  1  0.30406000  0.43539000  0.15793000  1.0 2.0395824276
Mo  Mo12  1  0.30406000  0.56461000  0.84207000  1.0 2.0395824276
Mo  Mo13  1  0.87806000  0.14915000  0.59446000  1.0 2.0329046212
Mo  Mo14  1  0.87806000  0.85085000  0.40554000  1.0 2.0329046212
Mo  Mo15  1  0.12194000  0.35085000  0.09446000  1.0 2.0329046212
Mo  Mo16  1  0.12194000  0.64915000  0.90554000  1.0 2.0329046212
Mo  Mo17  1  0.06777000  0.93739000  0.49098000  1.0 1.7001984678
Mo  Mo18  1  0.06777000  0.06261000  0.50902000  1.0 1.7057431303
Mo  Mo19  1  0.93223000  0.56261000  0.99098000  1.0 1.6878464979
Mo  Mo20  1  0.93223000  0.43739000  0.00902000  1.0 1.6878464979
Mo  Mo21  1  0.86157000  0.84121000  0.56437000  1.0 1.7417950592
Mo  Mo22  1  0.86157000  0.15879000  0.43563000  1.0 1.7417950592
Mo  Mo23  1  0.13843000  0.65879000  0.06437000  1.0 1.7417950592
Mo  Mo24  1  0.13843000  0.34121000  0.93563000  1.0 1.7417950592
P  P1  1  0.78950000  0.00000000  0.50000000  1.0 1.4669128023
P  P2  1  0.21050000  0.50000000  0.00000000  1.0 1.4594041667
H  H1  1  0.23930000  0.83310000  0.80690000  1.0 0.1031579486
H  H2  1  0.23930000  0.16690000  0.19310000  1.0 0.1031579486
H  H3  1  0.76070000  0.66690000  0.30690000  1.0 0.1031579486
H  H4  1  0.76070000  0.33310000  0.69310000  1.0 0.1031579486
H  H5  1  0.49250000  0.73030000  0.73650000  1.0 0.1095716505
H  H6  1  0.49250000  0.26970000  0.26350000  1.0 0.1095716505
H  H7  1  0.50750000  0.76970000  0.23650000  1.0 0.1095716505
H  H8  1  0.50750000  0.23030000  0.76350000  1.0 0.1095716505
H  H9  1  0.30670000  0.84110000  0.62560000  1.0 0.1031579486
H  H10  1  0.30670000  0.15890000  0.37440000  1.0 0.1031579486
H  H11  1  0.69330000  0.65890000  0.12560000  1.0 0.1031579486
H  H12  1  0.69330000  0.34110000  0.87440000  1.0 0.1031579486
C  C1  1  0.25690000  0.84390000  0.71470000  1.0 -0.0782168275
C  C2  1  0.25690000  0.15610000  0.28530000  1.0 -0.0782168275
C  C3  1  0.74310000  0.65610000  0.21470000  1.0 -0.0782168275
C  C4  1  0.74310000  0.34390000  0.78530000  1.0 -0.0782168275
C  C5  1  0.28120000  0.81980000  0.77330000  1.0 -0.0899213419
C  C6  1  0.28120000  0.18020000  0.22670000  1.0 -0.0899213419
C  C7  1  0.71880000  0.68020000  0.27330000  1.0 -0.0899213419
C  C8  1  0.71880000  0.31980000  0.72670000  1.0 -0.0899213419
C  C9  1  0.36720000  0.77600000  0.78210000  1.0 -0.0686567631
C  C10  1  0.36720000  0.22400000  0.21790000  1.0 -0.0686567631
C  C11  1  0.63280000  0.72400000  0.28210000  1.0 -0.0686567631
C  C12  1  0.63280000  0.27600000  0.71790000  1.0 -0.0686567631
C  C13  1  0.43290000  0.75810000  0.73120000  1.0 -0.0984840697
C  C14  1  0.43290000  0.24190000  0.26880000  1.0 -0.0984840697
C  C15  1  0.56710000  0.74190000  0.23120000  1.0 -0.0984840697
C  C16  1  0.56710000  0.25810000  0.76880000  1.0 -0.0984840697
C  C17  1  0.40770000  0.78230000  0.67350000  1.0 -0.0455225148
C  C18  1  0.40770000  0.21770000  0.32650000  1.0 -0.0444181599
C  C19  1  0.59230000  0.71770000  0.17350000  1.0 -0.0455225148
C  C20  1  0.59230000  0.28230000  0.82650000  1.0 -0.0444181599
C  C21  1  0.32170000  0.82500000  0.66480000  1.0 -0.0984840697
C  C22  1  0.32170000  0.17500000  0.33520000  1.0 -0.0899213419
C  C23  1  0.67830000  0.67500000  0.16480000  1.0 -0.0984840697
C  C24  1  0.67830000  0.32500000  0.83520000  1.0 -0.0984840697
C  C25  1  0.16210000  0.88820000  0.70510000  1.0 0.5269686393
C  C26  1  0.16210000  0.11180000  0.29490000  1.0 0.5269686393
C  C27  1  0.83790000  0.61180000  0.20510000  1.0 0.5269686393
C  C28  1  0.83790000  0.38820000  0.79490000  1.0 0.5269686393
C  C29  1  0.39500000  0.75070000  0.84490000  1.0 0.542311754
C  C30  1  0.39500000  0.24930000  0.15510000  1.0 0.542311754
C  C31  1  0.60500000  0.74930000  0.34490000  1.0 0.542311754
C  C32  1  0.60500000  0.25070000  0.65510000  1.0 0.542311754
C  C33  1  0.48190000  0.76470000  0.61810000  1.0 0.5654113255
C  C34  1  0.48190000  0.23530000  0.38190000  1.0 0.5646825991
C  C35  1  0.51810000  0.73530000  0.11810000  1.0 0.5646825991
C  C36  1  0.51810000  0.26470000  0.88190000  1.0 0.5646825991
O  O1  1  0.53120000  0.07070000  0.50530000  1.0 -0.9731125784
O  O2  1  0.53120000  0.92930000  0.49470000  1.0 -0.9731125784
O  O3  1  0.46880000  0.42930000  0.00530000  1.0 -0.9731125784
O  O4  1  0.46880000  0.57070000  0.99470000  1.0 -0.9731125784
O  O5  1  0.55690000  0.05510000  0.62780000  1.0 -0.8784817921
O  O6  1  0.55690000  0.94490000  0.37220000  1.0 -0.8784817921
O  O7  1  0.44310000  0.44490000  0.12780000  1.0 -0.8784817921
O  O8  1  0.44310000  0.55510000  0.87220000  1.0 -0.8784817921
O  O9  1  0.55030000  0.92070000  0.61960000  1.0 -0.9476551004
O  O10  1  0.55030000  0.07930000  0.38040000  1.0 -0.9476551004
O  O11  1  0.44970000  0.57930000  0.11960000  1.0 -0.9476551004
O  O12  1  0.44970000  0.42070000  0.88040000  1.0 -0.9476551004
O  O13  1  0.71580000  0.99210000  0.55810000  1.0 -0.8784817921
O  O14  1  0.71580000  0.00790000  0.44190000  1.0 -0.8784817921
O  O15  1  0.28420000  0.50790000  0.05810000  1.0 -0.8784817921
O  O16  1  0.28420000  0.49210000  0.94190000  1.0 -0.8784817921
O  O17  1  0.70390000  0.14720000  0.44690000  1.0 -0.9408116975
O  O18  1  0.70390000  0.85280000  0.55310000  1.0 -0.9408116975
O  O19  1  0.29610000  0.35280000  0.94690000  1.0 -0.9408116975
O  O20  1  0.29610000  0.64720000  0.05310000  1.0 -0.9408116975
O  O21  1  0.87530000  0.91160000  0.62590000  1.0 -0.9823199995
O  O22  1  0.87530000  0.08840000  0.37410000  1.0 -0.9855630436
O  O23  1  0.12470000  0.58840000  0.12590000  1.0 -0.9823199995
O  O24  1  0.12470000  0.41160000  0.87410000  1.0 -0.9823199995
O  O25  1  0.71780000  0.98070000  0.68370000  1.0 -0.8734809992
O  O26  1  0.71780000  0.01930000  0.31630000  1.0 -0.8734809992
O  O27  1  0.28220000  0.51930000  0.18370000  1.0 -0.8734809992
O  O28  1  0.28220000  0.48070000  0.81630000  1.0 -0.8734809992
O  O29  1  0.85740000  0.07010000  0.64700000  1.0 -1.0943892636
O  O30  1  0.85740000  0.92990000  0.35300000  1.0 -1.0943892636
O  O31  1  0.14260000  0.42990000  0.14700000  1.0 -1.0957703032
O  O32  1  0.14260000  0.57010000  0.85300000  1.0 -1.0957703032
O  O33  1  0.71820000  0.13340000  0.59480000  1.0 -1.051926557
O  O34  1  0.71820000  0.86660000  0.40520000  1.0 -1.051926557
O  O35  1  0.28180000  0.36660000  0.09480000  1.0 -1.051926557
O  O36  1  0.28180000  0.63340000  0.90520000  1.0 -1.051926557
O  O37  1  0.86190000  0.19420000  0.52240000  1.0 -0.8734809992
O  O38  1  0.86190000  0.80580000  0.47760000  1.0 -0.8734809992
O  O39  1  0.13810000  0.30580000  0.02240000  1.0 -0.8784817921
O  O40  1  0.13810000  0.69420000  0.97760000  1.0 -0.8784817921
O  O41  1  0.01930000  0.11930000  0.58040000  1.0 -0.9301973364
O  O42  1  0.01930000  0.88070000  0.41960000  1.0 -0.9301973364
O  O43  1  0.98070000  0.38070000  0.08040000  1.0 -0.9301973364
O  O44  1  0.98070000  0.61930000  0.91960000  1.0 -0.9301973364
O  O45  1  0.86460000  0.93920000  0.49410000  1.0 -0.8784817921
O  O46  1  0.86460000  0.06080000  0.50590000  1.0 -0.8784817921
O  O47  1  0.13540000  0.56080000  0.99410000  1.0 -0.8784817921
O  O48  1  0.13540000  0.43920000  0.00590000  1.0 -0.8784817921
O  O49  1  0.04320000  0.98940000  0.56490000  1.0 -0.9731125784
O  O50  1  0.04320000  0.01060000  0.43510000  1.0 -0.9823199995
O  O51  1  0.95680000  0.51060000  0.06490000  1.0 -0.9731125784
O  O52  1  0.95680000  0.48940000  0.93510000  1.0 -0.9731125784
O  O53  1  0.02590000  0.85900000  0.54560000  1.0 -0.9408116975
O  O54  1  0.02590000  0.14100000  0.45440000  1.0 -0.9301973364
O  O55  1  0.97410000  0.64100000  0.04560000  1.0 -0.9301973364
O  O56  1  0.97410000  0.35900000  0.95440000  1.0 -0.9301973364
O  O57  1  0.12170000  0.89450000  0.65250000  1.0 -0.5534936228
O  O58  1  0.12170000  0.10550000  0.34750000  1.0 -0.5550301113
O  O59  1  0.87830000  0.60550000  0.15250000  1.0 -0.5534936228
O  O60  1  0.87830000  0.39450000  0.84750000  1.0 -0.5534936228
O  O61  1  0.13020000  0.92620000  0.75000000  1.0 -0.6741111316
O  O62  1  0.13020000  0.07380000  0.25000000  1.0 -0.6741111316
O  O63  1  0.86980000  0.57380000  0.25000000  1.0 -0.6741111316
O  O64  1  0.86980000  0.42620000  0.75000000  1.0 -0.6741111316
O  O65  1  0.33830000  0.77130000  0.89050000  1.0 -0.6338455119
O  O66  1  0.33830000  0.22870000  0.10950000  1.0 -0.6338455119
O  O67  1  0.66170000  0.72870000  0.39050000  1.0 -0.6338455119
O  O68  1  0.66170000  0.27130000  0.60950000  1.0 -0.6338455119
O  O69  1  0.47200000  0.71030000  0.85190000  1.0 -0.6139590778
O  O70  1  0.47200000  0.28970000  0.14810000  1.0 -0.6139590778
O  O71  1  0.52800000  0.78970000  0.35190000  1.0 -0.6139590778
O  O72  1  0.52800000  0.21030000  0.64810000  1.0 -0.6139590778
O  O73  1  0.48240000  0.80490000  0.57360000  1.0 -0.6371303686
O  O74  1  0.48240000  0.19510000  0.42640000  1.0 -0.6371303686
O  O75  1  0.51760000  0.69510000  0.07360000  1.0 -0.6371303686
O  O76  1  0.51760000  0.30490000  0.92640000  1.0 -0.6371303686
O  O77  1  0.53570000  0.71260000  0.62350000  1.0 -0.5207425542
O  O78  1  0.53570000  0.28740000  0.37650000  1.0 -0.5207425542
O  O79  1  0.46430000  0.78740000  0.12350000  1.0 -0.5207425542
O  O80  1  0.46430000  0.21260000  0.87650000  1.0 -0.5207425542
