# DDEC6 charges by PACMAN v1.1 (https://github.com/mtap-research/PACMAN-charge/)
data_WAVQIV_ASR_pacman
_symmetry_space_group_name_H-M   'P 1'
_cell_length_a   27.13190000
_cell_length_b   27.13190000
_cell_length_c   27.13190000
_cell_angle_alpha   90.00000000
_cell_angle_beta   90.00000000
_cell_angle_gamma   90.00000000
_symmetry_Int_Tables_number   1
_chemical_formula_structural   Nd2In3H45C81O22
_chemical_formula_sum   'Nd8 In12 H180 C324 O88'
_cell_volume   19972.87680115
_cell_formula_units_Z   4
loop_
 _symmetry_equiv_pos_site_id
 _symmetry_equiv_pos_as_xyz
  1  'x, y, z'
loop_
 _atom_site_type_symbol
 _atom_site_label
 _atom_site_symmetry_multiplicity
 _atom_site_fract_x
 _atom_site_fract_y
 _atom_site_fract_z
 _atom_site_occupancy
 _atom_site_charge
Nd  Nd1  1  0.19779000  0.19779000  0.19779000  1.0 2.1317069848
Nd  Nd2  1  0.30221000  0.80221000  0.69779000  1.0 2.1317069848
Nd  Nd3  1  0.80221000  0.69779000  0.30221000  1.0 2.1317069848
Nd  Nd4  1  0.69779000  0.30221000  0.80221000  1.0 2.1317069848
Nd  Nd5  1  0.33992000  0.33992000  0.33992000  1.0 2.1938881595
Nd  Nd6  1  0.16008000  0.66008000  0.83992000  1.0 2.1938881595
Nd  Nd7  1  0.66008000  0.83992000  0.16008000  1.0 2.1953515728
Nd  Nd8  1  0.83992000  0.16008000  0.66008000  1.0 2.1953515728
In  In1  1  0.22321000  0.32037000  0.25583000  1.0 1.5022458155
In  In2  1  0.27679000  0.67963000  0.75583000  1.0 1.5022458155
In  In3  1  0.77679000  0.82037000  0.24417000  1.0 1.5022458155
In  In4  1  0.72321000  0.17963000  0.74417000  1.0 1.5022458155
In  In5  1  0.25583000  0.22321000  0.32037000  1.0 1.5022458155
In  In6  1  0.75583000  0.27679000  0.67963000  1.0 1.5022458155
In  In7  1  0.24417000  0.77679000  0.82037000  1.0 1.5022458155
In  In8  1  0.74417000  0.72321000  0.17963000  1.0 1.5022458155
In  In9  1  0.32037000  0.25583000  0.22321000  1.0 1.5022458155
In  In10  1  0.67963000  0.75583000  0.27679000  1.0 1.5022458155
In  In11  1  0.82037000  0.24417000  0.77679000  1.0 1.5022458155
In  In12  1  0.17963000  0.74417000  0.72321000  1.0 1.5022458155
H  H1  1  0.05990000  0.27020000  0.14070000  1.0 0.1191591544
H  H2  1  0.44010000  0.72980000  0.64070000  1.0 0.1191591544
H  H3  1  0.94010000  0.77020000  0.35930000  1.0 0.1191591544
H  H4  1  0.55990000  0.22980000  0.85930000  1.0 0.1191591544
H  H5  1  0.14070000  0.05990000  0.27020000  1.0 0.1191591544
H  H6  1  0.64070000  0.44010000  0.72980000  1.0 0.1191591544
H  H7  1  0.35930000  0.94010000  0.77020000  1.0 0.1191591544
H  H8  1  0.85930000  0.55990000  0.22980000  1.0 0.1191591544
H  H9  1  0.27020000  0.14070000  0.05990000  1.0 0.1191591544
H  H10  1  0.72980000  0.64070000  0.44010000  1.0 0.1191591544
H  H11  1  0.77020000  0.35930000  0.94010000  1.0 0.1191591544
H  H12  1  0.22980000  0.85930000  0.55990000  1.0 0.1191591544
H  H13  1  0.98850000  0.29970000  0.11120000  1.0 0.1291006144
H  H14  1  0.51150000  0.70030000  0.61120000  1.0 0.1291006144
H  H15  1  0.01150000  0.79970000  0.38880000  1.0 0.1291006144
H  H16  1  0.48850000  0.20030000  0.88880000  1.0 0.1291006144
H  H17  1  0.11120000  0.98850000  0.29970000  1.0 0.1291006144
H  H18  1  0.61120000  0.51150000  0.70030000  1.0 0.1291006144
H  H19  1  0.38880000  0.01150000  0.79970000  1.0 0.1291006144
H  H20  1  0.88880000  0.48850000  0.20030000  1.0 0.1291006144
H  H21  1  0.29970000  0.11120000  0.98850000  1.0 0.1291006144
H  H22  1  0.70030000  0.61120000  0.51150000  1.0 0.1291006144
H  H23  1  0.79970000  0.38880000  0.01150000  1.0 0.1291006144
H  H24  1  0.20030000  0.88880000  0.48850000  1.0 0.1291006144
H  H25  1  0.02280000  0.42960000  0.16680000  1.0 0.1191591544
H  H26  1  0.47720000  0.57040000  0.66680000  1.0 0.1191591544
H  H27  1  0.97720000  0.92960000  0.33320000  1.0 0.1191591544
H  H28  1  0.52280000  0.07040000  0.83320000  1.0 0.1191591544
H  H29  1  0.16680000  0.02280000  0.42960000  1.0 0.1191591544
H  H30  1  0.66680000  0.47720000  0.57040000  1.0 0.1191591544
H  H31  1  0.33320000  0.97720000  0.92960000  1.0 0.1191591544
H  H32  1  0.83320000  0.52280000  0.07040000  1.0 0.1191591544
H  H33  1  0.42960000  0.16680000  0.02280000  1.0 0.1191591544
H  H34  1  0.57040000  0.66680000  0.47720000  1.0 0.1191591544
H  H35  1  0.92960000  0.33320000  0.97720000  1.0 0.1191591544
H  H36  1  0.07040000  0.83320000  0.52280000  1.0 0.1191591544
H  H37  1  0.09870000  0.40110000  0.18820000  1.0 0.1291006144
H  H38  1  0.40130000  0.59890000  0.68820000  1.0 0.1291006144
H  H39  1  0.90130000  0.90110000  0.31180000  1.0 0.1291006144
H  H40  1  0.59870000  0.09890000  0.81180000  1.0 0.1291006144
H  H41  1  0.18820000  0.09870000  0.40110000  1.0 0.1291006144
H  H42  1  0.68820000  0.40130000  0.59890000  1.0 0.1291006144
H  H43  1  0.31180000  0.90130000  0.90110000  1.0 0.1291006144
H  H44  1  0.81180000  0.59870000  0.09890000  1.0 0.1291006144
H  H45  1  0.40110000  0.18820000  0.09870000  1.0 0.1291006144
H  H46  1  0.59890000  0.68820000  0.40130000  1.0 0.1291006144
H  H47  1  0.90110000  0.31180000  0.90130000  1.0 0.1291006144
H  H48  1  0.09890000  0.81180000  0.59870000  1.0 0.1291006144
H  H49  1  0.28930000  0.52140000  0.12820000  1.0 0.1291006144
H  H50  1  0.21070000  0.47860000  0.62820000  1.0 0.1291006144
H  H51  1  0.71070000  0.02140000  0.37180000  1.0 0.1291006144
H  H52  1  0.78930000  0.97860000  0.87180000  1.0 0.1291006144
H  H53  1  0.12820000  0.28930000  0.52140000  1.0 0.1291006144
H  H54  1  0.62820000  0.21070000  0.47860000  1.0 0.1291006144
H  H55  1  0.37180000  0.71070000  0.02140000  1.0 0.1291006144
H  H56  1  0.87180000  0.78930000  0.97860000  1.0 0.1291006144
H  H57  1  0.52140000  0.12820000  0.28930000  1.0 0.1291006144
H  H58  1  0.47860000  0.62820000  0.21070000  1.0 0.1291006144
H  H59  1  0.02140000  0.37180000  0.71070000  1.0 0.1291006144
H  H60  1  0.97860000  0.87180000  0.78930000  1.0 0.1291006144
H  H61  1  0.26040000  0.45410000  0.16740000  1.0 0.1291006144
H  H62  1  0.23960000  0.54590000  0.66740000  1.0 0.1291006144
H  H63  1  0.73960000  0.95410000  0.33260000  1.0 0.1291006144
H  H64  1  0.76040000  0.04590000  0.83260000  1.0 0.1291006144
H  H65  1  0.16740000  0.26040000  0.45410000  1.0 0.1291006144
H  H66  1  0.66740000  0.23960000  0.54590000  1.0 0.1291006144
H  H67  1  0.33260000  0.73960000  0.95410000  1.0 0.1291006144
H  H68  1  0.83260000  0.76040000  0.04590000  1.0 0.1291006144
H  H69  1  0.45410000  0.16740000  0.26040000  1.0 0.1291006144
H  H70  1  0.54590000  0.66740000  0.23960000  1.0 0.1291006144
H  H71  1  0.95410000  0.33260000  0.73960000  1.0 0.1291006144
H  H72  1  0.04590000  0.83260000  0.76040000  1.0 0.1291006144
H  H73  1  0.94240000  0.44500000  0.15850000  1.0 0.1137895053
H  H74  1  0.55760000  0.55500000  0.65850000  1.0 0.1137895053
H  H75  1  0.05760000  0.94500000  0.34150000  1.0 0.1137895053
H  H76  1  0.44240000  0.05500000  0.84150000  1.0 0.1137895053
H  H77  1  0.15850000  0.94240000  0.44500000  1.0 0.1137895053
H  H78  1  0.65850000  0.55760000  0.55500000  1.0 0.1137895053
H  H79  1  0.34150000  0.05760000  0.94500000  1.0 0.1137895053
H  H80  1  0.84150000  0.44240000  0.05500000  1.0 0.1137895053
H  H81  1  0.44500000  0.15850000  0.94240000  1.0 0.1137895053
H  H82  1  0.55500000  0.65850000  0.55760000  1.0 0.1137895053
H  H83  1  0.94500000  0.34150000  0.05760000  1.0 0.1137895053
H  H84  1  0.05500000  0.84150000  0.44240000  1.0 0.1137895053
H  H85  1  0.28680000  0.60690000  0.11640000  1.0 0.1137895053
H  H86  1  0.21320000  0.39310000  0.61640000  1.0 0.1137895053
H  H87  1  0.71320000  0.10690000  0.38360000  1.0 0.1137895053
H  H88  1  0.78680000  0.89310000  0.88360000  1.0 0.1191591544
H  H89  1  0.11640000  0.28680000  0.60690000  1.0 0.1137895053
H  H90  1  0.61640000  0.21320000  0.39310000  1.0 0.1137895053
H  H91  1  0.38360000  0.71320000  0.10690000  1.0 0.1137895053
H  H92  1  0.88360000  0.78680000  0.89310000  1.0 0.1191591544
H  H93  1  0.60690000  0.11640000  0.28680000  1.0 0.1137895053
H  H94  1  0.39310000  0.61640000  0.21320000  1.0 0.1137895053
H  H95  1  0.10690000  0.38360000  0.71320000  1.0 0.1137895053
H  H96  1  0.89310000  0.88360000  0.78680000  1.0 0.1191591544
H  H97  1  0.33220000  0.48790000  0.28750000  1.0 0.1291006144
H  H98  1  0.16780000  0.51210000  0.78750000  1.0 0.1291006144
H  H99  1  0.66780000  0.98790000  0.21250000  1.0 0.1291006144
H  H100  1  0.83220000  0.01210000  0.71250000  1.0 0.1291006144
H  H101  1  0.28750000  0.33220000  0.48790000  1.0 0.1291006144
H  H102  1  0.78750000  0.16780000  0.51210000  1.0 0.1291006144
H  H103  1  0.21250000  0.66780000  0.98790000  1.0 0.1291006144
H  H104  1  0.71250000  0.83220000  0.01210000  1.0 0.1291006144
H  H105  1  0.48790000  0.28750000  0.33220000  1.0 0.1291006144
H  H106  1  0.51210000  0.78750000  0.16780000  1.0 0.1291006144
H  H107  1  0.98790000  0.21250000  0.66780000  1.0 0.1291006144
H  H108  1  0.01210000  0.71250000  0.83220000  1.0 0.1291006144
H  H109  1  0.34680000  0.56210000  0.25280000  1.0 0.1191591544
H  H110  1  0.15320000  0.43790000  0.75280000  1.0 0.1191591544
H  H111  1  0.65320000  0.06210000  0.24720000  1.0 0.1191591544
H  H112  1  0.84680000  0.93790000  0.74720000  1.0 0.1191591544
H  H113  1  0.25280000  0.34680000  0.56210000  1.0 0.1191591544
H  H114  1  0.75280000  0.15320000  0.43790000  1.0 0.1191591544
H  H115  1  0.24720000  0.65320000  0.06210000  1.0 0.1191591544
H  H116  1  0.74720000  0.84680000  0.93790000  1.0 0.1191591544
H  H117  1  0.56210000  0.25280000  0.34680000  1.0 0.1191591544
H  H118  1  0.43790000  0.75280000  0.15320000  1.0 0.1191591544
H  H119  1  0.06210000  0.24720000  0.65320000  1.0 0.1191591544
H  H120  1  0.93790000  0.74720000  0.84680000  1.0 0.1191591544
H  H121  1  0.11570000  0.36620000  0.37010000  1.0 0.1291006144
H  H122  1  0.38430000  0.63380000  0.87010000  1.0 0.1291006144
H  H123  1  0.88430000  0.86620000  0.12990000  1.0 0.1291006144
H  H124  1  0.61570000  0.13380000  0.62990000  1.0 0.1291006144
H  H125  1  0.37010000  0.11570000  0.36620000  1.0 0.1291006144
H  H126  1  0.87010000  0.38430000  0.63380000  1.0 0.1291006144
H  H127  1  0.12990000  0.88430000  0.86620000  1.0 0.1291006144
H  H128  1  0.62990000  0.61570000  0.13380000  1.0 0.1291006144
H  H129  1  0.36620000  0.37010000  0.11570000  1.0 0.1291006144
H  H130  1  0.63380000  0.87010000  0.38430000  1.0 0.1291006144
H  H131  1  0.86620000  0.12990000  0.88430000  1.0 0.1291006144
H  H132  1  0.13380000  0.62990000  0.61570000  1.0 0.1291006144
H  H133  1  0.02310000  0.37830000  0.51530000  1.0 0.1191591544
H  H134  1  0.47690000  0.62170000  0.01530000  1.0 0.1191591544
H  H135  1  0.97690000  0.87830000  0.98470000  1.0 0.1191591544
H  H136  1  0.52310000  0.12170000  0.48470000  1.0 0.1191591544
H  H137  1  0.51530000  0.02310000  0.37830000  1.0 0.1191591544
H  H138  1  0.01530000  0.47690000  0.62170000  1.0 0.1191591544
H  H139  1  0.98470000  0.97690000  0.87830000  1.0 0.1191591544
H  H140  1  0.48470000  0.52310000  0.12170000  1.0 0.1191591544
H  H141  1  0.37830000  0.51530000  0.02310000  1.0 0.1191591544
H  H142  1  0.62170000  0.01530000  0.47690000  1.0 0.1191591544
H  H143  1  0.87830000  0.98470000  0.97690000  1.0 0.1191591544
H  H144  1  0.12170000  0.48470000  0.52310000  1.0 0.1191591544
H  H145  1  0.23690000  0.41590000  0.43950000  1.0 0.1291006144
H  H146  1  0.26310000  0.58410000  0.93950000  1.0 0.1291006144
H  H147  1  0.76310000  0.91590000  0.06050000  1.0 0.1291006144
H  H148  1  0.73690000  0.08410000  0.56050000  1.0 0.1291006144
H  H149  1  0.43950000  0.23690000  0.41590000  1.0 0.1291006144
H  H150  1  0.93950000  0.26310000  0.58410000  1.0 0.1291006144
H  H151  1  0.06050000  0.76310000  0.91590000  1.0 0.1291006144
H  H152  1  0.56050000  0.73690000  0.08410000  1.0 0.1291006144
H  H153  1  0.41590000  0.43950000  0.23690000  1.0 0.1291006144
H  H154  1  0.58410000  0.93950000  0.26310000  1.0 0.1291006144
H  H155  1  0.91590000  0.06050000  0.76310000  1.0 0.1291006144
H  H156  1  0.08410000  0.56050000  0.73690000  1.0 0.1291006144
H  H157  1  0.06230000  0.38760000  0.43330000  1.0 0.1191591544
H  H158  1  0.43770000  0.61240000  0.93330000  1.0 0.1191591544
H  H159  1  0.93770000  0.88760000  0.06670000  1.0 0.1191591544
H  H160  1  0.56230000  0.11240000  0.56670000  1.0 0.1191591544
H  H161  1  0.43330000  0.06230000  0.38760000  1.0 0.1191591544
H  H162  1  0.93330000  0.43770000  0.61240000  1.0 0.1191591544
H  H163  1  0.06670000  0.93770000  0.88760000  1.0 0.1191591544
H  H164  1  0.56670000  0.56230000  0.11240000  1.0 0.1191591544
H  H165  1  0.38760000  0.43330000  0.06230000  1.0 0.1191591544
H  H166  1  0.61240000  0.93330000  0.43770000  1.0 0.1191591544
H  H167  1  0.88760000  0.06670000  0.93770000  1.0 0.1191591544
H  H168  1  0.11240000  0.56670000  0.56230000  1.0 0.1191591544
H  H169  1  0.18120000  0.43810000  0.50010000  1.0 0.1191591544
H  H170  1  0.31880000  0.56190000  0.00010000  1.0 0.1191591544
H  H171  1  0.81880000  0.93810000  0.99990000  1.0 0.1191591544
H  H172  1  0.68120000  0.06190000  0.49990000  1.0 0.1191591544
H  H173  1  0.50010000  0.18120000  0.43810000  1.0 0.1191591544
H  H174  1  0.00010000  0.31880000  0.56190000  1.0 0.1191591544
H  H175  1  0.99990000  0.81880000  0.93810000  1.0 0.1191591544
H  H176  1  0.49990000  0.68120000  0.06190000  1.0 0.1191591544
H  H177  1  0.43810000  0.50010000  0.18120000  1.0 0.1191591544
H  H178  1  0.56190000  0.00010000  0.31880000  1.0 0.1191591544
H  H179  1  0.93810000  0.99990000  0.81880000  1.0 0.1191591544
H  H180  1  0.06190000  0.49990000  0.68120000  1.0 0.1191591544
C  C1  1  0.05270000  0.30340000  0.14550000  1.0 -0.0904447449
C  C2  1  0.44730000  0.69660000  0.64550000  1.0 -0.0904447449
C  C3  1  0.94730000  0.80340000  0.35450000  1.0 -0.0904447449
C  C4  1  0.55270000  0.19660000  0.85450000  1.0 -0.0904447449
C  C5  1  0.14550000  0.05270000  0.30340000  1.0 -0.0904447449
C  C6  1  0.64550000  0.44730000  0.69660000  1.0 -0.0904447449
C  C7  1  0.35450000  0.94730000  0.80340000  1.0 -0.0904447449
C  C8  1  0.85450000  0.55270000  0.19660000  1.0 -0.0904447449
C  C9  1  0.30340000  0.14550000  0.05270000  1.0 -0.0904447449
C  C10  1  0.69660000  0.64550000  0.44730000  1.0 -0.0904447449
C  C11  1  0.80340000  0.35450000  0.94730000  1.0 -0.0904447449
C  C12  1  0.19660000  0.85450000  0.55270000  1.0 -0.0904447449
C  C13  1  0.13180000  0.30910000  0.19030000  1.0 0.6075496196
C  C14  1  0.36820000  0.69090000  0.69030000  1.0 0.6075496196
C  C15  1  0.86820000  0.80910000  0.30970000  1.0 0.6075496196
C  C16  1  0.63180000  0.19090000  0.80970000  1.0 0.6075496196
C  C17  1  0.19030000  0.13180000  0.30910000  1.0 0.6075496196
C  C18  1  0.69030000  0.36820000  0.69090000  1.0 0.6075496196
C  C19  1  0.30970000  0.86820000  0.80910000  1.0 0.6075496196
C  C20  1  0.80970000  0.63180000  0.19090000  1.0 0.6075496196
C  C21  1  0.30910000  0.19030000  0.13180000  1.0 0.6075496196
C  C22  1  0.69090000  0.69030000  0.36820000  1.0 0.6075496196
C  C23  1  0.80910000  0.30970000  0.86820000  1.0 0.6075496196
C  C24  1  0.19090000  0.80970000  0.63180000  1.0 0.6075496196
C  C25  1  0.08560000  0.33110000  0.17110000  1.0 -0.0516956916
C  C26  1  0.41440000  0.66890000  0.67110000  1.0 -0.0516956916
C  C27  1  0.91440000  0.83110000  0.32890000  1.0 -0.0516956916
C  C28  1  0.58560000  0.16890000  0.82890000  1.0 -0.0516956916
C  C29  1  0.17110000  0.08560000  0.33110000  1.0 -0.0516956916
C  C30  1  0.67110000  0.41440000  0.66890000  1.0 -0.0516956916
C  C31  1  0.32890000  0.91440000  0.83110000  1.0 -0.0516956916
C  C32  1  0.82890000  0.58560000  0.16890000  1.0 -0.0516956916
C  C33  1  0.33110000  0.17110000  0.08560000  1.0 -0.0516956916
C  C34  1  0.66890000  0.67110000  0.41440000  1.0 -0.0516956916
C  C35  1  0.83110000  0.32890000  0.91440000  1.0 -0.0516956916
C  C36  1  0.16890000  0.82890000  0.58560000  1.0 -0.0516956916
C  C37  1  0.01060000  0.32060000  0.12690000  1.0 -0.1518907677
C  C38  1  0.48940000  0.67940000  0.62690000  1.0 -0.1518907677
C  C39  1  0.98940000  0.82060000  0.37310000  1.0 -0.1518907677
C  C40  1  0.51060000  0.17940000  0.87310000  1.0 -0.1518907677
C  C41  1  0.12690000  0.01060000  0.32060000  1.0 -0.1518907677
C  C42  1  0.62690000  0.48940000  0.67940000  1.0 -0.1518907677
C  C43  1  0.37310000  0.98940000  0.82060000  1.0 -0.1518907677
C  C44  1  0.87310000  0.51060000  0.17940000  1.0 -0.1518907677
C  C45  1  0.32060000  0.12690000  0.01060000  1.0 -0.1518907677
C  C46  1  0.67940000  0.62690000  0.48940000  1.0 -0.1518907677
C  C47  1  0.82060000  0.37310000  0.98940000  1.0 -0.1518907677
C  C48  1  0.17940000  0.87310000  0.51060000  1.0 -0.1518907677
C  C49  1  0.00090000  0.36940000  0.13160000  1.0 0.0643645809
C  C50  1  0.49910000  0.63060000  0.63160000  1.0 0.0643645809
C  C51  1  0.99910000  0.86940000  0.36840000  1.0 0.0694096946
C  C52  1  0.50090000  0.13060000  0.86840000  1.0 0.0643645809
C  C53  1  0.13160000  0.00090000  0.36940000  1.0 0.0643645809
C  C54  1  0.63160000  0.49910000  0.63060000  1.0 0.0643645809
C  C55  1  0.36840000  0.99910000  0.86940000  1.0 0.0694096946
C  C56  1  0.86840000  0.50090000  0.13060000  1.0 0.0643645809
C  C57  1  0.36940000  0.13160000  0.00090000  1.0 0.0643645809
C  C58  1  0.63060000  0.63160000  0.49910000  1.0 0.0643645809
C  C59  1  0.86940000  0.36840000  0.99910000  1.0 0.0694096946
C  C60  1  0.13060000  0.86840000  0.50090000  1.0 0.0643645809
C  C61  1  0.03180000  0.39750000  0.15880000  1.0 -0.1518907677
C  C62  1  0.46820000  0.60250000  0.65880000  1.0 -0.1518907677
C  C63  1  0.96820000  0.89750000  0.34120000  1.0 -0.1518907677
C  C64  1  0.53180000  0.10250000  0.84120000  1.0 -0.1518907677
C  C65  1  0.15880000  0.03180000  0.39750000  1.0 -0.1518907677
C  C66  1  0.65880000  0.46820000  0.60250000  1.0 -0.1518907677
C  C67  1  0.34120000  0.96820000  0.89750000  1.0 -0.1518907677
C  C68  1  0.84120000  0.53180000  0.10250000  1.0 -0.1518907677
C  C69  1  0.39750000  0.15880000  0.03180000  1.0 -0.1518907677
C  C70  1  0.60250000  0.65880000  0.46820000  1.0 -0.1518907677
C  C71  1  0.89750000  0.34120000  0.96820000  1.0 -0.1518907677
C  C72  1  0.10250000  0.84120000  0.53180000  1.0 -0.1518907677
C  C73  1  0.07550000  0.37980000  0.17470000  1.0 -0.0904447449
C  C74  1  0.42450000  0.62020000  0.67470000  1.0 -0.1005752804
C  C75  1  0.92450000  0.87980000  0.32530000  1.0 -0.0904447449
C  C76  1  0.57550000  0.12020000  0.82530000  1.0 -0.0904447449
C  C77  1  0.17470000  0.07550000  0.37980000  1.0 -0.0904447449
C  C78  1  0.67470000  0.42450000  0.62020000  1.0 -0.1005752804
C  C79  1  0.32530000  0.92450000  0.87980000  1.0 -0.0904447449
C  C80  1  0.82530000  0.57550000  0.12020000  1.0 -0.0904447449
C  C81  1  0.37980000  0.17470000  0.07550000  1.0 -0.0904447449
C  C82  1  0.62020000  0.67470000  0.42450000  1.0 -0.1005752804
C  C83  1  0.87980000  0.32530000  0.92450000  1.0 -0.0904447449
C  C84  1  0.12020000  0.82530000  0.57550000  1.0 -0.0904447449
C  C85  1  0.29880000  0.51510000  0.16050000  1.0 -0.1611230672
C  C86  1  0.20120000  0.48490000  0.66050000  1.0 -0.1611230672
C  C87  1  0.70120000  0.01510000  0.33950000  1.0 -0.1611230672
C  C88  1  0.79880000  0.98490000  0.83950000  1.0 -0.1611230672
C  C89  1  0.16050000  0.29880000  0.51510000  1.0 -0.1611230672
C  C90  1  0.66050000  0.20120000  0.48490000  1.0 -0.1611230672
C  C91  1  0.33950000  0.70120000  0.01510000  1.0 -0.1611230672
C  C92  1  0.83950000  0.79880000  0.98490000  1.0 -0.1611230672
C  C93  1  0.51510000  0.16050000  0.29880000  1.0 -0.1611230672
C  C94  1  0.48490000  0.66050000  0.20120000  1.0 -0.1611230672
C  C95  1  0.01510000  0.33950000  0.70120000  1.0 -0.1611230672
C  C96  1  0.98490000  0.83950000  0.79880000  1.0 -0.1611230672
C  C97  1  0.28330000  0.47380000  0.18350000  1.0 -0.1005752804
C  C98  1  0.21670000  0.52620000  0.68350000  1.0 -0.1005752804
C  C99  1  0.71670000  0.97380000  0.31650000  1.0 -0.1005752804
C  C100  1  0.78330000  0.02620000  0.81650000  1.0 -0.1005752804
C  C101  1  0.18350000  0.28330000  0.47380000  1.0 -0.1005752804
C  C102  1  0.68350000  0.21670000  0.52620000  1.0 -0.1005752804
C  C103  1  0.31650000  0.71670000  0.97380000  1.0 -0.1005752804
C  C104  1  0.81650000  0.78330000  0.02620000  1.0 -0.1005752804
C  C105  1  0.47380000  0.18350000  0.28330000  1.0 -0.1005752804
C  C106  1  0.52620000  0.68350000  0.21670000  1.0 -0.1005752804
C  C107  1  0.97380000  0.31650000  0.71670000  1.0 -0.1005752804
C  C108  1  0.02620000  0.81650000  0.78330000  1.0 -0.1005752804
C  C109  1  0.92970000  0.43200000  0.12940000  1.0 -0.1913016792
C  C110  1  0.57030000  0.56800000  0.62940000  1.0 -0.1913016792
C  C111  1  0.07030000  0.93200000  0.37060000  1.0 -0.1913016792
C  C112  1  0.42970000  0.06800000  0.87060000  1.0 -0.1913016792
C  C113  1  0.12940000  0.92970000  0.43200000  1.0 -0.1913016792
C  C114  1  0.62940000  0.57030000  0.56800000  1.0 -0.1913016792
C  C115  1  0.37060000  0.07030000  0.93200000  1.0 -0.1913016792
C  C116  1  0.87060000  0.42970000  0.06800000  1.0 -0.1913016792
C  C117  1  0.43200000  0.12940000  0.92970000  1.0 -0.1913016792
C  C118  1  0.56800000  0.62940000  0.57030000  1.0 -0.1913016792
C  C119  1  0.93200000  0.37060000  0.07030000  1.0 -0.1913016792
C  C120  1  0.06800000  0.87060000  0.42970000  1.0 -0.1913016792
C  C121  1  0.95280000  0.39020000  0.10850000  1.0 0.0694096946
C  C122  1  0.54720000  0.60980000  0.60850000  1.0 0.0694096946
C  C123  1  0.04720000  0.89020000  0.39150000  1.0 0.0694096946
C  C124  1  0.45280000  0.10980000  0.89150000  1.0 0.0694096946
C  C125  1  0.10850000  0.95280000  0.39020000  1.0 0.0694096946
C  C126  1  0.60850000  0.54720000  0.60980000  1.0 0.0694096946
C  C127  1  0.39150000  0.04720000  0.89020000  1.0 0.0694096946
C  C128  1  0.89150000  0.45280000  0.10980000  1.0 0.0694096946
C  C129  1  0.39020000  0.10850000  0.95280000  1.0 0.0694096946
C  C130  1  0.60980000  0.60850000  0.54720000  1.0 0.0694096946
C  C131  1  0.89020000  0.39150000  0.04720000  1.0 0.0694096946
C  C132  1  0.10980000  0.89150000  0.45280000  1.0 0.0694096946
C  C133  1  0.34550000  0.59420000  0.15960000  1.0 0.0964675714
C  C134  1  0.15450000  0.40580000  0.65960000  1.0 0.0964675714
C  C135  1  0.65450000  0.09420000  0.34040000  1.0 0.0964675714
C  C136  1  0.84550000  0.90580000  0.84040000  1.0 0.0964675714
C  C137  1  0.15960000  0.34550000  0.59420000  1.0 0.0964675714
C  C138  1  0.65960000  0.15450000  0.40580000  1.0 0.0964675714
C  C139  1  0.34040000  0.65450000  0.09420000  1.0 0.0964675714
C  C140  1  0.84040000  0.84550000  0.90580000  1.0 0.0964675714
C  C141  1  0.59420000  0.15960000  0.34550000  1.0 0.0964675714
C  C142  1  0.40580000  0.65960000  0.15450000  1.0 0.0964675714
C  C143  1  0.09420000  0.34040000  0.65450000  1.0 0.0964675714
C  C144  1  0.90580000  0.84040000  0.84550000  1.0 0.0964675714
C  C145  1  0.32820000  0.54720000  0.18460000  1.0 0.0694096946
C  C146  1  0.17180000  0.45280000  0.68460000  1.0 0.0694096946
C  C147  1  0.67180000  0.04720000  0.31540000  1.0 0.0694096946
C  C148  1  0.82820000  0.95280000  0.81540000  1.0 0.0694096946
C  C149  1  0.18460000  0.32820000  0.54720000  1.0 0.0694096946
C  C150  1  0.68460000  0.17180000  0.45280000  1.0 0.0694096946
C  C151  1  0.31540000  0.67180000  0.04720000  1.0 0.0694096946
C  C152  1  0.81540000  0.82820000  0.95280000  1.0 0.0694096946
C  C153  1  0.54720000  0.18460000  0.32820000  1.0 0.0694096946
C  C154  1  0.45280000  0.68460000  0.17180000  1.0 0.0694096946
C  C155  1  0.04720000  0.31540000  0.67180000  1.0 0.0694096946
C  C156  1  0.95280000  0.81540000  0.82820000  1.0 0.0694096946
C  C157  1  0.28420000  0.41020000  0.25080000  1.0 0.5873126109
C  C158  1  0.21580000  0.58980000  0.75080000  1.0 0.5873126109
C  C159  1  0.71580000  0.91020000  0.24920000  1.0 0.5873126109
C  C160  1  0.78420000  0.08980000  0.74920000  1.0 0.5873126109
C  C161  1  0.25080000  0.28420000  0.41020000  1.0 0.5873126109
C  C162  1  0.75080000  0.21580000  0.58980000  1.0 0.5873126109
C  C163  1  0.24920000  0.71580000  0.91020000  1.0 0.5873126109
C  C164  1  0.74920000  0.78420000  0.08980000  1.0 0.5873126109
C  C165  1  0.41020000  0.25080000  0.28420000  1.0 0.5873126109
C  C166  1  0.58980000  0.75080000  0.21580000  1.0 0.5873126109
C  C167  1  0.91020000  0.24920000  0.71580000  1.0 0.5873126109
C  C168  1  0.08980000  0.74920000  0.78420000  1.0 0.5873126109
C  C169  1  0.31910000  0.61670000  0.12260000  1.0 -0.2078952286
C  C170  1  0.18090000  0.38330000  0.62260000  1.0 -0.2078952286
C  C171  1  0.68090000  0.11670000  0.37740000  1.0 -0.2078952286
C  C172  1  0.81910000  0.88330000  0.87740000  1.0 -0.2078952286
C  C173  1  0.12260000  0.31910000  0.61670000  1.0 -0.2078952286
C  C174  1  0.62260000  0.18090000  0.38330000  1.0 -0.2078952286
C  C175  1  0.37740000  0.68090000  0.11670000  1.0 -0.2078952286
C  C176  1  0.87740000  0.81910000  0.88330000  1.0 -0.2078952286
C  C177  1  0.61670000  0.12260000  0.31910000  1.0 -0.2078952286
C  C178  1  0.38330000  0.62260000  0.18090000  1.0 -0.2078952286
C  C179  1  0.11670000  0.37740000  0.68090000  1.0 -0.2078952286
C  C180  1  0.88330000  0.87740000  0.81910000  1.0 -0.2078952286
C  C181  1  0.29890000  0.45940000  0.22850000  1.0 -0.0158251579
C  C182  1  0.20110000  0.54060000  0.72850000  1.0 -0.0158251579
C  C183  1  0.70110000  0.95940000  0.27150000  1.0 -0.0158251579
C  C184  1  0.79890000  0.04060000  0.77150000  1.0 -0.0158251579
C  C185  1  0.22850000  0.29890000  0.45940000  1.0 -0.0158251579
C  C186  1  0.72850000  0.20110000  0.54060000  1.0 -0.0158251579
C  C187  1  0.27150000  0.70110000  0.95940000  1.0 -0.0158251579
C  C188  1  0.77150000  0.79890000  0.04060000  1.0 -0.0158251579
C  C189  1  0.45940000  0.22850000  0.29890000  1.0 -0.0158251579
C  C190  1  0.54060000  0.72850000  0.20110000  1.0 -0.0158251579
C  C191  1  0.95940000  0.27150000  0.70110000  1.0 -0.0158251579
C  C192  1  0.04060000  0.77150000  0.79890000  1.0 -0.0158251579
C  C193  1  0.32320000  0.49390000  0.25490000  1.0 -0.1005752804
C  C194  1  0.17680000  0.50610000  0.75490000  1.0 -0.1005752804
C  C195  1  0.67680000  0.99390000  0.24510000  1.0 -0.1005752804
C  C196  1  0.82320000  0.00610000  0.74510000  1.0 -0.1005752804
C  C197  1  0.25490000  0.32320000  0.49390000  1.0 -0.1005752804
C  C198  1  0.75490000  0.17680000  0.50610000  1.0 -0.1005752804
C  C199  1  0.24510000  0.67680000  0.99390000  1.0 -0.1005752804
C  C200  1  0.74510000  0.82320000  0.00610000  1.0 -0.1005752804
C  C201  1  0.49390000  0.25490000  0.32320000  1.0 -0.1005752804
C  C202  1  0.50610000  0.75490000  0.17680000  1.0 -0.1005752804
C  C203  1  0.99390000  0.24510000  0.67680000  1.0 -0.1005752804
C  C204  1  0.00610000  0.74510000  0.82320000  1.0 -0.1005752804
C  C205  1  0.21050000  0.37050000  0.35650000  1.0 0.6311410387
C  C206  1  0.28950000  0.62950000  0.85650000  1.0 0.6311410387
C  C207  1  0.78950000  0.87050000  0.14350000  1.0 0.6311410387
C  C208  1  0.71050000  0.12950000  0.64350000  1.0 0.6311410387
C  C209  1  0.35650000  0.21050000  0.37050000  1.0 0.6311410387
C  C210  1  0.85650000  0.28950000  0.62950000  1.0 0.6311410387
C  C211  1  0.14350000  0.78950000  0.87050000  1.0 0.6311410387
C  C212  1  0.64350000  0.71050000  0.12950000  1.0 0.6311410387
C  C213  1  0.37050000  0.35650000  0.21050000  1.0 0.6311410387
C  C214  1  0.62950000  0.85650000  0.28950000  1.0 0.6311410387
C  C215  1  0.87050000  0.14350000  0.78950000  1.0 0.6311410387
C  C216  1  0.12950000  0.64350000  0.71050000  1.0 0.6311410387
C  C217  1  0.33420000  0.53720000  0.23300000  1.0 -0.1611230672
C  C218  1  0.16580000  0.46280000  0.73300000  1.0 -0.1681801487
C  C219  1  0.66580000  0.03720000  0.26700000  1.0 -0.1611230672
C  C220  1  0.83420000  0.96280000  0.76700000  1.0 -0.1611230672
C  C221  1  0.23300000  0.33420000  0.53720000  1.0 -0.1611230672
C  C222  1  0.73300000  0.16580000  0.46280000  1.0 -0.1611230672
C  C223  1  0.26700000  0.66580000  0.03720000  1.0 -0.1611230672
C  C224  1  0.76700000  0.83420000  0.96280000  1.0 -0.1611230672
C  C225  1  0.53720000  0.23300000  0.33420000  1.0 -0.1611230672
C  C226  1  0.46280000  0.73300000  0.16580000  1.0 -0.1611230672
C  C227  1  0.03720000  0.26700000  0.66580000  1.0 -0.1681801487
C  C228  1  0.96280000  0.76700000  0.83420000  1.0 -0.1611230672
C  C229  1  0.12800000  0.38130000  0.39830000  1.0 -0.1142949461
C  C230  1  0.37200000  0.61870000  0.89830000  1.0 -0.1142949461
C  C231  1  0.87200000  0.88130000  0.10170000  1.0 -0.1142949461
C  C232  1  0.62800000  0.11870000  0.60170000  1.0 -0.1142949461
C  C233  1  0.39830000  0.12800000  0.38130000  1.0 -0.1142949461
C  C234  1  0.89830000  0.37200000  0.61870000  1.0 -0.1142949461
C  C235  1  0.10170000  0.87200000  0.88130000  1.0 -0.1142949461
C  C236  1  0.60170000  0.62800000  0.11870000  1.0 -0.1142949461
C  C237  1  0.38130000  0.39830000  0.12800000  1.0 -0.1142949461
C  C238  1  0.61870000  0.89830000  0.37200000  1.0 -0.1142949461
C  C239  1  0.88130000  0.10170000  0.87200000  1.0 -0.1142949461
C  C240  1  0.11870000  0.60170000  0.62800000  1.0 -0.1142949461
C  C241  1  0.17690000  0.38970000  0.40120000  1.0 -0.0356870628
C  C242  1  0.32310000  0.61030000  0.90120000  1.0 -0.0356870628
C  C243  1  0.82310000  0.88970000  0.09880000  1.0 -0.0356870628
C  C244  1  0.67690000  0.11030000  0.59880000  1.0 -0.0356870628
C  C245  1  0.40120000  0.17690000  0.38970000  1.0 -0.0356870628
C  C246  1  0.90120000  0.32310000  0.61030000  1.0 -0.0356870628
C  C247  1  0.09880000  0.82310000  0.88970000  1.0 -0.0356870628
C  C248  1  0.59880000  0.67690000  0.11030000  1.0 -0.0356870628
C  C249  1  0.38970000  0.40120000  0.17690000  1.0 -0.0356870628
C  C250  1  0.61030000  0.90120000  0.32310000  1.0 -0.0356870628
C  C251  1  0.88970000  0.09880000  0.82310000  1.0 -0.0356870628
C  C252  1  0.11030000  0.59880000  0.67690000  1.0 -0.0356870628
C  C253  1  0.06870000  0.43560000  0.50380000  1.0 0.0874624421
C  C254  1  0.43130000  0.56440000  0.00380000  1.0 0.0874624421
C  C255  1  0.93130000  0.93560000  0.99620000  1.0 0.0874624421
C  C256  1  0.56870000  0.06440000  0.49620000  1.0 0.0874624421
C  C257  1  0.50380000  0.06870000  0.43560000  1.0 0.0874624421
C  C258  1  0.00380000  0.43130000  0.56440000  1.0 0.0874624421
C  C259  1  0.99620000  0.93130000  0.93560000  1.0 0.0874624421
C  C260  1  0.49620000  0.56870000  0.06440000  1.0 0.0874624421
C  C261  1  0.43560000  0.50380000  0.06870000  1.0 0.0874624421
C  C262  1  0.56440000  0.00380000  0.43130000  1.0 0.0874624421
C  C263  1  0.93560000  0.99620000  0.93130000  1.0 0.0874624421
C  C264  1  0.06440000  0.49620000  0.56870000  1.0 0.0874624421
C  C265  1  0.03080000  0.41000000  0.52600000  1.0 -0.2078952286
C  C266  1  0.46920000  0.59000000  0.02600000  1.0 -0.2078952286
C  C267  1  0.96920000  0.91000000  0.97400000  1.0 -0.2078952286
C  C268  1  0.53080000  0.09000000  0.47400000  1.0 -0.2078952286
C  C269  1  0.52600000  0.03080000  0.41000000  1.0 -0.2078952286
C  C270  1  0.02600000  0.46920000  0.59000000  1.0 -0.2078952286
C  C271  1  0.97400000  0.96920000  0.91000000  1.0 -0.2078952286
C  C272  1  0.47400000  0.53080000  0.09000000  1.0 -0.2078952286
C  C273  1  0.41000000  0.52600000  0.03080000  1.0 -0.2078952286
C  C274  1  0.59000000  0.02600000  0.46920000  1.0 -0.2078952286
C  C275  1  0.91000000  0.97400000  0.96920000  1.0 -0.2078952286
C  C276  1  0.09000000  0.47400000  0.53080000  1.0 -0.2078952286
C  C277  1  0.20300000  0.41080000  0.43800000  1.0 -0.0904447449
C  C278  1  0.29700000  0.58920000  0.93800000  1.0 -0.0904447449
C  C279  1  0.79700000  0.91080000  0.06200000  1.0 -0.0904447449
C  C280  1  0.70300000  0.08920000  0.56200000  1.0 -0.0904447449
C  C281  1  0.43800000  0.20300000  0.41080000  1.0 -0.0904447449
C  C282  1  0.93800000  0.29700000  0.58920000  1.0 -0.0904447449
C  C283  1  0.06200000  0.79700000  0.91080000  1.0 -0.0904447449
C  C284  1  0.56200000  0.70300000  0.08920000  1.0 -0.0904447449
C  C285  1  0.41080000  0.43800000  0.20300000  1.0 -0.0904447449
C  C286  1  0.58920000  0.93800000  0.29700000  1.0 -0.0904447449
C  C287  1  0.91080000  0.06200000  0.79700000  1.0 -0.0904447449
C  C288  1  0.08920000  0.56200000  0.70300000  1.0 -0.0904447449
C  C289  1  0.09600000  0.39380000  0.43430000  1.0 -0.1280251927
C  C290  1  0.40400000  0.60620000  0.93430000  1.0 -0.1280251927
C  C291  1  0.90400000  0.89380000  0.06570000  1.0 -0.1280251927
C  C292  1  0.59600000  0.10620000  0.56570000  1.0 -0.1280251927
C  C293  1  0.43430000  0.09600000  0.39380000  1.0 -0.1280251927
C  C294  1  0.93430000  0.40400000  0.60620000  1.0 -0.1280251927
C  C295  1  0.06570000  0.90400000  0.89380000  1.0 -0.1280251927
C  C296  1  0.56570000  0.59600000  0.10620000  1.0 -0.1280251927
C  C297  1  0.39380000  0.43430000  0.09600000  1.0 -0.1280251927
C  C298  1  0.60620000  0.93430000  0.40400000  1.0 -0.1280251927
C  C299  1  0.89380000  0.06570000  0.90400000  1.0 -0.1280251927
C  C300  1  0.10620000  0.56570000  0.59600000  1.0 -0.1280251927
C  C301  1  0.16870000  0.42290000  0.47200000  1.0 -0.1681801487
C  C302  1  0.33130000  0.57710000  0.97200000  1.0 -0.1681801487
C  C303  1  0.83130000  0.92290000  0.02800000  1.0 -0.1681801487
C  C304  1  0.66870000  0.07710000  0.52800000  1.0 -0.1681801487
C  C305  1  0.47200000  0.16870000  0.42290000  1.0 -0.1681801487
C  C306  1  0.97200000  0.33130000  0.57710000  1.0 -0.1681801487
C  C307  1  0.02800000  0.83130000  0.92290000  1.0 -0.1681801487
C  C308  1  0.52800000  0.66870000  0.07710000  1.0 -0.1681801487
C  C309  1  0.42290000  0.47200000  0.16870000  1.0 -0.1681801487
C  C310  1  0.57710000  0.97200000  0.33130000  1.0 -0.1681801487
C  C311  1  0.92290000  0.02800000  0.83130000  1.0 -0.1681801487
C  C312  1  0.07710000  0.52800000  0.66870000  1.0 -0.1681801487
C  C313  1  0.11940000  0.41650000  0.47190000  1.0 0.0250771512
C  C314  1  0.38060000  0.58350000  0.97190000  1.0 0.0238441773
C  C315  1  0.88060000  0.91650000  0.02810000  1.0 0.0250771512
C  C316  1  0.61940000  0.08350000  0.52810000  1.0 0.0238441773
C  C317  1  0.47190000  0.11940000  0.41650000  1.0 0.0250771512
C  C318  1  0.97190000  0.38060000  0.58350000  1.0 0.0250771512
C  C319  1  0.02810000  0.88060000  0.91650000  1.0 0.0250771512
C  C320  1  0.52810000  0.61940000  0.08350000  1.0 0.0238441773
C  C321  1  0.41650000  0.47190000  0.11940000  1.0 0.0250771512
C  C322  1  0.58350000  0.97190000  0.38060000  1.0 0.0238441773
C  C323  1  0.91650000  0.02810000  0.88060000  1.0 0.0250771512
C  C324  1  0.08350000  0.52810000  0.61940000  1.0 0.0238441773
O  O1  1  0.28840000  0.28840000  0.28840000  1.0 -1.1200392823
O  O2  1  0.21160000  0.71160000  0.78840000  1.0 -1.1200392823
O  O3  1  0.71160000  0.78840000  0.21160000  1.0 -1.1200392823
O  O4  1  0.78840000  0.21160000  0.71160000  1.0 -1.1200392823
O  O5  1  0.24910000  0.27670000  0.19410000  1.0 -0.9911740304
O  O6  1  0.25090000  0.72330000  0.69410000  1.0 -0.9846350829
O  O7  1  0.75090000  0.77670000  0.30590000  1.0 -0.9911740304
O  O8  1  0.74910000  0.22330000  0.80590000  1.0 -0.9911740304
O  O9  1  0.19410000  0.24910000  0.27670000  1.0 -0.9911740304
O  O10  1  0.69410000  0.25090000  0.72330000  1.0 -0.9846350829
O  O11  1  0.30590000  0.75090000  0.77670000  1.0 -0.9911740304
O  O12  1  0.80590000  0.74910000  0.22330000  1.0 -0.9911740304
O  O13  1  0.27670000  0.19410000  0.24910000  1.0 -0.9911740304
O  O14  1  0.72330000  0.69410000  0.25090000  1.0 -0.9846350829
O  O15  1  0.77670000  0.30590000  0.75090000  1.0 -0.9911740304
O  O16  1  0.22330000  0.80590000  0.74910000  1.0 -0.9911740304
O  O17  1  0.18840000  0.35280000  0.31750000  1.0 -0.5700746457
O  O18  1  0.31160000  0.64720000  0.81750000  1.0 -0.5700746457
O  O19  1  0.81160000  0.85280000  0.18250000  1.0 -0.5700746457
O  O20  1  0.68840000  0.14720000  0.68250000  1.0 -0.5700746457
O  O21  1  0.31750000  0.18840000  0.35280000  1.0 -0.5700746457
O  O22  1  0.81750000  0.31160000  0.64720000  1.0 -0.5700746457
O  O23  1  0.18250000  0.81160000  0.85280000  1.0 -0.5700746457
O  O24  1  0.68250000  0.68840000  0.14720000  1.0 -0.5700746457
O  O25  1  0.35280000  0.31750000  0.18840000  1.0 -0.5700746457
O  O26  1  0.64720000  0.81750000  0.31160000  1.0 -0.5700746457
O  O27  1  0.85280000  0.18250000  0.81160000  1.0 -0.5700746457
O  O28  1  0.14720000  0.68250000  0.68840000  1.0 -0.5700746457
O  O29  1  0.15870000  0.34050000  0.21540000  1.0 -0.5368166646
O  O30  1  0.34130000  0.65950000  0.71540000  1.0 -0.5368166646
O  O31  1  0.84130000  0.84050000  0.28460000  1.0 -0.5368166646
O  O32  1  0.65870000  0.15950000  0.78460000  1.0 -0.5368166646
O  O33  1  0.21540000  0.15870000  0.34050000  1.0 -0.5368166646
O  O34  1  0.71540000  0.34130000  0.65950000  1.0 -0.5368166646
O  O35  1  0.28460000  0.84130000  0.84050000  1.0 -0.5368166646
O  O36  1  0.78460000  0.65870000  0.15950000  1.0 -0.5368166646
O  O37  1  0.34050000  0.21540000  0.15870000  1.0 -0.5368166646
O  O38  1  0.65950000  0.71540000  0.34130000  1.0 -0.5368166646
O  O39  1  0.84050000  0.28460000  0.84130000  1.0 -0.5368166646
O  O40  1  0.15950000  0.78460000  0.65870000  1.0 -0.5368166646
O  O41  1  0.13920000  0.26490000  0.18630000  1.0 -0.6162916864
O  O42  1  0.36080000  0.73510000  0.68630000  1.0 -0.6162916864
O  O43  1  0.86080000  0.76490000  0.31370000  1.0 -0.614740042
O  O44  1  0.63920000  0.23510000  0.81370000  1.0 -0.6162916864
O  O45  1  0.18630000  0.13920000  0.26490000  1.0 -0.6162916864
O  O46  1  0.68630000  0.36080000  0.73510000  1.0 -0.6162916864
O  O47  1  0.31370000  0.86080000  0.76490000  1.0 -0.6162916864
O  O48  1  0.81370000  0.63920000  0.23510000  1.0 -0.6162916864
O  O49  1  0.26490000  0.18630000  0.13920000  1.0 -0.6162916864
O  O50  1  0.73510000  0.68630000  0.36080000  1.0 -0.6162916864
O  O51  1  0.76490000  0.31370000  0.86080000  1.0 -0.6162916864
O  O52  1  0.23510000  0.81370000  0.63920000  1.0 -0.6162916864
O  O53  1  0.25170000  0.38720000  0.22960000  1.0 -0.4590404437
O  O54  1  0.24830000  0.61280000  0.72960000  1.0 -0.4590404437
O  O55  1  0.74830000  0.88720000  0.27040000  1.0 -0.4590404437
O  O56  1  0.75170000  0.11280000  0.77040000  1.0 -0.4590404437
O  O57  1  0.22960000  0.25170000  0.38720000  1.0 -0.4590404437
O  O58  1  0.72960000  0.24830000  0.61280000  1.0 -0.4590404437
O  O59  1  0.27040000  0.74830000  0.88720000  1.0 -0.4590404437
O  O60  1  0.77040000  0.75170000  0.11280000  1.0 -0.4590404437
O  O61  1  0.38720000  0.22960000  0.25170000  1.0 -0.4590404437
O  O62  1  0.61280000  0.72960000  0.24830000  1.0 -0.4590404437
O  O63  1  0.88720000  0.27040000  0.74830000  1.0 -0.4590404437
O  O64  1  0.11280000  0.77040000  0.75170000  1.0 -0.4590404437
O  O65  1  0.29680000  0.40180000  0.29220000  1.0 -0.5615004778
O  O66  1  0.20320000  0.59820000  0.79220000  1.0 -0.5615004778
O  O67  1  0.70320000  0.90180000  0.20780000  1.0 -0.5615004778
O  O68  1  0.79680000  0.09820000  0.70780000  1.0 -0.5615004778
O  O69  1  0.29220000  0.29680000  0.40180000  1.0 -0.5615004778
O  O70  1  0.79220000  0.20320000  0.59820000  1.0 -0.5615004778
O  O71  1  0.20780000  0.70320000  0.90180000  1.0 -0.5615004778
O  O72  1  0.70780000  0.79680000  0.09820000  1.0 -0.5615004778
O  O73  1  0.40180000  0.29220000  0.29680000  1.0 -0.5615004778
O  O74  1  0.59820000  0.79220000  0.20320000  1.0 -0.5615004778
O  O75  1  0.90180000  0.20780000  0.70320000  1.0 -0.5615004778
O  O76  1  0.09820000  0.70780000  0.79680000  1.0 -0.5615004778
O  O77  1  0.25750000  0.36940000  0.36930000  1.0 -0.701375408
O  O78  1  0.24250000  0.63060000  0.86930000  1.0 -0.701375408
O  O79  1  0.74250000  0.86940000  0.13070000  1.0 -0.701375408
O  O80  1  0.75750000  0.13060000  0.63070000  1.0 -0.701375408
O  O81  1  0.36930000  0.25750000  0.36940000  1.0 -0.701375408
O  O82  1  0.86930000  0.24250000  0.63060000  1.0 -0.701375408
O  O83  1  0.13070000  0.74250000  0.86940000  1.0 -0.701375408
O  O84  1  0.63070000  0.75750000  0.13060000  1.0 -0.701375408
O  O85  1  0.36940000  0.36930000  0.25750000  1.0 -0.701375408
O  O86  1  0.63060000  0.86930000  0.24250000  1.0 -0.701375408
O  O87  1  0.86940000  0.13070000  0.74250000  1.0 -0.701375408
O  O88  1  0.13060000  0.63070000  0.75750000  1.0 -0.701375408
