# DDEC6 charges by PACMAN v1.1 (https://github.com/mtap-research/PACMAN-charge/)
data_WAVQOB_ASR_pacman
_symmetry_space_group_name_H-M   'P 1'
_cell_length_a   27.13440000
_cell_length_b   27.13440000
_cell_length_c   27.13440000
_cell_angle_alpha   90.00000000
_cell_angle_beta   90.00000000
_cell_angle_gamma   90.00000000
_symmetry_Int_Tables_number   1
_chemical_formula_structural   Pr2In3H45C81O22
_chemical_formula_sum   'Pr8 In12 H180 C324 O88'
_cell_volume   19978.39835988
_cell_formula_units_Z   4
loop_
 _symmetry_equiv_pos_site_id
 _symmetry_equiv_pos_as_xyz
  1  'x, y, z'
loop_
 _atom_site_type_symbol
 _atom_site_label
 _atom_site_symmetry_multiplicity
 _atom_site_fract_x
 _atom_site_fract_y
 _atom_site_fract_z
 _atom_site_occupancy
 _atom_site_charge
Pr  Pr1  1  0.05240000  0.55240000  0.94760000  1.0 2.1738187149
Pr  Pr2  1  0.44760000  0.44760000  0.44760000  1.0 2.1738187149
Pr  Pr3  1  0.94760000  0.05240000  0.55240000  1.0 2.1738187149
Pr  Pr4  1  0.55240000  0.94760000  0.05240000  1.0 2.1738187149
Pr  Pr5  1  0.90984000  0.40984000  0.09016000  1.0 2.1870847419
Pr  Pr6  1  0.59016000  0.59016000  0.59016000  1.0 2.1870847419
Pr  Pr7  1  0.09016000  0.90984000  0.40984000  1.0 2.1870847419
Pr  Pr8  1  0.40984000  0.09016000  0.90984000  1.0 2.1870847419
In  In1  1  0.92946000  0.52672000  0.00603000  1.0 1.5167949274
In  In2  1  0.57054000  0.47328000  0.50603000  1.0 1.5167949274
In  In3  1  0.07054000  0.02672000  0.49397000  1.0 1.5167949274
In  In4  1  0.42946000  0.97328000  0.99397000  1.0 1.5167949274
In  In5  1  0.00603000  0.92946000  0.52672000  1.0 1.5167949274
In  In6  1  0.50603000  0.57054000  0.47328000  1.0 1.5167949274
In  In7  1  0.49397000  0.07054000  0.02672000  1.0 1.5167949274
In  In8  1  0.99397000  0.42946000  0.97328000  1.0 1.5167949274
In  In9  1  0.52672000  0.00603000  0.92946000  1.0 1.5167949274
In  In10  1  0.47328000  0.50603000  0.57054000  1.0 1.5167949274
In  In11  1  0.02672000  0.49397000  0.07054000  1.0 1.5167949274
In  In12  1  0.97328000  0.99397000  0.42946000  1.0 1.5167949274
H  H1  1  0.77280000  0.40570000  0.03870000  1.0 0.1322649837
H  H2  1  0.72720000  0.59430000  0.53870000  1.0 0.1322649837
H  H3  1  0.22720000  0.90570000  0.46130000  1.0 0.1322649837
H  H4  1  0.27280000  0.09430000  0.96130000  1.0 0.1322649837
H  H5  1  0.03870000  0.77280000  0.40570000  1.0 0.1322649837
H  H6  1  0.53870000  0.72720000  0.59430000  1.0 0.1322649837
H  H7  1  0.46130000  0.22720000  0.90570000  1.0 0.1322649837
H  H8  1  0.96130000  0.27280000  0.09430000  1.0 0.1322649837
H  H9  1  0.40570000  0.03870000  0.77280000  1.0 0.1322649837
H  H10  1  0.59430000  0.53870000  0.72720000  1.0 0.1322649837
H  H11  1  0.90570000  0.46130000  0.22720000  1.0 0.1322649837
H  H12  1  0.09430000  0.96130000  0.27280000  1.0 0.1322649837
H  H13  1  0.68130000  0.41290000  0.00870000  1.0 0.1193067638
H  H14  1  0.81870000  0.58710000  0.50870000  1.0 0.1193067638
H  H15  1  0.31870000  0.91290000  0.49130000  1.0 0.1193067638
H  H16  1  0.18130000  0.08710000  0.99130000  1.0 0.1193067638
H  H17  1  0.00870000  0.68130000  0.41290000  1.0 0.1193067638
H  H18  1  0.50870000  0.81870000  0.58710000  1.0 0.1193067638
H  H19  1  0.49130000  0.31870000  0.91290000  1.0 0.1193067638
H  H20  1  0.99130000  0.18130000  0.08710000  1.0 0.1193067638
H  H21  1  0.41290000  0.00870000  0.68130000  1.0 0.1193067638
H  H22  1  0.58710000  0.50870000  0.81870000  1.0 0.1193067638
H  H23  1  0.91290000  0.49130000  0.31870000  1.0 0.1193067638
H  H24  1  0.08710000  0.99130000  0.18130000  1.0 0.1193067638
H  H25  1  0.72380000  0.46380000  0.87960000  1.0 0.1193067638
H  H26  1  0.77620000  0.53620000  0.37960000  1.0 0.1193067638
H  H27  1  0.27620000  0.96380000  0.62040000  1.0 0.1193067638
H  H28  1  0.22380000  0.03620000  0.12040000  1.0 0.1193067638
H  H29  1  0.87960000  0.72380000  0.46380000  1.0 0.1193067638
H  H30  1  0.37960000  0.77620000  0.53620000  1.0 0.1193067638
H  H31  1  0.62040000  0.27620000  0.96380000  1.0 0.1193067638
H  H32  1  0.12040000  0.22380000  0.03620000  1.0 0.1193067638
H  H33  1  0.46380000  0.87960000  0.72380000  1.0 0.1193067638
H  H34  1  0.53620000  0.37960000  0.77620000  1.0 0.1193067638
H  H35  1  0.96380000  0.62040000  0.27620000  1.0 0.1193067638
H  H36  1  0.03620000  0.12040000  0.22380000  1.0 0.1193067638
H  H37  1  0.79650000  0.48870000  0.91580000  1.0 0.1322649837
H  H38  1  0.70350000  0.51130000  0.41580000  1.0 0.1322649837
H  H39  1  0.20350000  0.98870000  0.58420000  1.0 0.1322649837
H  H40  1  0.29650000  0.01130000  0.08420000  1.0 0.1322649837
H  H41  1  0.91580000  0.79650000  0.48870000  1.0 0.1322649837
H  H42  1  0.41580000  0.70350000  0.51130000  1.0 0.1322649837
H  H43  1  0.58420000  0.20350000  0.98870000  1.0 0.1322649837
H  H44  1  0.08420000  0.29650000  0.01130000  1.0 0.1322649837
H  H45  1  0.48870000  0.91580000  0.79650000  1.0 0.1322649837
H  H46  1  0.51130000  0.41580000  0.70350000  1.0 0.1322649837
H  H47  1  0.98870000  0.58420000  0.20350000  1.0 0.1322649837
H  H48  1  0.01130000  0.08420000  0.29650000  1.0 0.1322649837
H  H49  1  0.65180000  0.45770000  0.86090000  1.0 0.1193067638
H  H50  1  0.84820000  0.54230000  0.36090000  1.0 0.1193067638
H  H51  1  0.34820000  0.95770000  0.63910000  1.0 0.1193067638
H  H52  1  0.15180000  0.04230000  0.13910000  1.0 0.1193067638
H  H53  1  0.86090000  0.65180000  0.45770000  1.0 0.1193067638
H  H54  1  0.36090000  0.84820000  0.54230000  1.0 0.1193067638
H  H55  1  0.63910000  0.34820000  0.95770000  1.0 0.1193067638
H  H56  1  0.13910000  0.15180000  0.04230000  1.0 0.1193067638
H  H57  1  0.45770000  0.86090000  0.65180000  1.0 0.1193067638
H  H58  1  0.54230000  0.36090000  0.84820000  1.0 0.1193067638
H  H59  1  0.95770000  0.63910000  0.34820000  1.0 0.1193067638
H  H60  1  0.04230000  0.13910000  0.15180000  1.0 0.1193067638
H  H61  1  0.84970000  0.65300000  0.94070000  1.0 0.1393850967
H  H62  1  0.65030000  0.34700000  0.44070000  1.0 0.1393850967
H  H63  1  0.15030000  0.15300000  0.55930000  1.0 0.1393850967
H  H64  1  0.34970000  0.84700000  0.05930000  1.0 0.1393850967
H  H65  1  0.94070000  0.84970000  0.65300000  1.0 0.1393850967
H  H66  1  0.44070000  0.65030000  0.34700000  1.0 0.1393850967
H  H67  1  0.55930000  0.15030000  0.15300000  1.0 0.1393850967
H  H68  1  0.05930000  0.34970000  0.84700000  1.0 0.1393850967
H  H69  1  0.65300000  0.94070000  0.84970000  1.0 0.1393850967
H  H70  1  0.34700000  0.44070000  0.65030000  1.0 0.1393850967
H  H71  1  0.15300000  0.55930000  0.15030000  1.0 0.1393850967
H  H72  1  0.84700000  0.05930000  0.34970000  1.0 0.1393850967
H  H73  1  0.81870000  0.72440000  0.91600000  1.0 0.1193067638
H  H74  1  0.68130000  0.27560000  0.41600000  1.0 0.1193067638
H  H75  1  0.18130000  0.22440000  0.58400000  1.0 0.1193067638
H  H76  1  0.31870000  0.77560000  0.08400000  1.0 0.1193067638
H  H77  1  0.91600000  0.81870000  0.72440000  1.0 0.1193067638
H  H78  1  0.41600000  0.68130000  0.27560000  1.0 0.1193067638
H  H79  1  0.58400000  0.18130000  0.22440000  1.0 0.1193067638
H  H80  1  0.08400000  0.31870000  0.77560000  1.0 0.1193067638
H  H81  1  0.72440000  0.91600000  0.81870000  1.0 0.1193067638
H  H82  1  0.27560000  0.41600000  0.68130000  1.0 0.1193067638
H  H83  1  0.22440000  0.58400000  0.18130000  1.0 0.1193067638
H  H84  1  0.77560000  0.08400000  0.31870000  1.0 0.1193067638
H  H85  1  0.95070000  0.76130000  0.86270000  1.0 0.1322649837
H  H86  1  0.54930000  0.23870000  0.36270000  1.0 0.1322649837
H  H87  1  0.04930000  0.26130000  0.63730000  1.0 0.1322649837
H  H88  1  0.45070000  0.73870000  0.13730000  1.0 0.1322649837
H  H89  1  0.86270000  0.95070000  0.76130000  1.0 0.1322649837
H  H90  1  0.36270000  0.54930000  0.23870000  1.0 0.1322649837
H  H91  1  0.63730000  0.04930000  0.26130000  1.0 0.1322649837
H  H92  1  0.13730000  0.45070000  0.73870000  1.0 0.1322649837
H  H93  1  0.76130000  0.86270000  0.95070000  1.0 0.1322649837
H  H94  1  0.23870000  0.36270000  0.54930000  1.0 0.1322649837
H  H95  1  0.26130000  0.63730000  0.04930000  1.0 0.1322649837
H  H96  1  0.73870000  0.13730000  0.45070000  1.0 0.1322649837
H  H97  1  0.97760000  0.68890000  0.88730000  1.0 0.1193067638
H  H98  1  0.52240000  0.31110000  0.38730000  1.0 0.1193067638
H  H99  1  0.02240000  0.18890000  0.61270000  1.0 0.1193067638
H  H100  1  0.47760000  0.81110000  0.11270000  1.0 0.1193067638
H  H101  1  0.88730000  0.97760000  0.68890000  1.0 0.1193067638
H  H102  1  0.38730000  0.52240000  0.31110000  1.0 0.1193067638
H  H103  1  0.61270000  0.02240000  0.18890000  1.0 0.1193067638
H  H104  1  0.11270000  0.47760000  0.81110000  1.0 0.1193067638
H  H105  1  0.68890000  0.88730000  0.97760000  1.0 0.1193067638
H  H106  1  0.31110000  0.38730000  0.52240000  1.0 0.1193067638
H  H107  1  0.18890000  0.61270000  0.02240000  1.0 0.1193067638
H  H108  1  0.81110000  0.11270000  0.47760000  1.0 0.1193067638
H  H109  1  0.80400000  0.80470000  0.90610000  1.0 0.1193067638
H  H110  1  0.69600000  0.19530000  0.40610000  1.0 0.1193067638
H  H111  1  0.19600000  0.30470000  0.59390000  1.0 0.1193067638
H  H112  1  0.30400000  0.69530000  0.09390000  1.0 0.1193067638
H  H113  1  0.90610000  0.80400000  0.80470000  1.0 0.1193067638
H  H114  1  0.40610000  0.69600000  0.19530000  1.0 0.1193067638
H  H115  1  0.59390000  0.19600000  0.30470000  1.0 0.1193067638
H  H116  1  0.09390000  0.30400000  0.69530000  1.0 0.1193067638
H  H117  1  0.80470000  0.90610000  0.80400000  1.0 0.1193067638
H  H118  1  0.19530000  0.40610000  0.69600000  1.0 0.1193067638
H  H119  1  0.30470000  0.59390000  0.19600000  1.0 0.1193067638
H  H120  1  0.69530000  0.09390000  0.30400000  1.0 0.1193067638
H  H121  1  0.88650000  0.63560000  0.12060000  1.0 0.1193067638
H  H122  1  0.61350000  0.36440000  0.62060000  1.0 0.1193067638
H  H123  1  0.11350000  0.13560000  0.37940000  1.0 0.1193067638
H  H124  1  0.38650000  0.86440000  0.87940000  1.0 0.1193067638
H  H125  1  0.12060000  0.88650000  0.63560000  1.0 0.1193067638
H  H126  1  0.62060000  0.61350000  0.36440000  1.0 0.1193067638
H  H127  1  0.37940000  0.11350000  0.13560000  1.0 0.1193067638
H  H128  1  0.87940000  0.38650000  0.86440000  1.0 0.1193067638
H  H129  1  0.63560000  0.12060000  0.88650000  1.0 0.1193067638
H  H130  1  0.36440000  0.62060000  0.61350000  1.0 0.1193067638
H  H131  1  0.13560000  0.37940000  0.11350000  1.0 0.1193067638
H  H132  1  0.86440000  0.87940000  0.38650000  1.0 0.1193067638
H  H133  1  0.87480000  0.72720000  0.26440000  1.0 0.1193067638
H  H134  1  0.62520000  0.27280000  0.76440000  1.0 0.1193067638
H  H135  1  0.12520000  0.22720000  0.23560000  1.0 0.1193067638
H  H136  1  0.37480000  0.77280000  0.73560000  1.0 0.1193067638
H  H137  1  0.26440000  0.87480000  0.72720000  1.0 0.1193067638
H  H138  1  0.76440000  0.62520000  0.27280000  1.0 0.1193067638
H  H139  1  0.23560000  0.12520000  0.22720000  1.0 0.1193067638
H  H140  1  0.73560000  0.37480000  0.77280000  1.0 0.1193067638
H  H141  1  0.72720000  0.26440000  0.87480000  1.0 0.1193067638
H  H142  1  0.27280000  0.76440000  0.62520000  1.0 0.1193067638
H  H143  1  0.22720000  0.23560000  0.12520000  1.0 0.1193067638
H  H144  1  0.77280000  0.73560000  0.37480000  1.0 0.1193067638
H  H145  1  0.83000000  0.51240000  0.18650000  1.0 0.1111874102
H  H146  1  0.67000000  0.48760000  0.68650000  1.0 0.1111874102
H  H147  1  0.17000000  0.01240000  0.31350000  1.0 0.1111874102
H  H148  1  0.33000000  0.98760000  0.81350000  1.0 0.1111874102
H  H149  1  0.18650000  0.83000000  0.51240000  1.0 0.1111874102
H  H150  1  0.68650000  0.67000000  0.48760000  1.0 0.1111874102
H  H151  1  0.31350000  0.17000000  0.01240000  1.0 0.1111874102
H  H152  1  0.81350000  0.33000000  0.98760000  1.0 0.1111874102
H  H153  1  0.51240000  0.18650000  0.83000000  1.0 0.1111874102
H  H154  1  0.48760000  0.68650000  0.67000000  1.0 0.1111874102
H  H155  1  0.01240000  0.31350000  0.17000000  1.0 0.1111874102
H  H156  1  0.98760000  0.81350000  0.33000000  1.0 0.1111874102
H  H157  1  0.86490000  0.69500000  0.18250000  1.0 0.1111874102
H  H158  1  0.63510000  0.30500000  0.68250000  1.0 0.1111874102
H  H159  1  0.13510000  0.19500000  0.31750000  1.0 0.1111874102
H  H160  1  0.36490000  0.80500000  0.81750000  1.0 0.1111874102
H  H161  1  0.18250000  0.86490000  0.69500000  1.0 0.1111874102
H  H162  1  0.68250000  0.63510000  0.30500000  1.0 0.1111874102
H  H163  1  0.31750000  0.13510000  0.19500000  1.0 0.1111874102
H  H164  1  0.81750000  0.36490000  0.80500000  1.0 0.1111874102
H  H165  1  0.69500000  0.18250000  0.86490000  1.0 0.1111874102
H  H166  1  0.30500000  0.68250000  0.63510000  1.0 0.1111874102
H  H167  1  0.19500000  0.31750000  0.13510000  1.0 0.1111874102
H  H168  1  0.80500000  0.81750000  0.36490000  1.0 0.1111874102
H  H169  1  0.80810000  0.57060000  0.24880000  1.0 0.1111874102
H  H170  1  0.69190000  0.42940000  0.74880000  1.0 0.1111874102
H  H171  1  0.19190000  0.07060000  0.25120000  1.0 0.1111874102
H  H172  1  0.30810000  0.92940000  0.75120000  1.0 0.1111874102
H  H173  1  0.24880000  0.80810000  0.57060000  1.0 0.1111874102
H  H174  1  0.74880000  0.69190000  0.42940000  1.0 0.1111874102
H  H175  1  0.25120000  0.19190000  0.07060000  1.0 0.1111874102
H  H176  1  0.75120000  0.30810000  0.92940000  1.0 0.1111874102
H  H177  1  0.57060000  0.24880000  0.80810000  1.0 0.1111874102
H  H178  1  0.42940000  0.74880000  0.69190000  1.0 0.1111874102
H  H179  1  0.07060000  0.25120000  0.19190000  1.0 0.1111874102
H  H180  1  0.92940000  0.75120000  0.30810000  1.0 0.1111874102
C  C1  1  0.83950000  0.46570000  0.99870000  1.0 0.5884091407
C  C2  1  0.66050000  0.53430000  0.49870000  1.0 0.5884091407
C  C3  1  0.16050000  0.96570000  0.50130000  1.0 0.5884091407
C  C4  1  0.33950000  0.03430000  0.00130000  1.0 0.5884091407
C  C5  1  0.99870000  0.83950000  0.46570000  1.0 0.5884091407
C  C6  1  0.49870000  0.66050000  0.53430000  1.0 0.5884091407
C  C7  1  0.50130000  0.16050000  0.96570000  1.0 0.5884091407
C  C8  1  0.00130000  0.33950000  0.03430000  1.0 0.5884091407
C  C9  1  0.46570000  0.99870000  0.83950000  1.0 0.5884091407
C  C10  1  0.53430000  0.49870000  0.66050000  1.0 0.5884091407
C  C11  1  0.96570000  0.50130000  0.16050000  1.0 0.5884091407
C  C12  1  0.03430000  0.00130000  0.33950000  1.0 0.5884091407
C  C13  1  0.78980000  0.45280000  0.97990000  1.0 -0.022151569
C  C14  1  0.71020000  0.54720000  0.47990000  1.0 -0.022151569
C  C15  1  0.21020000  0.95280000  0.52010000  1.0 -0.022151569
C  C16  1  0.28980000  0.04720000  0.02010000  1.0 -0.022151569
C  C17  1  0.97990000  0.78980000  0.45280000  1.0 -0.022151569
C  C18  1  0.47990000  0.71020000  0.54720000  1.0 -0.022151569
C  C19  1  0.52010000  0.21020000  0.95280000  1.0 -0.022151569
C  C20  1  0.02010000  0.28980000  0.04720000  1.0 -0.022151569
C  C21  1  0.45280000  0.97990000  0.78980000  1.0 -0.022151569
C  C22  1  0.54720000  0.47990000  0.71020000  1.0 -0.022151569
C  C23  1  0.95280000  0.52010000  0.21020000  1.0 -0.022151569
C  C24  1  0.04720000  0.02010000  0.28980000  1.0 -0.022151569
C  C25  1  0.76180000  0.42160000  0.01040000  1.0 -0.0915840449
C  C26  1  0.73820000  0.57840000  0.51040000  1.0 -0.0915840449
C  C27  1  0.23820000  0.92160000  0.48960000  1.0 -0.0915840449
C  C28  1  0.26180000  0.07840000  0.98960000  1.0 -0.0915840449
C  C29  1  0.01040000  0.76180000  0.42160000  1.0 -0.0915840449
C  C30  1  0.51040000  0.73820000  0.57840000  1.0 -0.0915840449
C  C31  1  0.48960000  0.23820000  0.92160000  1.0 -0.0915840449
C  C32  1  0.98960000  0.26180000  0.07840000  1.0 -0.0915840449
C  C33  1  0.42160000  0.01040000  0.76180000  1.0 -0.0915840449
C  C34  1  0.57840000  0.51040000  0.73820000  1.0 -0.0915840449
C  C35  1  0.92160000  0.48960000  0.23820000  1.0 -0.0915840449
C  C36  1  0.07840000  0.98960000  0.26180000  1.0 -0.0915840449
C  C37  1  0.70830000  0.41840000  0.98820000  1.0 -0.1314679906
C  C38  1  0.79170000  0.58160000  0.48820000  1.0 -0.1314679906
C  C39  1  0.29170000  0.91840000  0.51180000  1.0 -0.1314679906
C  C40  1  0.20830000  0.08160000  0.01180000  1.0 -0.1314679906
C  C41  1  0.98820000  0.70830000  0.41840000  1.0 -0.1314679906
C  C42  1  0.48820000  0.79170000  0.58160000  1.0 -0.1314679906
C  C43  1  0.51180000  0.29170000  0.91840000  1.0 -0.1314679906
C  C44  1  0.01180000  0.20830000  0.08160000  1.0 -0.1314679906
C  C45  1  0.41840000  0.98820000  0.70830000  1.0 -0.1314679906
C  C46  1  0.58160000  0.48820000  0.79170000  1.0 -0.1314679906
C  C47  1  0.91840000  0.51180000  0.29170000  1.0 -0.1314679906
C  C48  1  0.08160000  0.01180000  0.20830000  1.0 -0.1314679906
C  C49  1  0.70130000  0.42420000  0.93570000  1.0 0.0687028058
C  C50  1  0.79870000  0.57580000  0.43570000  1.0 0.0687028058
C  C51  1  0.29870000  0.92420000  0.56430000  1.0 0.0687028058
C  C52  1  0.20130000  0.07580000  0.06430000  1.0 0.0687028058
C  C53  1  0.93570000  0.70130000  0.42420000  1.0 0.0687028058
C  C54  1  0.43570000  0.79870000  0.57580000  1.0 0.0687028058
C  C55  1  0.56430000  0.29870000  0.92420000  1.0 0.0687028058
C  C56  1  0.06430000  0.20130000  0.07580000  1.0 0.0687028058
C  C57  1  0.42420000  0.93570000  0.70130000  1.0 0.0687028058
C  C58  1  0.57580000  0.43570000  0.79870000  1.0 0.0687028058
C  C59  1  0.92420000  0.56430000  0.29870000  1.0 0.0687028058
C  C60  1  0.07580000  0.06430000  0.20130000  1.0 0.0687028058
C  C61  1  0.73170000  0.45320000  0.91120000  1.0 -0.1385038874
C  C62  1  0.76830000  0.54680000  0.41120000  1.0 -0.1385038874
C  C63  1  0.26830000  0.95320000  0.58880000  1.0 -0.1385038874
C  C64  1  0.23170000  0.04680000  0.08880000  1.0 -0.1385038874
C  C65  1  0.91120000  0.73170000  0.45320000  1.0 -0.1385038874
C  C66  1  0.41120000  0.76830000  0.54680000  1.0 -0.1385038874
C  C67  1  0.58880000  0.26830000  0.95320000  1.0 -0.1385038874
C  C68  1  0.08880000  0.23170000  0.04680000  1.0 -0.1385038874
C  C69  1  0.45320000  0.91120000  0.73170000  1.0 -0.1385038874
C  C70  1  0.54680000  0.41120000  0.76830000  1.0 -0.1385038874
C  C71  1  0.95320000  0.58880000  0.26830000  1.0 -0.1385038874
C  C72  1  0.04680000  0.08880000  0.23170000  1.0 -0.1385038874
C  C73  1  0.77570000  0.46780000  0.93330000  1.0 -0.076740779
C  C74  1  0.72430000  0.53220000  0.43330000  1.0 -0.076740779
C  C75  1  0.22430000  0.96780000  0.56670000  1.0 -0.076740779
C  C76  1  0.27570000  0.03220000  0.06670000  1.0 -0.076740779
C  C77  1  0.93330000  0.77570000  0.46780000  1.0 -0.076740779
C  C78  1  0.43330000  0.72430000  0.53220000  1.0 -0.076740779
C  C79  1  0.56670000  0.22430000  0.96780000  1.0 -0.076740779
C  C80  1  0.06670000  0.27570000  0.03220000  1.0 -0.076740779
C  C81  1  0.46780000  0.93330000  0.77570000  1.0 -0.076740779
C  C82  1  0.53220000  0.43330000  0.72430000  1.0 -0.076740779
C  C83  1  0.96780000  0.56670000  0.22430000  1.0 -0.076740779
C  C84  1  0.03220000  0.06670000  0.27570000  1.0 -0.076740779
C  C85  1  0.65500000  0.40680000  0.91070000  1.0 0.0909046968
C  C86  1  0.84500000  0.59320000  0.41070000  1.0 0.0909046968
C  C87  1  0.34500000  0.90680000  0.58930000  1.0 0.0909046968
C  C88  1  0.15500000  0.09320000  0.08930000  1.0 0.0909046968
C  C89  1  0.91070000  0.65500000  0.40680000  1.0 0.0909046968
C  C90  1  0.41070000  0.84500000  0.59320000  1.0 0.0909046968
C  C91  1  0.58930000  0.34500000  0.90680000  1.0 0.0909046968
C  C92  1  0.08930000  0.15500000  0.09320000  1.0 0.0909046968
C  C93  1  0.40680000  0.91070000  0.65500000  1.0 0.0909046968
C  C94  1  0.59320000  0.41070000  0.84500000  1.0 0.0909046968
C  C95  1  0.90680000  0.58930000  0.34500000  1.0 0.0909046968
C  C96  1  0.09320000  0.08930000  0.15500000  1.0 0.0909046968
C  C97  1  0.63670000  0.42900000  0.87190000  1.0 -0.1838672882
C  C98  1  0.86330000  0.57100000  0.37190000  1.0 -0.1838672882
C  C99  1  0.36330000  0.92900000  0.62810000  1.0 -0.1838672882
C  C100  1  0.13670000  0.07100000  0.12810000  1.0 -0.1838672882
C  C101  1  0.87190000  0.63670000  0.42900000  1.0 -0.1838672882
C  C102  1  0.37190000  0.86330000  0.57100000  1.0 -0.1838672882
C  C103  1  0.62810000  0.36330000  0.92900000  1.0 -0.1838672882
C  C104  1  0.12810000  0.13670000  0.07100000  1.0 -0.1838672882
C  C105  1  0.42900000  0.87190000  0.63670000  1.0 -0.1838672882
C  C106  1  0.57100000  0.37190000  0.86330000  1.0 -0.1838672882
C  C107  1  0.92900000  0.62810000  0.36330000  1.0 -0.1838672882
C  C108  1  0.07100000  0.12810000  0.13670000  1.0 -0.1838672882
C  C109  1  0.94020000  0.61790000  0.93870000  1.0 0.6178297177
C  C110  1  0.55980000  0.38210000  0.43870000  1.0 0.6178297177
C  C111  1  0.05980000  0.11790000  0.56130000  1.0 0.6178297177
C  C112  1  0.44020000  0.88210000  0.06130000  1.0 0.6178297177
C  C113  1  0.93870000  0.94020000  0.61790000  1.0 0.6178297177
C  C114  1  0.43870000  0.55980000  0.38210000  1.0 0.6178297177
C  C115  1  0.56130000  0.05980000  0.11790000  1.0 0.6178297177
C  C116  1  0.06130000  0.44020000  0.88210000  1.0 0.6178297177
C  C117  1  0.61790000  0.93870000  0.94020000  1.0 0.6178297177
C  C118  1  0.38210000  0.43870000  0.55980000  1.0 0.6178297177
C  C119  1  0.11790000  0.56130000  0.05980000  1.0 0.6178297177
C  C120  1  0.88210000  0.06130000  0.44020000  1.0 0.6178297177
C  C121  1  0.91820000  0.66490000  0.92000000  1.0 -0.0328605659
C  C122  1  0.58180000  0.33510000  0.42000000  1.0 -0.0328605659
C  C123  1  0.08180000  0.16490000  0.58000000  1.0 -0.0328605659
C  C124  1  0.41820000  0.83510000  0.08000000  1.0 -0.0328605659
C  C125  1  0.92000000  0.91820000  0.66490000  1.0 -0.0328605659
C  C126  1  0.42000000  0.58180000  0.33510000  1.0 -0.0328605659
C  C127  1  0.58000000  0.08180000  0.16490000  1.0 -0.0328605659
C  C128  1  0.08000000  0.41820000  0.83510000  1.0 -0.0328605659
C  C129  1  0.66490000  0.92000000  0.91820000  1.0 -0.0328605659
C  C130  1  0.33510000  0.42000000  0.58180000  1.0 -0.0328605659
C  C131  1  0.16490000  0.58000000  0.08180000  1.0 -0.0328605659
C  C132  1  0.83510000  0.08000000  0.41820000  1.0 -0.0328605659
C  C133  1  0.87020000  0.67570000  0.92510000  1.0 -0.097996531
C  C134  1  0.62980000  0.32430000  0.42510000  1.0 -0.097996531
C  C135  1  0.12980000  0.17570000  0.57490000  1.0 -0.097996531
C  C136  1  0.37020000  0.82430000  0.07490000  1.0 -0.0915840449
C  C137  1  0.92510000  0.87020000  0.67570000  1.0 -0.097996531
C  C138  1  0.42510000  0.62980000  0.32430000  1.0 -0.097996531
C  C139  1  0.57490000  0.12980000  0.17570000  1.0 -0.097996531
C  C140  1  0.07490000  0.37020000  0.82430000  1.0 -0.097996531
C  C141  1  0.67570000  0.92510000  0.87020000  1.0 -0.097996531
C  C142  1  0.32430000  0.42510000  0.62980000  1.0 -0.097996531
C  C143  1  0.17570000  0.57490000  0.12980000  1.0 -0.097996531
C  C144  1  0.82430000  0.07490000  0.37020000  1.0 -0.097996531
C  C145  1  0.85140000  0.71640000  0.90920000  1.0 -0.1385038874
C  C146  1  0.64860000  0.28360000  0.40920000  1.0 -0.1385038874
C  C147  1  0.14860000  0.21640000  0.59080000  1.0 -0.1385038874
C  C148  1  0.35140000  0.78360000  0.09080000  1.0 -0.1385038874
C  C149  1  0.90920000  0.85140000  0.71640000  1.0 -0.1385038874
C  C150  1  0.40920000  0.64860000  0.28360000  1.0 -0.1385038874
C  C151  1  0.59080000  0.14860000  0.21640000  1.0 -0.1385038874
C  C152  1  0.09080000  0.35140000  0.78360000  1.0 -0.1385038874
C  C153  1  0.71640000  0.90920000  0.85140000  1.0 -0.1385038874
C  C154  1  0.28360000  0.40920000  0.64860000  1.0 -0.1385038874
C  C155  1  0.21640000  0.59080000  0.14860000  1.0 -0.1385038874
C  C156  1  0.78360000  0.09080000  0.35140000  1.0 -0.1385038874
C  C157  1  0.88170000  0.74900000  0.88090000  1.0 0.0589628154
C  C158  1  0.61830000  0.25100000  0.38090000  1.0 0.0589628154
C  C159  1  0.11830000  0.24900000  0.61910000  1.0 0.0589628154
C  C160  1  0.38170000  0.75100000  0.11910000  1.0 0.0589628154
C  C161  1  0.88090000  0.88170000  0.74900000  1.0 0.0589628154
C  C162  1  0.38090000  0.61830000  0.25100000  1.0 0.0589628154
C  C163  1  0.61910000  0.11830000  0.24900000  1.0 0.0589628154
C  C164  1  0.11910000  0.38170000  0.75100000  1.0 0.0589628154
C  C165  1  0.74900000  0.88090000  0.88170000  1.0 0.0589628154
C  C166  1  0.25100000  0.38090000  0.61830000  1.0 0.0589628154
C  C167  1  0.24900000  0.61910000  0.11830000  1.0 0.0589628154
C  C168  1  0.75100000  0.11910000  0.38170000  1.0 0.0589628154
C  C169  1  0.92910000  0.73880000  0.87710000  1.0 -0.1158655447
C  C170  1  0.57090000  0.26120000  0.37710000  1.0 -0.1158655447
C  C171  1  0.07090000  0.23880000  0.62290000  1.0 -0.1158655447
C  C172  1  0.42910000  0.76120000  0.12290000  1.0 -0.1158655447
C  C173  1  0.87710000  0.92910000  0.73880000  1.0 -0.1158655447
C  C174  1  0.37710000  0.57090000  0.26120000  1.0 -0.1158655447
C  C175  1  0.62290000  0.07090000  0.23880000  1.0 -0.1158655447
C  C176  1  0.12290000  0.42910000  0.76120000  1.0 -0.1158655447
C  C177  1  0.73880000  0.87710000  0.92910000  1.0 -0.1158655447
C  C178  1  0.26120000  0.37710000  0.57090000  1.0 -0.1158655447
C  C179  1  0.23880000  0.62290000  0.07090000  1.0 -0.1158655447
C  C180  1  0.76120000  0.12290000  0.42910000  1.0 -0.1158655447
C  C181  1  0.94500000  0.69720000  0.89390000  1.0 -0.097996531
C  C182  1  0.55500000  0.30280000  0.39390000  1.0 -0.097996531
C  C183  1  0.05500000  0.19720000  0.60610000  1.0 -0.097996531
C  C184  1  0.44500000  0.80280000  0.10610000  1.0 -0.097996531
C  C185  1  0.89390000  0.94500000  0.69720000  1.0 -0.097996531
C  C186  1  0.39390000  0.55500000  0.30280000  1.0 -0.097996531
C  C187  1  0.60610000  0.05500000  0.19720000  1.0 -0.097996531
C  C188  1  0.10610000  0.44500000  0.80280000  1.0 -0.097996531
C  C189  1  0.69720000  0.89390000  0.94500000  1.0 -0.097996531
C  C190  1  0.30280000  0.39390000  0.55500000  1.0 -0.097996531
C  C191  1  0.19720000  0.60610000  0.05500000  1.0 -0.097996531
C  C192  1  0.80280000  0.10610000  0.44500000  1.0 -0.097996531
C  C193  1  0.86090000  0.79870000  0.86010000  1.0 0.0909046968
C  C194  1  0.63910000  0.20130000  0.36010000  1.0 0.0909046968
C  C195  1  0.13910000  0.29870000  0.63990000  1.0 0.0909046968
C  C196  1  0.36090000  0.70130000  0.13990000  1.0 0.0909046968
C  C197  1  0.86010000  0.86090000  0.79870000  1.0 0.0909046968
C  C198  1  0.36010000  0.63910000  0.20130000  1.0 0.0909046968
C  C199  1  0.63990000  0.13910000  0.29870000  1.0 0.0909046968
C  C200  1  0.13990000  0.36090000  0.70130000  1.0 0.0909046968
C  C201  1  0.79870000  0.86010000  0.86090000  1.0 0.0909046968
C  C202  1  0.20130000  0.36010000  0.63910000  1.0 0.0909046968
C  C203  1  0.29870000  0.63990000  0.13910000  1.0 0.0909046968
C  C204  1  0.70130000  0.13990000  0.36090000  1.0 0.0909046968
C  C205  1  0.81900000  0.81960000  0.87920000  1.0 -0.2052359209
C  C206  1  0.68100000  0.18040000  0.37920000  1.0 -0.2039172396
C  C207  1  0.18100000  0.31960000  0.62080000  1.0 -0.2039172396
C  C208  1  0.31900000  0.68040000  0.12080000  1.0 -0.2039172396
C  C209  1  0.87920000  0.81900000  0.81960000  1.0 -0.2052359209
C  C210  1  0.37920000  0.68100000  0.18040000  1.0 -0.2039172396
C  C211  1  0.62080000  0.18100000  0.31960000  1.0 -0.2039172396
C  C212  1  0.12080000  0.31900000  0.68040000  1.0 -0.2039172396
C  C213  1  0.81960000  0.87920000  0.81900000  1.0 -0.2052359209
C  C214  1  0.18040000  0.37920000  0.68100000  1.0 -0.2039172396
C  C215  1  0.31960000  0.62080000  0.18100000  1.0 -0.2039172396
C  C216  1  0.68040000  0.12080000  0.31900000  1.0 -0.2039172396
C  C217  1  0.87000000  0.62370000  0.14810000  1.0 -0.0915840449
C  C218  1  0.63000000  0.37630000  0.64810000  1.0 -0.0915840449
C  C219  1  0.13000000  0.12370000  0.35190000  1.0 -0.0915840449
C  C220  1  0.37000000  0.87630000  0.85190000  1.0 -0.0915840449
C  C221  1  0.14810000  0.87000000  0.62370000  1.0 -0.0915840449
C  C222  1  0.64810000  0.63000000  0.37630000  1.0 -0.0915840449
C  C223  1  0.35190000  0.13000000  0.12370000  1.0 -0.0915840449
C  C224  1  0.85190000  0.37000000  0.87630000  1.0 -0.0915840449
C  C225  1  0.62370000  0.14810000  0.87000000  1.0 -0.0915840449
C  C226  1  0.37630000  0.64810000  0.63000000  1.0 -0.0915840449
C  C227  1  0.12370000  0.35190000  0.13000000  1.0 -0.0915840449
C  C228  1  0.87630000  0.85190000  0.37000000  1.0 -0.0915840449
C  C229  1  0.87690000  0.54110000  0.10640000  1.0 0.5884091407
C  C230  1  0.62310000  0.45890000  0.60640000  1.0 0.5884091407
C  C231  1  0.12310000  0.04110000  0.39360000  1.0 0.5884091407
C  C232  1  0.37690000  0.95890000  0.89360000  1.0 0.5884091407
C  C233  1  0.10640000  0.87690000  0.54110000  1.0 0.5884091407
C  C234  1  0.60640000  0.62310000  0.45890000  1.0 0.5884091407
C  C235  1  0.39360000  0.12310000  0.04110000  1.0 0.5884091407
C  C236  1  0.89360000  0.37690000  0.95890000  1.0 0.5884091407
C  C237  1  0.54110000  0.10640000  0.87690000  1.0 0.5884091407
C  C238  1  0.45890000  0.60640000  0.62310000  1.0 0.5884091407
C  C239  1  0.04110000  0.39360000  0.12310000  1.0 0.5884091407
C  C240  1  0.95890000  0.89360000  0.37690000  1.0 0.5884091407
C  C241  1  0.81670000  0.67750000  0.25660000  1.0 0.1028355546
C  C242  1  0.68330000  0.32250000  0.75660000  1.0 0.1028355546
C  C243  1  0.18330000  0.17750000  0.24340000  1.0 0.1028355546
C  C244  1  0.31670000  0.82250000  0.74340000  1.0 0.1028355546
C  C245  1  0.25660000  0.81670000  0.67750000  1.0 0.1028355546
C  C246  1  0.75660000  0.68330000  0.32250000  1.0 0.1028355546
C  C247  1  0.24340000  0.18330000  0.17750000  1.0 0.1028355546
C  C248  1  0.74340000  0.31670000  0.82250000  1.0 0.1028355546
C  C249  1  0.67750000  0.25660000  0.81670000  1.0 0.1028355546
C  C250  1  0.32250000  0.75660000  0.68330000  1.0 0.1028355546
C  C251  1  0.17750000  0.24340000  0.18330000  1.0 0.1028355546
C  C252  1  0.82250000  0.74340000  0.31670000  1.0 0.1028355546
C  C253  1  0.84420000  0.71810000  0.27690000  1.0 -0.2432330077
C  C254  1  0.65580000  0.28190000  0.77690000  1.0 -0.2432330077
C  C255  1  0.15580000  0.21810000  0.22310000  1.0 -0.2432330077
C  C256  1  0.34420000  0.78190000  0.72310000  1.0 -0.2432330077
C  C257  1  0.27690000  0.84420000  0.71810000  1.0 -0.2432330077
C  C258  1  0.77690000  0.65580000  0.28190000  1.0 -0.2432330077
C  C259  1  0.22310000  0.15580000  0.21810000  1.0 -0.2432330077
C  C260  1  0.72310000  0.34420000  0.78190000  1.0 -0.2432330077
C  C261  1  0.71810000  0.27690000  0.84420000  1.0 -0.2432330077
C  C262  1  0.28190000  0.77690000  0.65580000  1.0 -0.2432330077
C  C263  1  0.21810000  0.22310000  0.15580000  1.0 -0.2432330077
C  C264  1  0.78190000  0.72310000  0.34420000  1.0 -0.2432330077
C  C265  1  0.86150000  0.57170000  0.14650000  1.0 -0.0915840449
C  C266  1  0.63850000  0.42830000  0.64650000  1.0 -0.0915840449
C  C267  1  0.13850000  0.07170000  0.35350000  1.0 -0.0915840449
C  C268  1  0.36150000  0.92830000  0.85350000  1.0 -0.0915840449
C  C269  1  0.14650000  0.86150000  0.57170000  1.0 -0.0915840449
C  C270  1  0.64650000  0.63850000  0.42830000  1.0 -0.0915840449
C  C271  1  0.35350000  0.13850000  0.07170000  1.0 -0.0915840449
C  C272  1  0.85350000  0.36150000  0.92830000  1.0 -0.0915840449
C  C273  1  0.57170000  0.14650000  0.86150000  1.0 -0.0915840449
C  C274  1  0.42830000  0.64650000  0.63850000  1.0 -0.0915840449
C  C275  1  0.07170000  0.35350000  0.13850000  1.0 -0.0915840449
C  C276  1  0.92830000  0.85350000  0.36150000  1.0 -0.0915840449
C  C277  1  0.83680000  0.54600000  0.18510000  1.0 -0.0915840449
C  C278  1  0.66320000  0.45400000  0.68510000  1.0 -0.0915840449
C  C279  1  0.16320000  0.04600000  0.31490000  1.0 -0.0915840449
C  C280  1  0.33680000  0.95400000  0.81490000  1.0 -0.0915840449
C  C281  1  0.18510000  0.83680000  0.54600000  1.0 -0.0915840449
C  C282  1  0.68510000  0.66320000  0.45400000  1.0 -0.0915840449
C  C283  1  0.31490000  0.16320000  0.04600000  1.0 -0.0915840449
C  C284  1  0.81490000  0.33680000  0.95400000  1.0 -0.0915840449
C  C285  1  0.54600000  0.18510000  0.83680000  1.0 -0.0915840449
C  C286  1  0.45400000  0.68510000  0.66320000  1.0 -0.0915840449
C  C287  1  0.04600000  0.31490000  0.16320000  1.0 -0.0915840449
C  C288  1  0.95400000  0.81490000  0.33680000  1.0 -0.0915840449
C  C289  1  0.85820000  0.66140000  0.18380000  1.0 -0.1838672882
C  C290  1  0.64180000  0.33860000  0.68380000  1.0 -0.1838672882
C  C291  1  0.14180000  0.16140000  0.31620000  1.0 -0.1838672882
C  C292  1  0.35820000  0.83860000  0.81620000  1.0 -0.1838672882
C  C293  1  0.18380000  0.85820000  0.66140000  1.0 -0.1838672882
C  C294  1  0.68380000  0.64180000  0.33860000  1.0 -0.1838672882
C  C295  1  0.31620000  0.14180000  0.16140000  1.0 -0.1838672882
C  C296  1  0.81620000  0.35820000  0.83860000  1.0 -0.1838672882
C  C297  1  0.66140000  0.18380000  0.85820000  1.0 -0.1838672882
C  C298  1  0.33860000  0.68380000  0.64180000  1.0 -0.1838672882
C  C299  1  0.16140000  0.31620000  0.14180000  1.0 -0.1838672882
C  C300  1  0.83860000  0.81620000  0.35820000  1.0 -0.1838672882
C  C301  1  0.83380000  0.63430000  0.22120000  1.0 0.0687028058
C  C302  1  0.66620000  0.36570000  0.72120000  1.0 0.0687028058
C  C303  1  0.16620000  0.13430000  0.27880000  1.0 0.0687028058
C  C304  1  0.33380000  0.86570000  0.77880000  1.0 0.0687028058
C  C305  1  0.22120000  0.83380000  0.63430000  1.0 0.0687028058
C  C306  1  0.72120000  0.66620000  0.36570000  1.0 0.0687028058
C  C307  1  0.27880000  0.16620000  0.13430000  1.0 0.0687028058
C  C308  1  0.77880000  0.33380000  0.86570000  1.0 0.0687028058
C  C309  1  0.63430000  0.22120000  0.83380000  1.0 0.0687028058
C  C310  1  0.36570000  0.72120000  0.66620000  1.0 0.0687028058
C  C311  1  0.13430000  0.27880000  0.16620000  1.0 0.0687028058
C  C312  1  0.86570000  0.77880000  0.33380000  1.0 0.0687028058
C  C313  1  0.82460000  0.58240000  0.22110000  1.0 -0.194651343
C  C314  1  0.67540000  0.41760000  0.72110000  1.0 -0.194651343
C  C315  1  0.17540000  0.08240000  0.27890000  1.0 -0.194651343
C  C316  1  0.32460000  0.91760000  0.77890000  1.0 -0.194651343
C  C317  1  0.22110000  0.82460000  0.58240000  1.0 -0.194651343
C  C318  1  0.72110000  0.67540000  0.41760000  1.0 -0.194651343
C  C319  1  0.27890000  0.17540000  0.08240000  1.0 -0.194651343
C  C320  1  0.77890000  0.32460000  0.91760000  1.0 -0.194651343
C  C321  1  0.58240000  0.22110000  0.82460000  1.0 -0.194651343
C  C322  1  0.41760000  0.72110000  0.67540000  1.0 -0.194651343
C  C323  1  0.08240000  0.27890000  0.17540000  1.0 -0.2039172396
C  C324  1  0.91760000  0.77890000  0.32460000  1.0 -0.194651343
O  O1  1  0.96137000  0.46137000  0.03863000  1.0 -1.1107379422
O  O2  1  0.53863000  0.53863000  0.53863000  1.0 -1.1107379422
O  O3  1  0.03863000  0.96137000  0.46137000  1.0 -1.1107379422
O  O4  1  0.46137000  0.03863000  0.96137000  1.0 -1.1107379422
O  O5  1  0.00139000  0.55572000  0.02685000  1.0 -0.9674676434
O  O6  1  0.49861000  0.44428000  0.52685000  1.0 -0.9674676434
O  O7  1  0.99861000  0.05572000  0.47315000  1.0 -0.9674676434
O  O8  1  0.50139000  0.94428000  0.97315000  1.0 -0.9674676434
O  O9  1  0.02685000  0.00139000  0.55572000  1.0 -0.9674676434
O  O10  1  0.52685000  0.49861000  0.44428000  1.0 -0.9674676434
O  O11  1  0.47315000  0.99861000  0.05572000  1.0 -0.9674676434
O  O12  1  0.97315000  0.50139000  0.94428000  1.0 -0.9674676434
O  O13  1  0.55572000  0.02685000  0.00139000  1.0 -0.9674676434
O  O14  1  0.44428000  0.52685000  0.49861000  1.0 -0.9674676434
O  O15  1  0.05572000  0.47315000  0.99861000  1.0 -0.9674676434
O  O16  1  0.94428000  0.97315000  0.50139000  1.0 -0.9674676434
O  O17  1  0.86260000  0.49650000  0.97780000  1.0 -0.4418485289
O  O18  1  0.63740000  0.50350000  0.47780000  1.0 -0.4418485289
O  O19  1  0.13740000  0.99650000  0.52220000  1.0 -0.4418485289
O  O20  1  0.36260000  0.00350000  0.02220000  1.0 -0.4418485289
O  O21  1  0.97780000  0.86260000  0.49650000  1.0 -0.4418485289
O  O22  1  0.47780000  0.63740000  0.50350000  1.0 -0.4418485289
O  O23  1  0.52220000  0.13740000  0.99650000  1.0 -0.4418485289
O  O24  1  0.02220000  0.36260000  0.00350000  1.0 -0.4418485289
O  O25  1  0.49650000  0.97780000  0.86260000  1.0 -0.4418485289
O  O26  1  0.50350000  0.47780000  0.63740000  1.0 -0.4418485289
O  O27  1  0.99650000  0.52220000  0.13740000  1.0 -0.4418485289
O  O28  1  0.00350000  0.02220000  0.36260000  1.0 -0.4418485289
O  O29  1  0.84370000  0.45690000  0.04380000  1.0 -0.5871118829
O  O30  1  0.65630000  0.54310000  0.54380000  1.0 -0.5871118829
O  O31  1  0.15630000  0.95690000  0.45620000  1.0 -0.5871118829
O  O32  1  0.34370000  0.04310000  0.95620000  1.0 -0.5871118829
O  O33  1  0.04380000  0.84370000  0.45690000  1.0 -0.5871118829
O  O34  1  0.54380000  0.65630000  0.54310000  1.0 -0.5871118829
O  O35  1  0.45620000  0.15630000  0.95690000  1.0 -0.5871118829
O  O36  1  0.95620000  0.34370000  0.04310000  1.0 -0.5871118829
O  O37  1  0.45690000  0.04380000  0.84370000  1.0 -0.5871118829
O  O38  1  0.54310000  0.54380000  0.65630000  1.0 -0.5871118829
O  O39  1  0.95690000  0.45620000  0.15630000  1.0 -0.5871118829
O  O40  1  0.04310000  0.95620000  0.34370000  1.0 -0.5871118829
O  O41  1  0.98485000  0.61104000  0.93690000  1.0 -0.6105503962
O  O42  1  0.51515000  0.38896000  0.43690000  1.0 -0.6105503962
O  O43  1  0.01515000  0.11104000  0.56310000  1.0 -0.6105503962
O  O44  1  0.48485000  0.88896000  0.06310000  1.0 -0.6105503962
O  O45  1  0.93690000  0.98485000  0.61104000  1.0 -0.6105503962
O  O46  1  0.43690000  0.51515000  0.38896000  1.0 -0.6105503962
O  O47  1  0.56310000  0.01515000  0.11104000  1.0 -0.6105503962
O  O48  1  0.06310000  0.48485000  0.88896000  1.0 -0.6105503962
O  O49  1  0.61104000  0.93690000  0.98485000  1.0 -0.6105503962
O  O50  1  0.38896000  0.43690000  0.51515000  1.0 -0.6105503962
O  O51  1  0.11104000  0.56310000  0.01515000  1.0 -0.6105503962
O  O52  1  0.88896000  0.06310000  0.48485000  1.0 -0.6105503962
O  O53  1  0.90850000  0.59050000  0.96600000  1.0 -0.5546291158
O  O54  1  0.59150000  0.40950000  0.46600000  1.0 -0.5557136085
O  O55  1  0.09150000  0.09050000  0.53400000  1.0 -0.5557136085
O  O56  1  0.40850000  0.90950000  0.03400000  1.0 -0.5546291158
O  O57  1  0.96600000  0.90850000  0.59050000  1.0 -0.5546291158
O  O58  1  0.46600000  0.59150000  0.40950000  1.0 -0.5557136085
O  O59  1  0.53400000  0.09150000  0.09050000  1.0 -0.5557136085
O  O60  1  0.03400000  0.40850000  0.90950000  1.0 -0.5557136085
O  O61  1  0.59050000  0.96600000  0.90850000  1.0 -0.5546291158
O  O62  1  0.40950000  0.46600000  0.59150000  1.0 -0.5557136085
O  O63  1  0.09050000  0.53400000  0.09150000  1.0 -0.5546291158
O  O64  1  0.90950000  0.03400000  0.40850000  1.0 -0.5557136085
O  O65  1  0.88610000  0.49160000  0.12370000  1.0 -0.7535603121
O  O66  1  0.61390000  0.50840000  0.62370000  1.0 -0.7535603121
O  O67  1  0.11390000  0.99160000  0.37630000  1.0 -0.7535603121
O  O68  1  0.38610000  0.00840000  0.87630000  1.0 -0.7535603121
O  O69  1  0.12370000  0.88610000  0.49160000  1.0 -0.7535603121
O  O70  1  0.62370000  0.61390000  0.50840000  1.0 -0.7535603121
O  O71  1  0.37630000  0.11390000  0.99160000  1.0 -0.7535603121
O  O72  1  0.87630000  0.38610000  0.00840000  1.0 -0.7535603121
O  O73  1  0.49160000  0.12370000  0.88610000  1.0 -0.7535603121
O  O74  1  0.50840000  0.62370000  0.61390000  1.0 -0.7535603121
O  O75  1  0.99160000  0.37630000  0.11390000  1.0 -0.7535603121
O  O76  1  0.00840000  0.87630000  0.38610000  1.0 -0.7535603121
O  O77  1  0.89650000  0.56200000  0.06800000  1.0 -0.5557136085
O  O78  1  0.60350000  0.43800000  0.56800000  1.0 -0.5557136085
O  O79  1  0.10350000  0.06200000  0.43200000  1.0 -0.5557136085
O  O80  1  0.39650000  0.93800000  0.93200000  1.0 -0.5557136085
O  O81  1  0.06800000  0.89650000  0.56200000  1.0 -0.5557136085
O  O82  1  0.56800000  0.60350000  0.43800000  1.0 -0.5557136085
O  O83  1  0.43200000  0.10350000  0.06200000  1.0 -0.5557136085
O  O84  1  0.93200000  0.39650000  0.93800000  1.0 -0.5557136085
O  O85  1  0.56200000  0.06800000  0.89650000  1.0 -0.5557136085
O  O86  1  0.43800000  0.56800000  0.60350000  1.0 -0.5557136085
O  O87  1  0.06200000  0.43200000  0.10350000  1.0 -0.5557136085
O  O88  1  0.93800000  0.93200000  0.39650000  1.0 -0.5557136085
