# DDEC6 charges by PACMAN v1.1 (https://github.com/mtap-research/PACMAN-charge/)
data_WAVRIW_ASR_pacman
_symmetry_space_group_name_H-M   'P 1'
_cell_length_a   22.34270000
_cell_length_b   22.34270000
_cell_length_c   22.34270000
_cell_angle_alpha   108.29200000
_cell_angle_beta   108.29200000
_cell_angle_gamma   108.29200000
_symmetry_Int_Tables_number   1
_chemical_formula_structural   InCuH22C41O9
_chemical_formula_sum   'In6 Cu6 H132 C246 O54'
_cell_volume   8941.10097730
_cell_formula_units_Z   6
loop_
 _symmetry_equiv_pos_site_id
 _symmetry_equiv_pos_as_xyz
  1  'x, y, z'
loop_
 _atom_site_type_symbol
 _atom_site_label
 _atom_site_symmetry_multiplicity
 _atom_site_fract_x
 _atom_site_fract_y
 _atom_site_fract_z
 _atom_site_occupancy
 _atom_site_charge
In  In1  1  0.97776000  0.37422000  0.86757000  1.0 1.4087451737
In  In2  1  0.37422000  0.86757000  0.97776000  1.0 1.4087451737
In  In3  1  0.86757000  0.97776000  0.37422000  1.0 1.4087451737
In  In4  1  0.02224000  0.62578000  0.13243000  1.0 1.4087451737
In  In5  1  0.62578000  0.13243000  0.02224000  1.0 1.4087451737
In  In6  1  0.13243000  0.02224000  0.62578000  1.0 1.4087451737
Cu  Cu1  1  0.02136000  0.54709000  0.96859000  1.0 0.91308738
Cu  Cu2  1  0.54709000  0.96859000  0.02136000  1.0 0.91308738
Cu  Cu3  1  0.96859000  0.02136000  0.54709000  1.0 0.91308738
Cu  Cu4  1  0.97864000  0.45291000  0.03141000  1.0 0.9161764026
Cu  Cu5  1  0.45291000  0.03141000  0.97864000  1.0 0.91308738
Cu  Cu6  1  0.03141000  0.97864000  0.45291000  1.0 0.91308738
H  H1  1  0.99800000  0.30300000  0.08640000  1.0 0.1195657128
H  H2  1  0.30300000  0.08640000  0.99800000  1.0 0.1195657128
H  H3  1  0.08640000  0.99800000  0.30300000  1.0 0.1195657128
H  H4  1  0.00200000  0.69700000  0.91360000  1.0 0.1195657128
H  H5  1  0.69700000  0.91360000  0.00200000  1.0 0.1195657128
H  H6  1  0.91360000  0.00200000  0.69700000  1.0 0.1195657128
H  H7  1  0.02720000  0.22380000  0.12110000  1.0 0.1195657128
H  H8  1  0.22380000  0.12110000  0.02720000  1.0 0.1195657128
H  H9  1  0.12110000  0.02720000  0.22380000  1.0 0.1195657128
H  H10  1  0.97280000  0.77620000  0.87890000  1.0 0.1195657128
H  H11  1  0.77620000  0.87890000  0.97280000  1.0 0.1195657128
H  H12  1  0.87890000  0.97280000  0.77620000  1.0 0.1195657128
H  H13  1  0.01220000  0.12230000  0.93100000  1.0 0.1106567837
H  H14  1  0.12230000  0.93100000  0.01220000  1.0 0.1106567837
H  H15  1  0.93100000  0.01220000  0.12230000  1.0 0.1106567837
H  H16  1  0.98780000  0.87770000  0.06900000  1.0 0.1106567837
H  H17  1  0.87770000  0.06900000  0.98780000  1.0 0.1106567837
H  H18  1  0.06900000  0.98780000  0.87770000  1.0 0.1106567837
H  H19  1  0.98050000  0.19900000  0.89740000  1.0 0.1195657128
H  H20  1  0.19900000  0.89740000  0.98050000  1.0 0.1195657128
H  H21  1  0.89740000  0.98050000  0.19900000  1.0 0.1195657128
H  H22  1  0.01950000  0.80100000  0.10260000  1.0 0.1195657128
H  H23  1  0.80100000  0.10260000  0.01950000  1.0 0.1195657128
H  H24  1  0.10260000  0.01950000  0.80100000  1.0 0.1195657128
H  H25  1  0.11110000  0.11480000  0.00490000  1.0 0.1195657128
H  H26  1  0.11480000  0.00490000  0.11110000  1.0 0.1195657128
H  H27  1  0.00490000  0.11110000  0.11480000  1.0 0.1195657128
H  H28  1  0.88890000  0.88520000  0.99510000  1.0 0.1195657128
H  H29  1  0.88520000  0.99510000  0.88890000  1.0 0.1195657128
H  H30  1  0.99510000  0.88890000  0.88520000  1.0 0.1195657128
H  H31  1  0.95030000  0.74650000  0.41190000  1.0 0.1195657128
H  H32  1  0.74650000  0.41190000  0.95030000  1.0 0.1195657128
H  H33  1  0.41190000  0.95030000  0.74650000  1.0 0.1195657128
H  H34  1  0.04970000  0.25350000  0.58810000  1.0 0.1195657128
H  H35  1  0.25350000  0.58810000  0.04970000  1.0 0.1195657128
H  H36  1  0.58810000  0.04970000  0.25350000  1.0 0.1195657128
H  H37  1  0.93120000  0.63520000  0.40280000  1.0 0.1017569344
H  H38  1  0.63520000  0.40280000  0.93120000  1.0 0.1017569344
H  H39  1  0.40280000  0.93120000  0.63520000  1.0 0.1017569344
H  H40  1  0.06880000  0.36480000  0.59720000  1.0 0.1017569344
H  H41  1  0.36480000  0.59720000  0.06880000  1.0 0.1017569344
H  H42  1  0.59720000  0.06880000  0.36480000  1.0 0.1017569344
H  H43  1  0.03370000  0.71820000  0.60100000  1.0 0.1017569344
H  H44  1  0.71820000  0.60100000  0.03370000  1.0 0.1017569344
H  H45  1  0.60100000  0.03370000  0.71820000  1.0 0.1017569344
H  H46  1  0.96630000  0.28180000  0.39900000  1.0 0.1017569344
H  H47  1  0.28180000  0.39900000  0.96630000  1.0 0.1017569344
H  H48  1  0.39900000  0.96630000  0.28180000  1.0 0.1017569344
H  H49  1  0.88760000  0.53510000  0.40070000  1.0 0.1106567837
H  H50  1  0.53510000  0.40070000  0.88760000  1.0 0.1106567837
H  H51  1  0.40070000  0.88760000  0.53510000  1.0 0.1106567837
H  H52  1  0.11240000  0.46490000  0.59930000  1.0 0.1106567837
H  H53  1  0.46490000  0.59930000  0.11240000  1.0 0.1106567837
H  H54  1  0.59930000  0.11240000  0.46490000  1.0 0.1106567837
H  H55  1  0.88870000  0.41880000  0.50450000  1.0 0.1106567837
H  H56  1  0.41880000  0.50450000  0.88870000  1.0 0.1106567837
H  H57  1  0.50450000  0.88870000  0.41880000  1.0 0.1106567837
H  H58  1  0.11130000  0.58120000  0.49550000  1.0 0.1106567837
H  H59  1  0.58120000  0.49550000  0.11130000  1.0 0.1106567837
H  H60  1  0.49550000  0.11130000  0.58120000  1.0 0.1106567837
H  H61  1  0.00350000  0.62670000  0.60780000  1.0 0.1106567837
H  H62  1  0.62670000  0.60780000  0.00350000  1.0 0.1106567837
H  H63  1  0.60780000  0.00350000  0.62670000  1.0 0.1106567837
H  H64  1  0.99650000  0.37330000  0.39220000  1.0 0.1106567837
H  H65  1  0.37330000  0.39220000  0.99650000  1.0 0.1106567837
H  H66  1  0.39220000  0.99650000  0.37330000  1.0 0.1106567837
H  H67  1  0.86940000  0.42670000  0.30890000  1.0 0.1106567837
H  H68  1  0.42670000  0.30890000  0.86940000  1.0 0.1106567837
H  H69  1  0.30890000  0.86940000  0.42670000  1.0 0.1106567837
H  H70  1  0.13060000  0.57330000  0.69110000  1.0 0.1106567837
H  H71  1  0.57330000  0.69110000  0.13060000  1.0 0.1106567837
H  H72  1  0.69110000  0.13060000  0.57330000  1.0 0.1106567837
H  H73  1  0.78230000  0.32520000  0.20440000  1.0 0.1195657128
H  H74  1  0.32520000  0.20440000  0.78230000  1.0 0.1195657128
H  H75  1  0.20440000  0.78230000  0.32520000  1.0 0.1195657128
H  H76  1  0.21770000  0.67480000  0.79560000  1.0 0.1195657128
H  H77  1  0.67480000  0.79560000  0.21770000  1.0 0.1195657128
H  H78  1  0.79560000  0.21770000  0.67480000  1.0 0.1195657128
H  H79  1  0.69680000  0.24670000  0.30660000  1.0 0.1106567837
H  H80  1  0.24670000  0.30660000  0.69680000  1.0 0.1106567837
H  H81  1  0.30660000  0.69680000  0.24670000  1.0 0.1106567837
H  H82  1  0.30320000  0.75330000  0.69340000  1.0 0.1106567837
H  H83  1  0.75330000  0.69340000  0.30320000  1.0 0.1106567837
H  H84  1  0.69340000  0.30320000  0.75330000  1.0 0.1106567837
H  H85  1  0.77520000  0.34510000  0.41180000  1.0 0.1195657128
H  H86  1  0.34510000  0.41180000  0.77520000  1.0 0.1195657128
H  H87  1  0.41180000  0.77520000  0.34510000  1.0 0.1195657128
H  H88  1  0.22480000  0.65490000  0.58820000  1.0 0.1195657128
H  H89  1  0.65490000  0.58820000  0.22480000  1.0 0.1195657128
H  H90  1  0.58820000  0.22480000  0.65490000  1.0 0.1195657128
H  H91  1  0.97460000  0.42620000  0.60050000  1.0 0.1106567837
H  H92  1  0.42620000  0.60050000  0.97460000  1.0 0.1106567837
H  H93  1  0.60050000  0.97460000  0.42620000  1.0 0.1106567837
H  H94  1  0.02540000  0.57380000  0.39950000  1.0 0.1106567837
H  H95  1  0.57380000  0.39950000  0.02540000  1.0 0.1106567837
H  H96  1  0.39950000  0.02540000  0.57380000  1.0 0.1106567837
H  H97  1  0.99600000  0.41490000  0.70140000  1.0 0.1106567837
H  H98  1  0.41490000  0.70140000  0.99600000  1.0 0.1106567837
H  H99  1  0.70140000  0.99600000  0.41490000  1.0 0.1106567837
H  H100  1  0.00400000  0.58510000  0.29860000  1.0 0.1106567837
H  H101  1  0.58510000  0.29860000  0.00400000  1.0 0.1106567837
H  H102  1  0.29860000  0.00400000  0.58510000  1.0 0.1106567837
H  H103  1  0.98210000  0.59440000  0.79500000  1.0 0.1106567837
H  H104  1  0.59440000  0.79500000  0.98210000  1.0 0.1106567837
H  H105  1  0.79500000  0.98210000  0.59440000  1.0 0.1106567837
H  H106  1  0.01790000  0.40560000  0.20500000  1.0 0.1106567837
H  H107  1  0.40560000  0.20500000  0.01790000  1.0 0.1106567837
H  H108  1  0.20500000  0.01790000  0.40560000  1.0 0.1106567837
H  H109  1  0.96200000  0.60850000  0.69210000  1.0 0.1195657128
H  H110  1  0.60850000  0.69210000  0.96200000  1.0 0.1195657128
H  H111  1  0.69210000  0.96200000  0.60850000  1.0 0.1195657128
H  H112  1  0.03800000  0.39150000  0.30790000  1.0 0.1195657128
H  H113  1  0.39150000  0.30790000  0.03800000  1.0 0.1195657128
H  H114  1  0.30790000  0.03800000  0.39150000  1.0 0.1195657128
H  H115  1  0.24690000  0.55380000  0.10360000  1.0 0.1195657128
H  H116  1  0.55380000  0.10360000  0.24690000  1.0 0.1195657128
H  H117  1  0.10360000  0.24690000  0.55380000  1.0 0.1195657128
H  H118  1  0.75310000  0.44620000  0.89640000  1.0 0.1195657128
H  H119  1  0.44620000  0.89640000  0.75310000  1.0 0.1195657128
H  H120  1  0.89640000  0.75310000  0.44620000  1.0 0.1195657128
H  H121  1  0.36400000  0.57220000  0.12260000  1.0 0.1017569344
H  H122  1  0.57220000  0.12260000  0.36400000  1.0 0.1017569344
H  H123  1  0.12260000  0.36400000  0.57220000  1.0 0.1017569344
H  H124  1  0.63600000  0.42780000  0.87740000  1.0 0.1017569344
H  H125  1  0.42780000  0.87740000  0.63600000  1.0 0.1017569344
H  H126  1  0.87740000  0.63600000  0.42780000  1.0 0.1017569344
H  H127  1  0.28840000  0.41130000  0.91930000  1.0 0.1106567837
H  H128  1  0.41130000  0.91930000  0.28840000  1.0 0.1106567837
H  H129  1  0.91930000  0.28840000  0.41130000  1.0 0.1106567837
H  H130  1  0.71160000  0.58870000  0.08070000  1.0 0.1106567837
H  H131  1  0.58870000  0.08070000  0.71160000  1.0 0.1106567837
H  H132  1  0.08070000  0.71160000  0.58870000  1.0 0.1106567837
C  C1  1  0.97060000  0.31420000  0.97030000  1.0 0.5796042085
C  C2  1  0.31420000  0.97030000  0.97060000  1.0 0.5796042085
C  C3  1  0.97030000  0.97060000  0.31420000  1.0 0.5796042085
C  C4  1  0.02940000  0.68580000  0.02970000  1.0 0.5796042085
C  C5  1  0.68580000  0.02970000  0.02940000  1.0 0.5796042085
C  C6  1  0.02970000  0.02940000  0.68580000  1.0 0.5796042085
C  C7  1  0.98770000  0.25850000  0.99030000  1.0 -0.0030205584
C  C8  1  0.25850000  0.99030000  0.98770000  1.0 -0.0030205584
C  C9  1  0.99030000  0.98770000  0.25850000  1.0 -0.0030205584
C  C10  1  0.01230000  0.74150000  0.00970000  1.0 -0.0030205584
C  C11  1  0.74150000  0.00970000  0.01230000  1.0 -0.0030205584
C  C12  1  0.00970000  0.01230000  0.74150000  1.0 -0.0030205584
C  C13  1  0.00120000  0.26650000  0.05520000  1.0 -0.0920128183
C  C14  1  0.26650000  0.05520000  0.00120000  1.0 -0.0920128183
C  C15  1  0.05520000  0.00120000  0.26650000  1.0 -0.0920128183
C  C16  1  0.99880000  0.73350000  0.94480000  1.0 -0.0920128183
C  C17  1  0.73350000  0.94480000  0.99880000  1.0 -0.0920128183
C  C18  1  0.94480000  0.99880000  0.73350000  1.0 -0.0920128183
C  C19  1  0.02000000  0.21990000  0.07640000  1.0 -0.1627414058
C  C20  1  0.21990000  0.07640000  0.02000000  1.0 -0.1627414058
C  C21  1  0.07640000  0.02000000  0.21990000  1.0 -0.1627414058
C  C22  1  0.98000000  0.78010000  0.92360000  1.0 -0.1627414058
C  C23  1  0.78010000  0.92360000  0.98000000  1.0 -0.1627414058
C  C24  1  0.92360000  0.98000000  0.78010000  1.0 -0.1627414058
C  C25  1  0.02800000  0.16820000  0.03100000  1.0 0.0695706702
C  C26  1  0.16820000  0.03100000  0.02800000  1.0 0.0695706702
C  C27  1  0.03100000  0.02800000  0.16820000  1.0 0.0695706702
C  C28  1  0.97200000  0.83180000  0.96900000  1.0 0.0695706702
C  C29  1  0.83180000  0.96900000  0.97200000  1.0 0.0695706702
C  C30  1  0.96900000  0.97200000  0.83180000  1.0 0.0695706702
C  C31  1  0.01060000  0.15940000  0.96330000  1.0 -0.1732409144
C  C32  1  0.15940000  0.96330000  0.01060000  1.0 -0.1627414058
C  C33  1  0.96330000  0.01060000  0.15940000  1.0 -0.1627414058
C  C34  1  0.98940000  0.84060000  0.03670000  1.0 -0.1627414058
C  C35  1  0.84060000  0.03670000  0.98940000  1.0 -0.1627414058
C  C36  1  0.03670000  0.98940000  0.84060000  1.0 -0.1627414058
C  C37  1  0.99130000  0.20460000  0.94310000  1.0 -0.0920128183
C  C38  1  0.20460000  0.94310000  0.99130000  1.0 -0.0920128183
C  C39  1  0.94310000  0.99130000  0.20460000  1.0 -0.0920128183
C  C40  1  0.00870000  0.79540000  0.05690000  1.0 -0.0920128183
C  C41  1  0.79540000  0.05690000  0.00870000  1.0 -0.0920128183
C  C42  1  0.05690000  0.00870000  0.79540000  1.0 -0.0920128183
C  C43  1  0.05190000  0.12030000  0.05350000  1.0 0.079104358
C  C44  1  0.12030000  0.05350000  0.05190000  1.0 0.079104358
C  C45  1  0.05350000  0.05190000  0.12030000  1.0 0.079104358
C  C46  1  0.94810000  0.87970000  0.94650000  1.0 0.079104358
C  C47  1  0.87970000  0.94650000  0.94810000  1.0 0.079104358
C  C48  1  0.94650000  0.94810000  0.87970000  1.0 0.079104358
C  C49  1  0.09600000  0.09830000  0.03350000  1.0 -0.2187416314
C  C50  1  0.09830000  0.03350000  0.09600000  1.0 -0.2187416314
C  C51  1  0.03350000  0.09600000  0.09830000  1.0 -0.2187416314
C  C52  1  0.90400000  0.90170000  0.96650000  1.0 -0.2187416314
C  C53  1  0.90170000  0.96650000  0.90400000  1.0 -0.2187416314
C  C54  1  0.96650000  0.90400000  0.90170000  1.0 -0.2187416314
C  C55  1  0.03610000  0.86960000  0.52100000  1.0 0.259267518
C  C56  1  0.86960000  0.52100000  0.03610000  1.0 0.259267518
C  C57  1  0.52100000  0.03610000  0.86960000  1.0 0.259267518
C  C58  1  0.96390000  0.13040000  0.47900000  1.0 0.259267518
C  C59  1  0.13040000  0.47900000  0.96390000  1.0 0.259267518
C  C60  1  0.47900000  0.96390000  0.13040000  1.0 0.259267518
C  C61  1  0.01850000  0.79670000  0.50950000  1.0 0.0204448015
C  C62  1  0.79670000  0.50950000  0.01850000  1.0 0.0204448015
C  C63  1  0.50950000  0.01850000  0.79670000  1.0 0.0204448015
C  C64  1  0.98150000  0.20330000  0.49050000  1.0 0.0204448015
C  C65  1  0.20330000  0.49050000  0.98150000  1.0 0.0204448015
C  C66  1  0.49050000  0.98150000  0.20330000  1.0 0.0204448015
C  C67  1  0.97280000  0.74180000  0.45170000  1.0 -0.0710798149
C  C68  1  0.74180000  0.45170000  0.97280000  1.0 -0.0710798149
C  C69  1  0.45170000  0.97280000  0.74180000  1.0 -0.0638578742
C  C70  1  0.02720000  0.25820000  0.54830000  1.0 -0.0638578742
C  C71  1  0.25820000  0.54830000  0.02720000  1.0 -0.0638578742
C  C72  1  0.54830000  0.02720000  0.25820000  1.0 -0.0710798149
C  C73  1  0.95600000  0.67400000  0.44750000  1.0 -0.1076466377
C  C74  1  0.67400000  0.44750000  0.95600000  1.0 -0.1076466377
C  C75  1  0.44750000  0.95600000  0.67400000  1.0 -0.1076466377
C  C76  1  0.04400000  0.32600000  0.55250000  1.0 -0.1076466377
C  C77  1  0.32600000  0.55250000  0.04400000  1.0 -0.1076466377
C  C78  1  0.55250000  0.04400000  0.32600000  1.0 -0.1076466377
C  C79  1  0.01910000  0.72130000  0.55880000  1.0 -0.0920128183
C  C80  1  0.72130000  0.55880000  0.01910000  1.0 -0.0920128183
C  C81  1  0.55880000  0.01910000  0.72130000  1.0 -0.0920128183
C  C82  1  0.98090000  0.27870000  0.44120000  1.0 -0.0920128183
C  C83  1  0.27870000  0.44120000  0.98090000  1.0 -0.0920128183
C  C84  1  0.44120000  0.98090000  0.27870000  1.0 -0.0920128183
C  C85  1  0.97400000  0.66200000  0.50450000  1.0 0.0261884638
C  C86  1  0.66200000  0.50450000  0.97400000  1.0 0.0261884638
C  C87  1  0.50450000  0.97400000  0.66200000  1.0 0.0261884638
C  C88  1  0.02600000  0.33800000  0.49550000  1.0 0.0261884638
C  C89  1  0.33800000  0.49550000  0.02600000  1.0 0.0204448015
C  C90  1  0.49550000  0.02600000  0.33800000  1.0 0.0261884638
C  C91  1  0.04890000  0.78590000  0.56670000  1.0 -0.0920128183
C  C92  1  0.78590000  0.56670000  0.04890000  1.0 -0.0920128183
C  C93  1  0.56670000  0.04890000  0.78590000  1.0 -0.0920128183
C  C94  1  0.95110000  0.21410000  0.43330000  1.0 -0.0920128183
C  C95  1  0.21410000  0.43330000  0.95110000  1.0 -0.0920128183
C  C96  1  0.43330000  0.95110000  0.21410000  1.0 -0.0920128183
C  C97  1  0.95080000  0.59260000  0.50500000  1.0 0.0597790495
C  C98  1  0.59260000  0.50500000  0.95080000  1.0 0.0597790495
C  C99  1  0.50500000  0.95080000  0.59260000  1.0 0.0597790495
C  C100  1  0.04920000  0.40740000  0.49500000  1.0 0.0597790495
C  C101  1  0.40740000  0.49500000  0.04920000  1.0 0.0597790495
C  C102  1  0.49500000  0.04920000  0.40740000  1.0 0.0597790495
C  C103  1  0.90400000  0.53170000  0.44260000  1.0 -0.232043672
C  C104  1  0.53170000  0.44260000  0.90400000  1.0 -0.232043672
C  C105  1  0.44260000  0.90400000  0.53170000  1.0 -0.232043672
C  C106  1  0.09600000  0.46830000  0.55740000  1.0 -0.232043672
C  C107  1  0.46830000  0.55740000  0.09600000  1.0 -0.232043672
C  C108  1  0.55740000  0.09600000  0.46830000  1.0 -0.232043672
C  C109  1  0.88020000  0.46400000  0.44020000  1.0 0.0888387849
C  C110  1  0.46400000  0.44020000  0.88020000  1.0 0.0888387849
C  C111  1  0.44020000  0.88020000  0.46400000  1.0 0.0888387849
C  C112  1  0.11980000  0.53600000  0.55980000  1.0 0.0888387849
C  C113  1  0.53600000  0.55980000  0.11980000  1.0 0.0888387849
C  C114  1  0.55980000  0.11980000  0.53600000  1.0 0.0888387849
C  C115  1  0.90340000  0.46270000  0.50440000  1.0 -0.1925995682
C  C116  1  0.46270000  0.50440000  0.90340000  1.0 -0.1925995682
C  C117  1  0.50440000  0.90340000  0.46270000  1.0 -0.1925995682
C  C118  1  0.09660000  0.53730000  0.49560000  1.0 -0.1925995682
C  C119  1  0.53730000  0.49560000  0.09660000  1.0 -0.1925995682
C  C120  1  0.49560000  0.09660000  0.53730000  1.0 -0.1925995682
C  C121  1  0.94570000  0.52050000  0.56630000  1.0 0.079104358
C  C122  1  0.52050000  0.56630000  0.94570000  1.0 0.079104358
C  C123  1  0.56630000  0.94570000  0.52050000  1.0 0.079104358
C  C124  1  0.05430000  0.47950000  0.43370000  1.0 0.079104358
C  C125  1  0.47950000  0.43370000  0.05430000  1.0 0.079104358
C  C126  1  0.43370000  0.05430000  0.47950000  1.0 0.079104358
C  C127  1  0.97120000  0.58610000  0.56520000  1.0 -0.232043672
C  C128  1  0.58610000  0.56520000  0.97120000  1.0 -0.232043672
C  C129  1  0.56520000  0.97120000  0.58610000  1.0 -0.232043672
C  C130  1  0.02880000  0.41390000  0.43480000  1.0 -0.232043672
C  C131  1  0.41390000  0.43480000  0.02880000  1.0 -0.232043672
C  C132  1  0.43480000  0.02880000  0.41390000  1.0 -0.232043672
C  C133  1  0.83010000  0.39580000  0.37190000  1.0 0.0695706702
C  C134  1  0.39580000  0.37190000  0.83010000  1.0 0.0695706702
C  C135  1  0.37190000  0.83010000  0.39580000  1.0 0.0695706702
C  C136  1  0.16990000  0.60420000  0.62810000  1.0 0.0695706702
C  C137  1  0.60420000  0.62810000  0.16990000  1.0 0.0695706702
C  C138  1  0.62810000  0.16990000  0.60420000  1.0 0.0695706702
C  C139  1  0.83430000  0.39110000  0.30910000  1.0 -0.1627414058
C  C140  1  0.39110000  0.30910000  0.83430000  1.0 -0.1627414058
C  C141  1  0.30910000  0.83430000  0.39110000  1.0 -0.1627414058
C  C142  1  0.16570000  0.60890000  0.69090000  1.0 -0.1627414058
C  C143  1  0.60890000  0.69090000  0.16570000  1.0 -0.1627414058
C  C144  1  0.69090000  0.16570000  0.60890000  1.0 -0.1627414058
C  C145  1  0.78170000  0.32900000  0.24680000  1.0 -0.1076466377
C  C146  1  0.32900000  0.24680000  0.78170000  1.0 -0.1076466377
C  C147  1  0.24680000  0.78170000  0.32900000  1.0 -0.1076466377
C  C148  1  0.21830000  0.67100000  0.75320000  1.0 -0.1076466377
C  C149  1  0.67100000  0.75320000  0.21830000  1.0 -0.1076466377
C  C150  1  0.75320000  0.21830000  0.67100000  1.0 -0.1076466377
C  C151  1  0.73120000  0.27530000  0.24420000  1.0 -0.0195089704
C  C152  1  0.27530000  0.24420000  0.73120000  1.0 -0.0195089704
C  C153  1  0.24420000  0.73120000  0.27530000  1.0 -0.0195089704
C  C154  1  0.26880000  0.72470000  0.75580000  1.0 -0.0195089704
C  C155  1  0.72470000  0.75580000  0.26880000  1.0 -0.0195089704
C  C156  1  0.75580000  0.26880000  0.72470000  1.0 -0.0195089704
C  C157  1  0.73120000  0.28340000  0.30690000  1.0 -0.104530467
C  C158  1  0.28340000  0.30690000  0.73120000  1.0 -0.1076466377
C  C159  1  0.30690000  0.73120000  0.28340000  1.0 -0.1076466377
C  C160  1  0.26880000  0.71660000  0.69310000  1.0 -0.1076466377
C  C161  1  0.71660000  0.69310000  0.26880000  1.0 -0.1076466377
C  C162  1  0.69310000  0.26880000  0.71660000  1.0 -0.1076466377
C  C163  1  0.77830000  0.34190000  0.37050000  1.0 -0.1529948174
C  C164  1  0.34190000  0.37050000  0.77830000  1.0 -0.1529948174
C  C165  1  0.37050000  0.77830000  0.34190000  1.0 -0.1529948174
C  C166  1  0.22170000  0.65810000  0.62950000  1.0 -0.1529948174
C  C167  1  0.65810000  0.62950000  0.22170000  1.0 -0.1529948174
C  C168  1  0.62950000  0.22170000  0.65810000  1.0 -0.1529948174
C  C169  1  0.67290000  0.21440000  0.17530000  1.0 0.5796042085
C  C170  1  0.21440000  0.17530000  0.67290000  1.0 0.5796042085
C  C171  1  0.17530000  0.67290000  0.21440000  1.0 0.5749708057
C  C172  1  0.32710000  0.78560000  0.82470000  1.0 0.5796042085
C  C173  1  0.78560000  0.82470000  0.32710000  1.0 0.5749708057
C  C174  1  0.82470000  0.32710000  0.78560000  1.0 0.5796042085
C  C175  1  0.96440000  0.51660000  0.63370000  1.0 0.0888387849
C  C176  1  0.51660000  0.63370000  0.96440000  1.0 0.0888387849
C  C177  1  0.63370000  0.96440000  0.51660000  1.0 0.0888387849
C  C178  1  0.03560000  0.48340000  0.36630000  1.0 0.0888387849
C  C179  1  0.48340000  0.36630000  0.03560000  1.0 0.0888387849
C  C180  1  0.36630000  0.03560000  0.48340000  1.0 0.0888387849
C  C181  1  0.97600000  0.45960000  0.63890000  1.0 -0.179466852
C  C182  1  0.45960000  0.63890000  0.97600000  1.0 -0.179466852
C  C183  1  0.63890000  0.97600000  0.45960000  1.0 -0.179466852
C  C184  1  0.02400000  0.54040000  0.36110000  1.0 -0.179466852
C  C185  1  0.54040000  0.36110000  0.02400000  1.0 -0.179466852
C  C186  1  0.36110000  0.02400000  0.54040000  1.0 -0.179466852
C  C187  1  0.98890000  0.45310000  0.69910000  1.0 -0.0821189869
C  C188  1  0.45310000  0.69910000  0.98890000  1.0 -0.0821189869
C  C189  1  0.69910000  0.98890000  0.45310000  1.0 -0.0821189869
C  C190  1  0.01110000  0.54690000  0.30090000  1.0 -0.0821189869
C  C191  1  0.54690000  0.30090000  0.01110000  1.0 -0.0821189869
C  C192  1  0.30090000  0.01110000  0.54690000  1.0 -0.0821189869
C  C193  1  0.99220000  0.50530000  0.76120000  1.0 -0.0710798149
C  C194  1  0.50530000  0.76120000  0.99220000  1.0 -0.0710798149
C  C195  1  0.76120000  0.99220000  0.50530000  1.0 -0.0710798149
C  C196  1  0.00780000  0.49470000  0.23880000  1.0 -0.0710798149
C  C197  1  0.49470000  0.23880000  0.00780000  1.0 -0.0710798149
C  C198  1  0.23880000  0.00780000  0.49470000  1.0 -0.0710798149
C  C199  1  0.98110000  0.56140000  0.75640000  1.0 -0.0821189869
C  C200  1  0.56140000  0.75640000  0.98110000  1.0 -0.0821189869
C  C201  1  0.75640000  0.98110000  0.56140000  1.0 -0.0821189869
C  C202  1  0.01890000  0.43860000  0.24360000  1.0 -0.0821189869
C  C203  1  0.43860000  0.24360000  0.01890000  1.0 -0.0821189869
C  C204  1  0.24360000  0.01890000  0.43860000  1.0 -0.0821189869
C  C205  1  0.96800000  0.56970000  0.69430000  1.0 -0.1732409144
C  C206  1  0.56970000  0.69430000  0.96800000  1.0 -0.1732409144
C  C207  1  0.69430000  0.96800000  0.56970000  1.0 -0.1732409144
C  C208  1  0.03200000  0.43030000  0.30570000  1.0 -0.1732409144
C  C209  1  0.43030000  0.30570000  0.03200000  1.0 -0.1732409144
C  C210  1  0.30570000  0.03200000  0.43030000  1.0 -0.1732409144
C  C211  1  0.99790000  0.49250000  0.82170000  1.0 0.5857062678
C  C212  1  0.49250000  0.82170000  0.99790000  1.0 0.5857062678
C  C213  1  0.82170000  0.99790000  0.49250000  1.0 0.5857062678
C  C214  1  0.00210000  0.50750000  0.17830000  1.0 0.5857062678
C  C215  1  0.50750000  0.17830000  0.00210000  1.0 0.5857062678
C  C216  1  0.17830000  0.00210000  0.50750000  1.0 0.5857062678
C  C217  1  0.12520000  0.47080000  0.98100000  1.0 0.2708677889
C  C218  1  0.47080000  0.98100000  0.12520000  1.0 0.2708677889
C  C219  1  0.98100000  0.12520000  0.47080000  1.0 0.2708677889
C  C220  1  0.87480000  0.52920000  0.01900000  1.0 0.2708677889
C  C221  1  0.52920000  0.01900000  0.87480000  1.0 0.2708677889
C  C222  1  0.01900000  0.87480000  0.52920000  1.0 0.2708677889
C  C223  1  0.20000000  0.47860000  0.00940000  1.0 0.0597790495
C  C224  1  0.47860000  0.00940000  0.20000000  1.0 0.0597790495
C  C225  1  0.00940000  0.20000000  0.47860000  1.0 0.0597790495
C  C226  1  0.80000000  0.52140000  0.99060000  1.0 0.0597790495
C  C227  1  0.52140000  0.99060000  0.80000000  1.0 0.0597790495
C  C228  1  0.99060000  0.80000000  0.52140000  1.0 0.0597790495
C  C229  1  0.25340000  0.52590000  0.06770000  1.0 -0.0710798149
C  C230  1  0.52590000  0.06770000  0.25340000  1.0 -0.0710798149
C  C231  1  0.06770000  0.25340000  0.52590000  1.0 -0.0710798149
C  C232  1  0.74660000  0.47410000  0.93230000  1.0 -0.0710798149
C  C233  1  0.47410000  0.93230000  0.74660000  1.0 -0.0710798149
C  C234  1  0.93230000  0.74660000  0.47410000  1.0 -0.0710798149
C  C235  1  0.32560000  0.53710000  0.07940000  1.0 -0.0821189869
C  C236  1  0.53710000  0.07940000  0.32560000  1.0 -0.0821189869
C  C237  1  0.07940000  0.32560000  0.53710000  1.0 -0.0821189869
C  C238  1  0.67440000  0.46290000  0.92060000  1.0 -0.0821189869
C  C239  1  0.46290000  0.92060000  0.67440000  1.0 -0.0821189869
C  C240  1  0.92060000  0.67440000  0.46290000  1.0 -0.0821189869
C  C241  1  0.28160000  0.43870000  0.95510000  1.0 -0.0710798149
C  C242  1  0.43870000  0.95510000  0.28160000  1.0 -0.0710798149
C  C243  1  0.95510000  0.28160000  0.43870000  1.0 -0.0710798149
C  C244  1  0.71840000  0.56130000  0.04490000  1.0 -0.0710798149
C  C245  1  0.56130000  0.04490000  0.71840000  1.0 -0.0710798149
C  C246  1  0.04490000  0.71840000  0.56130000  1.0 -0.0710798149
O  O1  1  0.95608000  0.44532000  0.93800000  1.0 -0.835325396
O  O2  1  0.44532000  0.93800000  0.95608000  1.0 -0.8336065371
O  O3  1  0.93800000  0.95608000  0.44532000  1.0 -0.8336065371
O  O4  1  0.04392000  0.55468000  0.06200000  1.0 -0.835325396
O  O5  1  0.55468000  0.06200000  0.04392000  1.0 -0.835325396
O  O6  1  0.06200000  0.04392000  0.55468000  1.0 -0.8336065371
O  O7  1  0.97590000  0.36290000  0.01500000  1.0 -0.4508164716
O  O8  1  0.36290000  0.01500000  0.97590000  1.0 -0.4508164716
O  O9  1  0.01500000  0.97590000  0.36290000  1.0 -0.4508164716
O  O10  1  0.02410000  0.63710000  0.98500000  1.0 -0.4508164716
O  O11  1  0.63710000  0.98500000  0.02410000  1.0 -0.4508164716
O  O12  1  0.98500000  0.02410000  0.63710000  1.0 -0.4508164716
O  O13  1  0.95950000  0.30180000  0.90620000  1.0 -0.5686567981
O  O14  1  0.30180000  0.90620000  0.95950000  1.0 -0.5686567981
O  O15  1  0.90620000  0.95950000  0.30180000  1.0 -0.5686567981
O  O16  1  0.04050000  0.69820000  0.09380000  1.0 -0.5686567981
O  O17  1  0.69820000  0.09380000  0.04050000  1.0 -0.5686567981
O  O18  1  0.09380000  0.04050000  0.69820000  1.0 -0.5686567981
O  O19  1  0.00010000  0.43710000  0.81910000  1.0 -0.5569695989
O  O20  1  0.43710000  0.81910000  0.00010000  1.0 -0.5569695989
O  O21  1  0.81910000  0.00010000  0.43710000  1.0 -0.5569695989
O  O22  1  0.99990000  0.56290000  0.18090000  1.0 -0.5569695989
O  O23  1  0.56290000  0.18090000  0.99990000  1.0 -0.5569695989
O  O24  1  0.18090000  0.99990000  0.56290000  1.0 -0.5569695989
O  O25  1  0.99980000  0.53650000  0.87360000  1.0 -0.4978687077
O  O26  1  0.53650000  0.87360000  0.99980000  1.0 -0.4978687077
O  O27  1  0.87360000  0.99980000  0.53650000  1.0 -0.4978687077
O  O28  1  0.00020000  0.46350000  0.12640000  1.0 -0.4978687077
O  O29  1  0.46350000  0.12640000  0.00020000  1.0 -0.4978687077
O  O30  1  0.12640000  0.00020000  0.46350000  1.0 -0.4978687077
O  O31  1  0.01990000  0.87870000  0.46390000  1.0 -0.3879635244
O  O32  1  0.87870000  0.46390000  0.01990000  1.0 -0.3879635244
O  O33  1  0.46390000  0.01990000  0.87870000  1.0 -0.3879635244
O  O34  1  0.98010000  0.12130000  0.53610000  1.0 -0.3879635244
O  O35  1  0.12130000  0.53610000  0.98010000  1.0 -0.3879635244
O  O36  1  0.53610000  0.98010000  0.12130000  1.0 -0.3879635244
O  O37  1  0.62620000  0.16780000  0.17650000  1.0 -0.4553960422
O  O38  1  0.16780000  0.17650000  0.62620000  1.0 -0.4508164716
O  O39  1  0.17650000  0.62620000  0.16780000  1.0 -0.4508164716
O  O40  1  0.37380000  0.83220000  0.82350000  1.0 -0.4553960422
O  O41  1  0.83220000  0.82350000  0.37380000  1.0 -0.4508164716
O  O42  1  0.82350000  0.37380000  0.83220000  1.0 -0.4553960422
O  O43  1  0.06130000  0.91820000  0.58010000  1.0 -0.3172933469
O  O44  1  0.91820000  0.58010000  0.06130000  1.0 -0.3172933469
O  O45  1  0.58010000  0.06130000  0.91820000  1.0 -0.3172933469
O  O46  1  0.93870000  0.08180000  0.41990000  1.0 -0.3172933469
O  O47  1  0.08180000  0.41990000  0.93870000  1.0 -0.3172933469
O  O48  1  0.41990000  0.93870000  0.08180000  1.0 -0.3172933469
O  O49  1  0.68320000  0.21080000  0.12240000  1.0 -0.5457321465
O  O50  1  0.21080000  0.12240000  0.68320000  1.0 -0.5457321465
O  O51  1  0.12240000  0.68320000  0.21080000  1.0 -0.5457321465
O  O52  1  0.31680000  0.78920000  0.87760000  1.0 -0.5457321465
O  O53  1  0.78920000  0.87760000  0.31680000  1.0 -0.5457321465
O  O54  1  0.87760000  0.31680000  0.78920000  1.0 -0.5457321465
