# DDEC6 charges by PACMAN v1.1 (https://github.com/mtap-research/PACMAN-charge/)
data_WAVRAO_FSR_pacman
_symmetry_space_group_name_H-M   'P 1'
_cell_length_a   22.56270000
_cell_length_b   22.56270000
_cell_length_c   22.56270000
_cell_angle_alpha   107.96800000
_cell_angle_beta   107.96800000
_cell_angle_gamma   107.96800000
_symmetry_Int_Tables_number   1
_chemical_formula_structural   MnInH19C40NO10
_chemical_formula_sum   'Mn6 In6 H114 C240 N6 O60'
_cell_volume   9301.60147050
_cell_formula_units_Z   6
loop_
 _symmetry_equiv_pos_site_id
 _symmetry_equiv_pos_as_xyz
  1  'x, y, z'
loop_
 _atom_site_type_symbol
 _atom_site_label
 _atom_site_symmetry_multiplicity
 _atom_site_fract_x
 _atom_site_fract_y
 _atom_site_fract_z
 _atom_site_occupancy
 _atom_site_charge
Mn  Mn1  1  0.53587000  0.04976000  0.46739000  1.0 1.0986808617
Mn  Mn2  1  0.04976000  0.46739000  0.53587000  1.0 1.0986808617
Mn  Mn3  1  0.46739000  0.53587000  0.04976000  1.0 1.0986808617
Mn  Mn4  1  0.46413000  0.95024000  0.53261000  1.0 1.0986808617
Mn  Mn5  1  0.95024000  0.53261000  0.46413000  1.0 1.0986808617
Mn  Mn6  1  0.53261000  0.46413000  0.95024000  1.0 1.0986808617
In  In1  1  0.54238000  0.13023000  0.63911000  1.0 1.4188303628
In  In2  1  0.13023000  0.63911000  0.54238000  1.0 1.4188303628
In  In3  1  0.63911000  0.54238000  0.13023000  1.0 1.4188303628
In  In4  1  0.45762000  0.86977000  0.36089000  1.0 1.4188303628
In  In5  1  0.86977000  0.36089000  0.45762000  1.0 1.4188303628
In  In6  1  0.36089000  0.45762000  0.86977000  1.0 1.4188303628
H  H1  1  0.46000000  0.27000000  0.37660000  1.0 0.1202318612
H  H2  1  0.27000000  0.37660000  0.46000000  1.0 0.1202318612
H  H3  1  0.37660000  0.46000000  0.27000000  1.0 0.1202318612
H  H4  1  0.54000000  0.73000000  0.62340000  1.0 0.1202318612
H  H5  1  0.73000000  0.62340000  0.54000000  1.0 0.1202318612
H  H6  1  0.62340000  0.54000000  0.73000000  1.0 0.1202318612
H  H7  1  0.89160000  0.28620000  0.86570000  1.0 0.1202318612
H  H8  1  0.28620000  0.86570000  0.89160000  1.0 0.1202318612
H  H9  1  0.86570000  0.89160000  0.28620000  1.0 0.1202318612
H  H10  1  0.10840000  0.71380000  0.13430000  1.0 0.1202318612
H  H11  1  0.71380000  0.13430000  0.10840000  1.0 0.1202318612
H  H12  1  0.13430000  0.10840000  0.71380000  1.0 0.1202318612
H  H13  1  0.90300000  0.41750000  0.05840000  1.0 0.1202318612
H  H14  1  0.41750000  0.05840000  0.90300000  1.0 0.1202318612
H  H15  1  0.05840000  0.90300000  0.41750000  1.0 0.1202318612
H  H16  1  0.09700000  0.58250000  0.94160000  1.0 0.1202318612
H  H17  1  0.58250000  0.94160000  0.09700000  1.0 0.1202318612
H  H18  1  0.94160000  0.09700000  0.58250000  1.0 0.1202318612
H  H19  1  0.28490000  0.48590000  0.09290000  1.0 0.1283120045
H  H20  1  0.48590000  0.09290000  0.28490000  1.0 0.1283120045
H  H21  1  0.09290000  0.28490000  0.48590000  1.0 0.1283120045
H  H22  1  0.71510000  0.51410000  0.90710000  1.0 0.1283120045
H  H23  1  0.51410000  0.90710000  0.71510000  1.0 0.1283120045
H  H24  1  0.90710000  0.71510000  0.51410000  1.0 0.1283120045
H  H25  1  0.98900000  0.38680000  0.92810000  1.0 0.1202318612
H  H26  1  0.38680000  0.92810000  0.98900000  1.0 0.1202318612
H  H27  1  0.92810000  0.98900000  0.38680000  1.0 0.1202318612
H  H28  1  0.01100000  0.61320000  0.07190000  1.0 0.1202318612
H  H29  1  0.61320000  0.07190000  0.01100000  1.0 0.1202318612
H  H30  1  0.07190000  0.01100000  0.61320000  1.0 0.1202318612
H  H31  1  0.10100000  0.58930000  0.21510000  1.0 0.1202318612
H  H32  1  0.58930000  0.21510000  0.10100000  1.0 0.1202318612
H  H33  1  0.21510000  0.10100000  0.58930000  1.0 0.1202318612
H  H34  1  0.89900000  0.41070000  0.78490000  1.0 0.1202318612
H  H35  1  0.41070000  0.78490000  0.89900000  1.0 0.1202318612
H  H36  1  0.78490000  0.89900000  0.41070000  1.0 0.1202318612
H  H37  1  0.48780000  0.37870000  0.56920000  1.0 0.1202318612
H  H38  1  0.37870000  0.56920000  0.48780000  1.0 0.1202318612
H  H39  1  0.56920000  0.48780000  0.37870000  1.0 0.1202318612
H  H40  1  0.51220000  0.62130000  0.43080000  1.0 0.1202318612
H  H41  1  0.62130000  0.43080000  0.51220000  1.0 0.1202318612
H  H42  1  0.43080000  0.51220000  0.62130000  1.0 0.1202318612
H  H43  1  0.08240000  0.44600000  0.91770000  1.0 0.1115369664
H  H44  1  0.44600000  0.91770000  0.08240000  1.0 0.1115369664
H  H45  1  0.91770000  0.08240000  0.44600000  1.0 0.1115369664
H  H46  1  0.91760000  0.55400000  0.08230000  1.0 0.1115369664
H  H47  1  0.55400000  0.08230000  0.91760000  1.0 0.1115369664
H  H48  1  0.08230000  0.91760000  0.55400000  1.0 0.1115369664
H  H49  1  0.11050000  0.50620000  0.13180000  1.0 0.1202318612
H  H50  1  0.50620000  0.13180000  0.11050000  1.0 0.1202318612
H  H51  1  0.13180000  0.11050000  0.50620000  1.0 0.1202318612
H  H52  1  0.88950000  0.49380000  0.86820000  1.0 0.1202318612
H  H53  1  0.49380000  0.86820000  0.88950000  1.0 0.1202318612
H  H54  1  0.86820000  0.88950000  0.49380000  1.0 0.1202318612
H  H55  1  0.18700000  0.47270000  0.11130000  1.0 0.1202318612
H  H56  1  0.47270000  0.11130000  0.18700000  1.0 0.1202318612
H  H57  1  0.11130000  0.18700000  0.47270000  1.0 0.1202318612
H  H58  1  0.81300000  0.52730000  0.88870000  1.0 0.1202318612
H  H59  1  0.52730000  0.88870000  0.81300000  1.0 0.1202318612
H  H60  1  0.88870000  0.81300000  0.52730000  1.0 0.1202318612
H  H61  1  0.17980000  0.45830000  0.89950000  1.0 0.1283120045
H  H62  1  0.45830000  0.89950000  0.17980000  1.0 0.1283120045
H  H63  1  0.89950000  0.17980000  0.45830000  1.0 0.1283120045
H  H64  1  0.82020000  0.54170000  0.10050000  1.0 0.1283120045
H  H65  1  0.54170000  0.10050000  0.82020000  1.0 0.1283120045
H  H66  1  0.10050000  0.82020000  0.54170000  1.0 0.1283120045
H  H67  1  0.48640000  0.19060000  0.40920000  1.0 0.1283120045
H  H68  1  0.19060000  0.40920000  0.48640000  1.0 0.1283120045
H  H69  1  0.40920000  0.48640000  0.19060000  1.0 0.1283120045
H  H70  1  0.51360000  0.80940000  0.59080000  1.0 0.1283120045
H  H71  1  0.80940000  0.59080000  0.51360000  1.0 0.1283120045
H  H72  1  0.59080000  0.51360000  0.80940000  1.0 0.1283120045
H  H73  1  0.51820000  0.30120000  0.60370000  1.0 0.1283120045
H  H74  1  0.30120000  0.60370000  0.51820000  1.0 0.1283120045
H  H75  1  0.60370000  0.51820000  0.30120000  1.0 0.1283120045
H  H76  1  0.48180000  0.69880000  0.39630000  1.0 0.1283120045
H  H77  1  0.69880000  0.39630000  0.48180000  1.0 0.1283120045
H  H78  1  0.39630000  0.48180000  0.69880000  1.0 0.1283120045
H  H79  1  0.70360000  0.32870000  0.86450000  1.0 0.1283120045
H  H80  1  0.32870000  0.86450000  0.70360000  1.0 0.1283120045
H  H81  1  0.86450000  0.70360000  0.32870000  1.0 0.1283120045
H  H82  1  0.29640000  0.67130000  0.13550000  1.0 0.1283120045
H  H83  1  0.67130000  0.13550000  0.29640000  1.0 0.1283120045
H  H84  1  0.13550000  0.29640000  0.67130000  1.0 0.1283120045
H  H85  1  0.12520000  0.63020000  0.33150000  1.0 0.1283120045
H  H86  1  0.63020000  0.33150000  0.12520000  1.0 0.1283120045
H  H87  1  0.33150000  0.12520000  0.63020000  1.0 0.1283120045
H  H88  1  0.87480000  0.36980000  0.66850000  1.0 0.1283120045
H  H89  1  0.36980000  0.66850000  0.87480000  1.0 0.1283120045
H  H90  1  0.66850000  0.87480000  0.36980000  1.0 0.1283120045
H  H91  1  0.93530000  0.42160000  0.16990000  1.0 0.1202318612
H  H92  1  0.42160000  0.16990000  0.93530000  1.0 0.1202318612
H  H93  1  0.16990000  0.93530000  0.42160000  1.0 0.1202318612
H  H94  1  0.06470000  0.57840000  0.83010000  1.0 0.1202318612
H  H95  1  0.57840000  0.83010000  0.06470000  1.0 0.1202318612
H  H96  1  0.83010000  0.06470000  0.57840000  1.0 0.1202318612
H  H97  1  0.81290000  0.40060000  0.95870000  1.0 0.1115369664
H  H98  1  0.40060000  0.95870000  0.81290000  1.0 0.1115369664
H  H99  1  0.95870000  0.81290000  0.40060000  1.0 0.1115369664
H  H100  1  0.18710000  0.59940000  0.04130000  1.0 0.1115369664
H  H101  1  0.59940000  0.04130000  0.18710000  1.0 0.1115369664
H  H102  1  0.04130000  0.18710000  0.59940000  1.0 0.1115369664
H  H103  1  0.78530000  0.22070000  0.76810000  1.0 0.1202318612
H  H104  1  0.22070000  0.76810000  0.78530000  1.0 0.1202318612
H  H105  1  0.76810000  0.78530000  0.22070000  1.0 0.1202318612
H  H106  1  0.21470000  0.77930000  0.23190000  1.0 0.1202318612
H  H107  1  0.77930000  0.23190000  0.21470000  1.0 0.1202318612
H  H108  1  0.23190000  0.21470000  0.77930000  1.0 0.1202318612
H  H109  1  0.96050000  0.46480000  0.28720000  1.0 0.1372967193
H  H110  1  0.46480000  0.28720000  0.96050000  1.0 0.1372967193
H  H111  1  0.28720000  0.96050000  0.46480000  1.0 0.1372967193
H  H112  1  0.03950000  0.53520000  0.71280000  1.0 0.1372967193
H  H113  1  0.53520000  0.71280000  0.03950000  1.0 0.1372967193
H  H114  1  0.71280000  0.03950000  0.53520000  1.0 0.1372967193
C  C1  1  0.47034000  0.27566000  0.42180000  1.0 -0.1483108
C  C2  1  0.27566000  0.42180000  0.47034000  1.0 -0.1483108
C  C3  1  0.42180000  0.47034000  0.27566000  1.0 -0.144695448
C  C4  1  0.52966000  0.72434000  0.57820000  1.0 -0.1483108
C  C5  1  0.72434000  0.57820000  0.52966000  1.0 -0.144695448
C  C6  1  0.57820000  0.52966000  0.72434000  1.0 -0.1483108
C  C7  1  0.85450000  0.29630000  0.86510000  1.0 -0.1583115289
C  C8  1  0.29630000  0.86510000  0.85450000  1.0 -0.1583115289
C  C9  1  0.86510000  0.85450000  0.29630000  1.0 -0.1583115289
C  C10  1  0.14550000  0.70370000  0.13490000  1.0 -0.1583115289
C  C11  1  0.70370000  0.13490000  0.14550000  1.0 -0.1583115289
C  C12  1  0.13490000  0.14550000  0.70370000  1.0 -0.1583115289
C  C13  1  0.86455000  0.35116000  0.92169000  1.0 0.0685195521
C  C14  1  0.35116000  0.92169000  0.86455000  1.0 0.0685195521
C  C15  1  0.92169000  0.86455000  0.35116000  1.0 0.0685195521
C  C16  1  0.13545000  0.64884000  0.07831000  1.0 0.0685195521
C  C17  1  0.64884000  0.07831000  0.13545000  1.0 0.0685195521
C  C18  1  0.07831000  0.13545000  0.64884000  1.0 0.0685195521
C  C19  1  0.94248000  0.42604000  0.05088000  1.0 -0.1976060611
C  C20  1  0.42604000  0.05088000  0.94248000  1.0 -0.1976060611
C  C21  1  0.05088000  0.94248000  0.42604000  1.0 -0.1976060611
C  C22  1  0.05752000  0.57396000  0.94912000  1.0 -0.1976060611
C  C23  1  0.57396000  0.94912000  0.05752000  1.0 -0.1976060611
C  C24  1  0.94912000  0.05752000  0.57396000  1.0 -0.1976060611
C  C25  1  0.24439000  0.47812000  0.05785000  1.0 -0.0906607764
C  C26  1  0.47812000  0.05785000  0.24439000  1.0 -0.0906607764
C  C27  1  0.05785000  0.24439000  0.47812000  1.0 -0.0906607764
C  C28  1  0.75561000  0.52188000  0.94215000  1.0 -0.0906607764
C  C29  1  0.52188000  0.94215000  0.75561000  1.0 -0.0906607764
C  C30  1  0.94215000  0.75561000  0.52188000  1.0 -0.0906607764
C  C31  1  0.99393000  0.40712000  0.97305000  1.0 -0.1905111674
C  C32  1  0.40712000  0.97305000  0.99393000  1.0 -0.1905111674
C  C33  1  0.97305000  0.99393000  0.40712000  1.0 -0.1905111674
C  C34  1  0.00607000  0.59288000  0.02695000  1.0 -0.1905111674
C  C35  1  0.59288000  0.02695000  0.00607000  1.0 -0.1905111674
C  C36  1  0.02695000  0.00607000  0.59288000  1.0 -0.1905111674
C  C37  1  0.93508000  0.39649000  0.98313000  1.0 0.0886542953
C  C38  1  0.39649000  0.98313000  0.93508000  1.0 0.0886542953
C  C39  1  0.98313000  0.93508000  0.39649000  1.0 0.0886542953
C  C40  1  0.06492000  0.60351000  0.01687000  1.0 0.0886542953
C  C41  1  0.60351000  0.01687000  0.06492000  1.0 0.0886542953
C  C42  1  0.01687000  0.06492000  0.60351000  1.0 0.0886542953
C  C43  1  0.07304000  0.56271000  0.22915000  1.0 -0.1583115289
C  C44  1  0.56271000  0.22915000  0.07304000  1.0 -0.1583115289
C  C45  1  0.22915000  0.07304000  0.56271000  1.0 -0.1583115289
C  C46  1  0.92696000  0.43729000  0.77085000  1.0 -0.1583115289
C  C47  1  0.43729000  0.77085000  0.92696000  1.0 -0.1583115289
C  C48  1  0.77085000  0.92696000  0.43729000  1.0 -0.1583115289
C  C49  1  0.01809000  0.49906000  0.18035000  1.0 0.0685195521
C  C50  1  0.49906000  0.18035000  0.01809000  1.0 0.0685195521
C  C51  1  0.18035000  0.01809000  0.49906000  1.0 0.0685195521
C  C52  1  0.98191000  0.50094000  0.81965000  1.0 0.0685195521
C  C53  1  0.50094000  0.81965000  0.98191000  1.0 0.0685195521
C  C54  1  0.81965000  0.98191000  0.50094000  1.0 0.0685195521
C  C55  1  0.00758000  0.46765000  0.10647000  1.0 0.0886542953
C  C56  1  0.46765000  0.10647000  0.00758000  1.0 0.0886542953
C  C57  1  0.10647000  0.00758000  0.46765000  1.0 0.0886542953
C  C58  1  0.99242000  0.53235000  0.89353000  1.0 0.0886542953
C  C59  1  0.53235000  0.89353000  0.99242000  1.0 0.0886542953
C  C60  1  0.89353000  0.99242000  0.53235000  1.0 0.0886542953
C  C61  1  0.48738000  0.34087000  0.53695000  1.0 -0.1483108
C  C62  1  0.34087000  0.53695000  0.48738000  1.0 -0.144695448
C  C63  1  0.53695000  0.48738000  0.34087000  1.0 -0.1483108
C  C64  1  0.51262000  0.65913000  0.46305000  1.0 -0.1483108
C  C65  1  0.65913000  0.46305000  0.51262000  1.0 -0.1483108
C  C66  1  0.46305000  0.51262000  0.65913000  1.0 -0.1483108
C  C67  1  0.12280000  0.45354000  0.95286000  1.0 -0.1655549875
C  C68  1  0.45354000  0.95286000  0.12280000  1.0 -0.1655549875
C  C69  1  0.95286000  0.12280000  0.45354000  1.0 -0.1655549875
C  C70  1  0.87720000  0.54646000  0.04714000  1.0 -0.1655549875
C  C71  1  0.54646000  0.04714000  0.87720000  1.0 -0.1655549875
C  C72  1  0.04714000  0.87720000  0.54646000  1.0 -0.1655549875
C  C73  1  0.66238000  0.21955000  0.74517000  1.0 0.5347999015
C  C74  1  0.21955000  0.74517000  0.66238000  1.0 0.5354448834
C  C75  1  0.74517000  0.66238000  0.21955000  1.0 0.5347999015
C  C76  1  0.33762000  0.78045000  0.25483000  1.0 0.5354448834
C  C77  1  0.78045000  0.25483000  0.33762000  1.0 0.5354448834
C  C78  1  0.25483000  0.33762000  0.78045000  1.0 0.5354448834
C  C79  1  0.06644000  0.47810000  0.09446000  1.0 -0.1905111674
C  C80  1  0.47810000  0.09446000  0.06644000  1.0 -0.1905111674
C  C81  1  0.09446000  0.06644000  0.47810000  1.0 -0.1905111674
C  C82  1  0.93356000  0.52190000  0.90554000  1.0 -0.1905111674
C  C83  1  0.52190000  0.90554000  0.93356000  1.0 -0.1905111674
C  C84  1  0.90554000  0.93356000  0.52190000  1.0 -0.1905111674
C  C85  1  0.12357000  0.45633000  0.01596000  1.0 0.0685195521
C  C86  1  0.45633000  0.01596000  0.12357000  1.0 0.0685195521
C  C87  1  0.01596000  0.12357000  0.45633000  1.0 0.0685195521
C  C88  1  0.87643000  0.54367000  0.98404000  1.0 0.0685195521
C  C89  1  0.54367000  0.98404000  0.87643000  1.0 0.0685195521
C  C90  1  0.98404000  0.87643000  0.54367000  1.0 0.0685195521
C  C91  1  0.06019000  0.44714000  0.02757000  1.0 0.0886542953
C  C92  1  0.44714000  0.02757000  0.06019000  1.0 0.0886542953
C  C93  1  0.02757000  0.06019000  0.44714000  1.0 0.0886542953
C  C94  1  0.93981000  0.55286000  0.97243000  1.0 0.0886542953
C  C95  1  0.55286000  0.97243000  0.93981000  1.0 0.0886542953
C  C96  1  0.97243000  0.93981000  0.55286000  1.0 0.0886542953
C  C97  1  0.18517000  0.46954000  0.06859000  1.0 -0.1583115289
C  C98  1  0.46954000  0.06859000  0.18517000  1.0 -0.1583115289
C  C99  1  0.06859000  0.18517000  0.46954000  1.0 -0.1583115289
C  C100  1  0.81483000  0.53046000  0.93141000  1.0 -0.1583115289
C  C101  1  0.53046000  0.93141000  0.81483000  1.0 -0.1583115289
C  C102  1  0.93141000  0.81483000  0.53046000  1.0 -0.1583115289
C  C103  1  0.51672000  0.18239000  0.52995000  1.0 0.5898844281
C  C104  1  0.18239000  0.52995000  0.51672000  1.0 0.5898844281
C  C105  1  0.52995000  0.51672000  0.18239000  1.0 0.5898844281
C  C106  1  0.48328000  0.81761000  0.47005000  1.0 0.5898844281
C  C107  1  0.81761000  0.47005000  0.48328000  1.0 0.5898844281
C  C108  1  0.47005000  0.48328000  0.81761000  1.0 0.5898844281
C  C109  1  0.18152000  0.46182000  0.94226000  1.0 -0.0906607764
C  C110  1  0.46182000  0.94226000  0.18152000  1.0 -0.0906607764
C  C111  1  0.94226000  0.18152000  0.46182000  1.0 -0.0906607764
C  C112  1  0.81848000  0.53818000  0.05774000  1.0 -0.0906607764
C  C113  1  0.53818000  0.05774000  0.81848000  1.0 -0.0906607764
C  C114  1  0.05774000  0.81848000  0.53818000  1.0 -0.0906607764
C  C115  1  0.24306000  0.47524000  0.99528000  1.0 -0.0275969256
C  C116  1  0.47524000  0.99528000  0.24306000  1.0 -0.0275969256
C  C117  1  0.99528000  0.24306000  0.47524000  1.0 -0.0275969256
C  C118  1  0.75694000  0.52476000  0.00472000  1.0 -0.0275969256
C  C119  1  0.52476000  0.00472000  0.75694000  1.0 -0.0275969256
C  C120  1  0.00472000  0.75694000  0.52476000  1.0 -0.0275969256
C  C121  1  0.30617000  0.48362000  0.98271000  1.0 0.6013643125
C  C122  1  0.48362000  0.98271000  0.30617000  1.0 0.6013643125
C  C123  1  0.98271000  0.30617000  0.48362000  1.0 0.6013643125
C  C124  1  0.69383000  0.51638000  0.01729000  1.0 0.6013643125
C  C125  1  0.51638000  0.01729000  0.69383000  1.0 0.6013643125
C  C126  1  0.01729000  0.69383000  0.51638000  1.0 0.6013643125
C  C127  1  0.48671000  0.22826000  0.44143000  1.0 -0.0906607764
C  C128  1  0.22826000  0.44143000  0.48671000  1.0 -0.0906607764
C  C129  1  0.44143000  0.48671000  0.22826000  1.0 -0.0906607764
C  C130  1  0.51329000  0.77174000  0.55857000  1.0 -0.0906607764
C  C131  1  0.77174000  0.55857000  0.51329000  1.0 -0.0906607764
C  C132  1  0.55857000  0.51329000  0.77174000  1.0 -0.0906607764
C  C133  1  0.44670000  0.38004000  0.44618000  1.0 0.0219982599
C  C134  1  0.38004000  0.44618000  0.44670000  1.0 0.0219982599
C  C135  1  0.44618000  0.44670000  0.38004000  1.0 0.0219982599
C  C136  1  0.55330000  0.61996000  0.55382000  1.0 0.0219982599
C  C137  1  0.61996000  0.55382000  0.55330000  1.0 0.0219982599
C  C138  1  0.55382000  0.55330000  0.61996000  1.0 0.0219982599
C  C139  1  0.50529000  0.29412000  0.55787000  1.0 -0.0964798408
C  C140  1  0.29412000  0.55787000  0.50529000  1.0 -0.0964798408
C  C141  1  0.55787000  0.50529000  0.29412000  1.0 -0.0964798408
C  C142  1  0.49471000  0.70588000  0.44213000  1.0 -0.0964798408
C  C143  1  0.70588000  0.44213000  0.49471000  1.0 -0.0964798408
C  C144  1  0.44213000  0.49471000  0.70588000  1.0 -0.0964798408
C  C145  1  0.40267000  0.40220000  0.46838000  1.0 -0.0906607764
C  C146  1  0.40220000  0.46838000  0.40267000  1.0 -0.0906607764
C  C147  1  0.46838000  0.40267000  0.40220000  1.0 -0.0906607764
C  C148  1  0.59733000  0.59780000  0.53162000  1.0 -0.0906607764
C  C149  1  0.59780000  0.53162000  0.59733000  1.0 -0.0906607764
C  C150  1  0.53162000  0.59733000  0.59780000  1.0 -0.0906607764
C  C151  1  0.46908000  0.33202000  0.46924000  1.0 0.0886542953
C  C152  1  0.33202000  0.46924000  0.46908000  1.0 0.0886542953
C  C153  1  0.46924000  0.46908000  0.33202000  1.0 0.0886542953
C  C154  1  0.53092000  0.66798000  0.53076000  1.0 0.0886542953
C  C155  1  0.66798000  0.53076000  0.53092000  1.0 0.0886542953
C  C156  1  0.53076000  0.53092000  0.66798000  1.0 0.0886542953
C  C157  1  0.50375000  0.23662000  0.50942000  1.0 -0.0246936737
C  C158  1  0.23662000  0.50942000  0.50375000  1.0 -0.0275969256
C  C159  1  0.50942000  0.50375000  0.23662000  1.0 -0.0246936737
C  C160  1  0.49625000  0.76338000  0.49058000  1.0 -0.0246936737
C  C161  1  0.76338000  0.49058000  0.49625000  1.0 -0.0275969256
C  C162  1  0.49058000  0.49625000  0.76338000  1.0 -0.0246936737
C  C163  1  0.04531000  0.54935000  0.31974000  1.0 -0.0073233134
C  C164  1  0.54935000  0.31974000  0.04531000  1.0 -0.0073233134
C  C165  1  0.31974000  0.04531000  0.54935000  1.0 -0.0073233134
C  C166  1  0.95469000  0.45065000  0.68026000  1.0 -0.0073233134
C  C167  1  0.45065000  0.68026000  0.95469000  1.0 -0.0073233134
C  C168  1  0.68026000  0.95469000  0.45065000  1.0 -0.0073233134
C  C169  1  0.73279000  0.26735000  0.80756000  1.0 -0.0073233134
C  C170  1  0.26735000  0.80756000  0.73279000  1.0 -0.0073233134
C  C171  1  0.80756000  0.73279000  0.26735000  1.0 -0.0073233134
C  C172  1  0.26721000  0.73265000  0.19244000  1.0 -0.0073233134
C  C173  1  0.73265000  0.19244000  0.26721000  1.0 -0.0073233134
C  C174  1  0.19244000  0.26721000  0.73265000  1.0 -0.0073233134
C  C175  1  0.74149000  0.32078000  0.86393000  1.0 -0.0906607764
C  C176  1  0.32078000  0.86393000  0.74149000  1.0 -0.0906607764
C  C177  1  0.86393000  0.74149000  0.32078000  1.0 -0.0906607764
C  C178  1  0.25851000  0.67922000  0.13607000  1.0 -0.0906607764
C  C179  1  0.67922000  0.13607000  0.25851000  1.0 -0.0906607764
C  C180  1  0.13607000  0.25851000  0.67922000  1.0 -0.0906607764
C  C181  1  0.08726000  0.58766000  0.29888000  1.0 -0.0906607764
C  C182  1  0.58766000  0.29888000  0.08726000  1.0 -0.0906607764
C  C183  1  0.29888000  0.08726000  0.58766000  1.0 -0.0906607764
C  C184  1  0.91274000  0.41234000  0.70112000  1.0 -0.0906607764
C  C185  1  0.41234000  0.70112000  0.91274000  1.0 -0.0906607764
C  C186  1  0.70112000  0.91274000  0.41234000  1.0 -0.0906607764
C  C187  1  0.97459000  0.46318000  0.20213000  1.0 -0.144695448
C  C188  1  0.46318000  0.20213000  0.97459000  1.0 -0.144695448
C  C189  1  0.20213000  0.97459000  0.46318000  1.0 -0.144695448
C  C190  1  0.02541000  0.53682000  0.79787000  1.0 -0.1483108
C  C191  1  0.53682000  0.79787000  0.02541000  1.0 -0.1483108
C  C192  1  0.79787000  0.02541000  0.53682000  1.0 -0.1483108
C  C193  1  0.80724000  0.36359000  0.92097000  1.0 -0.1483108
C  C194  1  0.36359000  0.92097000  0.80724000  1.0 -0.1483108
C  C195  1  0.92097000  0.80724000  0.36359000  1.0 -0.1483108
C  C196  1  0.19276000  0.63641000  0.07903000  1.0 -0.1483108
C  C197  1  0.63641000  0.07903000  0.19276000  1.0 -0.1483108
C  C198  1  0.07903000  0.19276000  0.63641000  1.0 -0.1483108
C  C199  1  0.79030000  0.25560000  0.80710000  1.0 -0.0906607764
C  C200  1  0.25560000  0.80710000  0.79030000  1.0 -0.0964798408
C  C201  1  0.80710000  0.79030000  0.25560000  1.0 -0.0906607764
C  C202  1  0.20970000  0.74440000  0.19290000  1.0 -0.0906607764
C  C203  1  0.74440000  0.19290000  0.20970000  1.0 -0.0906607764
C  C204  1  0.19290000  0.20970000  0.74440000  1.0 -0.0964798408
C  C205  1  0.98974000  0.48951000  0.27285000  1.0 -0.0810562915
C  C206  1  0.48951000  0.27285000  0.98974000  1.0 -0.0810562915
C  C207  1  0.27285000  0.98974000  0.48951000  1.0 -0.0810562915
C  C208  1  0.01026000  0.51049000  0.72715000  1.0 -0.0810562915
C  C209  1  0.51049000  0.72715000  0.01026000  1.0 -0.0810562915
C  C210  1  0.72715000  0.01026000  0.51049000  1.0 -0.0810562915
C  C211  1  0.06691000  0.57609000  0.39830000  1.0 0.5633252838
C  C212  1  0.57609000  0.39830000  0.06691000  1.0 0.5633252838
C  C213  1  0.39830000  0.06691000  0.57609000  1.0 0.5633252838
C  C214  1  0.93309000  0.42391000  0.60170000  1.0 0.5633252838
C  C215  1  0.42391000  0.60170000  0.93309000  1.0 0.5633252838
C  C216  1  0.60170000  0.93309000  0.42391000  1.0 0.5633252838
C  C217  1  0.81360000  0.20610000  0.53600000  1.0 0.0473628118
C  C218  1  0.20610000  0.53600000  0.81360000  1.0 0.0473628118
C  C219  1  0.53600000  0.81360000  0.20610000  1.0 0.0473628118
C  C220  1  0.18640000  0.79390000  0.46400000  1.0 0.0473628118
C  C221  1  0.79390000  0.46400000  0.18640000  1.0 0.0473628118
C  C222  1  0.46400000  0.18640000  0.79390000  1.0 0.0473628118
C  C223  1  0.68150000  0.15900000  0.50370000  1.0 0.466421915
C  C224  1  0.15900000  0.50370000  0.68150000  1.0 0.466421915
C  C225  1  0.50370000  0.68150000  0.15900000  1.0 0.466421915
C  C226  1  0.31850000  0.84100000  0.49630000  1.0 0.466421915
C  C227  1  0.84100000  0.49630000  0.31850000  1.0 0.466421915
C  C228  1  0.49630000  0.31850000  0.84100000  1.0 0.466421915
C  C229  1  0.76480000  0.20190000  0.62020000  1.0 0.0473628118
C  C230  1  0.20190000  0.62020000  0.76480000  1.0 0.0446980165
C  C231  1  0.62020000  0.76480000  0.20190000  1.0 0.0473628118
C  C232  1  0.23520000  0.79810000  0.37980000  1.0 0.0446980165
C  C233  1  0.79810000  0.37980000  0.23520000  1.0 0.0473628118
C  C234  1  0.37980000  0.23520000  0.79810000  1.0 0.0446980165
C  C235  1  0.67370000  0.13160000  0.42370000  1.0 -0.1905111674
C  C236  1  0.13160000  0.42370000  0.67370000  1.0 -0.1905111674
C  C237  1  0.42370000  0.67370000  0.13160000  1.0 -0.1976060611
C  C238  1  0.32630000  0.86840000  0.57630000  1.0 -0.1905111674
C  C239  1  0.86840000  0.57630000  0.32630000  1.0 -0.1905111674
C  C240  1  0.57630000  0.32630000  0.86840000  1.0 -0.1905111674
N  N1  1  0.75050000  0.18970000  0.55040000  1.0 -0.1069014702
N  N2  1  0.18970000  0.55040000  0.75050000  1.0 -0.1069014702
N  N3  1  0.55040000  0.75050000  0.18970000  1.0 -0.1069014702
N  N4  1  0.24950000  0.81030000  0.44960000  1.0 -0.1069014702
N  N5  1  0.81030000  0.44960000  0.24950000  1.0 -0.1069014702
N  N6  1  0.44960000  0.24950000  0.81030000  1.0 -0.1069014702
O  O1  1  0.49472000  0.12344000  0.48208000  1.0 -0.5183336954
O  O2  1  0.12344000  0.48208000  0.49472000  1.0 -0.5183336954
O  O3  1  0.48208000  0.49472000  0.12344000  1.0 -0.5183336954
O  O4  1  0.50528000  0.87656000  0.51792000  1.0 -0.5183336954
O  O5  1  0.87656000  0.51792000  0.50528000  1.0 -0.5183336954
O  O6  1  0.51792000  0.50528000  0.87656000  1.0 -0.5183336954
O  O7  1  0.63709000  0.13450000  0.51381000  1.0 -0.3833639543
O  O8  1  0.13450000  0.51381000  0.63709000  1.0 -0.3833639543
O  O9  1  0.51381000  0.63709000  0.13450000  1.0 -0.3833639543
O  O10  1  0.36291000  0.86550000  0.48619000  1.0 -0.3833639543
O  O11  1  0.86550000  0.48619000  0.36291000  1.0 -0.3833639543
O  O12  1  0.48619000  0.36291000  0.86550000  1.0 -0.3833639543
O  O13  1  0.36257000  0.50543000  0.03413000  1.0 -0.5304675371
O  O14  1  0.50543000  0.03413000  0.36257000  1.0 -0.5304675371
O  O15  1  0.03413000  0.36257000  0.50543000  1.0 -0.5304675371
O  O16  1  0.63743000  0.49457000  0.96587000  1.0 -0.5304675371
O  O17  1  0.49457000  0.96587000  0.63743000  1.0 -0.5304675371
O  O18  1  0.96587000  0.63743000  0.49457000  1.0 -0.5304675371
O  O19  1  0.65904000  0.17109000  0.69563000  1.0 -0.508742573
O  O20  1  0.17109000  0.69563000  0.65904000  1.0 -0.508742573
O  O21  1  0.69563000  0.65904000  0.17109000  1.0 -0.508742573
O  O22  1  0.34096000  0.82891000  0.30437000  1.0 -0.508742573
O  O23  1  0.82891000  0.30437000  0.34096000  1.0 -0.508742573
O  O24  1  0.30437000  0.34096000  0.82891000  1.0 -0.508742573
O  O25  1  0.61057000  0.22827000  0.74461000  1.0 -0.5183336954
O  O26  1  0.22827000  0.74461000  0.61057000  1.0 -0.5183336954
O  O27  1  0.74461000  0.61057000  0.22827000  1.0 -0.5183336954
O  O28  1  0.38943000  0.77173000  0.25539000  1.0 -0.5183336954
O  O29  1  0.77173000  0.25539000  0.38943000  1.0 -0.5183336954
O  O30  1  0.25539000  0.38943000  0.77173000  1.0 -0.5183336954
O  O31  1  0.29637000  0.46865000  0.92084000  1.0 -0.5429605267
O  O32  1  0.46865000  0.92084000  0.29637000  1.0 -0.5429605267
O  O33  1  0.92084000  0.29637000  0.46865000  1.0 -0.5429605267
O  O34  1  0.70363000  0.53135000  0.07916000  1.0 -0.5429605267
O  O35  1  0.53135000  0.07916000  0.70363000  1.0 -0.5429605267
O  O36  1  0.07916000  0.70363000  0.53135000  1.0 -0.5429605267
O  O37  1  0.54700000  0.20060000  0.59366000  1.0 -0.5304675371
O  O38  1  0.20060000  0.59366000  0.54700000  1.0 -0.5304675371
O  O39  1  0.59366000  0.54700000  0.20060000  1.0 -0.5304675371
O  O40  1  0.45300000  0.79940000  0.40634000  1.0 -0.5304675371
O  O41  1  0.79940000  0.40634000  0.45300000  1.0 -0.5304675371
O  O42  1  0.40634000  0.45300000  0.79940000  1.0 -0.5304675371
O  O43  1  0.55166000  0.05020000  0.56741000  1.0 -0.797356697
O  O44  1  0.05020000  0.56741000  0.55166000  1.0 -0.7932671627
O  O45  1  0.56741000  0.55166000  0.05020000  1.0 -0.797356697
O  O46  1  0.44834000  0.94980000  0.43259000  1.0 -0.797356697
O  O47  1  0.94980000  0.43259000  0.44834000  1.0 -0.797356697
O  O48  1  0.43259000  0.44834000  0.94980000  1.0 -0.797356697
O  O49  1  0.02147000  0.54603000  0.41350000  1.0 -0.508742573
O  O50  1  0.54603000  0.41350000  0.02147000  1.0 -0.508742573
O  O51  1  0.41350000  0.02147000  0.54603000  1.0 -0.508742573
O  O52  1  0.97853000  0.45397000  0.58650000  1.0 -0.508742573
O  O53  1  0.45397000  0.58650000  0.97853000  1.0 -0.508742573
O  O54  1  0.58650000  0.97853000  0.45397000  1.0 -0.508742573
O  O55  1  0.12218000  0.62273000  0.44099000  1.0 -0.4544312975
O  O56  1  0.62273000  0.44099000  0.12218000  1.0 -0.4544312975
O  O57  1  0.44099000  0.12218000  0.62273000  1.0 -0.4544312975
O  O58  1  0.87782000  0.37727000  0.55901000  1.0 -0.4544312975
O  O59  1  0.37727000  0.55901000  0.87782000  1.0 -0.4544312975
O  O60  1  0.55901000  0.87782000  0.37727000  1.0 -0.4544312975
