# DDEC6 charges by PACMAN v1.1 (https://github.com/mtap-research/PACMAN-charge/)
data_WAVROC_FSR_pacman
_symmetry_space_group_name_H-M   'P 1'
_cell_length_a   35.99410000
_cell_length_b   35.99410000
_cell_length_c   35.99410000
_cell_angle_alpha   53.17870000
_cell_angle_beta   53.17870000
_cell_angle_gamma   53.17870000
_symmetry_Int_Tables_number   1
_chemical_formula_structural   MgInH20C36O11
_chemical_formula_sum   'Mg12 In12 H240 C432 O132'
_cell_volume   27705.60200475
_cell_formula_units_Z   12
loop_
 _symmetry_equiv_pos_site_id
 _symmetry_equiv_pos_as_xyz
  1  'x, y, z'
loop_
 _atom_site_type_symbol
 _atom_site_label
 _atom_site_symmetry_multiplicity
 _atom_site_fract_x
 _atom_site_fract_y
 _atom_site_fract_z
 _atom_site_occupancy
 _atom_site_charge
Mg  Mg1  1  0.08577000  0.66293000  0.54218000  1.0 1.4192147771
Mg  Mg2  1  0.66293000  0.54218000  0.08577000  1.0 1.4192147771
Mg  Mg3  1  0.54218000  0.08577000  0.66293000  1.0 1.4192147771
Mg  Mg4  1  0.41423000  0.95782000  0.83707000  1.0 1.4192147771
Mg  Mg5  1  0.83707000  0.41423000  0.95782000  1.0 1.4192147771
Mg  Mg6  1  0.95782000  0.83707000  0.41423000  1.0 1.4192147771
Mg  Mg7  1  0.91423000  0.33707000  0.45782000  1.0 1.4192147771
Mg  Mg8  1  0.33707000  0.45782000  0.91423000  1.0 1.4192147771
Mg  Mg9  1  0.45782000  0.91423000  0.33707000  1.0 1.4192147771
Mg  Mg10  1  0.58577000  0.04218000  0.16293000  1.0 1.4192147771
Mg  Mg11  1  0.16293000  0.58577000  0.04218000  1.0 1.4192147771
Mg  Mg12  1  0.04218000  0.16293000  0.58577000  1.0 1.4192147771
In  In1  1  0.05317000  0.70723000  0.44076000  1.0 1.4907795707
In  In2  1  0.70723000  0.44076000  0.05317000  1.0 1.4907795707
In  In3  1  0.44076000  0.05317000  0.70723000  1.0 1.4907795707
In  In4  1  0.44683000  0.05924000  0.79277000  1.0 1.4907795707
In  In5  1  0.79277000  0.44683000  0.05924000  1.0 1.4907795707
In  In6  1  0.05924000  0.79277000  0.44683000  1.0 1.4907795707
In  In7  1  0.94683000  0.29277000  0.55924000  1.0 1.4907795707
In  In8  1  0.29277000  0.55924000  0.94683000  1.0 1.4907795707
In  In9  1  0.55924000  0.94683000  0.29277000  1.0 1.4907795707
In  In10  1  0.55317000  0.94076000  0.20723000  1.0 1.4907795707
In  In11  1  0.20723000  0.55317000  0.94076000  1.0 1.4907795707
In  In12  1  0.94076000  0.20723000  0.55317000  1.0 1.4907795707
H  H1  1  0.74670000  0.78800000  0.64950000  1.0 0.12904762
H  H2  1  0.78800000  0.64950000  0.74670000  1.0 0.12904762
H  H3  1  0.64950000  0.74670000  0.78800000  1.0 0.12904762
H  H4  1  0.75330000  0.85050000  0.71200000  1.0 0.12904762
H  H5  1  0.71200000  0.75330000  0.85050000  1.0 0.12904762
H  H6  1  0.85050000  0.71200000  0.75330000  1.0 0.12904762
H  H7  1  0.25330000  0.21200000  0.35050000  1.0 0.12904762
H  H8  1  0.21200000  0.35050000  0.25330000  1.0 0.12904762
H  H9  1  0.35050000  0.25330000  0.21200000  1.0 0.12904762
H  H10  1  0.24670000  0.14950000  0.28800000  1.0 0.12904762
H  H11  1  0.28800000  0.24670000  0.14950000  1.0 0.12904762
H  H12  1  0.14950000  0.28800000  0.24670000  1.0 0.12904762
H  H13  1  0.86030000  0.66330000  0.70740000  1.0 0.1223305027
H  H14  1  0.66330000  0.70740000  0.86030000  1.0 0.1223305027
H  H15  1  0.70740000  0.86030000  0.66330000  1.0 0.1223305027
H  H16  1  0.63970000  0.79260000  0.83670000  1.0 0.1223305027
H  H17  1  0.83670000  0.63970000  0.79260000  1.0 0.1223305027
H  H18  1  0.79260000  0.83670000  0.63970000  1.0 0.1223305027
H  H19  1  0.13970000  0.33670000  0.29260000  1.0 0.1223305027
H  H20  1  0.33670000  0.29260000  0.13970000  1.0 0.1223305027
H  H21  1  0.29260000  0.13970000  0.33670000  1.0 0.1223305027
H  H22  1  0.36030000  0.20740000  0.16330000  1.0 0.1223305027
H  H23  1  0.16330000  0.36030000  0.20740000  1.0 0.1223305027
H  H24  1  0.20740000  0.16330000  0.36030000  1.0 0.1223305027
H  H25  1  0.81640000  0.74260000  0.59280000  1.0 0.12904762
H  H26  1  0.74260000  0.59280000  0.81640000  1.0 0.12904762
H  H27  1  0.59280000  0.81640000  0.74260000  1.0 0.12904762
H  H28  1  0.68360000  0.90720000  0.75740000  1.0 0.12904762
H  H29  1  0.75740000  0.68360000  0.90720000  1.0 0.12904762
H  H30  1  0.90720000  0.75740000  0.68360000  1.0 0.12904762
H  H31  1  0.18360000  0.25740000  0.40720000  1.0 0.12904762
H  H32  1  0.25740000  0.40720000  0.18360000  1.0 0.12904762
H  H33  1  0.40720000  0.18360000  0.25740000  1.0 0.12904762
H  H34  1  0.31640000  0.09280000  0.24260000  1.0 0.12904762
H  H35  1  0.24260000  0.31640000  0.09280000  1.0 0.12904762
H  H36  1  0.09280000  0.24260000  0.31640000  1.0 0.12904762
H  H37  1  0.94260000  0.65430000  0.65210000  1.0 0.12904762
H  H38  1  0.65430000  0.65210000  0.94260000  1.0 0.12904762
H  H39  1  0.65210000  0.94260000  0.65430000  1.0 0.1406396727
H  H40  1  0.55740000  0.84790000  0.84570000  1.0 0.12904762
H  H41  1  0.84570000  0.55740000  0.84790000  1.0 0.12904762
H  H42  1  0.84790000  0.84570000  0.55740000  1.0 0.12904762
H  H43  1  0.05740000  0.34570000  0.34790000  1.0 0.12904762
H  H44  1  0.34570000  0.34790000  0.05740000  1.0 0.1406396727
H  H45  1  0.34790000  0.05740000  0.34570000  1.0 0.12904762
H  H46  1  0.44260000  0.15210000  0.15430000  1.0 0.1406396727
H  H47  1  0.15430000  0.44260000  0.15210000  1.0 0.1406396727
H  H48  1  0.15210000  0.15430000  0.44260000  1.0 0.12904762
H  H49  1  0.89840000  0.73200000  0.53820000  1.0 0.1406396727
H  H50  1  0.73200000  0.53820000  0.89840000  1.0 0.1406396727
H  H51  1  0.53820000  0.89840000  0.73200000  1.0 0.1406396727
H  H52  1  0.60160000  0.96180000  0.76800000  1.0 0.1406396727
H  H53  1  0.76800000  0.60160000  0.96180000  1.0 0.1406396727
H  H54  1  0.96180000  0.76800000  0.60160000  1.0 0.1406396727
H  H55  1  0.10160000  0.26800000  0.46180000  1.0 0.1406396727
H  H56  1  0.26800000  0.46180000  0.10160000  1.0 0.1406396727
H  H57  1  0.46180000  0.10160000  0.26800000  1.0 0.1406396727
H  H58  1  0.39840000  0.03820000  0.23200000  1.0 0.1406396727
H  H59  1  0.23200000  0.39840000  0.03820000  1.0 0.1406396727
H  H60  1  0.03820000  0.23200000  0.39840000  1.0 0.1406396727
H  H61  1  0.70780000  0.84640000  0.30450000  1.0 0.1461349076
H  H62  1  0.84640000  0.30450000  0.70780000  1.0 0.1461349076
H  H63  1  0.30450000  0.70780000  0.84640000  1.0 0.1461349076
H  H64  1  0.79220000  0.19550000  0.65360000  1.0 0.1461349076
H  H65  1  0.65360000  0.79220000  0.19550000  1.0 0.1461349076
H  H66  1  0.19550000  0.65360000  0.79220000  1.0 0.1461349076
H  H67  1  0.29220000  0.15360000  0.69550000  1.0 0.1461349076
H  H68  1  0.15360000  0.69550000  0.29220000  1.0 0.1461349076
H  H69  1  0.69550000  0.29220000  0.15360000  1.0 0.1461349076
H  H70  1  0.20780000  0.80450000  0.34640000  1.0 0.1461349076
H  H71  1  0.34640000  0.20780000  0.80450000  1.0 0.1461349076
H  H72  1  0.80450000  0.34640000  0.20780000  1.0 0.1461349076
H  H73  1  0.63930000  0.75090000  0.39290000  1.0 0.1406396727
H  H74  1  0.75090000  0.39290000  0.63930000  1.0 0.1406396727
H  H75  1  0.39290000  0.63930000  0.75090000  1.0 0.1406396727
H  H76  1  0.86070000  0.10710000  0.74910000  1.0 0.1406396727
H  H77  1  0.74910000  0.86070000  0.10710000  1.0 0.1406396727
H  H78  1  0.10710000  0.74910000  0.86070000  1.0 0.1406396727
H  H79  1  0.36070000  0.24910000  0.60710000  1.0 0.1406396727
H  H80  1  0.24910000  0.60710000  0.36070000  1.0 0.1406396727
H  H81  1  0.60710000  0.36070000  0.24910000  1.0 0.1406396727
H  H82  1  0.13930000  0.89290000  0.25090000  1.0 0.1406396727
H  H83  1  0.25090000  0.13930000  0.89290000  1.0 0.1406396727
H  H84  1  0.89290000  0.25090000  0.13930000  1.0 0.1406396727
H  H85  1  0.76650000  0.78990000  0.34130000  1.0 0.12904762
H  H86  1  0.78990000  0.34130000  0.76650000  1.0 0.12904762
H  H87  1  0.34130000  0.76650000  0.78990000  1.0 0.12904762
H  H88  1  0.73350000  0.15870000  0.71010000  1.0 0.12904762
H  H89  1  0.71010000  0.73350000  0.15870000  1.0 0.12904762
H  H90  1  0.15870000  0.71010000  0.73350000  1.0 0.12904762
H  H91  1  0.23350000  0.21010000  0.65870000  1.0 0.12904762
H  H92  1  0.21010000  0.65870000  0.23350000  1.0 0.12904762
H  H93  1  0.65870000  0.23350000  0.21010000  1.0 0.12904762
H  H94  1  0.26650000  0.84130000  0.28990000  1.0 0.12904762
H  H95  1  0.28990000  0.26650000  0.84130000  1.0 0.12904762
H  H96  1  0.84130000  0.28990000  0.26650000  1.0 0.12904762
H  H97  1  0.69630000  0.69550000  0.43090000  1.0 0.12904762
H  H98  1  0.69550000  0.43090000  0.69630000  1.0 0.12904762
H  H99  1  0.43090000  0.69630000  0.69550000  1.0 0.12904762
H  H100  1  0.80370000  0.06910000  0.80450000  1.0 0.12904762
H  H101  1  0.80450000  0.80370000  0.06910000  1.0 0.12904762
H  H102  1  0.06910000  0.80450000  0.80370000  1.0 0.12904762
H  H103  1  0.30370000  0.30450000  0.56910000  1.0 0.12904762
H  H104  1  0.30450000  0.56910000  0.30370000  1.0 0.12904762
H  H105  1  0.56910000  0.30370000  0.30450000  1.0 0.12904762
H  H106  1  0.19630000  0.93090000  0.19550000  1.0 0.12904762
H  H107  1  0.19550000  0.19630000  0.93090000  1.0 0.12904762
H  H108  1  0.93090000  0.19550000  0.19630000  1.0 0.12904762
H  H109  1  0.85210000  0.48080000  0.43940000  1.0 0.1461349076
H  H110  1  0.48080000  0.43940000  0.85210000  1.0 0.1406396727
H  H111  1  0.43940000  0.85210000  0.48080000  1.0 0.1461349076
H  H112  1  0.64790000  0.06060000  0.01920000  1.0 0.1461349076
H  H113  1  0.01920000  0.64790000  0.06060000  1.0 0.1461349076
H  H114  1  0.06060000  0.01920000  0.64790000  1.0 0.1406396727
H  H115  1  0.14790000  0.51920000  0.56060000  1.0 0.1461349076
H  H116  1  0.51920000  0.56060000  0.14790000  1.0 0.1461349076
H  H117  1  0.56060000  0.14790000  0.51920000  1.0 0.1461349076
H  H118  1  0.35210000  0.93940000  0.98080000  1.0 0.1461349076
H  H119  1  0.98080000  0.35210000  0.93940000  1.0 0.1461349076
H  H120  1  0.93940000  0.98080000  0.35210000  1.0 0.1461349076
H  H121  1  0.88940000  0.45030000  0.54180000  1.0 0.1461349076
H  H122  1  0.45030000  0.54180000  0.88940000  1.0 0.1461349076
H  H123  1  0.54180000  0.88940000  0.45030000  1.0 0.1461349076
H  H124  1  0.61060000  0.95820000  0.04970000  1.0 0.1461349076
H  H125  1  0.04970000  0.61060000  0.95820000  1.0 0.1461349076
H  H126  1  0.95820000  0.04970000  0.61060000  1.0 0.1461349076
H  H127  1  0.11060000  0.54970000  0.45820000  1.0 0.1461349076
H  H128  1  0.54970000  0.45820000  0.11060000  1.0 0.1461349076
H  H129  1  0.45820000  0.11060000  0.54970000  1.0 0.1461349076
H  H130  1  0.38940000  0.04180000  0.95030000  1.0 0.1461349076
H  H131  1  0.95030000  0.38940000  0.04180000  1.0 0.1461349076
H  H132  1  0.04180000  0.95030000  0.38940000  1.0 0.1461349076
H  H133  1  0.77160000  0.63890000  0.42900000  1.0 0.12904762
H  H134  1  0.63890000  0.42900000  0.77160000  1.0 0.12904762
H  H135  1  0.42900000  0.77160000  0.63890000  1.0 0.12904762
H  H136  1  0.72840000  0.07100000  0.86110000  1.0 0.12904762
H  H137  1  0.86110000  0.72840000  0.07100000  1.0 0.12904762
H  H138  1  0.07100000  0.86110000  0.72840000  1.0 0.12904762
H  H139  1  0.22840000  0.36110000  0.57100000  1.0 0.12904762
H  H140  1  0.36110000  0.57100000  0.22840000  1.0 0.12904762
H  H141  1  0.57100000  0.22840000  0.36110000  1.0 0.12904762
H  H142  1  0.27160000  0.92900000  0.13890000  1.0 0.12904762
H  H143  1  0.13890000  0.27160000  0.92900000  1.0 0.12904762
H  H144  1  0.92900000  0.13890000  0.27160000  1.0 0.12904762
H  H145  1  0.82300000  0.56610000  0.41890000  1.0 0.1223305027
H  H146  1  0.56610000  0.41890000  0.82300000  1.0 0.1223305027
H  H147  1  0.41890000  0.82300000  0.56610000  1.0 0.1223305027
H  H148  1  0.67700000  0.08110000  0.93390000  1.0 0.1223305027
H  H149  1  0.93390000  0.67700000  0.08110000  1.0 0.1223305027
H  H150  1  0.08110000  0.93390000  0.67700000  1.0 0.1223305027
H  H151  1  0.17700000  0.43390000  0.58110000  1.0 0.1223305027
H  H152  1  0.43390000  0.58110000  0.17700000  1.0 0.1223305027
H  H153  1  0.58110000  0.17700000  0.43390000  1.0 0.1223305027
H  H154  1  0.32300000  0.91890000  0.06610000  1.0 0.1223305027
H  H155  1  0.06610000  0.32300000  0.91890000  1.0 0.1223305027
H  H156  1  0.91890000  0.06610000  0.32300000  1.0 0.1223305027
H  H157  1  0.86300000  0.53440000  0.52010000  1.0 0.1223305027
H  H158  1  0.53440000  0.52010000  0.86300000  1.0 0.1223305027
H  H159  1  0.52010000  0.86300000  0.53440000  1.0 0.1223305027
H  H160  1  0.63700000  0.97990000  0.96560000  1.0 0.1223305027
H  H161  1  0.96560000  0.63700000  0.97990000  1.0 0.1223305027
H  H162  1  0.97990000  0.96560000  0.63700000  1.0 0.1223305027
H  H163  1  0.13700000  0.46560000  0.47990000  1.0 0.1223305027
H  H164  1  0.46560000  0.47990000  0.13700000  1.0 0.1223305027
H  H165  1  0.47990000  0.13700000  0.46560000  1.0 0.1223305027
H  H166  1  0.36300000  0.02010000  0.03440000  1.0 0.1223305027
H  H167  1  0.03440000  0.36300000  0.02010000  1.0 0.1223305027
H  H168  1  0.02010000  0.03440000  0.36300000  1.0 0.1223305027
H  H169  1  0.93820000  0.64060000  0.41460000  1.0 0.12904762
H  H170  1  0.64060000  0.41460000  0.93820000  1.0 0.12904762
H  H171  1  0.41460000  0.93820000  0.64060000  1.0 0.12904762
H  H172  1  0.56180000  0.08540000  0.85940000  1.0 0.12904762
H  H173  1  0.85940000  0.56180000  0.08540000  1.0 0.12904762
H  H174  1  0.08540000  0.85940000  0.56180000  1.0 0.12904762
H  H175  1  0.06180000  0.35940000  0.58540000  1.0 0.12904762
H  H176  1  0.35940000  0.58540000  0.06180000  1.0 0.12904762
H  H177  1  0.58540000  0.06180000  0.35940000  1.0 0.12904762
H  H178  1  0.43820000  0.91460000  0.14060000  1.0 0.12904762
H  H179  1  0.14060000  0.43820000  0.91460000  1.0 0.12904762
H  H180  1  0.91460000  0.14060000  0.43820000  1.0 0.12904762
H  H181  1  0.87610000  0.60640000  0.46560000  1.0 0.12904762
H  H182  1  0.60640000  0.46560000  0.87610000  1.0 0.12904762
H  H183  1  0.46560000  0.87610000  0.60640000  1.0 0.12904762
H  H184  1  0.62390000  0.03440000  0.89360000  1.0 0.12904762
H  H185  1  0.89360000  0.62390000  0.03440000  1.0 0.12904762
H  H186  1  0.03440000  0.89360000  0.62390000  1.0 0.12904762
H  H187  1  0.12390000  0.39360000  0.53440000  1.0 0.12904762
H  H188  1  0.39360000  0.53440000  0.12390000  1.0 0.12904762
H  H189  1  0.53440000  0.12390000  0.39360000  1.0 0.12904762
H  H190  1  0.37610000  0.96560000  0.10640000  1.0 0.12904762
H  H191  1  0.10640000  0.37610000  0.96560000  1.0 0.12904762
H  H192  1  0.96560000  0.10640000  0.37610000  1.0 0.12904762
H  H193  1  0.79520000  0.74890000  0.40220000  1.0 0.12904762
H  H194  1  0.74890000  0.40220000  0.79520000  1.0 0.12904762
H  H195  1  0.40220000  0.79520000  0.74890000  1.0 0.12904762
H  H196  1  0.70480000  0.09780000  0.75110000  1.0 0.12904762
H  H197  1  0.75110000  0.70480000  0.09780000  1.0 0.12904762
H  H198  1  0.09780000  0.75110000  0.70480000  1.0 0.12904762
H  H199  1  0.20480000  0.25110000  0.59780000  1.0 0.12904762
H  H200  1  0.25110000  0.59780000  0.20480000  1.0 0.12904762
H  H201  1  0.59780000  0.20480000  0.25110000  1.0 0.12904762
H  H202  1  0.29520000  0.90220000  0.24890000  1.0 0.12904762
H  H203  1  0.24890000  0.29520000  0.90220000  1.0 0.12904762
H  H204  1  0.90220000  0.24890000  0.29520000  1.0 0.12904762
H  H205  1  0.81930000  0.76080000  0.43970000  1.0 0.1223305027
H  H206  1  0.76080000  0.43970000  0.81930000  1.0 0.1223305027
H  H207  1  0.43970000  0.81930000  0.76080000  1.0 0.1223305027
H  H208  1  0.68070000  0.06030000  0.73920000  1.0 0.1223305027
H  H209  1  0.73920000  0.68070000  0.06030000  1.0 0.1223305027
H  H210  1  0.06030000  0.73920000  0.68070000  1.0 0.1223305027
H  H211  1  0.18070000  0.23920000  0.56030000  1.0 0.1223305027
H  H212  1  0.23920000  0.56030000  0.18070000  1.0 0.1223305027
H  H213  1  0.56030000  0.18070000  0.23920000  1.0 0.1223305027
H  H214  1  0.31930000  0.93970000  0.26080000  1.0 0.1223305027
H  H215  1  0.26080000  0.31930000  0.93970000  1.0 0.1223305027
H  H216  1  0.93970000  0.26080000  0.31930000  1.0 0.1223305027
H  H217  1  0.86700000  0.78460000  0.43870000  1.0 0.1406396727
H  H218  1  0.78460000  0.43870000  0.86700000  1.0 0.1406396727
H  H219  1  0.43870000  0.86700000  0.78460000  1.0 0.1406396727
H  H220  1  0.63300000  0.06130000  0.71540000  1.0 0.1406396727
H  H221  1  0.71540000  0.63300000  0.06130000  1.0 0.1406396727
H  H222  1  0.06130000  0.71540000  0.63300000  1.0 0.1406396727
H  H223  1  0.13300000  0.21540000  0.56130000  1.0 0.1406396727
H  H224  1  0.21540000  0.56130000  0.13300000  1.0 0.1406396727
H  H225  1  0.56130000  0.13300000  0.21540000  1.0 0.1406396727
H  H226  1  0.36700000  0.93870000  0.28460000  1.0 0.1406396727
H  H227  1  0.28460000  0.36700000  0.93870000  1.0 0.1406396727
H  H228  1  0.93870000  0.28460000  0.36700000  1.0 0.1406396727
H  H229  1  0.98660000  0.66400000  0.41210000  1.0 0.1461349076
H  H230  1  0.66400000  0.41210000  0.98660000  1.0 0.1461349076
H  H231  1  0.41210000  0.98660000  0.66400000  1.0 0.1461349076
H  H232  1  0.51340000  0.08790000  0.83600000  1.0 0.1461349076
H  H233  1  0.83600000  0.51340000  0.08790000  1.0 0.1406396727
H  H234  1  0.08790000  0.83600000  0.51340000  1.0 0.1461349076
H  H235  1  0.01340000  0.33600000  0.58790000  1.0 0.1461349076
H  H236  1  0.33600000  0.58790000  0.01340000  1.0 0.1461349076
H  H237  1  0.58790000  0.01340000  0.33600000  1.0 0.1461349076
H  H238  1  0.48660000  0.91210000  0.16400000  1.0 0.1461349076
H  H239  1  0.16400000  0.48660000  0.91210000  1.0 0.1461349076
H  H240  1  0.91210000  0.16400000  0.48660000  1.0 0.1461349076
C  C1  1  0.77677000  0.71529000  0.69283000  1.0 0.1015791664
C  C2  1  0.71529000  0.69283000  0.77677000  1.0 0.1015791664
C  C3  1  0.69283000  0.77677000  0.71529000  1.0 0.1015791664
C  C4  1  0.72323000  0.80717000  0.78471000  1.0 0.1015791664
C  C5  1  0.78471000  0.72323000  0.80717000  1.0 0.1015791664
C  C6  1  0.80717000  0.78471000  0.72323000  1.0 0.1015791664
C  C7  1  0.22323000  0.28471000  0.30717000  1.0 0.1015791664
C  C8  1  0.28471000  0.30717000  0.22323000  1.0 0.1015791664
C  C9  1  0.30717000  0.22323000  0.28471000  1.0 0.1015791664
C  C10  1  0.27677000  0.19283000  0.21529000  1.0 0.1015791664
C  C11  1  0.21529000  0.27677000  0.19283000  1.0 0.1015791664
C  C12  1  0.19283000  0.21529000  0.27677000  1.0 0.1015791664
C  C13  1  0.73876000  0.76411000  0.68172000  1.0 -0.1802851899
C  C14  1  0.76411000  0.68172000  0.73876000  1.0 -0.1802851899
C  C15  1  0.68172000  0.73876000  0.76411000  1.0 -0.1802851899
C  C16  1  0.76124000  0.81828000  0.73589000  1.0 -0.1802851899
C  C17  1  0.73589000  0.76124000  0.81828000  1.0 -0.1802851899
C  C18  1  0.81828000  0.73589000  0.76124000  1.0 -0.1802851899
C  C19  1  0.26124000  0.23589000  0.31828000  1.0 -0.1802851899
C  C20  1  0.23589000  0.31828000  0.26124000  1.0 -0.1802851899
C  C21  1  0.31828000  0.26124000  0.23589000  1.0 -0.1802851899
C  C22  1  0.23876000  0.18172000  0.26411000  1.0 -0.1802851899
C  C23  1  0.26411000  0.23876000  0.18172000  1.0 -0.1802851899
C  C24  1  0.18172000  0.26411000  0.23876000  1.0 -0.1802851899
C  C25  1  0.86767000  0.67783000  0.67311000  1.0 -0.1466577531
C  C26  1  0.67783000  0.67311000  0.86767000  1.0 -0.1466577531
C  C27  1  0.67311000  0.86767000  0.67783000  1.0 -0.1466577531
C  C28  1  0.63233000  0.82689000  0.82217000  1.0 -0.1466577531
C  C29  1  0.82217000  0.63233000  0.82689000  1.0 -0.1466577531
C  C30  1  0.82689000  0.82217000  0.63233000  1.0 -0.1466577531
C  C31  1  0.13233000  0.32217000  0.32689000  1.0 -0.1466577531
C  C32  1  0.32217000  0.32689000  0.13233000  1.0 -0.1466577531
C  C33  1  0.32689000  0.13233000  0.32217000  1.0 -0.1466577531
C  C34  1  0.36767000  0.17311000  0.17783000  1.0 -0.1466577531
C  C35  1  0.17783000  0.36767000  0.17311000  1.0 -0.1466577531
C  C36  1  0.17311000  0.17783000  0.36767000  1.0 -0.1466577531
C  C37  1  0.84133000  0.72482000  0.60521000  1.0 -0.1417827734
C  C38  1  0.72482000  0.60521000  0.84133000  1.0 -0.1417827734
C  C39  1  0.60521000  0.84133000  0.72482000  1.0 -0.1417827734
C  C40  1  0.65867000  0.89479000  0.77518000  1.0 -0.1417827734
C  C41  1  0.77518000  0.65867000  0.89479000  1.0 -0.1417827734
C  C42  1  0.89479000  0.77518000  0.65867000  1.0 -0.1417827734
C  C43  1  0.15867000  0.27518000  0.39479000  1.0 -0.1417827734
C  C44  1  0.27518000  0.39479000  0.15867000  1.0 -0.1417827734
C  C45  1  0.39479000  0.15867000  0.27518000  1.0 -0.1417827734
C  C46  1  0.34133000  0.10521000  0.22482000  1.0 -0.1417827734
C  C47  1  0.22482000  0.34133000  0.10521000  1.0 -0.1417827734
C  C48  1  0.10521000  0.22482000  0.34133000  1.0 -0.1417827734
C  C49  1  0.92846000  0.69353000  0.58900000  1.0 -0.0189218346
C  C50  1  0.69353000  0.58900000  0.92846000  1.0 -0.0189218346
C  C51  1  0.58900000  0.92846000  0.69353000  1.0 -0.0189218346
C  C52  1  0.57154000  0.91100000  0.80647000  1.0 -0.0189218346
C  C53  1  0.80647000  0.57154000  0.91100000  1.0 -0.0189218346
C  C54  1  0.91100000  0.80647000  0.57154000  1.0 -0.0189218346
C  C55  1  0.07154000  0.30647000  0.41100000  1.0 -0.0189218346
C  C56  1  0.30647000  0.41100000  0.07154000  1.0 -0.0189218346
C  C57  1  0.41100000  0.07154000  0.30647000  1.0 -0.0189218346
C  C58  1  0.42846000  0.08900000  0.19353000  1.0 -0.0189218346
C  C59  1  0.19353000  0.42846000  0.08900000  1.0 -0.0189218346
C  C60  1  0.08900000  0.19353000  0.42846000  1.0 -0.0189218346
C  C61  1  0.91731000  0.67217000  0.63996000  1.0 -0.0781542689
C  C62  1  0.67217000  0.63996000  0.91731000  1.0 -0.0781542689
C  C63  1  0.63996000  0.91731000  0.67217000  1.0 -0.0781542689
C  C64  1  0.58269000  0.86004000  0.82783000  1.0 -0.0781542689
C  C65  1  0.82783000  0.58269000  0.86004000  1.0 -0.0781542689
C  C66  1  0.86004000  0.82783000  0.58269000  1.0 -0.0781542689
C  C67  1  0.08269000  0.32783000  0.36004000  1.0 -0.0781542689
C  C68  1  0.32783000  0.36004000  0.08269000  1.0 -0.0781542689
C  C69  1  0.36004000  0.08269000  0.32783000  1.0 -0.0781542689
C  C70  1  0.41731000  0.13996000  0.17217000  1.0 -0.0781542689
C  C71  1  0.17217000  0.41731000  0.13996000  1.0 -0.0781542689
C  C72  1  0.13996000  0.17217000  0.41731000  1.0 -0.0781542689
C  C73  1  0.98081000  0.69051000  0.55260000  1.0 0.6003264555
C  C74  1  0.69051000  0.55260000  0.98081000  1.0 0.6003264555
C  C75  1  0.55260000  0.98081000  0.69051000  1.0 0.6003264555
C  C76  1  0.51919000  0.94740000  0.80949000  1.0 0.6003264555
C  C77  1  0.80949000  0.51919000  0.94740000  1.0 0.6003264555
C  C78  1  0.94740000  0.80949000  0.51919000  1.0 0.6003264555
C  C79  1  0.01919000  0.30949000  0.44740000  1.0 0.6003264555
C  C80  1  0.30949000  0.44740000  0.01919000  1.0 0.6003264555
C  C81  1  0.44740000  0.01919000  0.30949000  1.0 0.6003264555
C  C82  1  0.48081000  0.05260000  0.19051000  1.0 0.6003264555
C  C83  1  0.19051000  0.48081000  0.05260000  1.0 0.6003264555
C  C84  1  0.05260000  0.19051000  0.48081000  1.0 0.6003264555
C  C85  1  0.89065000  0.71870000  0.57233000  1.0 -0.0701439907
C  C86  1  0.71870000  0.57233000  0.89065000  1.0 -0.0701439907
C  C87  1  0.57233000  0.89065000  0.71870000  1.0 -0.0701439907
C  C88  1  0.60935000  0.92767000  0.78130000  1.0 -0.0701439907
C  C89  1  0.78130000  0.60935000  0.92767000  1.0 -0.0701439907
C  C90  1  0.92767000  0.78130000  0.60935000  1.0 -0.0701439907
C  C91  1  0.10935000  0.28130000  0.42767000  1.0 -0.0701439907
C  C92  1  0.28130000  0.42767000  0.10935000  1.0 -0.0701439907
C  C93  1  0.42767000  0.10935000  0.28130000  1.0 -0.0701439907
C  C94  1  0.39065000  0.07233000  0.21870000  1.0 -0.0701439907
C  C95  1  0.21870000  0.39065000  0.07233000  1.0 -0.0701439907
C  C96  1  0.07233000  0.21870000  0.39065000  1.0 -0.0701439907
C  C97  1  0.82924000  0.70479000  0.65587000  1.0 0.0733097652
C  C98  1  0.70479000  0.65587000  0.82924000  1.0 0.0733097652
C  C99  1  0.65587000  0.82924000  0.70479000  1.0 0.0733097652
C  C100  1  0.67076000  0.84413000  0.79521000  1.0 0.0733097652
C  C101  1  0.79521000  0.67076000  0.84413000  1.0 0.0733097652
C  C102  1  0.84413000  0.79521000  0.67076000  1.0 0.0733097652
C  C103  1  0.17076000  0.29521000  0.34413000  1.0 0.0733097652
C  C104  1  0.29521000  0.34413000  0.17076000  1.0 0.0733097652
C  C105  1  0.34413000  0.17076000  0.29521000  1.0 0.0733097652
C  C106  1  0.32924000  0.15587000  0.20479000  1.0 0.0733097652
C  C107  1  0.20479000  0.32924000  0.15587000  1.0 0.0733097652
C  C108  1  0.15587000  0.20479000  0.32924000  1.0 0.0733097652
C  C109  1  0.70555000  0.81573000  0.32944000  1.0 -0.0701439907
C  C110  1  0.81573000  0.32944000  0.70555000  1.0 -0.0701439907
C  C111  1  0.32944000  0.70555000  0.81573000  1.0 -0.0701439907
C  C112  1  0.79445000  0.17056000  0.68427000  1.0 -0.0701439907
C  C113  1  0.68427000  0.79445000  0.17056000  1.0 -0.0701439907
C  C114  1  0.17056000  0.68427000  0.79445000  1.0 -0.0701439907
C  C115  1  0.29445000  0.18427000  0.67056000  1.0 -0.0701439907
C  C116  1  0.18427000  0.67056000  0.29445000  1.0 -0.0701439907
C  C117  1  0.67056000  0.29445000  0.18427000  1.0 -0.0701439907
C  C118  1  0.20555000  0.82944000  0.31573000  1.0 -0.0701439907
C  C119  1  0.31573000  0.20555000  0.82944000  1.0 -0.0701439907
C  C120  1  0.82944000  0.31573000  0.20555000  1.0 -0.0701439907
C  C121  1  0.62833000  0.84051000  0.32227000  1.0 0.5622146546
C  C122  1  0.84051000  0.32227000  0.62833000  1.0 0.5622146546
C  C123  1  0.32227000  0.62833000  0.84051000  1.0 0.5622146546
C  C124  1  0.87167000  0.17773000  0.65949000  1.0 0.5622146546
C  C125  1  0.65949000  0.87167000  0.17773000  1.0 0.5622146546
C  C126  1  0.17773000  0.65949000  0.87167000  1.0 0.5622146546
C  C127  1  0.37167000  0.15949000  0.67773000  1.0 0.5622146546
C  C128  1  0.15949000  0.67773000  0.37167000  1.0 0.5622146546
C  C129  1  0.67773000  0.37167000  0.15949000  1.0 0.5622146546
C  C130  1  0.12833000  0.82227000  0.34051000  1.0 0.5622146546
C  C131  1  0.34051000  0.12833000  0.82227000  1.0 0.5622146546
C  C132  1  0.82227000  0.34051000  0.12833000  1.0 0.5622146546
C  C133  1  0.66804000  0.80432000  0.34428000  1.0 -0.0189218346
C  C134  1  0.80432000  0.34428000  0.66804000  1.0 -0.0189218346
C  C135  1  0.34428000  0.66804000  0.80432000  1.0 -0.0189218346
C  C136  1  0.83196000  0.15572000  0.69568000  1.0 -0.0189218346
C  C137  1  0.69568000  0.83196000  0.15572000  1.0 -0.0189218346
C  C138  1  0.15572000  0.69568000  0.83196000  1.0 -0.0189218346
C  C139  1  0.33196000  0.19568000  0.65572000  1.0 -0.0189218346
C  C140  1  0.19568000  0.65572000  0.33196000  1.0 -0.0189218346
C  C141  1  0.65572000  0.33196000  0.19568000  1.0 -0.0189218346
C  C142  1  0.16804000  0.84428000  0.30432000  1.0 -0.0189218346
C  C143  1  0.30432000  0.16804000  0.84428000  1.0 -0.0189218346
C  C144  1  0.84428000  0.30432000  0.16804000  1.0 -0.0189218346
C  C145  1  0.66528000  0.75900000  0.38219000  1.0 -0.0781542689
C  C146  1  0.75900000  0.38219000  0.66528000  1.0 -0.0781542689
C  C147  1  0.38219000  0.66528000  0.75900000  1.0 -0.0781542689
C  C148  1  0.83472000  0.11781000  0.74100000  1.0 -0.0781542689
C  C149  1  0.74100000  0.83472000  0.11781000  1.0 -0.0781542689
C  C150  1  0.11781000  0.74100000  0.83472000  1.0 -0.0781542689
C  C151  1  0.33472000  0.24100000  0.61781000  1.0 -0.0781542689
C  C152  1  0.24100000  0.61781000  0.33472000  1.0 -0.0781542689
C  C153  1  0.61781000  0.33472000  0.24100000  1.0 -0.0781542689
C  C154  1  0.16528000  0.88219000  0.25900000  1.0 -0.0781542689
C  C155  1  0.25900000  0.16528000  0.88219000  1.0 -0.0781542689
C  C156  1  0.88219000  0.25900000  0.16528000  1.0 -0.0781542689
C  C157  1  0.74102000  0.78128000  0.35185000  1.0 -0.1340512117
C  C158  1  0.78128000  0.35185000  0.74102000  1.0 -0.1340512117
C  C159  1  0.35185000  0.74102000  0.78128000  1.0 -0.1340512117
C  C160  1  0.75898000  0.14815000  0.71872000  1.0 -0.1340512117
C  C161  1  0.71872000  0.75898000  0.14815000  1.0 -0.1340512117
C  C162  1  0.14815000  0.71872000  0.75898000  1.0 -0.1340512117
C  C163  1  0.25898000  0.21872000  0.64815000  1.0 -0.1340512117
C  C164  1  0.21872000  0.64815000  0.25898000  1.0 -0.1340512117
C  C165  1  0.64815000  0.25898000  0.21872000  1.0 -0.1340512117
C  C166  1  0.24102000  0.85185000  0.28128000  1.0 -0.1340512117
C  C167  1  0.28128000  0.24102000  0.85185000  1.0 -0.1340512117
C  C168  1  0.85185000  0.28128000  0.24102000  1.0 -0.1340512117
C  C169  1  0.77803000  0.69997000  0.41100000  1.0 0.0919579628
C  C170  1  0.69997000  0.41100000  0.77803000  1.0 0.0919579628
C  C171  1  0.41100000  0.77803000  0.69997000  1.0 0.0919579628
C  C172  1  0.72197000  0.08900000  0.80003000  1.0 0.0919579628
C  C173  1  0.80003000  0.72197000  0.08900000  1.0 0.0919579628
C  C174  1  0.08900000  0.80003000  0.72197000  1.0 0.0919579628
C  C175  1  0.22197000  0.30003000  0.58900000  1.0 0.0919579628
C  C176  1  0.30003000  0.58900000  0.22197000  1.0 0.0919579628
C  C177  1  0.58900000  0.22197000  0.30003000  1.0 0.0919579628
C  C178  1  0.27803000  0.91100000  0.19997000  1.0 0.0919579628
C  C179  1  0.19997000  0.27803000  0.91100000  1.0 0.0919579628
C  C180  1  0.91100000  0.19997000  0.27803000  1.0 0.0919579628
C  C181  1  0.73978000  0.73650000  0.38779000  1.0 0.0796378379
C  C182  1  0.73650000  0.38779000  0.73978000  1.0 0.0796378379
C  C183  1  0.38779000  0.73978000  0.73650000  1.0 0.0796378379
C  C184  1  0.76022000  0.11221000  0.76350000  1.0 0.0796378379
C  C185  1  0.76350000  0.76022000  0.11221000  1.0 0.0796378379
C  C186  1  0.11221000  0.76350000  0.76022000  1.0 0.0796378379
C  C187  1  0.26022000  0.26350000  0.61221000  1.0 0.0796378379
C  C188  1  0.26350000  0.61221000  0.26022000  1.0 0.0796378379
C  C189  1  0.61221000  0.26022000  0.26350000  1.0 0.0796378379
C  C190  1  0.23978000  0.88779000  0.23650000  1.0 0.0796378379
C  C191  1  0.23650000  0.23978000  0.88779000  1.0 0.0796378379
C  C192  1  0.88779000  0.23650000  0.23978000  1.0 0.0796378379
C  C193  1  0.69966000  0.72538000  0.40462000  1.0 -0.1417827734
C  C194  1  0.72538000  0.40462000  0.69966000  1.0 -0.1417827734
C  C195  1  0.40462000  0.69966000  0.72538000  1.0 -0.1417827734
C  C196  1  0.80034000  0.09538000  0.77462000  1.0 -0.1417827734
C  C197  1  0.77462000  0.80034000  0.09538000  1.0 -0.1417827734
C  C198  1  0.09538000  0.77462000  0.80034000  1.0 -0.1417827734
C  C199  1  0.30034000  0.27462000  0.59538000  1.0 -0.1417827734
C  C200  1  0.27462000  0.59538000  0.30034000  1.0 -0.1417827734
C  C201  1  0.59538000  0.30034000  0.27462000  1.0 -0.1417827734
C  C202  1  0.19966000  0.90462000  0.22538000  1.0 -0.1417827734
C  C203  1  0.22538000  0.19966000  0.90462000  1.0 -0.1417827734
C  C204  1  0.90462000  0.22538000  0.19966000  1.0 -0.1417827734
C  C205  1  0.87570000  0.45750000  0.49034000  1.0 -0.0189218346
C  C206  1  0.45750000  0.49034000  0.87570000  1.0 -0.0189218346
C  C207  1  0.49034000  0.87570000  0.45750000  1.0 -0.0189218346
C  C208  1  0.62430000  0.00966000  0.04250000  1.0 -0.0189218346
C  C209  1  0.04250000  0.62430000  0.00966000  1.0 -0.0189218346
C  C210  1  0.00966000  0.04250000  0.62430000  1.0 -0.0189218346
C  C211  1  0.12430000  0.54250000  0.50966000  1.0 -0.0189218346
C  C212  1  0.54250000  0.50966000  0.12430000  1.0 -0.0189218346
C  C213  1  0.50966000  0.12430000  0.54250000  1.0 -0.0189218346
C  C214  1  0.37570000  0.99034000  0.95750000  1.0 -0.0189218346
C  C215  1  0.95750000  0.37570000  0.99034000  1.0 -0.0189218346
C  C216  1  0.99034000  0.95750000  0.37570000  1.0 -0.0189218346
C  C217  1  0.85491000  0.49151000  0.45516000  1.0 -0.0701439907
C  C218  1  0.49151000  0.45516000  0.85491000  1.0 -0.0701439907
C  C219  1  0.45516000  0.85491000  0.49151000  1.0 -0.0701439907
C  C220  1  0.64509000  0.04484000  0.00849000  1.0 -0.0701439907
C  C221  1  0.00849000  0.64509000  0.04484000  1.0 -0.0701439907
C  C222  1  0.04484000  0.00849000  0.64509000  1.0 -0.0701439907
C  C223  1  0.14509000  0.50849000  0.54484000  1.0 -0.0701439907
C  C224  1  0.50849000  0.54484000  0.14509000  1.0 -0.0701439907
C  C225  1  0.54484000  0.14509000  0.50849000  1.0 -0.0701439907
C  C226  1  0.35491000  0.95516000  0.99151000  1.0 -0.0701439907
C  C227  1  0.99151000  0.35491000  0.95516000  1.0 -0.0701439907
C  C228  1  0.95516000  0.99151000  0.35491000  1.0 -0.0701439907
C  C229  1  0.87727000  0.47361000  0.51604000  1.0 -0.0781542689
C  C230  1  0.47361000  0.51604000  0.87727000  1.0 -0.0781542689
C  C231  1  0.51604000  0.87727000  0.47361000  1.0 -0.0781542689
C  C232  1  0.62273000  0.98396000  0.02639000  1.0 -0.0781542689
C  C233  1  0.02639000  0.62273000  0.98396000  1.0 -0.0781542689
C  C234  1  0.98396000  0.02639000  0.62273000  1.0 -0.0781542689
C  C235  1  0.12273000  0.52639000  0.48396000  1.0 -0.0781542689
C  C236  1  0.52639000  0.48396000  0.12273000  1.0 -0.0781542689
C  C237  1  0.48396000  0.12273000  0.52639000  1.0 -0.0781542689
C  C238  1  0.37727000  0.01604000  0.97361000  1.0 -0.0781542689
C  C239  1  0.97361000  0.37727000  0.01604000  1.0 -0.0781542689
C  C240  1  0.01604000  0.97361000  0.37727000  1.0 -0.0781542689
C  C241  1  0.89659000  0.40268000  0.50084000  1.0 0.6066543529
C  C242  1  0.40268000  0.50084000  0.89659000  1.0 0.6066543529
C  C243  1  0.50084000  0.89659000  0.40268000  1.0 0.6066543529
C  C244  1  0.60341000  0.99916000  0.09732000  1.0 0.6066543529
C  C245  1  0.09732000  0.60341000  0.99916000  1.0 0.6066543529
C  C246  1  0.99916000  0.09732000  0.60341000  1.0 0.6066543529
C  C247  1  0.10341000  0.59732000  0.49916000  1.0 0.6066543529
C  C248  1  0.59732000  0.49916000  0.10341000  1.0 0.6066543529
C  C249  1  0.49916000  0.10341000  0.59732000  1.0 0.6066543529
C  C250  1  0.39659000  0.00084000  0.90268000  1.0 0.6066543529
C  C251  1  0.90268000  0.39659000  0.00084000  1.0 0.6066543529
C  C252  1  0.00084000  0.90268000  0.39659000  1.0 0.6066543529
C  C253  1  0.78917000  0.64937000  0.42967000  1.0 -0.1875661394
C  C254  1  0.64937000  0.42967000  0.78917000  1.0 -0.1875661394
C  C255  1  0.42967000  0.78917000  0.64937000  1.0 -0.1875661394
C  C256  1  0.71083000  0.07033000  0.85063000  1.0 -0.1875661394
C  C257  1  0.85063000  0.71083000  0.07033000  1.0 -0.1875661394
C  C258  1  0.07033000  0.85063000  0.71083000  1.0 -0.1875661394
C  C259  1  0.21083000  0.35063000  0.57033000  1.0 -0.1875661394
C  C260  1  0.35063000  0.57033000  0.21083000  1.0 -0.1875661394
C  C261  1  0.57033000  0.21083000  0.35063000  1.0 -0.1875661394
C  C262  1  0.28917000  0.92967000  0.14937000  1.0 -0.1875661394
C  C263  1  0.14937000  0.28917000  0.92967000  1.0 -0.1875661394
C  C264  1  0.92967000  0.14937000  0.28917000  1.0 -0.1875661394
C  C265  1  0.83757000  0.54283000  0.44275000  1.0 -0.1417827734
C  C266  1  0.54283000  0.44275000  0.83757000  1.0 -0.1417827734
C  C267  1  0.44275000  0.83757000  0.54283000  1.0 -0.1417827734
C  C268  1  0.66243000  0.05725000  0.95717000  1.0 -0.1417827734
C  C269  1  0.95717000  0.66243000  0.05725000  1.0 -0.1417827734
C  C270  1  0.05725000  0.95717000  0.66243000  1.0 -0.1417827734
C  C271  1  0.16243000  0.45717000  0.55725000  1.0 -0.1417827734
C  C272  1  0.45717000  0.55725000  0.16243000  1.0 -0.1417827734
C  C273  1  0.55725000  0.16243000  0.45717000  1.0 -0.1417827734
C  C274  1  0.33757000  0.94275000  0.04283000  1.0 -0.1417827734
C  C275  1  0.04283000  0.33757000  0.94275000  1.0 -0.1417827734
C  C276  1  0.94275000  0.04283000  0.33757000  1.0 -0.1417827734
C  C277  1  0.82694000  0.61324000  0.44999000  1.0 0.0919579628
C  C278  1  0.61324000  0.44999000  0.82694000  1.0 0.0919579628
C  C279  1  0.44999000  0.82694000  0.61324000  1.0 0.0919579628
C  C280  1  0.67306000  0.05001000  0.88676000  1.0 0.0919579628
C  C281  1  0.88676000  0.67306000  0.05001000  1.0 0.0919579628
C  C282  1  0.05001000  0.88676000  0.67306000  1.0 0.0919579628
C  C283  1  0.17306000  0.38676000  0.55001000  1.0 0.0919579628
C  C284  1  0.38676000  0.55001000  0.17306000  1.0 0.0919579628
C  C285  1  0.55001000  0.17306000  0.38676000  1.0 0.0919579628
C  C286  1  0.32694000  0.94999000  0.11324000  1.0 0.0919579628
C  C287  1  0.11324000  0.32694000  0.94999000  1.0 0.0919579628
C  C288  1  0.94999000  0.11324000  0.32694000  1.0 0.0919579628
C  C289  1  0.84216000  0.55900000  0.46573000  1.0 0.0796378379
C  C290  1  0.55900000  0.46573000  0.84216000  1.0 0.0796378379
C  C291  1  0.46573000  0.84216000  0.55900000  1.0 0.0796378379
C  C292  1  0.65784000  0.03427000  0.94100000  1.0 0.0796378379
C  C293  1  0.94100000  0.65784000  0.03427000  1.0 0.0796378379
C  C294  1  0.03427000  0.94100000  0.65784000  1.0 0.0796378379
C  C295  1  0.15784000  0.44100000  0.53427000  1.0 0.0796378379
C  C296  1  0.44100000  0.53427000  0.15784000  1.0 0.0796378379
C  C297  1  0.53427000  0.15784000  0.44100000  1.0 0.0796378379
C  C298  1  0.34216000  0.96573000  0.05900000  1.0 0.0796378379
C  C299  1  0.05900000  0.34216000  0.96573000  1.0 0.0796378379
C  C300  1  0.96573000  0.05900000  0.34216000  1.0 0.0796378379
C  C301  1  0.86117000  0.52393000  0.50330000  1.0 -0.1417827734
C  C302  1  0.52393000  0.50330000  0.86117000  1.0 -0.1417827734
C  C303  1  0.50330000  0.86117000  0.52393000  1.0 -0.1417827734
C  C304  1  0.63883000  0.99670000  0.97607000  1.0 -0.1417827734
C  C305  1  0.97607000  0.63883000  0.99670000  1.0 -0.1417827734
C  C306  1  0.99670000  0.97607000  0.63883000  1.0 -0.1417827734
C  C307  1  0.13883000  0.47607000  0.49670000  1.0 -0.1417827734
C  C308  1  0.47607000  0.49670000  0.13883000  1.0 -0.1417827734
C  C309  1  0.49670000  0.13883000  0.47607000  1.0 -0.1417827734
C  C310  1  0.36117000  0.00330000  0.02393000  1.0 -0.1417827734
C  C311  1  0.02393000  0.36117000  0.00330000  1.0 -0.1417827734
C  C312  1  0.00330000  0.02393000  0.36117000  1.0 -0.1417827734
C  C313  1  0.92354000  0.66994000  0.41939000  1.0 -0.1417827734
C  C314  1  0.66994000  0.41939000  0.92354000  1.0 -0.1417827734
C  C315  1  0.41939000  0.92354000  0.66994000  1.0 -0.1417827734
C  C316  1  0.57646000  0.08061000  0.83006000  1.0 -0.1417827734
C  C317  1  0.83006000  0.57646000  0.08061000  1.0 -0.1417827734
C  C318  1  0.08061000  0.83006000  0.57646000  1.0 -0.1417827734
C  C319  1  0.07646000  0.33006000  0.58061000  1.0 -0.1417827734
C  C320  1  0.33006000  0.58061000  0.07646000  1.0 -0.1417827734
C  C321  1  0.58061000  0.07646000  0.33006000  1.0 -0.1417827734
C  C322  1  0.42354000  0.91939000  0.16994000  1.0 -0.1417827734
C  C323  1  0.16994000  0.42354000  0.91939000  1.0 -0.1417827734
C  C324  1  0.91939000  0.16994000  0.42354000  1.0 -0.1417827734
C  C325  1  0.84178000  0.68148000  0.43123000  1.0 0.0919579628
C  C326  1  0.68148000  0.43123000  0.84178000  1.0 0.0919579628
C  C327  1  0.43123000  0.84178000  0.68148000  1.0 0.0919579628
C  C328  1  0.65822000  0.06877000  0.81852000  1.0 0.0919579628
C  C329  1  0.81852000  0.65822000  0.06877000  1.0 0.0919579628
C  C330  1  0.06877000  0.81852000  0.65822000  1.0 0.0919579628
C  C331  1  0.15822000  0.31852000  0.56877000  1.0 0.0919579628
C  C332  1  0.31852000  0.56877000  0.15822000  1.0 0.0919579628
C  C333  1  0.56877000  0.15822000  0.31852000  1.0 0.0919579628
C  C334  1  0.34178000  0.93123000  0.18148000  1.0 0.0919579628
C  C335  1  0.18148000  0.34178000  0.93123000  1.0 0.0919579628
C  C336  1  0.93123000  0.18148000  0.34178000  1.0 0.0919579628
C  C337  1  0.85206000  0.62960000  0.45138000  1.0 -0.1875661394
C  C338  1  0.62960000  0.45138000  0.85206000  1.0 -0.1875661394
C  C339  1  0.45138000  0.85206000  0.62960000  1.0 -0.1875661394
C  C340  1  0.64794000  0.04862000  0.87040000  1.0 -0.1875661394
C  C341  1  0.87040000  0.64794000  0.04862000  1.0 -0.1875661394
C  C342  1  0.04862000  0.87040000  0.64794000  1.0 -0.1875661394
C  C343  1  0.14794000  0.37040000  0.54862000  1.0 -0.1875661394
C  C344  1  0.37040000  0.54862000  0.14794000  1.0 -0.1875661394
C  C345  1  0.54862000  0.14794000  0.37040000  1.0 -0.1875661394
C  C346  1  0.35206000  0.95138000  0.12960000  1.0 -0.1875661394
C  C347  1  0.12960000  0.35206000  0.95138000  1.0 -0.1875661394
C  C348  1  0.95138000  0.12960000  0.35206000  1.0 -0.1875661394
C  C349  1  0.96324000  0.74361000  0.42233000  1.0 0.6003264555
C  C350  1  0.74361000  0.42233000  0.96324000  1.0 0.6003264555
C  C351  1  0.42233000  0.96324000  0.74361000  1.0 0.6003264555
C  C352  1  0.53676000  0.07767000  0.75639000  1.0 0.6003264555
C  C353  1  0.75639000  0.53676000  0.07767000  1.0 0.6003264555
C  C354  1  0.07767000  0.75639000  0.53676000  1.0 0.6003264555
C  C355  1  0.03676000  0.25639000  0.57767000  1.0 0.6003264555
C  C356  1  0.25639000  0.57767000  0.03676000  1.0 0.6003264555
C  C357  1  0.57767000  0.03676000  0.25639000  1.0 0.6003264555
C  C358  1  0.46324000  0.92233000  0.24361000  1.0 0.6003264555
C  C359  1  0.24361000  0.46324000  0.92233000  1.0 0.6003264555
C  C360  1  0.92233000  0.24361000  0.46324000  1.0 0.6003264555
C  C361  1  0.80383000  0.71479000  0.41331000  1.0 -0.1742639026
C  C362  1  0.71479000  0.41331000  0.80383000  1.0 -0.1742639026
C  C363  1  0.41331000  0.80383000  0.71479000  1.0 -0.1742639026
C  C364  1  0.69617000  0.08669000  0.78521000  1.0 -0.1742639026
C  C365  1  0.78521000  0.69617000  0.08669000  1.0 -0.1802851899
C  C366  1  0.08669000  0.78521000  0.69617000  1.0 -0.1802851899
C  C367  1  0.19617000  0.28521000  0.58669000  1.0 -0.1742639026
C  C368  1  0.28521000  0.58669000  0.19617000  1.0 -0.1742639026
C  C369  1  0.58669000  0.19617000  0.28521000  1.0 -0.1742639026
C  C370  1  0.30383000  0.91331000  0.21479000  1.0 -0.1802851899
C  C371  1  0.21479000  0.30383000  0.91331000  1.0 -0.1802851899
C  C372  1  0.91331000  0.21479000  0.30383000  1.0 -0.1742639026
C  C373  1  0.87370000  0.69746000  0.42803000  1.0 0.0796378379
C  C374  1  0.69746000  0.42803000  0.87370000  1.0 0.0796378379
C  C375  1  0.42803000  0.87370000  0.69746000  1.0 0.0796378379
C  C376  1  0.62630000  0.07197000  0.80254000  1.0 0.0733097652
C  C377  1  0.80254000  0.62630000  0.07197000  1.0 0.0796378379
C  C378  1  0.07197000  0.80254000  0.62630000  1.0 0.0796378379
C  C379  1  0.12630000  0.30254000  0.57197000  1.0 0.0733097652
C  C380  1  0.30254000  0.57197000  0.12630000  1.0 0.0796378379
C  C381  1  0.57197000  0.12630000  0.30254000  1.0 0.0733097652
C  C382  1  0.37370000  0.92803000  0.19746000  1.0 0.0796378379
C  C383  1  0.19746000  0.37370000  0.92803000  1.0 0.0733097652
C  C384  1  0.92803000  0.19746000  0.37370000  1.0 0.0733097652
C  C385  1  0.85295000  0.74099000  0.43447000  1.0 -0.1417827734
C  C386  1  0.74099000  0.43447000  0.85295000  1.0 -0.1417827734
C  C387  1  0.43447000  0.85295000  0.74099000  1.0 -0.1417827734
C  C388  1  0.64705000  0.06553000  0.75901000  1.0 -0.1417827734
C  C389  1  0.75901000  0.64705000  0.06553000  1.0 -0.1417827734
C  C390  1  0.06553000  0.75901000  0.64705000  1.0 -0.1417827734
C  C391  1  0.14705000  0.25901000  0.56553000  1.0 -0.1417827734
C  C392  1  0.25901000  0.56553000  0.14705000  1.0 -0.1417827734
C  C393  1  0.56553000  0.14705000  0.25901000  1.0 -0.1417827734
C  C394  1  0.35295000  0.93447000  0.24099000  1.0 -0.1417827734
C  C395  1  0.24099000  0.35295000  0.93447000  1.0 -0.1417827734
C  C396  1  0.93447000  0.24099000  0.35295000  1.0 -0.1417827734
C  C397  1  0.88170000  0.75569000  0.43326000  1.0 -0.0701439907
C  C398  1  0.75569000  0.43326000  0.88170000  1.0 -0.0701439907
C  C399  1  0.43326000  0.88170000  0.75569000  1.0 -0.0701439907
C  C400  1  0.61830000  0.06674000  0.74431000  1.0 -0.0701439907
C  C401  1  0.74431000  0.61830000  0.06674000  1.0 -0.0701439907
C  C402  1  0.06674000  0.74431000  0.61830000  1.0 -0.0701439907
C  C403  1  0.11830000  0.24431000  0.56674000  1.0 -0.0701439907
C  C404  1  0.24431000  0.56674000  0.11830000  1.0 -0.0701439907
C  C405  1  0.56674000  0.11830000  0.24431000  1.0 -0.0701439907
C  C406  1  0.38170000  0.93326000  0.25569000  1.0 -0.0701439907
C  C407  1  0.25569000  0.38170000  0.93326000  1.0 -0.0701439907
C  C408  1  0.93326000  0.25569000  0.38170000  1.0 -0.0701439907
C  C409  1  0.93194000  0.72739000  0.42398000  1.0 -0.0298465363
C  C410  1  0.72739000  0.42398000  0.93194000  1.0 -0.0298465363
C  C411  1  0.42398000  0.93194000  0.72739000  1.0 -0.0298465363
C  C412  1  0.56806000  0.07602000  0.77261000  1.0 -0.0298465363
C  C413  1  0.77261000  0.56806000  0.07602000  1.0 -0.0298465363
C  C414  1  0.07602000  0.77261000  0.56806000  1.0 -0.0298465363
C  C415  1  0.06806000  0.27261000  0.57602000  1.0 -0.0298465363
C  C416  1  0.27261000  0.57602000  0.06806000  1.0 -0.0298465363
C  C417  1  0.57602000  0.06806000  0.27261000  1.0 -0.0298465363
C  C418  1  0.43194000  0.92398000  0.22739000  1.0 -0.0298465363
C  C419  1  0.22739000  0.43194000  0.92398000  1.0 -0.0298465363
C  C420  1  0.92398000  0.22739000  0.43194000  1.0 -0.0298465363
C  C421  1  0.95290000  0.68384000  0.41762000  1.0 -0.0781542689
C  C422  1  0.68384000  0.41762000  0.95290000  1.0 -0.0781542689
C  C423  1  0.41762000  0.95290000  0.68384000  1.0 -0.0781542689
C  C424  1  0.54710000  0.08238000  0.81616000  1.0 -0.0781542689
C  C425  1  0.81616000  0.54710000  0.08238000  1.0 -0.0781542689
C  C426  1  0.08238000  0.81616000  0.54710000  1.0 -0.0781542689
C  C427  1  0.04710000  0.31616000  0.58238000  1.0 -0.0781542689
C  C428  1  0.31616000  0.58238000  0.04710000  1.0 -0.0781542689
C  C429  1  0.58238000  0.04710000  0.31616000  1.0 -0.0781542689
C  C430  1  0.45290000  0.91762000  0.18384000  1.0 -0.0781542689
C  C431  1  0.18384000  0.45290000  0.91762000  1.0 -0.0781542689
C  C432  1  0.91762000  0.18384000  0.45290000  1.0 -0.0781542689
O  O1  1  0.98883000  0.70415000  0.50742000  1.0 -0.5504940121
O  O2  1  0.70415000  0.50742000  0.98883000  1.0 -0.5504940121
O  O3  1  0.50742000  0.98883000  0.70415000  1.0 -0.5504940121
O  O4  1  0.51117000  0.99258000  0.79585000  1.0 -0.5504940121
O  O5  1  0.79585000  0.51117000  0.99258000  1.0 -0.5504940121
O  O6  1  0.99258000  0.79585000  0.51117000  1.0 -0.5504940121
O  O7  1  0.01117000  0.29585000  0.49258000  1.0 -0.5504940121
O  O8  1  0.29585000  0.49258000  0.01117000  1.0 -0.5504940121
O  O9  1  0.49258000  0.01117000  0.29585000  1.0 -0.5504940121
O  O10  1  0.48883000  0.00742000  0.20415000  1.0 -0.5504940121
O  O11  1  0.20415000  0.48883000  0.00742000  1.0 -0.5504940121
O  O12  1  0.00742000  0.20415000  0.48883000  1.0 -0.5504940121
O  O13  1  0.01184000  0.67611000  0.56846000  1.0 -0.5602585952
O  O14  1  0.67611000  0.56846000  0.01184000  1.0 -0.5602585952
O  O15  1  0.56846000  0.01184000  0.67611000  1.0 -0.5602585952
O  O16  1  0.48816000  0.93154000  0.82389000  1.0 -0.5602585952
O  O17  1  0.82389000  0.48816000  0.93154000  1.0 -0.5602585952
O  O18  1  0.93154000  0.82389000  0.48816000  1.0 -0.5602585952
O  O19  1  0.98816000  0.32389000  0.43154000  1.0 -0.5602585952
O  O20  1  0.32389000  0.43154000  0.98816000  1.0 -0.5602585952
O  O21  1  0.43154000  0.98816000  0.32389000  1.0 -0.5602585952
O  O22  1  0.51184000  0.06846000  0.17611000  1.0 -0.5602585952
O  O23  1  0.17611000  0.51184000  0.06846000  1.0 -0.5602585952
O  O24  1  0.06846000  0.17611000  0.51184000  1.0 -0.5602585952
O  O25  1  0.59879000  0.82668000  0.33078000  1.0 -0.4096956848
O  O26  1  0.82668000  0.33078000  0.59879000  1.0 -0.4096956848
O  O27  1  0.33078000  0.59879000  0.82668000  1.0 -0.4096956848
O  O28  1  0.90121000  0.16922000  0.67332000  1.0 -0.4096956848
O  O29  1  0.67332000  0.90121000  0.16922000  1.0 -0.4096956848
O  O30  1  0.16922000  0.67332000  0.90121000  1.0 -0.4096956848
O  O31  1  0.40121000  0.17332000  0.66922000  1.0 -0.4096956848
O  O32  1  0.17332000  0.66922000  0.40121000  1.0 -0.4096956848
O  O33  1  0.66922000  0.40121000  0.17332000  1.0 -0.4096956848
O  O34  1  0.09879000  0.83078000  0.32668000  1.0 -0.4049791476
O  O35  1  0.32668000  0.09879000  0.83078000  1.0 -0.4096956848
O  O36  1  0.83078000  0.32668000  0.09879000  1.0 -0.4096956848
O  O37  1  0.62832000  0.88567000  0.29536000  1.0 -0.5116284967
O  O38  1  0.88567000  0.29536000  0.62832000  1.0 -0.5116284967
O  O39  1  0.29536000  0.62832000  0.88567000  1.0 -0.5116284967
O  O40  1  0.87168000  0.20464000  0.61433000  1.0 -0.5116284967
O  O41  1  0.61433000  0.87168000  0.20464000  1.0 -0.5116284967
O  O42  1  0.20464000  0.61433000  0.87168000  1.0 -0.5116284967
O  O43  1  0.37168000  0.11433000  0.70464000  1.0 -0.5116284967
O  O44  1  0.11433000  0.70464000  0.37168000  1.0 -0.5116284967
O  O45  1  0.70464000  0.37168000  0.11433000  1.0 -0.5116284967
O  O46  1  0.12832000  0.79536000  0.38567000  1.0 -0.5116284967
O  O47  1  0.38567000  0.12832000  0.79536000  1.0 -0.5116284967
O  O48  1  0.79536000  0.38567000  0.12832000  1.0 -0.5116284967
O  O49  1  0.89358000  0.39112000  0.47728000  1.0 -0.5504940121
O  O50  1  0.39112000  0.47728000  0.89358000  1.0 -0.5504940121
O  O51  1  0.47728000  0.89358000  0.39112000  1.0 -0.5504940121
O  O52  1  0.60642000  0.02272000  0.10888000  1.0 -0.5504940121
O  O53  1  0.10888000  0.60642000  0.02272000  1.0 -0.5504940121
O  O54  1  0.02272000  0.10888000  0.60642000  1.0 -0.5504940121
O  O55  1  0.10642000  0.60888000  0.52272000  1.0 -0.5504940121
O  O56  1  0.60888000  0.52272000  0.10642000  1.0 -0.5504940121
O  O57  1  0.52272000  0.10642000  0.60888000  1.0 -0.5504940121
O  O58  1  0.39358000  0.97728000  0.89112000  1.0 -0.5504940121
O  O59  1  0.89112000  0.39358000  0.97728000  1.0 -0.5504940121
O  O60  1  0.97728000  0.89112000  0.39358000  1.0 -0.5504940121
O  O61  1  0.91605000  0.37267000  0.53449000  1.0 -0.5504940121
O  O62  1  0.37267000  0.53449000  0.91605000  1.0 -0.5504940121
O  O63  1  0.53449000  0.91605000  0.37267000  1.0 -0.5504940121
O  O64  1  0.58395000  0.96551000  0.12733000  1.0 -0.5504940121
O  O65  1  0.12733000  0.58395000  0.96551000  1.0 -0.5504940121
O  O66  1  0.96551000  0.12733000  0.58395000  1.0 -0.5504940121
O  O67  1  0.08395000  0.62733000  0.46551000  1.0 -0.5504940121
O  O68  1  0.62733000  0.46551000  0.08395000  1.0 -0.5504940121
O  O69  1  0.46551000  0.08395000  0.62733000  1.0 -0.5504940121
O  O70  1  0.41605000  0.03449000  0.87267000  1.0 -0.5504940121
O  O71  1  0.87267000  0.41605000  0.03449000  1.0 -0.5504940121
O  O72  1  0.03449000  0.87267000  0.41605000  1.0 -0.5504940121
O  O73  1  0.00954000  0.71466000  0.41362000  1.0 -0.524408115
O  O74  1  0.71466000  0.41362000  0.00954000  1.0 -0.524408115
O  O75  1  0.41362000  0.00954000  0.71466000  1.0 -0.524408115
O  O76  1  0.49046000  0.08638000  0.78534000  1.0 -0.524408115
O  O77  1  0.78534000  0.49046000  0.08638000  1.0 -0.524408115
O  O78  1  0.08638000  0.78534000  0.49046000  1.0 -0.524408115
O  O79  1  0.99046000  0.28534000  0.58638000  1.0 -0.524408115
O  O80  1  0.28534000  0.58638000  0.99046000  1.0 -0.524408115
O  O81  1  0.58638000  0.99046000  0.28534000  1.0 -0.524408115
O  O82  1  0.50954000  0.91362000  0.21466000  1.0 -0.524408115
O  O83  1  0.21466000  0.50954000  0.91362000  1.0 -0.524408115
O  O84  1  0.91362000  0.21466000  0.50954000  1.0 -0.524408115
O  O85  1  0.94221000  0.78234000  0.43007000  1.0 -0.5504940121
O  O86  1  0.78234000  0.43007000  0.94221000  1.0 -0.5504940121
O  O87  1  0.43007000  0.94221000  0.78234000  1.0 -0.5504940121
O  O88  1  0.55779000  0.06993000  0.71766000  1.0 -0.5504940121
O  O89  1  0.71766000  0.55779000  0.06993000  1.0 -0.5504940121
O  O90  1  0.06993000  0.71766000  0.55779000  1.0 -0.5504940121
O  O91  1  0.05779000  0.21766000  0.56993000  1.0 -0.5504940121
O  O92  1  0.21766000  0.56993000  0.05779000  1.0 -0.5504940121
O  O93  1  0.56993000  0.05779000  0.21766000  1.0 -0.5504940121
O  O94  1  0.44221000  0.93007000  0.28234000  1.0 -0.5504940121
O  O95  1  0.28234000  0.44221000  0.93007000  1.0 -0.5504940121
O  O96  1  0.93007000  0.28234000  0.44221000  1.0 -0.5504940121
O  O97  1  0.03125000  0.78800000  0.41079000  1.0 -0.8886676755
O  O98  1  0.78800000  0.41079000  0.03125000  1.0 -0.8886676755
O  O99  1  0.41079000  0.03125000  0.78800000  1.0 -0.8849407813
O  O100  1  0.46875000  0.08921000  0.71200000  1.0 -0.8886676755
O  O101  1  0.71200000  0.46875000  0.08921000  1.0 -0.8886676755
O  O102  1  0.08921000  0.71200000  0.46875000  1.0 -0.8886676755
O  O103  1  0.96875000  0.21200000  0.58921000  1.0 -0.8886676755
O  O104  1  0.21200000  0.58921000  0.96875000  1.0 -0.8886676755
O  O105  1  0.58921000  0.96875000  0.21200000  1.0 -0.8886676755
O  O106  1  0.53125000  0.91079000  0.28800000  1.0 -0.8886676755
O  O107  1  0.28800000  0.53125000  0.91079000  1.0 -0.8886676755
O  O108  1  0.91079000  0.28800000  0.53125000  1.0 -0.8886676755
O  O109  1  0.08346000  0.61304000  0.61430000  1.0 -0.6078815753
O  O110  1  0.61304000  0.61430000  0.08346000  1.0 -0.6004840812
O  O111  1  0.61430000  0.08346000  0.61304000  1.0 -0.6078815753
O  O112  1  0.41654000  0.88570000  0.88696000  1.0 -0.6195209802
O  O113  1  0.88696000  0.41654000  0.88570000  1.0 -0.6078815753
O  O114  1  0.88570000  0.88696000  0.41654000  1.0 -0.6078815753
O  O115  1  0.91654000  0.38696000  0.38570000  1.0 -0.6078815753
O  O116  1  0.38696000  0.38570000  0.91654000  1.0 -0.6078815753
O  O117  1  0.38570000  0.91654000  0.38696000  1.0 -0.6078815753
O  O118  1  0.58346000  0.11430000  0.11304000  1.0 -0.6195209802
O  O119  1  0.11304000  0.58346000  0.11430000  1.0 -0.6195209802
O  O120  1  0.11430000  0.11304000  0.58346000  1.0 -0.6004840812
O  O121  1  0.16171000  0.64520000  0.51841000  1.0 -0.3796497895
O  O122  1  0.64520000  0.51841000  0.16171000  1.0 -0.3796497895
O  O123  1  0.51841000  0.16171000  0.64520000  1.0 -0.3796497895
O  O124  1  0.33829000  0.98159000  0.85480000  1.0 -0.3796497895
O  O125  1  0.85480000  0.33829000  0.98159000  1.0 -0.3725174051
O  O126  1  0.98159000  0.85480000  0.33829000  1.0 -0.3796497895
O  O127  1  0.83829000  0.35480000  0.48159000  1.0 -0.3796497895
O  O128  1  0.35480000  0.48159000  0.83829000  1.0 -0.3796497895
O  O129  1  0.48159000  0.83829000  0.35480000  1.0 -0.3796497895
O  O130  1  0.66171000  0.01841000  0.14520000  1.0 -0.3725174051
O  O131  1  0.14520000  0.66171000  0.01841000  1.0 -0.3725174051
O  O132  1  0.01841000  0.14520000  0.66171000  1.0 -0.3796497895
