# DDEC6 charges by PACMAN v1.1 (https://github.com/mtap-research/PACMAN-charge/)
data_WAYMAM_ASR_pacman
_symmetry_space_group_name_H-M   'P 1'
_cell_length_a   11.13470000
_cell_length_b   11.13470000
_cell_length_c   11.13470000
_cell_angle_alpha   144.44700000
_cell_angle_beta   110.15200000
_cell_angle_gamma   80.90370000
_symmetry_Int_Tables_number   1
_chemical_formula_structural   VC8O5
_chemical_formula_sum   'V2 C16 O10'
_cell_volume   734.43526095
_cell_formula_units_Z   2
loop_
 _symmetry_equiv_pos_site_id
 _symmetry_equiv_pos_as_xyz
  1  'x, y, z'
loop_
 _atom_site_type_symbol
 _atom_site_label
 _atom_site_symmetry_multiplicity
 _atom_site_fract_x
 _atom_site_fract_y
 _atom_site_fract_z
 _atom_site_occupancy
 _atom_site_charge
V  V1  1  0.00000000  0.00000000  0.50000000  1.0 1.8659382093
V  V2  1  0.00000000  0.50000000  0.00000000  1.0 1.8659382093
C  C1  1  0.99000000  0.76800000  0.83000000  1.0 -0.0123452644
C  C2  1  0.56200000  0.73200000  0.22200000  1.0 -0.0123452644
C  C3  1  0.43800000  0.66000000  0.17000000  1.0 -0.0123452644
C  C4  1  0.01000000  0.84000000  0.77800000  1.0 -0.0123452644
C  C5  1  0.01000000  0.23200000  0.17000000  1.0 -0.0123452644
C  C6  1  0.43800000  0.26800000  0.77800000  1.0 -0.0123452644
C  C7  1  0.56200000  0.34000000  0.83000000  1.0 -0.0123452644
C  C8  1  0.99000000  0.16000000  0.22200000  1.0 -0.0123452644
C  C9  1  0.98300000  0.94000000  0.04300000  1.0 -0.0575108041
C  C10  1  0.60300000  0.56000000  0.04300000  1.0 -0.0575108041
C  C11  1  0.39700000  0.44000000  0.95700000  1.0 -0.0575108041
C  C12  1  0.01700000  0.06000000  0.95700000  1.0 -0.0575108041
C  C13  1  0.98800000  0.87100000  0.11700000  1.0 0.674750604
C  C14  1  0.74600000  0.62900000  0.11700000  1.0 0.674750604
C  C15  1  0.25400000  0.37100000  0.88300000  1.0 0.674750604
C  C16  1  0.01200000  0.12900000  0.88300000  1.0 0.674750604
O  O1  1  0.05700000  0.75000000  0.30700000  1.0 -0.9319443477
O  O2  1  0.94300000  0.25000000  0.69300000  1.0 -0.9319443477
O  O3  1  0.99100000  0.98900000  0.31400000  1.0 -0.5297731009
O  O4  1  0.82500000  0.51100000  0.00200000  1.0 -0.5297731009
O  O5  1  0.17500000  0.17700000  0.68600000  1.0 -0.5297731009
O  O6  1  0.00900000  0.32300000  0.99800000  1.0 -0.5297731009
O  O7  1  0.00900000  0.01100000  0.68600000  1.0 -0.5297731009
O  O8  1  0.17500000  0.48900000  0.99800000  1.0 -0.5297731009
O  O9  1  0.82500000  0.82300000  0.31400000  1.0 -0.5297731009
O  O10  1  0.99100000  0.67700000  0.00200000  1.0 -0.5297731009
