# DDEC6 charges by PACMAN v1.1 (https://github.com/mtap-research/PACMAN-charge/)
data_WAZQIZ_ASR_pacman
_symmetry_space_group_name_H-M   'P 1'
_cell_length_a   11.33800000
_cell_length_b   11.44600000
_cell_length_c   22.42000000
_cell_angle_alpha   102.25000000
_cell_angle_beta   99.24700000
_cell_angle_gamma   103.52400000
_symmetry_Int_Tables_number   1
_chemical_formula_structural   EuB15H18C7O8
_chemical_formula_sum   'Eu4 B60 H72 C28 O32'
_cell_volume   2695.89159961
_cell_formula_units_Z   4
loop_
 _symmetry_equiv_pos_site_id
 _symmetry_equiv_pos_as_xyz
  1  'x, y, z'
loop_
 _atom_site_type_symbol
 _atom_site_label
 _atom_site_symmetry_multiplicity
 _atom_site_fract_x
 _atom_site_fract_y
 _atom_site_fract_z
 _atom_site_occupancy
 _atom_site_charge
Eu  Eu1  1  0.78094000  0.43183000  0.46542000  1.0 2.1020845302
Eu  Eu2  1  0.21906000  0.56817000  0.53458000  1.0 2.1020845302
Eu  Eu3  1  0.05291000  0.70386000  0.02348000  1.0 1.9619185455
Eu  Eu4  1  0.94709000  0.29614000  0.97652000  1.0 1.9619185455
B  B1  1  0.94309000  0.36972000  0.69013000  1.0 -0.0989244165
B  B2  1  0.05691000  0.63028000  0.30987000  1.0 -0.0989244165
B  B3  1  0.82270000  0.44607000  0.69512000  1.0 -0.0822240754
B  B4  1  0.17730000  0.55393000  0.30488000  1.0 -0.0822240754
B  B5  1  0.89598000  0.60944000  0.72329000  1.0 -0.1096625082
B  B6  1  0.10402000  0.39056000  0.27671000  1.0 -0.1096625082
B  B7  1  0.06040000  0.63335000  0.73582000  1.0 -0.1096625082
B  B8  1  0.93960000  0.36665000  0.26418000  1.0 -0.1096625082
B  B9  1  0.09035000  0.48534000  0.71624000  1.0 -0.0644152708
B  B10  1  0.90965000  0.51466000  0.28376000  1.0 -0.0644152708
B  B11  1  0.03267000  0.39827000  0.76648000  1.0 -0.0731223149
B  B12  1  0.96733000  0.60173000  0.23352000  1.0 -0.0731223149
B  B13  1  0.86868000  0.37482000  0.75357000  1.0 -0.0989244165
B  B14  1  0.13132000  0.62518000  0.24643000  1.0 -0.0989244165
B  B15  1  0.84014000  0.52331000  0.77459000  1.0 -0.0989244165
B  B16  1  0.15986000  0.47669000  0.22541000  1.0 -0.0989244165
B  B17  1  0.98643000  0.63907000  0.79938000  1.0 -0.0893497192
B  B18  1  0.01357000  0.36093000  0.20062000  1.0 -0.0893497192
B  B19  1  0.10550000  0.56226000  0.79518000  1.0 -0.0893497192
B  B20  1  0.89450000  0.43774000  0.20482000  1.0 -0.0893497192
B  B21  1  0.39893000  0.12771000  0.28800000  1.0 -0.0893497192
B  B22  1  0.60107000  0.87229000  0.71200000  1.0 -0.0893497192
B  B23  1  0.51460000  0.06318000  0.26091000  1.0 -0.0822240754
B  B24  1  0.48540000  0.93682000  0.73909000  1.0 -0.0822240754
B  B25  1  0.59147000  0.16178000  0.21922000  1.0 -0.0989244165
B  B26  1  0.40853000  0.83822000  0.78078000  1.0 -0.0989244165
B  B27  1  0.52379000  0.28849000  0.22107000  1.0 -0.0893497192
B  B28  1  0.47621000  0.71151000  0.77893000  1.0 -0.0893497192
B  B29  1  0.40342000  0.26588000  0.26284000  1.0 -0.0989244165
B  B30  1  0.59658000  0.73412000  0.73716000  1.0 -0.0989244165
B  B31  1  0.35746000  0.00072000  0.22159000  1.0 -0.1177347735
B  B32  1  0.64254000  0.99928000  0.77841000  1.0 -0.1177347735
B  B33  1  0.47640000  0.02172000  0.17829000  1.0 -0.0731223149
B  B34  1  0.52360000  0.97828000  0.82171000  1.0 -0.0731223149
B  B35  1  0.48302000  0.16182000  0.15361000  1.0 -0.0893497192
B  B36  1  0.51698000  0.83818000  0.84639000  1.0 -0.0893497192
B  B37  1  0.36629000  0.22582000  0.18033000  1.0 -0.1096625082
B  B38  1  0.63371000  0.77418000  0.81967000  1.0 -0.1096625082
B  B39  1  0.28825000  0.12601000  0.22212000  1.0 -0.1096625082
B  B40  1  0.71175000  0.87399000  0.77788000  1.0 -0.1096625082
B  B41  1  0.88186000  0.02357000  0.45181000  1.0 -0.0989244165
B  B42  1  0.11814000  0.97643000  0.54819000  1.0 -0.0989244165
B  B43  1  0.89553000  0.05655000  0.53433000  1.0 -0.1096625082
B  B44  1  0.10447000  0.94345000  0.46567000  1.0 -0.1096625082
B  B45  1  0.05737000  0.10316000  0.57118000  1.0 -0.0893497192
B  B46  1  0.94263000  0.89684000  0.42882000  1.0 -0.0893497192
B  B47  1  0.14347000  0.09838000  0.51118000  1.0 -0.0989244165
B  B48  1  0.85653000  0.90162000  0.48882000  1.0 -0.0893497192
B  B49  1  0.03510000  0.05024000  0.43771000  1.0 -0.0989244165
B  B50  1  0.96490000  0.94976000  0.56229000  1.0 -0.0989244165
B  B51  1  0.38600000  0.41885000  0.93632000  1.0 -0.0644152708
B  B52  1  0.61400000  0.58115000  0.06368000  1.0 -0.0644152708
B  B53  1  0.40165000  0.36878000  0.00648000  1.0 -0.0822240754
B  B54  1  0.59835000  0.63122000  0.99352000  1.0 -0.0822240754
B  B55  1  0.46414000  0.50515000  0.07101000  1.0 -0.0731223149
B  B56  1  0.53586000  0.49485000  0.92899000  1.0 -0.0731223149
B  B57  1  0.48806000  0.63877000  0.03999000  1.0 -0.1305117481
B  B58  1  0.51194000  0.36123000  0.96001000  1.0 -0.1305117481
B  B59  1  0.43926000  0.58498000  0.95699000  1.0 -0.0893497192
B  B60  1  0.56074000  0.41502000  0.04301000  1.0 -0.0893497192
H  H1  1  0.92912000  0.28203000  0.64739000  1.0 0.0907763487
H  H2  1  0.07088000  0.71797000  0.35261000  1.0 0.0907763487
H  H3  1  0.72837000  0.40433000  0.65589000  1.0 0.0199532486
H  H4  1  0.27163000  0.59567000  0.34411000  1.0 0.0199532486
H  H5  1  0.85185000  0.68182000  0.70294000  1.0 0.0395393722
H  H6  1  0.14815000  0.31818000  0.29706000  1.0 0.0395393722
H  H7  1  0.12071000  0.71892000  0.72145000  1.0 0.0782654235
H  H8  1  0.87929000  0.28108000  0.27855000  1.0 0.0782654235
H  H9  1  0.17273000  0.47267000  0.69063000  1.0 0.0578569052
H  H10  1  0.82727000  0.52733000  0.30937000  1.0 0.0578569052
H  H11  1  0.07632000  0.32642000  0.78734000  1.0 -0.019156404
H  H12  1  0.92368000  0.67358000  0.21266000  1.0 -0.019156404
H  H13  1  0.80453000  0.29019000  0.76659000  1.0 0.0123510884
H  H14  1  0.19547000  0.70981000  0.23341000  1.0 0.0123510884
H  H15  1  0.75915000  0.53517000  0.80125000  1.0 0.0907763487
H  H16  1  0.24085000  0.46483000  0.19875000  1.0 0.0907763487
H  H17  1  0.00116000  0.72904000  0.84107000  1.0 0.0123510884
H  H18  1  0.99884000  0.27096000  0.15893000  1.0 0.0123510884
H  H19  1  0.19907000  0.59964000  0.83478000  1.0 0.0782654235
H  H20  1  0.80093000  0.40036000  0.16522000  1.0 0.0782654235
H  H21  1  0.37978000  0.12440000  0.33867000  1.0 -0.0481926434
H  H22  1  0.62022000  0.87560000  0.66133000  1.0 -0.0431387646
H  H23  1  0.57329000  0.01704000  0.29322000  1.0 -0.019156404
H  H24  1  0.42671000  0.98296000  0.70678000  1.0 -0.019156404
H  H25  1  0.70019000  0.17974000  0.22296000  1.0 0.0014994532
H  H26  1  0.29981000  0.82026000  0.77704000  1.0 0.0014994532
H  H27  1  0.58732000  0.39119000  0.22762000  1.0 0.0907763487
H  H28  1  0.41268000  0.60881000  0.77238000  1.0 0.0907763487
H  H29  1  0.38742000  0.35213000  0.29751000  1.0 0.0014994532
H  H30  1  0.61258000  0.64787000  0.70249000  1.0 0.0014994532
H  H31  1  0.29451000  0.90008000  0.21901000  1.0 0.0014994532
H  H32  1  0.70549000  0.09992000  0.78099000  1.0 0.0014994532
H  H33  1  0.49365000  0.93356000  0.14540000  1.0 -0.0481926434
H  H34  1  0.50635000  0.06644000  0.85460000  1.0 -0.0481926434
H  H35  1  0.50319000  0.16601000  0.10349000  1.0 0.0123510884
H  H36  1  0.49681000  0.83399000  0.89651000  1.0 0.0123510884
H  H37  1  0.30835000  0.27137000  0.14739000  1.0 0.1002790766
H  H38  1  0.69165000  0.72863000  0.85261000  1.0 0.1002790766
H  H39  1  0.17907000  0.10806000  0.21881000  1.0 0.0123510884
H  H40  1  0.82093000  0.89194000  0.78119000  1.0 0.0123510884
H  H41  1  0.80621000  0.05186000  0.41864000  1.0 0.0123510884
H  H42  1  0.19379000  0.94814000  0.58136000  1.0 0.0123510884
H  H43  1  0.82710000  0.10696000  0.55787000  1.0 0.0395393722
H  H44  1  0.17290000  0.89304000  0.44213000  1.0 0.0395393722
H  H45  1  0.09586000  0.18411000  0.61854000  1.0 0.0123510884
H  H46  1  0.90414000  0.81589000  0.38146000  1.0 0.0123510884
H  H47  1  0.23911000  0.17555000  0.51788000  1.0 -0.0027011916
H  H48  1  0.76089000  0.82445000  0.48212000  1.0 -0.0027011916
H  H49  1  0.05793000  0.09811000  0.39695000  1.0 0.0578569052
H  H50  1  0.94207000  0.90189000  0.60305000  1.0 0.0578569052
H  H51  1  0.29664000  0.36878000  0.89479000  1.0 -0.0131547865
H  H52  1  0.70336000  0.63122000  0.10521000  1.0 -0.0131547865
H  H53  1  0.32442000  0.28129000  0.00998000  1.0 -0.0027011916
H  H54  1  0.67558000  0.71871000  0.99002000  1.0 -0.0027011916
H  H55  1  0.42854000  0.51083000  0.11861000  1.0 0.0532226876
H  H56  1  0.57146000  0.48917000  0.88139000  1.0 0.0532226876
H  H57  1  0.46947000  0.73262000  0.06609000  1.0 -0.0131547865
H  H58  1  0.53053000  0.26738000  0.93391000  1.0 -0.0131547865
H  H59  1  0.38447000  0.64089000  0.92907000  1.0 0.0578569052
H  H60  1  0.61553000  0.35911000  0.07093000  1.0 0.0578569052
H  H61  1  0.56232000  0.12078000  0.41310000  1.0 0.2335613459
H  H62  1  0.43768000  0.87922000  0.58690000  1.0 0.2335613459
H  H63  1  0.49811000  0.09480000  0.48121000  1.0 0.1692376003
H  H64  1  0.50189000  0.90520000  0.51879000  1.0 0.1692376003
H  H65  1  0.66399000  0.11563000  0.47974000  1.0 0.2182885237
H  H66  1  0.33601000  0.88437000  0.52026000  1.0 0.2182885237
H  H67  1  0.73874000  0.68814000  0.58119000  1.0 0.2802294619
H  H68  1  0.26126000  0.31186000  0.41881000  1.0 0.2802294619
H  H69  1  0.59027000  0.59918000  0.59317000  1.0 0.2404028453
H  H70  1  0.40973000  0.40082000  0.40683000  1.0 0.2404028453
H  H71  1  0.58525000  0.70321000  0.54463000  1.0 0.2182885237
H  H72  1  0.41475000  0.29679000  0.45537000  1.0 0.2182885237
C  C1  1  0.96041000  0.51342000  0.67801000  1.0 -0.0283643328
C  C2  1  0.03959000  0.48658000  0.32199000  1.0 -0.0283643328
C  C3  1  0.96846000  0.49332000  0.81204000  1.0 -0.019156404
C  C4  1  0.03154000  0.50668000  0.18796000  1.0 -0.019156404
C  C5  1  0.95782000  0.52553000  0.61192000  1.0 0.7694561608
C  C6  1  0.04218000  0.47447000  0.38808000  1.0 0.7694561608
C  C7  1  0.97288000  0.48247000  0.87884000  1.0 0.7755201585
C  C8  1  0.02712000  0.51753000  0.12116000  1.0 0.7755201585
C  C9  1  0.53493000  0.22082000  0.28168000  1.0 -0.0431387646
C  C10  1  0.46507000  0.77918000  0.71832000  1.0 -0.0431387646
C  C11  1  0.34562000  0.06878000  0.15943000  1.0 -0.0283643328
C  C12  1  0.65438000  0.93122000  0.84057000  1.0 -0.019156404
C  C13  1  0.62581000  0.29587000  0.34329000  1.0 0.7050065525
C  C14  1  0.37419000  0.70413000  0.65671000  1.0 0.7050065525
C  C15  1  0.24921000  0.98741000  0.09942000  1.0 0.7254084476
C  C16  1  0.75079000  0.01259000  0.90058000  1.0 0.7254084476
C  C17  1  0.00532000  0.13600000  0.50265000  1.0 -0.0283643328
C  C18  1  0.99468000  0.86400000  0.49735000  1.0 -0.0283643328
C  C19  1  0.01019000  0.27090000  0.50435000  1.0 0.7694561608
C  C20  1  0.98981000  0.72910000  0.49565000  1.0 0.7694561608
C  C21  1  0.36906000  0.50667000  0.00448000  1.0 -0.0481926434
C  C22  1  0.63094000  0.49333000  0.99552000  1.0 -0.0481926434
C  C23  1  0.23821000  0.51369000  0.00712000  1.0 0.7694561608
C  C24  1  0.76179000  0.48631000  0.99288000  1.0 0.7694561608
C  C25  1  0.57910000  0.14742000  0.46616000  1.0 -0.1177347735
C  C26  1  0.42090000  0.85258000  0.53384000  1.0 -0.1177347735
C  C27  1  0.63960000  0.63512000  0.55834000  1.0 -0.0893497192
C  C28  1  0.36040000  0.36488000  0.44166000  1.0 -0.0822240754
O  O1  1  0.85240000  0.50591000  0.57632000  1.0 -0.6075625591
O  O2  1  0.14760000  0.49409000  0.42368000  1.0 -0.6075625591
O  O3  1  0.06033000  0.55587000  0.59593000  1.0 -0.5782662504
O  O4  1  0.93967000  0.44413000  0.40407000  1.0 -0.5782662504
O  O5  1  0.01252000  0.58379000  0.92159000  1.0 -0.6868867748
O  O6  1  0.98748000  0.41621000  0.07841000  1.0 -0.6868867748
O  O7  1  0.93845000  0.37620000  0.88818000  1.0 -0.6203566663
O  O8  1  0.06155000  0.62380000  0.11182000  1.0 -0.6203566663
O  O9  1  0.63593000  0.41101000  0.36370000  1.0 -0.5557458274
O  O10  1  0.36407000  0.58899000  0.63630000  1.0 -0.5557458274
O  O11  1  0.68766000  0.23888000  0.37361000  1.0 -0.5447805397
O  O12  1  0.31234000  0.76112000  0.62639000  1.0 -0.5447805397
O  O13  1  0.23262000  0.04132000  0.05471000  1.0 -0.3969322913
O  O14  1  0.76738000  0.95868000  0.94529000  1.0 -0.3969322913
O  O15  1  0.19556000  0.87885000  0.09932000  1.0 -0.6203566663
O  O16  1  0.80444000  0.12115000  0.90068000  1.0 -0.6203566663
O  O17  1  0.90854000  0.29893000  0.49607000  1.0 -0.5716695659
O  O18  1  0.09146000  0.70107000  0.50393000  1.0 -0.5716695659
O  O19  1  0.11675000  0.34737000  0.51357000  1.0 -0.6075625591
O  O20  1  0.88325000  0.65263000  0.48643000  1.0 -0.6075625591
O  O21  1  0.22271000  0.62060000  0.02441000  1.0 -0.6263976268
O  O22  1  0.77729000  0.37940000  0.97559000  1.0 -0.6263976268
O  O23  1  0.15225000  0.41246000  0.99115000  1.0 -0.6786111466
O  O24  1  0.84775000  0.58754000  0.00885000  1.0 -0.6786111466
O  O25  1  0.60192000  0.27290000  0.48699000  1.0 -0.258969488
O  O26  1  0.39808000  0.72710000  0.51301000  1.0 -0.258969488
O  O27  1  0.62995000  0.54497000  0.50730000  1.0 -0.258969488
O  O28  1  0.37005000  0.45503000  0.49270000  1.0 -0.258969488
O  O29  1  0.02128000  0.87500000  0.96027000  1.0 -0.1305117481
O  O30  1  0.97872000  0.12500000  0.03973000  1.0 -0.1305117481
O  O31  1  0.13810000  0.90917000  0.97488000  1.0 0.2335613459
O  O32  1  0.86190000  0.09083000  0.02512000  1.0 0.2335613459
