# DDEC6 charges by PACMAN v1.1 (https://github.com/mtap-research/PACMAN-charge/)
data_WAZXEE_FSR_pacman
_symmetry_space_group_name_H-M   'P 1'
_cell_length_a   17.45900000
_cell_length_b   17.45900000
_cell_length_c   14.99000000
_cell_angle_alpha   90.00000000
_cell_angle_beta   90.00000000
_cell_angle_gamma   120.00000000
_symmetry_Int_Tables_number   1
_chemical_formula_structural   Mn3H36C60N3O13
_chemical_formula_sum   'Mn6 H72 C120 N6 O26'
_cell_volume   3957.04504876
_cell_formula_units_Z   2
loop_
 _symmetry_equiv_pos_site_id
 _symmetry_equiv_pos_as_xyz
  1  'x, y, z'
loop_
 _atom_site_type_symbol
 _atom_site_label
 _atom_site_symmetry_multiplicity
 _atom_site_fract_x
 _atom_site_fract_y
 _atom_site_fract_z
 _atom_site_occupancy
 _atom_site_charge
Mn  Mn1  1  0.73615000  0.26385000  0.75000000  1.0 0.9574708075
Mn  Mn2  1  0.52770000  0.26385000  0.75000000  1.0 0.9574708075
Mn  Mn3  1  0.73615000  0.47230000  0.75000000  1.0 0.9574708075
Mn  Mn4  1  0.26385000  0.73615000  0.25000000  1.0 0.9574708075
Mn  Mn5  1  0.47230000  0.73615000  0.25000000  1.0 0.9574708075
Mn  Mn6  1  0.26385000  0.52770000  0.25000000  1.0 0.9574708075
H  H1  1  0.92699000  0.28810000  0.78580000  1.0 0.0711145745
H  H2  1  0.00649000  0.21530000  0.78800000  1.0 0.0711145745
H  H3  1  0.41359000  0.05640000  0.94840000  1.0 0.1143495397
H  H4  1  0.36111000  0.07301000  0.78580000  1.0 0.0711145745
H  H5  1  0.20881000  0.99351000  0.78800000  1.0 0.0711145745
H  H6  1  0.64281000  0.58641000  0.94840000  1.0 0.1143495397
H  H7  1  0.71190000  0.63889000  0.78580000  1.0 0.0711145745
H  H8  1  0.78470000  0.79119000  0.78800000  1.0 0.0711145745
H  H9  1  0.94360000  0.35719000  0.94840000  1.0 0.1143495397
H  H10  1  0.07301000  0.71190000  0.28580000  1.0 0.0711145745
H  H11  1  0.99351000  0.78470000  0.28800000  1.0 0.0711145745
H  H12  1  0.58641000  0.94360000  0.44840000  1.0 0.1143495397
H  H13  1  0.63889000  0.92699000  0.28580000  1.0 0.0711145745
H  H14  1  0.79119000  0.00649000  0.28800000  1.0 0.0711145745
H  H15  1  0.35719000  0.41359000  0.44840000  1.0 0.1143495397
H  H16  1  0.28810000  0.36111000  0.28580000  1.0 0.0711145745
H  H17  1  0.21530000  0.20881000  0.28800000  1.0 0.0711145745
H  H18  1  0.05640000  0.64281000  0.44840000  1.0 0.1143495397
H  H19  1  0.63889000  0.71190000  0.21420000  1.0 0.0711145745
H  H20  1  0.79119000  0.78470000  0.21200000  1.0 0.0711145745
H  H21  1  0.35719000  0.94360000  0.05160000  1.0 0.1143495397
H  H22  1  0.28810000  0.92699000  0.21420000  1.0 0.0711145745
H  H23  1  0.21530000  0.00649000  0.21200000  1.0 0.0711145745
H  H24  1  0.05640000  0.41359000  0.05160000  1.0 0.1143495397
H  H25  1  0.07301000  0.36111000  0.21420000  1.0 0.0711145745
H  H26  1  0.99351000  0.20881000  0.21200000  1.0 0.0711145745
H  H27  1  0.58641000  0.64281000  0.05160000  1.0 0.1143495397
H  H28  1  0.36111000  0.28810000  0.71420000  1.0 0.0711145745
H  H29  1  0.20881000  0.21530000  0.71200000  1.0 0.0711145745
H  H30  1  0.64281000  0.05640000  0.55160000  1.0 0.1143495397
H  H31  1  0.71190000  0.07301000  0.71420000  1.0 0.0711145745
H  H32  1  0.78470000  0.99351000  0.71200000  1.0 0.0711145745
H  H33  1  0.94360000  0.58641000  0.55160000  1.0 0.1143495397
H  H34  1  0.92699000  0.63889000  0.71420000  1.0 0.0711145745
H  H35  1  0.00649000  0.79119000  0.71200000  1.0 0.0711145745
H  H36  1  0.41359000  0.35719000  0.55160000  1.0 0.1143495397
H  H37  1  0.07301000  0.71190000  0.21420000  1.0 0.0711145745
H  H38  1  0.99351000  0.78470000  0.21200000  1.0 0.0711145745
H  H39  1  0.58641000  0.94360000  0.05160000  1.0 0.1143495397
H  H40  1  0.63889000  0.92699000  0.21420000  1.0 0.0711145745
H  H41  1  0.79119000  0.00649000  0.21200000  1.0 0.0711145745
H  H42  1  0.35719000  0.41359000  0.05160000  1.0 0.1143495397
H  H43  1  0.28810000  0.36111000  0.21420000  1.0 0.0711145745
H  H44  1  0.21530000  0.20881000  0.21200000  1.0 0.0711145745
H  H45  1  0.05640000  0.64281000  0.05160000  1.0 0.1143495397
H  H46  1  0.92699000  0.28810000  0.71420000  1.0 0.0711145745
H  H47  1  0.00649000  0.21530000  0.71200000  1.0 0.0711145745
H  H48  1  0.41359000  0.05640000  0.55160000  1.0 0.1143495397
H  H49  1  0.36111000  0.07301000  0.71420000  1.0 0.0711145745
H  H50  1  0.20881000  0.99351000  0.71200000  1.0 0.0711145745
H  H51  1  0.64281000  0.58641000  0.55160000  1.0 0.1143495397
H  H52  1  0.71190000  0.63889000  0.71420000  1.0 0.0711145745
H  H53  1  0.78470000  0.79119000  0.71200000  1.0 0.0711145745
H  H54  1  0.94360000  0.35719000  0.55160000  1.0 0.1143495397
H  H55  1  0.36111000  0.28810000  0.78580000  1.0 0.0711145745
H  H56  1  0.20881000  0.21530000  0.78800000  1.0 0.0711145745
H  H57  1  0.64281000  0.05640000  0.94840000  1.0 0.1143495397
H  H58  1  0.71190000  0.07301000  0.78580000  1.0 0.0711145745
H  H59  1  0.78470000  0.99351000  0.78800000  1.0 0.0711145745
H  H60  1  0.94360000  0.58641000  0.94840000  1.0 0.1143495397
H  H61  1  0.92699000  0.63889000  0.78580000  1.0 0.0711145745
H  H62  1  0.00649000  0.79119000  0.78800000  1.0 0.0711145745
H  H63  1  0.41359000  0.35719000  0.94840000  1.0 0.1143495397
H  H64  1  0.63889000  0.71190000  0.28580000  1.0 0.0711145745
H  H65  1  0.79119000  0.78470000  0.28800000  1.0 0.0711145745
H  H66  1  0.35719000  0.94360000  0.44840000  1.0 0.1143495397
H  H67  1  0.28810000  0.92699000  0.28580000  1.0 0.0711145745
H  H68  1  0.21530000  0.00649000  0.28800000  1.0 0.0711145745
H  H69  1  0.05640000  0.41359000  0.44840000  1.0 0.1143495397
H  H70  1  0.07301000  0.36111000  0.28580000  1.0 0.0711145745
H  H71  1  0.99351000  0.20881000  0.28800000  1.0 0.0711145745
H  H72  1  0.58641000  0.64281000  0.44840000  1.0 0.1143495397
C  C1  1  0.89739000  0.22700000  0.77080000  1.0 0.0272131993
C  C2  1  0.94569000  0.18410000  0.77210000  1.0 -0.0444494568
C  C3  1  0.44959000  0.03360000  0.96940000  1.0 -0.1137233569
C  C4  1  0.32961000  0.10261000  0.77080000  1.0 0.0272131993
C  C5  1  0.23841000  0.05431000  0.77210000  1.0 -0.0455709323
C  C6  1  0.58401000  0.55041000  0.96940000  1.0 -0.1137233569
C  C7  1  0.77300000  0.67039000  0.77080000  1.0 0.0272131993
C  C8  1  0.81590000  0.76159000  0.77210000  1.0 -0.0444494568
C  C9  1  0.96640000  0.41599000  0.96940000  1.0 -0.1137233569
C  C10  1  0.10261000  0.77300000  0.27080000  1.0 0.0272131993
C  C11  1  0.05431000  0.81590000  0.27210000  1.0 -0.0444494568
C  C12  1  0.55041000  0.96640000  0.46940000  1.0 -0.1137233569
C  C13  1  0.67039000  0.89739000  0.27080000  1.0 0.0272131993
C  C14  1  0.76159000  0.94569000  0.27210000  1.0 -0.0444494568
C  C15  1  0.41599000  0.44959000  0.46940000  1.0 -0.1137233569
C  C16  1  0.22700000  0.32961000  0.27080000  1.0 0.0272131993
C  C17  1  0.18410000  0.23841000  0.27210000  1.0 -0.0444494568
C  C18  1  0.03360000  0.58401000  0.46940000  1.0 -0.1137233569
C  C19  1  0.67039000  0.77300000  0.22920000  1.0 0.0272131993
C  C20  1  0.76159000  0.81590000  0.22790000  1.0 -0.0444494568
C  C21  1  0.41599000  0.96640000  0.03060000  1.0 -0.1137233569
C  C22  1  0.22700000  0.89739000  0.22920000  1.0 0.0272131993
C  C23  1  0.18410000  0.94569000  0.22790000  1.0 -0.0455709323
C  C24  1  0.03360000  0.44959000  0.03060000  1.0 -0.1137233569
C  C25  1  0.10261000  0.32961000  0.22920000  1.0 0.0272131993
C  C26  1  0.05431000  0.23841000  0.22790000  1.0 -0.0455709323
C  C27  1  0.55041000  0.58401000  0.03060000  1.0 -0.1137233569
C  C28  1  0.32961000  0.22700000  0.72920000  1.0 0.0272131993
C  C29  1  0.23841000  0.18410000  0.72790000  1.0 -0.0455709323
C  C30  1  0.58401000  0.03360000  0.53060000  1.0 -0.1137233569
C  C31  1  0.77300000  0.10261000  0.72920000  1.0 0.0272131993
C  C32  1  0.81590000  0.05431000  0.72790000  1.0 -0.0444494568
C  C33  1  0.96640000  0.55041000  0.53060000  1.0 -0.1137233569
C  C34  1  0.89739000  0.67039000  0.72920000  1.0 0.0272131993
C  C35  1  0.94569000  0.76159000  0.72790000  1.0 -0.0444494568
C  C36  1  0.44959000  0.41599000  0.53060000  1.0 -0.1137233569
C  C37  1  0.10261000  0.77300000  0.22920000  1.0 0.0272131993
C  C38  1  0.05431000  0.81590000  0.22790000  1.0 -0.0444494568
C  C39  1  0.55041000  0.96640000  0.03060000  1.0 -0.1137233569
C  C40  1  0.67039000  0.89739000  0.22920000  1.0 0.0272131993
C  C41  1  0.76159000  0.94569000  0.22790000  1.0 -0.0444494568
C  C42  1  0.41599000  0.44959000  0.03060000  1.0 -0.1137233569
C  C43  1  0.22700000  0.32961000  0.22920000  1.0 0.0272131993
C  C44  1  0.18410000  0.23841000  0.22790000  1.0 -0.0444494568
C  C45  1  0.03360000  0.58401000  0.03060000  1.0 -0.1137233569
C  C46  1  0.89739000  0.22700000  0.72920000  1.0 0.0272131993
C  C47  1  0.94569000  0.18410000  0.72790000  1.0 -0.0444494568
C  C48  1  0.44959000  0.03360000  0.53060000  1.0 -0.1137233569
C  C49  1  0.32961000  0.10261000  0.72920000  1.0 0.0272131993
C  C50  1  0.23841000  0.05431000  0.72790000  1.0 -0.0455709323
C  C51  1  0.58401000  0.55041000  0.53060000  1.0 -0.1137233569
C  C52  1  0.77300000  0.67039000  0.72920000  1.0 0.0272131993
C  C53  1  0.81590000  0.76159000  0.72790000  1.0 -0.0444494568
C  C54  1  0.96640000  0.41599000  0.53060000  1.0 -0.1137233569
C  C55  1  0.32961000  0.22700000  0.77080000  1.0 0.0272131993
C  C56  1  0.23841000  0.18410000  0.77210000  1.0 -0.0455709323
C  C57  1  0.58401000  0.03360000  0.96940000  1.0 -0.1137233569
C  C58  1  0.77300000  0.10261000  0.77080000  1.0 0.0272131993
C  C59  1  0.81590000  0.05431000  0.77210000  1.0 -0.0444494568
C  C60  1  0.96640000  0.55041000  0.96940000  1.0 -0.1137233569
C  C61  1  0.89739000  0.67039000  0.77080000  1.0 0.0272131993
C  C62  1  0.94569000  0.76159000  0.77210000  1.0 -0.0444494568
C  C63  1  0.44959000  0.41599000  0.96940000  1.0 -0.1137233569
C  C64  1  0.67039000  0.77300000  0.27080000  1.0 0.0272131993
C  C65  1  0.76159000  0.81590000  0.27210000  1.0 -0.0444494568
C  C66  1  0.41599000  0.96640000  0.46940000  1.0 -0.1137233569
C  C67  1  0.22700000  0.89739000  0.27080000  1.0 0.0272131993
C  C68  1  0.18410000  0.94569000  0.27210000  1.0 -0.0455709323
C  C69  1  0.03360000  0.44959000  0.46940000  1.0 -0.1137233569
C  C70  1  0.10261000  0.32961000  0.27080000  1.0 0.0272131993
C  C71  1  0.05431000  0.23841000  0.27210000  1.0 -0.0455709323
C  C72  1  0.55041000  0.58401000  0.46940000  1.0 -0.1137233569
C  C73  1  0.04590000  0.09180000  0.76970000  1.0 -0.0083205953
C  C74  1  0.04590000  0.95410000  0.76970000  1.0 -0.0083205953
C  C75  1  0.90820000  0.95410000  0.76970000  1.0 -0.0083205953
C  C76  1  0.95410000  0.90820000  0.26970000  1.0 -0.0083205953
C  C77  1  0.95410000  0.04590000  0.26970000  1.0 -0.0083205953
C  C78  1  0.09180000  0.04590000  0.26970000  1.0 -0.0083205953
C  C79  1  0.95410000  0.90820000  0.23030000  1.0 -0.0083205953
C  C80  1  0.09180000  0.04590000  0.23030000  1.0 -0.0083205953
C  C81  1  0.95410000  0.04590000  0.23030000  1.0 -0.0083205953
C  C82  1  0.04590000  0.09180000  0.73030000  1.0 -0.0083205953
C  C83  1  0.90820000  0.95410000  0.73030000  1.0 -0.0083205953
C  C84  1  0.04590000  0.95410000  0.73030000  1.0 -0.0083205953
C  C85  1  0.90479000  0.09520000  0.75000000  1.0 -0.0455709323
C  C86  1  0.95454000  0.04545000  0.75000000  1.0 0.0020823595
C  C87  1  0.19041000  0.09520000  0.75000000  1.0 -0.0455709323
C  C88  1  0.09091000  0.04545000  0.75000000  1.0 0.0020823595
C  C89  1  0.90479000  0.80959000  0.75000000  1.0 -0.0444494568
C  C90  1  0.95454000  0.90909000  0.75000000  1.0 0.0020823595
C  C91  1  0.09520000  0.90479000  0.25000000  1.0 -0.0455709323
C  C92  1  0.04545000  0.95454000  0.25000000  1.0 -0.0004275314
C  C93  1  0.80959000  0.90479000  0.25000000  1.0 -0.0455709323
C  C94  1  0.90909000  0.95454000  0.25000000  1.0 0.0020823595
C  C95  1  0.09520000  0.19041000  0.25000000  1.0 -0.0455709323
C  C96  1  0.04545000  0.09091000  0.25000000  1.0 -0.0004275314
C  C97  1  0.57260000  0.14520000  0.87310000  1.0 0.5779138437
C  C98  1  0.53440000  0.06880000  0.93770000  1.0 0.0020823595
C  C99  1  0.57260000  0.42740000  0.87310000  1.0 0.5779138437
C  C100  1  0.53440000  0.46560000  0.93770000  1.0 0.0020823595
C  C101  1  0.85480000  0.42740000  0.87310000  1.0 0.5779138437
C  C102  1  0.93120000  0.46560000  0.93770000  1.0 0.0020823595
C  C103  1  0.42740000  0.85480000  0.37310000  1.0 0.5779138437
C  C104  1  0.46560000  0.93120000  0.43770000  1.0 0.0020823595
C  C105  1  0.42740000  0.57260000  0.37310000  1.0 0.5779138437
C  C106  1  0.46560000  0.53440000  0.43770000  1.0 0.0020823595
C  C107  1  0.14520000  0.57260000  0.37310000  1.0 0.5779138437
C  C108  1  0.06880000  0.53440000  0.43770000  1.0 0.0020823595
C  C109  1  0.42740000  0.85480000  0.12690000  1.0 0.5779138437
C  C110  1  0.46560000  0.93120000  0.06230000  1.0 0.0020823595
C  C111  1  0.14520000  0.57260000  0.12690000  1.0 0.5779138437
C  C112  1  0.06880000  0.53440000  0.06230000  1.0 0.0020823595
C  C113  1  0.42740000  0.57260000  0.12690000  1.0 0.5779138437
C  C114  1  0.46560000  0.53440000  0.06230000  1.0 0.0020823595
C  C115  1  0.57260000  0.14520000  0.62690000  1.0 0.5779138437
C  C116  1  0.53440000  0.06880000  0.56230000  1.0 0.0020823595
C  C117  1  0.85480000  0.42740000  0.62690000  1.0 0.5779138437
C  C118  1  0.93120000  0.46560000  0.56230000  1.0 0.0020823595
C  C119  1  0.57260000  0.42740000  0.62690000  1.0 0.5779138437
C  C120  1  0.53440000  0.46560000  0.56230000  1.0 0.0020823595
N  N1  1  0.81180000  0.18820000  0.75000000  1.0 -0.1862505644
N  N2  1  0.37641000  0.18820000  0.75000000  1.0 -0.1862505644
N  N3  1  0.81179000  0.62359000  0.75000000  1.0 -0.1862505644
N  N4  1  0.18820000  0.81179000  0.25000000  1.0 -0.1862505644
N  N5  1  0.62359000  0.81179000  0.25000000  1.0 -0.1862505644
N  N6  1  0.18820000  0.37641000  0.25000000  1.0 -0.1862505644
O  O1  1  0.65009000  0.17300000  0.84930000  1.0 -0.526187243
O  O2  1  0.52291000  0.34991000  0.84930000  1.0 -0.526187243
O  O3  1  0.82700000  0.47709000  0.84930000  1.0 -0.526187243
O  O4  1  0.34991000  0.82700000  0.34930000  1.0 -0.526187243
O  O5  1  0.47709000  0.65009000  0.34930000  1.0 -0.526187243
O  O6  1  0.17300000  0.52291000  0.34930000  1.0 -0.526187243
O  O7  1  0.47709000  0.82700000  0.15070000  1.0 -0.526187243
O  O8  1  0.17300000  0.65009000  0.15070000  1.0 -0.526187243
O  O9  1  0.34991000  0.52291000  0.15070000  1.0 -0.526187243
O  O10  1  0.52291000  0.17300000  0.65070000  1.0 -0.526187243
O  O11  1  0.82700000  0.34991000  0.65070000  1.0 -0.526187243
O  O12  1  0.65009000  0.47709000  0.65070000  1.0 -0.526187243
O  O13  1  0.34991000  0.82700000  0.15070000  1.0 -0.526187243
O  O14  1  0.47709000  0.65009000  0.15070000  1.0 -0.526187243
O  O15  1  0.17300000  0.52291000  0.15070000  1.0 -0.526187243
O  O16  1  0.65009000  0.17300000  0.65070000  1.0 -0.526187243
O  O17  1  0.52291000  0.34991000  0.65070000  1.0 -0.526187243
O  O18  1  0.82700000  0.47709000  0.65070000  1.0 -0.526187243
O  O19  1  0.52291000  0.17300000  0.84930000  1.0 -0.526187243
O  O20  1  0.82700000  0.34991000  0.84930000  1.0 -0.526187243
O  O21  1  0.65009000  0.47709000  0.84930000  1.0 -0.526187243
O  O22  1  0.47709000  0.82700000  0.34930000  1.0 -0.526187243
O  O23  1  0.17300000  0.65009000  0.34930000  1.0 -0.526187243
O  O24  1  0.34991000  0.52291000  0.34930000  1.0 -0.526187243
O  O25  1  0.66666667  0.33333333  0.75000000  1.0 -0.7999955783
O  O26  1  0.33333333  0.66666667  0.25000000  1.0 -0.7999955783
