# DDEC6 charges by PACMAN v1.1 (https://github.com/mtap-research/PACMAN-charge/)
data_WEBJUK_ASR_pacman
_symmetry_space_group_name_H-M   'P 1'
_cell_length_a   49.44180000
_cell_length_b   49.44180000
_cell_length_c   10.00650000
_cell_angle_alpha   90.00000000
_cell_angle_beta   90.00000000
_cell_angle_gamma   120.00000000
_symmetry_Int_Tables_number   1
_chemical_formula_structural   Mn14In9C165O134
_chemical_formula_sum   'Mn28 In18 C330 O268'
_cell_volume   21183.67858566
_cell_formula_units_Z   2
loop_
 _symmetry_equiv_pos_site_id
 _symmetry_equiv_pos_as_xyz
  1  'x, y, z'
loop_
 _atom_site_type_symbol
 _atom_site_label
 _atom_site_symmetry_multiplicity
 _atom_site_fract_x
 _atom_site_fract_y
 _atom_site_fract_z
 _atom_site_occupancy
 _atom_site_charge
Mn  Mn1  1  0.06563000  0.82027000  0.18270000  1.0 0.994092019
Mn  Mn2  1  0.17973000  0.24536000  0.18270000  1.0 0.994092019
Mn  Mn3  1  0.75464000  0.93437000  0.18270000  1.0 0.994092019
Mn  Mn4  1  0.93437000  0.17973000  0.81730000  1.0 0.997041833
Mn  Mn5  1  0.82027000  0.75464000  0.81730000  1.0 0.997041833
Mn  Mn6  1  0.24536000  0.06563000  0.81730000  1.0 0.997041833
Mn  Mn7  1  0.06562000  0.82034000  0.81720000  1.0 1.0466664748
Mn  Mn8  1  0.17966000  0.24528000  0.81720000  1.0 1.042501779
Mn  Mn9  1  0.75472000  0.93438000  0.81720000  1.0 1.042501779
Mn  Mn10  1  0.93438000  0.17966000  0.18280000  1.0 1.042501779
Mn  Mn11  1  0.82034000  0.75472000  0.18280000  1.0 1.042501779
Mn  Mn12  1  0.24528000  0.06562000  0.18280000  1.0 1.042501779
Mn  Mn13  1  0.17973000  0.93422000  0.18280000  1.0 1.0290487921
Mn  Mn14  1  0.06578000  0.24551000  0.18280000  1.0 1.0290487921
Mn  Mn15  1  0.75449000  0.82027000  0.18280000  1.0 1.0290487921
Mn  Mn16  1  0.82027000  0.06578000  0.81720000  1.0 1.0290487921
Mn  Mn17  1  0.93422000  0.75449000  0.81720000  1.0 1.0290487921
Mn  Mn18  1  0.24551000  0.17973000  0.81720000  1.0 1.0290487921
Mn  Mn19  1  0.17980000  0.93449000  0.81770000  1.0 1.0801907496
Mn  Mn20  1  0.06551000  0.24531000  0.81770000  1.0 1.0745609717
Mn  Mn21  1  0.75469000  0.82020000  0.81770000  1.0 1.0801907496
Mn  Mn22  1  0.82020000  0.06551000  0.18230000  1.0 1.0745609717
Mn  Mn23  1  0.93449000  0.75469000  0.18230000  1.0 1.0745609717
Mn  Mn24  1  0.24531000  0.17980000  0.18230000  1.0 1.0745609717
Mn  Mn25  1  0.33333333  0.66666667  0.21400000  1.0 1.1217086033
Mn  Mn26  1  0.66666667  0.33333333  0.78600000  1.0 1.1217086033
Mn  Mn27  1  0.33333333  0.66666667  0.79020000  1.0 1.1217086033
Mn  Mn28  1  0.66666667  0.33333333  0.20980000  1.0 1.1254839615
In  In1  1  0.20688000  0.79316000  0.50006000  1.0 1.2913376526
In  In2  1  0.20684000  0.41372000  0.50006000  1.0 1.2952867464
In  In3  1  0.58628000  0.79312000  0.50006000  1.0 1.2913376526
In  In4  1  0.79312000  0.20684000  0.49994000  1.0 1.2913376526
In  In5  1  0.79316000  0.58628000  0.49994000  1.0 1.2913376526
In  In6  1  0.41372000  0.20688000  0.49994000  1.0 1.2913376526
In  In7  1  0.00005000  0.64120000  0.49991000  1.0 1.3341093675
In  In8  1  0.35880000  0.35885000  0.49991000  1.0 1.3352476076
In  In9  1  0.64115000  0.99995000  0.49991000  1.0 1.3352476076
In  In10  1  0.99995000  0.35880000  0.50009000  1.0 1.3341093675
In  In11  1  0.64120000  0.64115000  0.50009000  1.0 1.3341093675
In  In12  1  0.35885000  0.00005000  0.50009000  1.0 1.3341093675
In  In13  1  0.15873000  0.57936000  0.49949000  1.0 1.2691861109
In  In14  1  0.42064000  0.57937000  0.49949000  1.0 1.2691861109
In  In15  1  0.42063000  0.84127000  0.49949000  1.0 1.2691861109
In  In16  1  0.84127000  0.42064000  0.50051000  1.0 1.2691861109
In  In17  1  0.57936000  0.42063000  0.50051000  1.0 1.2691861109
In  In18  1  0.57937000  0.15873000  0.50051000  1.0 1.2691861109
C  C1  1  0.18370000  0.59260000  0.26200000  1.0 0.5421409225
C  C2  1  0.40740000  0.59110000  0.26200000  1.0 0.5421409225
C  C3  1  0.40890000  0.81630000  0.26200000  1.0 0.5421409225
C  C4  1  0.81630000  0.40740000  0.73800000  1.0 0.5421409225
C  C5  1  0.59260000  0.40890000  0.73800000  1.0 0.5421409225
C  C6  1  0.59110000  0.18370000  0.73800000  1.0 0.5421409225
C  C7  1  0.19720000  0.59840000  0.12550000  1.0 -0.121310374
C  C8  1  0.40160000  0.59880000  0.12550000  1.0 -0.121310374
C  C9  1  0.40120000  0.80280000  0.12550000  1.0 -0.121310374
C  C10  1  0.80280000  0.40160000  0.87450000  1.0 -0.1253290607
C  C11  1  0.59840000  0.40120000  0.87450000  1.0 -0.1253290607
C  C12  1  0.59880000  0.19720000  0.87450000  1.0 -0.121310374
C  C13  1  0.23100000  0.61450000  0.11670000  1.0 0.1122692629
C  C14  1  0.38550000  0.61650000  0.11670000  1.0 0.1122692629
C  C15  1  0.38350000  0.76900000  0.11670000  1.0 0.1122692629
C  C16  1  0.76900000  0.38550000  0.88330000  1.0 0.1122692629
C  C17  1  0.61450000  0.38350000  0.88330000  1.0 0.1122692629
C  C18  1  0.61650000  0.23100000  0.88330000  1.0 0.1122692629
C  C19  1  0.24770000  0.62240000  0.99060000  1.0 -0.1875741416
C  C20  1  0.37760000  0.62530000  0.99060000  1.0 -0.1875741416
C  C21  1  0.37470000  0.75230000  0.99060000  1.0 -0.1875741416
C  C22  1  0.75230000  0.37760000  0.00940000  1.0 -0.1875741416
C  C23  1  0.62240000  0.37470000  0.00940000  1.0 -0.1875741416
C  C24  1  0.62530000  0.24770000  0.00940000  1.0 -0.1875741416
C  C25  1  0.22810000  0.61300000  0.87250000  1.0 0.0706026169
C  C26  1  0.38700000  0.61510000  0.87250000  1.0 0.0801400931
C  C27  1  0.38490000  0.77190000  0.87250000  1.0 0.0706026169
C  C28  1  0.77190000  0.38700000  0.12750000  1.0 0.0801400931
C  C29  1  0.61300000  0.38490000  0.12750000  1.0 0.0801400931
C  C30  1  0.61510000  0.22810000  0.12750000  1.0 0.0801400931
C  C31  1  0.19420000  0.59690000  0.86890000  1.0 -0.121310374
C  C32  1  0.40310000  0.59730000  0.86890000  1.0 -0.112761221
C  C33  1  0.40270000  0.80580000  0.86890000  1.0 -0.112761221
C  C34  1  0.80580000  0.40310000  0.13110000  1.0 -0.112761221
C  C35  1  0.59690000  0.40270000  0.13110000  1.0 -0.121310374
C  C36  1  0.59730000  0.19420000  0.13110000  1.0 -0.112761221
C  C37  1  0.18010000  0.59020000  0.00050000  1.0 0.1504926532
C  C38  1  0.40980000  0.58990000  0.00050000  1.0 0.1504926532
C  C39  1  0.41010000  0.81990000  0.00050000  1.0 0.1504926532
C  C40  1  0.81990000  0.40980000  0.99950000  1.0 0.1504926532
C  C41  1  0.59020000  0.41010000  0.99950000  1.0 0.1504926532
C  C42  1  0.58990000  0.18010000  0.99950000  1.0 0.1504926532
C  C43  1  0.28140000  0.63840000  0.00600000  1.0 0.5991395609
C  C44  1  0.36160000  0.64300000  0.00600000  1.0 0.5991395609
C  C45  1  0.35700000  0.71860000  0.00600000  1.0 0.5991395609
C  C46  1  0.71860000  0.36160000  0.99400000  1.0 0.589390552
C  C47  1  0.63840000  0.35700000  0.99400000  1.0 0.589390552
C  C48  1  0.64300000  0.28140000  0.99400000  1.0 0.5991395609
C  C49  1  0.18660000  0.59380000  0.72790000  1.0 0.5293116437
C  C50  1  0.40620000  0.59280000  0.72790000  1.0 0.5234771238
C  C51  1  0.40720000  0.81340000  0.72790000  1.0 0.5293116437
C  C52  1  0.81340000  0.40620000  0.27210000  1.0 0.5234771238
C  C53  1  0.59380000  0.40720000  0.27210000  1.0 0.5234771238
C  C54  1  0.59280000  0.18660000  0.27210000  1.0 0.5234771238
C  C55  1  0.13170000  0.64570000  0.49710000  1.0 -0.112761221
C  C56  1  0.35430000  0.48600000  0.49710000  1.0 -0.112761221
C  C57  1  0.51400000  0.86830000  0.49710000  1.0 -0.112761221
C  C58  1  0.86830000  0.35430000  0.50290000  1.0 -0.112761221
C  C59  1  0.64570000  0.51400000  0.50290000  1.0 -0.112761221
C  C60  1  0.48600000  0.13170000  0.50290000  1.0 -0.112761221
C  C61  1  0.33890000  0.90650000  0.50160000  1.0 -0.0202663567
C  C62  1  0.09350000  0.43240000  0.50160000  1.0 -0.0202663567
C  C63  1  0.56760000  0.66110000  0.50160000  1.0 -0.0202663567
C  C64  1  0.66110000  0.09350000  0.49840000  1.0 -0.0202663567
C  C65  1  0.90650000  0.56760000  0.49840000  1.0 -0.0202663567
C  C66  1  0.43240000  0.33890000  0.49840000  1.0 -0.0202663567
C  C67  1  0.14080000  0.69590000  0.49740000  1.0 -0.0402319183
C  C68  1  0.30410000  0.44490000  0.49740000  1.0 -0.0402319183
C  C69  1  0.55510000  0.85920000  0.49740000  1.0 -0.0402319183
C  C70  1  0.85920000  0.30410000  0.50260000  1.0 -0.0402319183
C  C71  1  0.69590000  0.55510000  0.50260000  1.0 -0.0402319183
C  C72  1  0.44490000  0.14080000  0.50260000  1.0 -0.0402319183
C  C73  1  0.19580000  0.80420000  0.25180000  1.0 0.5293116437
C  C74  1  0.19580000  0.39160000  0.25180000  1.0 0.5293116437
C  C75  1  0.60840000  0.80420000  0.25180000  1.0 0.5293116437
C  C76  1  0.80420000  0.19580000  0.74820000  1.0 0.5293116437
C  C77  1  0.80420000  0.60840000  0.74820000  1.0 0.5293116437
C  C78  1  0.39160000  0.19580000  0.74820000  1.0 0.5293116437
C  C79  1  0.19670000  0.80370000  0.75630000  1.0 0.4692040921
C  C80  1  0.19630000  0.39300000  0.75630000  1.0 0.4692040921
C  C81  1  0.60700000  0.80330000  0.75630000  1.0 0.4692040921
C  C82  1  0.80330000  0.19630000  0.24370000  1.0 0.4692040921
C  C83  1  0.80370000  0.60700000  0.24370000  1.0 0.4692040921
C  C84  1  0.39300000  0.19670000  0.24370000  1.0 0.4692040921
C  C85  1  0.00000000  0.66150000  0.24360000  1.0 0.4692040921
C  C86  1  0.33850000  0.33850000  0.24360000  1.0 0.4692040921
C  C87  1  0.66150000  0.00000000  0.24360000  1.0 0.4692040921
C  C88  1  0.00000000  0.33850000  0.75640000  1.0 0.4692040921
C  C89  1  0.66150000  0.66150000  0.75640000  1.0 0.4692040921
C  C90  1  0.33850000  0.00000000  0.75640000  1.0 0.4692040921
C  C91  1  0.30450000  0.85940000  0.50090000  1.0 -0.0490843926
C  C92  1  0.14060000  0.44510000  0.50090000  1.0 -0.0490843926
C  C93  1  0.55490000  0.69550000  0.50090000  1.0 -0.0402319183
C  C94  1  0.69550000  0.14060000  0.49910000  1.0 -0.0402319183
C  C95  1  0.85940000  0.55490000  0.49910000  1.0 -0.0402319183
C  C96  1  0.44510000  0.30450000  0.49910000  1.0 -0.0490843926
C  C97  1  0.09400000  0.66180000  0.50160000  1.0 -0.0095930678
C  C98  1  0.33820000  0.43220000  0.50160000  1.0 -0.0095930678
C  C99  1  0.56780000  0.90600000  0.50160000  1.0 -0.0095930678
C  C100  1  0.90600000  0.33820000  0.49840000  1.0 -0.0095930678
C  C101  1  0.66180000  0.56780000  0.49840000  1.0 -0.0095930678
C  C102  1  0.43220000  0.09400000  0.49840000  1.0 -0.0095930678
C  C103  1  0.36510000  0.89960000  0.50090000  1.0 0.0706026169
C  C104  1  0.10040000  0.46550000  0.50090000  1.0 0.0623836405
C  C105  1  0.53450000  0.63490000  0.50090000  1.0 0.0706026169
C  C106  1  0.63490000  0.10040000  0.49910000  1.0 0.0706026169
C  C107  1  0.89960000  0.53450000  0.49910000  1.0 0.0706026169
C  C108  1  0.46550000  0.36510000  0.49910000  1.0 0.0706026169
C  C109  1  0.35290000  0.86840000  0.49510000  1.0 -0.0490843926
C  C110  1  0.13160000  0.48450000  0.49510000  1.0 -0.0490843926
C  C111  1  0.51550000  0.64710000  0.49510000  1.0 -0.0490843926
C  C112  1  0.64710000  0.13160000  0.50490000  1.0 -0.0608210473
C  C113  1  0.86840000  0.51550000  0.50490000  1.0 -0.0490843926
C  C114  1  0.48450000  0.35290000  0.50490000  1.0 -0.0608210473
C  C115  1  0.10030000  0.63470000  0.50480000  1.0 0.0801400931
C  C116  1  0.36530000  0.46560000  0.50480000  1.0 0.0801400931
C  C117  1  0.53440000  0.89970000  0.50480000  1.0 0.0801400931
C  C118  1  0.89970000  0.36530000  0.49520000  1.0 0.0801400931
C  C119  1  0.63470000  0.53440000  0.49520000  1.0 0.0801400931
C  C120  1  0.46560000  0.10030000  0.49520000  1.0 0.0801400931
C  C121  1  0.35020000  0.94380000  0.49850000  1.0 0.5581957966
C  C122  1  0.05620000  0.40640000  0.49850000  1.0 0.5581957966
C  C123  1  0.59360000  0.64980000  0.49850000  1.0 0.5581957966
C  C124  1  0.64980000  0.05620000  0.50150000  1.0 0.5581957966
C  C125  1  0.94380000  0.59360000  0.50150000  1.0 0.5581957966
C  C126  1  0.40640000  0.35020000  0.50150000  1.0 0.5581957966
C  C127  1  0.05560000  0.64980000  0.50030000  1.0 0.5581957966
C  C128  1  0.35020000  0.40580000  0.50030000  1.0 0.5581957966
C  C129  1  0.59420000  0.94440000  0.50030000  1.0 0.5581957966
C  C130  1  0.94440000  0.35020000  0.49970000  1.0 0.5581957966
C  C131  1  0.64980000  0.59420000  0.49970000  1.0 0.5581957966
C  C132  1  0.40580000  0.05560000  0.49970000  1.0 0.5581957966
C  C133  1  0.32570000  0.84780000  0.49640000  1.0 -0.0095930678
C  C134  1  0.15220000  0.47790000  0.49640000  1.0 -0.0095930678
C  C135  1  0.52210000  0.67430000  0.49640000  1.0 -0.0095930678
C  C136  1  0.67430000  0.15220000  0.50360000  1.0 -0.0033511863
C  C137  1  0.84780000  0.52210000  0.50360000  1.0 -0.0095930678
C  C138  1  0.47790000  0.32570000  0.50360000  1.0 -0.0095930678
C  C139  1  0.15220000  0.67320000  0.49860000  1.0 0.021046167
C  C140  1  0.32680000  0.47900000  0.49860000  1.0 0.021046167
C  C141  1  0.52100000  0.84780000  0.49860000  1.0 0.021046167
C  C142  1  0.84780000  0.32680000  0.50140000  1.0 0.021046167
C  C143  1  0.67320000  0.52100000  0.50140000  1.0 0.021046167
C  C144  1  0.47900000  0.15220000  0.50140000  1.0 0.021046167
C  C145  1  0.13800000  0.62100000  0.50270000  1.0 0.571294667
C  C146  1  0.37900000  0.51700000  0.50270000  1.0 0.571294667
C  C147  1  0.48300000  0.86200000  0.50270000  1.0 0.571294667
C  C148  1  0.86200000  0.37900000  0.49730000  1.0 0.571294667
C  C149  1  0.62100000  0.48300000  0.49730000  1.0 0.571294667
C  C150  1  0.51700000  0.13800000  0.49730000  1.0 0.571294667
C  C151  1  0.16840000  0.73410000  0.49340000  1.0 0.5528684735
C  C152  1  0.26590000  0.43430000  0.49340000  1.0 0.5528684735
C  C153  1  0.56570000  0.83160000  0.49340000  1.0 0.5528684735
C  C154  1  0.83160000  0.26590000  0.50660000  1.0 0.5528684735
C  C155  1  0.73410000  0.56570000  0.50660000  1.0 0.5581957966
C  C156  1  0.43430000  0.16840000  0.50660000  1.0 0.5528684735
C  C157  1  0.37910000  0.86100000  0.50140000  1.0 0.589390552
C  C158  1  0.13900000  0.51810000  0.50140000  1.0 0.589390552
C  C159  1  0.48190000  0.62090000  0.50140000  1.0 0.589390552
C  C160  1  0.62090000  0.13900000  0.49860000  1.0 0.589390552
C  C161  1  0.86100000  0.48190000  0.49860000  1.0 0.589390552
C  C162  1  0.51810000  0.37910000  0.49860000  1.0 0.589390552
C  C163  1  0.26560000  0.83110000  0.49320000  1.0 0.5528684735
C  C164  1  0.16890000  0.43450000  0.49320000  1.0 0.5528684735
C  C165  1  0.56550000  0.73440000  0.49320000  1.0 0.5528684735
C  C166  1  0.73440000  0.16890000  0.50680000  1.0 0.5528684735
C  C167  1  0.83110000  0.56550000  0.50680000  1.0 0.5528684735
C  C168  1  0.43450000  0.26560000  0.50680000  1.0 0.5528684735
C  C169  1  0.31110000  0.88790000  0.50240000  1.0 -0.0202663567
C  C170  1  0.11210000  0.42320000  0.50240000  1.0 -0.0202663567
C  C171  1  0.57680000  0.68890000  0.50240000  1.0 -0.0202663567
C  C172  1  0.68890000  0.11210000  0.49760000  1.0 -0.0202663567
C  C173  1  0.88790000  0.57680000  0.49760000  1.0 -0.0202663567
C  C174  1  0.42320000  0.31110000  0.49760000  1.0 -0.0202663567
C  C175  1  0.11180000  0.68850000  0.50060000  1.0 -0.0095930678
C  C176  1  0.31150000  0.42330000  0.50060000  1.0 -0.0095930678
C  C177  1  0.57670000  0.88820000  0.50060000  1.0 -0.0095930678
C  C178  1  0.88820000  0.31150000  0.49940000  1.0 -0.0095930678
C  C179  1  0.68850000  0.57670000  0.49940000  1.0 -0.0095930678
C  C180  1  0.42330000  0.11180000  0.49940000  1.0 -0.0095930678
C  C181  1  0.99980000  0.66140000  0.75590000  1.0 0.5000893887
C  C182  1  0.33860000  0.33840000  0.75590000  1.0 0.5000893887
C  C183  1  0.66160000  0.00020000  0.75590000  1.0 0.5000893887
C  C184  1  0.00020000  0.33860000  0.24410000  1.0 0.5000893887
C  C185  1  0.66140000  0.66160000  0.24410000  1.0 0.5000893887
C  C186  1  0.33840000  0.99980000  0.24410000  1.0 0.5000893887
C  C187  1  0.99990000  0.65910000  0.99790000  1.0 0.0801400931
C  C188  1  0.34090000  0.34080000  0.99790000  1.0 0.0851709561
C  C189  1  0.65920000  0.00010000  0.99790000  1.0 0.0851709561
C  C190  1  0.00010000  0.34090000  0.00210000  1.0 0.0801400931
C  C191  1  0.65910000  0.65920000  0.00210000  1.0 0.0801400931
C  C192  1  0.34080000  0.99990000  0.00210000  1.0 0.0851709561
C  C193  1  0.19470000  0.80460000  0.00280000  1.0 0.1907783279
C  C194  1  0.19540000  0.39010000  0.00280000  1.0 0.1907783279
C  C195  1  0.60990000  0.80530000  0.00280000  1.0 0.1907783279
C  C196  1  0.80530000  0.19540000  0.99720000  1.0 0.2077893382
C  C197  1  0.80460000  0.60990000  0.99720000  1.0 0.1907783279
C  C198  1  0.39010000  0.19470000  0.99720000  1.0 0.2077893382
C  C199  1  0.18920000  0.81510000  0.86400000  1.0 -0.0670310628
C  C200  1  0.18490000  0.37410000  0.86400000  1.0 -0.0670310628
C  C201  1  0.62590000  0.81080000  0.86400000  1.0 -0.0670310628
C  C202  1  0.81080000  0.18490000  0.13600000  1.0 -0.0608210473
C  C203  1  0.81510000  0.62590000  0.13600000  1.0 -0.0608210473
C  C204  1  0.37410000  0.18920000  0.13600000  1.0 -0.0608210473
C  C205  1  0.18870000  0.81560000  0.13000000  1.0 -0.0402319183
C  C206  1  0.18440000  0.37310000  0.13000000  1.0 -0.0402319183
C  C207  1  0.62690000  0.81130000  0.13000000  1.0 -0.0402319183
C  C208  1  0.81130000  0.18440000  0.87000000  1.0 -0.0402319183
C  C209  1  0.81560000  0.62690000  0.87000000  1.0 -0.0490843926
C  C210  1  0.37310000  0.18870000  0.87000000  1.0 -0.0402319183
C  C211  1  0.98870000  0.66750000  0.12400000  1.0 -0.0286881805
C  C212  1  0.33250000  0.32120000  0.12400000  1.0 -0.0286881805
C  C213  1  0.67880000  0.01130000  0.12400000  1.0 -0.0286881805
C  C214  1  0.01130000  0.33250000  0.87600000  1.0 -0.0286881805
C  C215  1  0.66750000  0.67880000  0.87600000  1.0 -0.0286881805
C  C216  1  0.32120000  0.98870000  0.87600000  1.0 -0.0286881805
C  C217  1  0.01390000  0.67960000  0.11700000  1.0 0.021046167
C  C218  1  0.32040000  0.33430000  0.11700000  1.0 0.021046167
C  C219  1  0.66570000  0.98610000  0.11700000  1.0 0.021046167
C  C220  1  0.98610000  0.32040000  0.88300000  1.0 0.021046167
C  C221  1  0.67960000  0.66570000  0.88300000  1.0 0.021046167
C  C222  1  0.33430000  0.01390000  0.88300000  1.0 0.021046167
C  C223  1  0.98160000  0.68880000  0.13800000  1.0 0.0623836405
C  C224  1  0.31120000  0.29280000  0.13800000  1.0 0.0623836405
C  C225  1  0.70720000  0.01840000  0.13800000  1.0 0.0623836405
C  C226  1  0.01840000  0.31120000  0.86200000  1.0 0.0623836405
C  C227  1  0.68880000  0.70720000  0.86200000  1.0 0.0623836405
C  C228  1  0.29280000  0.98160000  0.86200000  1.0 0.0623836405
C  C229  1  0.02090000  0.71180000  0.13100000  1.0 0.0706026169
C  C230  1  0.28820000  0.30910000  0.13100000  1.0 0.0706026169
C  C231  1  0.69090000  0.97910000  0.13100000  1.0 0.0706026169
C  C232  1  0.97910000  0.28820000  0.86900000  1.0 0.0706026169
C  C233  1  0.71180000  0.69090000  0.86900000  1.0 0.0706026169
C  C234  1  0.30910000  0.02090000  0.86900000  1.0 0.0706026169
C  C235  1  0.98710000  0.66666667  0.88300000  1.0 -0.0095930678
C  C236  1  0.33333333  0.32043000  0.88300000  1.0 -0.0095930678
C  C237  1  0.67957000  0.01290000  0.88300000  1.0 -0.0095930678
C  C238  1  0.01290000  0.33333333  0.11700000  1.0 -0.0095930678
C  C239  1  0.66666667  0.67957000  0.11700000  1.0 -0.0095930678
C  C240  1  0.32043000  0.98710000  0.11700000  1.0 -0.0095930678
C  C241  1  0.01360000  0.67920000  0.88200000  1.0 -0.0033511863
C  C242  1  0.32080000  0.33440000  0.88200000  1.0 -0.0033511863
C  C243  1  0.66560000  0.98640000  0.88200000  1.0 -0.0033511863
C  C244  1  0.98640000  0.32080000  0.11800000  1.0 -0.0033511863
C  C245  1  0.67920000  0.66560000  0.11800000  1.0 -0.0033511863
C  C246  1  0.33440000  0.01360000  0.11800000  1.0 -0.0033511863
C  C247  1  0.02030000  0.71100000  0.86800000  1.0 0.0851709561
C  C248  1  0.28900000  0.30930000  0.86800000  1.0 0.0851709561
C  C249  1  0.69070000  0.97970000  0.86800000  1.0 0.0801400931
C  C250  1  0.97970000  0.28900000  0.13200000  1.0 0.0851709561
C  C251  1  0.71100000  0.69070000  0.13200000  1.0 0.0801400931
C  C252  1  0.30930000  0.02030000  0.13200000  1.0 0.0801400931
C  C253  1  0.98020000  0.69000000  0.87200000  1.0 0.0420460518
C  C254  1  0.31000000  0.29020000  0.87200000  1.0 0.0420460518
C  C255  1  0.70980000  0.01980000  0.87200000  1.0 0.0420460518
C  C256  1  0.01980000  0.31000000  0.12800000  1.0 0.0420460518
C  C257  1  0.69000000  0.70980000  0.12800000  1.0 0.0420460518
C  C258  1  0.29020000  0.98020000  0.12800000  1.0 0.0420460518
C  C259  1  0.16130000  0.81750000  0.12700000  1.0 0.0420460518
C  C260  1  0.18250000  0.34380000  0.12700000  1.0 0.0420460518
C  C261  1  0.65620000  0.83870000  0.12700000  1.0 0.0420460518
C  C262  1  0.83870000  0.18250000  0.87300000  1.0 0.0420460518
C  C263  1  0.81750000  0.65620000  0.87300000  1.0 0.0420460518
C  C264  1  0.34380000  0.16130000  0.87300000  1.0 0.0420460518
C  C265  1  0.18420000  0.84090000  0.12300000  1.0 -0.0033511863
C  C266  1  0.15910000  0.34330000  0.12300000  1.0 -0.0033511863
C  C267  1  0.65670000  0.81580000  0.12300000  1.0 -0.0033511863
C  C268  1  0.81580000  0.15910000  0.87700000  1.0 -0.0033511863
C  C269  1  0.84090000  0.65670000  0.87700000  1.0 -0.0033511863
C  C270  1  0.34330000  0.18420000  0.87700000  1.0 -0.0033511863
C  C271  1  0.16060000  0.81650000  0.86800000  1.0 0.0420460518
C  C272  1  0.18350000  0.34410000  0.86800000  1.0 0.0420460518
C  C273  1  0.65590000  0.83940000  0.86800000  1.0 0.0420460518
C  C274  1  0.83940000  0.18350000  0.13200000  1.0 0.0420460518
C  C275  1  0.81650000  0.65590000  0.13200000  1.0 0.0420460518
C  C276  1  0.34410000  0.16060000  0.13200000  1.0 0.0420460518
C  C277  1  0.18320000  0.84110000  0.87100000  1.0 0.0317261844
C  C278  1  0.15890000  0.34210000  0.87100000  1.0 0.0317261844
C  C279  1  0.65790000  0.81680000  0.87100000  1.0 0.0317261844
C  C280  1  0.81680000  0.15890000  0.12900000  1.0 0.0317261844
C  C281  1  0.84110000  0.65790000  0.12900000  1.0 0.0317261844
C  C282  1  0.34210000  0.18320000  0.12900000  1.0 0.0317261844
C  C283  1  0.96090000  0.72090000  0.97800000  1.0 0.589390552
C  C284  1  0.27910000  0.24000000  0.97800000  1.0 0.589390552
C  C285  1  0.76000000  0.03910000  0.97800000  1.0 0.589390552
C  C286  1  0.03910000  0.27910000  0.02200000  1.0 0.589390552
C  C287  1  0.72090000  0.76000000  0.02200000  1.0 0.589390552
C  C288  1  0.24000000  0.96090000  0.02200000  1.0 0.589390552
C  C289  1  0.04200000  0.75930000  0.02400000  1.0 0.5991395609
C  C290  1  0.24070000  0.28270000  0.02400000  1.0 0.5991395609
C  C291  1  0.71730000  0.95800000  0.02400000  1.0 0.5991395609
C  C292  1  0.95800000  0.24070000  0.97600000  1.0 0.5991395609
C  C293  1  0.75930000  0.71730000  0.97600000  1.0 0.5991395609
C  C294  1  0.28270000  0.04200000  0.97600000  1.0 0.5991395609
C  C295  1  0.97270000  0.69960000  0.99700000  1.0 -0.1638635157
C  C296  1  0.30040000  0.27310000  0.99700000  1.0 -0.1638635157
C  C297  1  0.72690000  0.02730000  0.99700000  1.0 -0.1638635157
C  C298  1  0.02730000  0.30040000  0.00300000  1.0 -0.1638635157
C  C299  1  0.69960000  0.72690000  0.00300000  1.0 -0.1638635157
C  C300  1  0.27310000  0.97270000  0.00300000  1.0 -0.1638635157
C  C301  1  0.02570000  0.72590000  0.00200000  1.0 -0.2088752075
C  C302  1  0.27410000  0.29980000  0.00200000  1.0 -0.2088752075
C  C303  1  0.70020000  0.97430000  0.00200000  1.0 -0.2088752075
C  C304  1  0.97430000  0.27410000  0.99800000  1.0 -0.2088752075
C  C305  1  0.72590000  0.70020000  0.99800000  1.0 -0.2088752075
C  C306  1  0.29980000  0.02570000  0.99800000  1.0 -0.2088752075
C  C307  1  0.16570000  0.86970000  0.00000000  1.0 0.3111167268
C  C308  1  0.13030000  0.29600000  0.00000000  1.0 0.3111167268
C  C309  1  0.70400000  0.83430000  0.00000000  1.0 0.3111167268
C  C310  1  0.83430000  0.13030000  0.00000000  1.0 0.3111167268
C  C311  1  0.86970000  0.70400000  0.00000000  1.0 0.3111167268
C  C312  1  0.29600000  0.16570000  0.00000000  1.0 0.3111167268
C  C313  1  0.12930000  0.83510000  0.99900000  1.0 0.3245180265
C  C314  1  0.16490000  0.29420000  0.99900000  1.0 0.3252682106
C  C315  1  0.70580000  0.87070000  0.99900000  1.0 0.3252682106
C  C316  1  0.87070000  0.16490000  0.00100000  1.0 0.3245180265
C  C317  1  0.83510000  0.70580000  0.00100000  1.0 0.3245180265
C  C318  1  0.29420000  0.12930000  0.00100000  1.0 0.3252682106
C  C319  1  0.14480000  0.82070000  0.00300000  1.0 -0.0402319183
C  C320  1  0.17930000  0.32410000  0.00300000  1.0 -0.0402319183
C  C321  1  0.67590000  0.85520000  0.00300000  1.0 -0.0402319183
C  C322  1  0.85520000  0.17930000  0.99700000  1.0 -0.0402319183
C  C323  1  0.82070000  0.67590000  0.99700000  1.0 -0.0402319183
C  C324  1  0.32410000  0.14480000  0.99700000  1.0 -0.0402319183
C  C325  1  0.18150000  0.85460000  0.00400000  1.0 -0.0402319183
C  C326  1  0.14540000  0.32690000  0.00400000  1.0 -0.0402319183
C  C327  1  0.67310000  0.81850000  0.00400000  1.0 -0.0402319183
C  C328  1  0.81850000  0.14540000  0.99600000  1.0 -0.0402319183
C  C329  1  0.85460000  0.67310000  0.99600000  1.0 -0.0402319183
C  C330  1  0.32690000  0.18150000  0.99600000  1.0 -0.0402319183
O  O1  1  0.99977000  0.63604000  0.26080000  1.0 -0.4794876758
O  O2  1  0.36396000  0.36373000  0.26080000  1.0 -0.4794876758
O  O3  1  0.63627000  0.00023000  0.26080000  1.0 -0.4794876758
O  O4  1  0.00023000  0.36396000  0.73920000  1.0 -0.4794876758
O  O5  1  0.63604000  0.63627000  0.73920000  1.0 -0.4794876758
O  O6  1  0.36373000  0.99977000  0.73920000  1.0 -0.4794876758
O  O7  1  0.18680000  0.81210000  0.64790000  1.0 -0.4974394822
O  O8  1  0.18790000  0.37470000  0.64790000  1.0 -0.4974394822
O  O9  1  0.62530000  0.81320000  0.64790000  1.0 -0.4974394822
O  O10  1  0.81320000  0.18790000  0.35210000  1.0 -0.4974394822
O  O11  1  0.81210000  0.62530000  0.35210000  1.0 -0.4974394822
O  O12  1  0.37470000  0.18680000  0.35210000  1.0 -0.4974394822
O  O13  1  0.29420000  0.64940000  0.89860000  1.0 -0.5486742987
O  O14  1  0.35060000  0.64480000  0.89860000  1.0 -0.5486742987
O  O15  1  0.35520000  0.70580000  0.89860000  1.0 -0.5486742987
O  O16  1  0.70580000  0.35060000  0.10140000  1.0 -0.5486742987
O  O17  1  0.64940000  0.35520000  0.10140000  1.0 -0.5582725177
O  O18  1  0.64480000  0.29420000  0.10140000  1.0 -0.5582725177
O  O19  1  0.29270000  0.64903000  0.11610000  1.0 -0.5582725177
O  O20  1  0.35097000  0.64367000  0.11610000  1.0 -0.5582725177
O  O21  1  0.35633000  0.70730000  0.11610000  1.0 -0.5582725177
O  O22  1  0.70730000  0.35097000  0.88390000  1.0 -0.5582725177
O  O23  1  0.64903000  0.35633000  0.88390000  1.0 -0.5582725177
O  O24  1  0.64367000  0.29270000  0.88390000  1.0 -0.5582725177
O  O25  1  0.33333333  0.66666667  0.59040000  1.0 -0.3440561875
O  O26  1  0.66666667  0.33333333  0.40960000  1.0 -0.3452647312
O  O27  1  0.33333333  0.66666667  0.41380000  1.0 -0.2691283955
O  O28  1  0.66666667  0.33333333  0.58620000  1.0 -0.2691283955
O  O29  1  0.99990000  0.67670000  0.35610000  1.0 -0.5582725177
O  O30  1  0.32330000  0.32320000  0.35610000  1.0 -0.5582725177
O  O31  1  0.67680000  0.00010000  0.35610000  1.0 -0.5582725177
O  O32  1  0.00010000  0.32330000  0.64390000  1.0 -0.5582725177
O  O33  1  0.67670000  0.67680000  0.64390000  1.0 -0.5582725177
O  O34  1  0.32320000  0.99990000  0.64390000  1.0 -0.5582725177
O  O35  1  0.21070000  0.78960000  0.74510000  1.0 -0.4694637603
O  O36  1  0.21040000  0.42110000  0.74510000  1.0 -0.458414024
O  O37  1  0.57890000  0.78930000  0.74510000  1.0 -0.4694637603
O  O38  1  0.78930000  0.21040000  0.25490000  1.0 -0.4694637603
O  O39  1  0.78960000  0.57890000  0.25490000  1.0 -0.4694637603
O  O40  1  0.42110000  0.21070000  0.25490000  1.0 -0.4694637603
O  O41  1  0.21050000  0.78940000  0.25880000  1.0 -0.5295473336
O  O42  1  0.21060000  0.42110000  0.25880000  1.0 -0.5295473336
O  O43  1  0.57890000  0.78950000  0.25880000  1.0 -0.5295473336
O  O44  1  0.78950000  0.21060000  0.74120000  1.0 -0.5295473336
O  O45  1  0.78940000  0.57890000  0.74120000  1.0 -0.5295473336
O  O46  1  0.42110000  0.21050000  0.74120000  1.0 -0.5295473336
O  O47  1  0.00020000  0.63658000  0.73960000  1.0 -0.458414024
O  O48  1  0.36342000  0.36362000  0.73960000  1.0 -0.458414024
O  O49  1  0.63638000  0.99980000  0.73960000  1.0 -0.458414024
O  O50  1  0.99980000  0.36342000  0.26040000  1.0 -0.458414024
O  O51  1  0.63658000  0.63638000  0.26040000  1.0 -0.458414024
O  O52  1  0.36362000  0.00020000  0.26040000  1.0 -0.458414024
O  O53  1  0.15140000  0.57610000  0.75190000  1.0 -0.5131542899
O  O54  1  0.42390000  0.57530000  0.75190000  1.0 -0.5131542899
O  O55  1  0.42470000  0.84860000  0.75190000  1.0 -0.5131542899
O  O56  1  0.84860000  0.42390000  0.24810000  1.0 -0.5131542899
O  O57  1  0.57610000  0.42470000  0.24810000  1.0 -0.5204746409
O  O58  1  0.57530000  0.15140000  0.24810000  1.0 -0.5204746409
O  O59  1  0.18720000  0.81260000  0.35170000  1.0 -0.4794876758
O  O60  1  0.18740000  0.37460000  0.35170000  1.0 -0.4794876758
O  O61  1  0.62540000  0.81280000  0.35170000  1.0 -0.4794876758
O  O62  1  0.81280000  0.18740000  0.64830000  1.0 -0.4794876758
O  O63  1  0.81260000  0.62540000  0.64830000  1.0 -0.4794876758
O  O64  1  0.37460000  0.18720000  0.64830000  1.0 -0.4794876758
O  O65  1  0.11940000  0.59160000  0.50060000  1.0 -0.5295473336
O  O66  1  0.40840000  0.52780000  0.50060000  1.0 -0.5295473336
O  O67  1  0.47220000  0.88060000  0.50060000  1.0 -0.5295473336
O  O68  1  0.88060000  0.40840000  0.49940000  1.0 -0.5295473336
O  O69  1  0.59160000  0.47220000  0.49940000  1.0 -0.5295473336
O  O70  1  0.52780000  0.11940000  0.49940000  1.0 -0.5295473336
O  O71  1  0.40790000  0.87990000  0.50080000  1.0 -0.5204746409
O  O72  1  0.12010000  0.52800000  0.50080000  1.0 -0.5204746409
O  O73  1  0.47200000  0.59210000  0.50080000  1.0 -0.5295473336
O  O74  1  0.59210000  0.12010000  0.49920000  1.0 -0.5295473336
O  O75  1  0.87990000  0.47200000  0.49920000  1.0 -0.5204746409
O  O76  1  0.52800000  0.40790000  0.49920000  1.0 -0.5295473336
O  O77  1  0.15170000  0.57580000  0.24130000  1.0 -0.5295473336
O  O78  1  0.42420000  0.57590000  0.24130000  1.0 -0.5295473336
O  O79  1  0.42410000  0.84830000  0.24130000  1.0 -0.5295473336
O  O80  1  0.84830000  0.42420000  0.75870000  1.0 -0.5295473336
O  O81  1  0.57580000  0.42410000  0.75870000  1.0 -0.5295473336
O  O82  1  0.57590000  0.15170000  0.75870000  1.0 -0.5204746409
O  O83  1  0.19550000  0.74280000  0.49960000  1.0 -0.4505964502
O  O84  1  0.25720000  0.45270000  0.49960000  1.0 -0.4505964502
O  O85  1  0.54730000  0.80450000  0.49960000  1.0 -0.4505964502
O  O86  1  0.80450000  0.25720000  0.50040000  1.0 -0.4505964502
O  O87  1  0.74280000  0.54730000  0.50040000  1.0 -0.4505964502
O  O88  1  0.45270000  0.19550000  0.50040000  1.0 -0.4505964502
O  O89  1  0.24760000  0.84110000  0.49560000  1.0 -0.4694637603
O  O90  1  0.15890000  0.40650000  0.49560000  1.0 -0.458414024
O  O91  1  0.59350000  0.75240000  0.49560000  1.0 -0.4694637603
O  O92  1  0.75240000  0.15890000  0.50440000  1.0 -0.4694637603
O  O93  1  0.84110000  0.59350000  0.50440000  1.0 -0.4694637603
O  O94  1  0.40650000  0.24760000  0.50440000  1.0 -0.4694637603
O  O95  1  0.15860000  0.75230000  0.49970000  1.0 -0.4694637603
O  O96  1  0.24770000  0.40630000  0.49970000  1.0 -0.4694637603
O  O97  1  0.59370000  0.84140000  0.49970000  1.0 -0.4694637603
O  O98  1  0.84140000  0.24770000  0.50030000  1.0 -0.4694637603
O  O99  1  0.75230000  0.59370000  0.50030000  1.0 -0.4694637603
O  O100  1  0.40630000  0.15860000  0.50030000  1.0 -0.4694637603
O  O101  1  0.03385000  0.62182000  0.49890000  1.0 -0.5295473336
O  O102  1  0.37818000  0.41203000  0.49890000  1.0 -0.5295473336
O  O103  1  0.58797000  0.96615000  0.49890000  1.0 -0.5295473336
O  O104  1  0.96615000  0.37818000  0.50110000  1.0 -0.5295473336
O  O105  1  0.62182000  0.58797000  0.50110000  1.0 -0.5295473336
O  O106  1  0.41203000  0.03385000  0.50110000  1.0 -0.5295473336
O  O107  1  0.25730000  0.80470000  0.49860000  1.0 -0.4123315398
O  O108  1  0.19530000  0.45260000  0.49860000  1.0 -0.4123315398
O  O109  1  0.54740000  0.74270000  0.49860000  1.0 -0.4159369155
O  O110  1  0.74270000  0.19530000  0.50140000  1.0 -0.4159369155
O  O111  1  0.80470000  0.54740000  0.50140000  1.0 -0.4159369155
O  O112  1  0.45260000  0.25730000  0.50140000  1.0 -0.4123315398
O  O113  1  0.37773000  0.96504000  0.49930000  1.0 -0.5131542899
O  O114  1  0.03496000  0.41269000  0.49930000  1.0 -0.5131542899
O  O115  1  0.58731000  0.62227000  0.49930000  1.0 -0.5131542899
O  O116  1  0.62227000  0.03496000  0.50070000  1.0 -0.5131542899
O  O117  1  0.96504000  0.58731000  0.50070000  1.0 -0.5204746409
O  O118  1  0.41269000  0.37773000  0.50070000  1.0 -0.5131542899
O  O119  1  0.16650000  0.62690000  0.49750000  1.0 -0.5295473336
O  O120  1  0.37310000  0.53960000  0.49750000  1.0 -0.5375794275
O  O121  1  0.46040000  0.83350000  0.49750000  1.0 -0.5295473336
O  O122  1  0.83350000  0.37310000  0.50250000  1.0 -0.5375794275
O  O123  1  0.62690000  0.46040000  0.50250000  1.0 -0.5375794275
O  O124  1  0.53960000  0.16650000  0.50250000  1.0 -0.5375794275
O  O125  1  0.37270000  0.83320000  0.49890000  1.0 -0.5204746409
O  O126  1  0.16680000  0.53950000  0.49890000  1.0 -0.5204746409
O  O127  1  0.46050000  0.62730000  0.49890000  1.0 -0.5204746409
O  O128  1  0.62730000  0.16680000  0.50110000  1.0 -0.5204746409
O  O129  1  0.83320000  0.46050000  0.50110000  1.0 -0.5204746409
O  O130  1  0.53950000  0.37270000  0.50110000  1.0 -0.5204746409
O  O131  1  0.05140000  0.67330000  0.49970000  1.0 -0.5295473336
O  O132  1  0.32670000  0.37810000  0.49970000  1.0 -0.5295473336
O  O133  1  0.62190000  0.94860000  0.49970000  1.0 -0.5295473336
O  O134  1  0.94860000  0.32670000  0.50030000  1.0 -0.5295473336
O  O135  1  0.67330000  0.62190000  0.50030000  1.0 -0.5295473336
O  O136  1  0.37810000  0.05140000  0.50030000  1.0 -0.5295473336
O  O137  1  0.00010000  0.67670000  0.64420000  1.0 -0.5375794275
O  O138  1  0.32330000  0.32340000  0.64420000  1.0 -0.5375794275
O  O139  1  0.67660000  0.99990000  0.64420000  1.0 -0.5375794275
O  O140  1  0.99990000  0.32330000  0.35580000  1.0 -0.5375794275
O  O141  1  0.67670000  0.67660000  0.35580000  1.0 -0.5375794275
O  O142  1  0.32340000  0.00010000  0.35580000  1.0 -0.5375794275
O  O143  1  0.32710000  0.94840000  0.49850000  1.0 -0.5204746409
O  O144  1  0.05160000  0.37870000  0.49850000  1.0 -0.5295473336
O  O145  1  0.62130000  0.67290000  0.49850000  1.0 -0.5295473336
O  O146  1  0.67290000  0.05160000  0.50150000  1.0 -0.5204746409
O  O147  1  0.94840000  0.62130000  0.50150000  1.0 -0.5295473336
O  O148  1  0.37870000  0.32710000  0.50150000  1.0 -0.5204746409
O  O149  1  0.20210000  0.60110000  0.35150000  1.0 -0.4288637821
O  O150  1  0.39890000  0.60100000  0.35150000  1.0 -0.4288637821
O  O151  1  0.39900000  0.79790000  0.35150000  1.0 -0.4288637821
O  O152  1  0.79790000  0.39890000  0.64850000  1.0 -0.4288637821
O  O153  1  0.60110000  0.39900000  0.64850000  1.0 -0.4288637821
O  O154  1  0.60100000  0.20210000  0.64850000  1.0 -0.4288637821
O  O155  1  0.20120000  0.60020000  0.63230000  1.0 -0.3691454365
O  O156  1  0.39980000  0.60100000  0.63230000  1.0 -0.3691454365
O  O157  1  0.39900000  0.79880000  0.63230000  1.0 -0.3691454365
O  O158  1  0.79880000  0.39980000  0.36770000  1.0 -0.3691454365
O  O159  1  0.60020000  0.39900000  0.36770000  1.0 -0.3691454365
O  O160  1  0.60100000  0.20120000  0.36770000  1.0 -0.3691454365
O  O161  1  0.05980000  0.83800000  0.99990000  1.0 -0.6925814434
O  O162  1  0.16200000  0.22180000  0.99990000  1.0 -0.7020768465
O  O163  1  0.77820000  0.94020000  0.99990000  1.0 -0.7020768465
O  O164  1  0.94020000  0.16200000  0.00010000  1.0 -0.7020768465
O  O165  1  0.83800000  0.77820000  0.00010000  1.0 -0.7020768465
O  O166  1  0.22180000  0.05980000  0.00010000  1.0 -0.7060076876
O  O167  1  0.16200000  0.94040000  0.99690000  1.0 -0.7060076876
O  O168  1  0.05960000  0.22160000  0.99690000  1.0 -0.7060076876
O  O169  1  0.77840000  0.83800000  0.99690000  1.0 -0.7060076876
O  O170  1  0.83800000  0.05960000  0.00310000  1.0 -0.7020768465
O  O171  1  0.94040000  0.77840000  0.00310000  1.0 -0.7020768465
O  O172  1  0.22160000  0.16200000  0.00310000  1.0 -0.7020768465
O  O173  1  0.03480000  0.77300000  0.11410000  1.0 -0.5486742987
O  O174  1  0.22700000  0.26180000  0.11410000  1.0 -0.5486742987
O  O175  1  0.73820000  0.96520000  0.11410000  1.0 -0.5486742987
O  O176  1  0.96520000  0.22700000  0.88590000  1.0 -0.5486742987
O  O177  1  0.77300000  0.73820000  0.88590000  1.0 -0.5486742987
O  O178  1  0.26180000  0.03480000  0.88590000  1.0 -0.5486742987
O  O179  1  0.03540000  0.77220000  0.88400000  1.0 -0.6182738586
O  O180  1  0.22780000  0.26320000  0.88400000  1.0 -0.6182738586
O  O181  1  0.73680000  0.96460000  0.88400000  1.0 -0.6182738586
O  O182  1  0.96460000  0.22780000  0.11600000  1.0 -0.6109096605
O  O183  1  0.77220000  0.73680000  0.11600000  1.0 -0.6182738586
O  O184  1  0.26320000  0.03540000  0.11600000  1.0 -0.6182738586
O  O185  1  0.96150000  0.73580000  0.88400000  1.0 -0.4794876758
O  O186  1  0.26420000  0.22570000  0.88400000  1.0 -0.4794876758
O  O187  1  0.77430000  0.03850000  0.88400000  1.0 -0.4794876758
O  O188  1  0.03850000  0.26420000  0.11600000  1.0 -0.4794876758
O  O189  1  0.73580000  0.77430000  0.11600000  1.0 -0.4794876758
O  O190  1  0.22570000  0.96150000  0.11600000  1.0 -0.4794876758
O  O191  1  0.96330000  0.73630000  0.11700000  1.0 -0.6109096605
O  O192  1  0.26370000  0.22700000  0.11700000  1.0 -0.6109096605
O  O193  1  0.77300000  0.03670000  0.11700000  1.0 -0.6109096605
O  O194  1  0.03670000  0.26370000  0.88300000  1.0 -0.6109096605
O  O195  1  0.73630000  0.77300000  0.88300000  1.0 -0.6109096605
O  O196  1  0.22700000  0.96330000  0.88300000  1.0 -0.6109096605
O  O197  1  0.01350000  0.80760000  0.10120000  1.0 0.2319834904
O  O198  1  0.19240000  0.20590000  0.10120000  1.0 0.2199700901
O  O199  1  0.79410000  0.98650000  0.10120000  1.0 0.2199700901
O  O200  1  0.98650000  0.19240000  0.89880000  1.0 0.2393904568
O  O201  1  0.80760000  0.79410000  0.89880000  1.0 0.2393904568
O  O202  1  0.20590000  0.01350000  0.89880000  1.0 0.2393904568
O  O203  1  0.01390000  0.80740000  0.90020000  1.0 0.1907783279
O  O204  1  0.19260000  0.20650000  0.90020000  1.0 0.2077893382
O  O205  1  0.79350000  0.98610000  0.90020000  1.0 0.1907783279
O  O206  1  0.98610000  0.19260000  0.09980000  1.0 0.1995979024
O  O207  1  0.80740000  0.79350000  0.09980000  1.0 0.1995979024
O  O208  1  0.20650000  0.01390000  0.09980000  1.0 0.1995979024
O  O209  1  0.98650000  0.79400000  0.10060000  1.0 0.2319834904
O  O210  1  0.20600000  0.19250000  0.10060000  1.0 0.2319834904
O  O211  1  0.80750000  0.01350000  0.10060000  1.0 0.2319834904
O  O212  1  0.01350000  0.20600000  0.89940000  1.0 0.2199700901
O  O213  1  0.79400000  0.80750000  0.89940000  1.0 0.2319834904
O  O214  1  0.19250000  0.98650000  0.89940000  1.0 0.2199700901
O  O215  1  0.98610000  0.79370000  0.89870000  1.0 0.1504926532
O  O216  1  0.20630000  0.19240000  0.89870000  1.0 0.1504926532
O  O217  1  0.80760000  0.01390000  0.89870000  1.0 0.1504926532
O  O218  1  0.01390000  0.20630000  0.10130000  1.0 0.1410023785
O  O219  1  0.79370000  0.80760000  0.10130000  1.0 0.1410023785
O  O220  1  0.19240000  0.98610000  0.10130000  1.0 0.1410023785
O  O221  1  0.10740000  0.82300000  0.88410000  1.0 -0.5486742987
O  O222  1  0.17700000  0.28440000  0.88410000  1.0 -0.5486742987
O  O223  1  0.71560000  0.89260000  0.88410000  1.0 -0.5486742987
O  O224  1  0.89260000  0.17700000  0.11590000  1.0 -0.5486742987
O  O225  1  0.82300000  0.71560000  0.11590000  1.0 -0.5486742987
O  O226  1  0.28440000  0.10740000  0.11590000  1.0 -0.5486742987
O  O227  1  0.10260000  0.87360000  0.90670000  1.0 0.1907783279
O  O228  1  0.12640000  0.22900000  0.90670000  1.0 0.1777600476
O  O229  1  0.77100000  0.89740000  0.90670000  1.0 0.1907783279
O  O230  1  0.89740000  0.12640000  0.09330000  1.0 0.1777600476
O  O231  1  0.87360000  0.77100000  0.09330000  1.0 0.1777600476
O  O232  1  0.22900000  0.10260000  0.09330000  1.0 0.1777600476
O  O233  1  0.17790000  0.89410000  0.87700000  1.0 -0.5810873741
O  O234  1  0.10590000  0.28380000  0.87700000  1.0 -0.5810873741
O  O235  1  0.71620000  0.82210000  0.87700000  1.0 -0.5810873741
O  O236  1  0.82210000  0.10590000  0.12300000  1.0 -0.5810873741
O  O237  1  0.89410000  0.71620000  0.12300000  1.0 -0.5810873741
O  O238  1  0.28380000  0.17790000  0.12300000  1.0 -0.5810873741
O  O239  1  0.13050000  0.90010000  0.09920000  1.0 0.1612638102
O  O240  1  0.09990000  0.23040000  0.09920000  1.0 0.1698302941
O  O241  1  0.76960000  0.86950000  0.09920000  1.0 0.1612638102
O  O242  1  0.86950000  0.09990000  0.90080000  1.0 0.1907783279
O  O243  1  0.90010000  0.76960000  0.90080000  1.0 0.1907783279
O  O244  1  0.23040000  0.13050000  0.90080000  1.0 0.1995979024
O  O245  1  0.10910000  0.82480000  0.11300000  1.0 -0.5295473336
O  O246  1  0.17520000  0.28430000  0.11300000  1.0 -0.5295473336
O  O247  1  0.71570000  0.89090000  0.11300000  1.0 -0.5204746409
O  O248  1  0.89090000  0.17520000  0.88700000  1.0 -0.5204746409
O  O249  1  0.82480000  0.71570000  0.88700000  1.0 -0.5295473336
O  O250  1  0.28430000  0.10910000  0.88700000  1.0 -0.5204746409
O  O251  1  0.10030000  0.86950000  0.10010000  1.0 0.2475398572
O  O252  1  0.13050000  0.23080000  0.10010000  1.0 0.2551005201
O  O253  1  0.76920000  0.89970000  0.10010000  1.0 0.2475398572
O  O254  1  0.89970000  0.13050000  0.89990000  1.0 0.2475398572
O  O255  1  0.86950000  0.76920000  0.89990000  1.0 0.2475398572
O  O256  1  0.23080000  0.10030000  0.89990000  1.0 0.2393904568
O  O257  1  0.17750000  0.89370000  0.11400000  1.0 -0.5810873741
O  O258  1  0.10630000  0.28380000  0.11400000  1.0 -0.5810873741
O  O259  1  0.71620000  0.82250000  0.11400000  1.0 -0.5810873741
O  O260  1  0.82250000  0.10630000  0.88600000  1.0 -0.5810873741
O  O261  1  0.89370000  0.71620000  0.88600000  1.0 -0.5810873741
O  O262  1  0.28380000  0.17750000  0.88600000  1.0 -0.5810873741
O  O263  1  0.12590000  0.89750000  0.90630000  1.0 0.1995979024
O  O264  1  0.10250000  0.22840000  0.90630000  1.0 0.1907783279
O  O265  1  0.77160000  0.87410000  0.90630000  1.0 0.1995979024
O  O266  1  0.87410000  0.10250000  0.09370000  1.0 0.1995979024
O  O267  1  0.89750000  0.77160000  0.09370000  1.0 0.1995979024
O  O268  1  0.22840000  0.12590000  0.09370000  1.0 0.1907783279
