# DDEC6 charges by PACMAN v1.1 (https://github.com/mtap-research/PACMAN-charge/)
data_WEBJOE_ASR_pacman
_symmetry_space_group_name_H-M   'P 1'
_cell_length_a   49.59000000
_cell_length_b   49.59000000
_cell_length_c   9.91680000
_cell_angle_alpha   90.00000000
_cell_angle_beta   90.00000000
_cell_angle_gamma   120.00000000
_symmetry_Int_Tables_number   1
_chemical_formula_structural   In9Ni14(C55O51)3
_chemical_formula_sum   'In18 Ni28 C330 O306'
_cell_volume   21119.82925747
_cell_formula_units_Z   2
loop_
 _symmetry_equiv_pos_site_id
 _symmetry_equiv_pos_as_xyz
  1  'x, y, z'
loop_
 _atom_site_type_symbol
 _atom_site_label
 _atom_site_symmetry_multiplicity
 _atom_site_fract_x
 _atom_site_fract_y
 _atom_site_fract_z
 _atom_site_occupancy
 _atom_site_charge
In  In1  1  0.20666000  0.79351000  0.49976000  1.0 1.301689258
In  In2  1  0.20649000  0.41315000  0.49976000  1.0 1.301689258
In  In3  1  0.58685000  0.79334000  0.49976000  1.0 1.301689258
In  In4  1  0.79334000  0.20649000  0.50024000  1.0 1.301689258
In  In5  1  0.79351000  0.58685000  0.50024000  1.0 1.301689258
In  In6  1  0.41315000  0.20666000  0.50024000  1.0 1.301689258
In  In7  1  0.00005000  0.64088000  0.50010000  1.0 1.2589125442
In  In8  1  0.35912000  0.35917000  0.50010000  1.0 1.2589125442
In  In9  1  0.64083000  0.99995000  0.50010000  1.0 1.2589125442
In  In10  1  0.99995000  0.35912000  0.49990000  1.0 1.2589125442
In  In11  1  0.64088000  0.64083000  0.49990000  1.0 1.2589125442
In  In12  1  0.35917000  0.00005000  0.49990000  1.0 1.2589125442
In  In13  1  0.16499000  0.58257000  0.50060000  1.0 1.2589125442
In  In14  1  0.41743000  0.58242000  0.50060000  1.0 1.2589125442
In  In15  1  0.41758000  0.83501000  0.50060000  1.0 1.2589125442
In  In16  1  0.83501000  0.41743000  0.49940000  1.0 1.2589125442
In  In17  1  0.58257000  0.41758000  0.49940000  1.0 1.2589125442
In  In18  1  0.58242000  0.16499000  0.49940000  1.0 1.2589125442
Ni  Ni1  1  0.06598000  0.82059000  0.17760000  1.0 0.9440999336
Ni  Ni2  1  0.17941000  0.24539000  0.17760000  1.0 0.9440999336
Ni  Ni3  1  0.75461000  0.93402000  0.17760000  1.0 0.9440999336
Ni  Ni4  1  0.93402000  0.17941000  0.82240000  1.0 0.9440999336
Ni  Ni5  1  0.82059000  0.75461000  0.82240000  1.0 0.9440999336
Ni  Ni6  1  0.24539000  0.06598000  0.82240000  1.0 0.9440999336
Ni  Ni7  1  0.06543000  0.82072000  0.82260000  1.0 0.8544668363
Ni  Ni8  1  0.17928000  0.24471000  0.82260000  1.0 0.8544668363
Ni  Ni9  1  0.75529000  0.93457000  0.82260000  1.0 0.8544668363
Ni  Ni10  1  0.93457000  0.17928000  0.17740000  1.0 0.8544668363
Ni  Ni11  1  0.82072000  0.75529000  0.17740000  1.0 0.8544668363
Ni  Ni12  1  0.24471000  0.06543000  0.17740000  1.0 0.8544668363
Ni  Ni13  1  0.17932000  0.93431000  0.17730000  1.0 0.9547320512
Ni  Ni14  1  0.06569000  0.24501000  0.17730000  1.0 0.9547320512
Ni  Ni15  1  0.75499000  0.82068000  0.17730000  1.0 0.9547320512
Ni  Ni16  1  0.82068000  0.06569000  0.82270000  1.0 0.9547320512
Ni  Ni17  1  0.93431000  0.75499000  0.82270000  1.0 0.9547320512
Ni  Ni18  1  0.24501000  0.17932000  0.82270000  1.0 0.9547320512
Ni  Ni19  1  0.17938000  0.93448000  0.82200000  1.0 1.0535573072
Ni  Ni20  1  0.06552000  0.24490000  0.82200000  1.0 1.0535573072
Ni  Ni21  1  0.75510000  0.82062000  0.82200000  1.0 1.0535573072
Ni  Ni22  1  0.82062000  0.06552000  0.17800000  1.0 1.0535573072
Ni  Ni23  1  0.93448000  0.75510000  0.17800000  1.0 1.0535573072
Ni  Ni24  1  0.24490000  0.17938000  0.17800000  1.0 1.0535573072
Ni  Ni25  1  0.33333333  0.66666667  0.17070000  1.0 0.7178208339
Ni  Ni26  1  0.66666667  0.33333333  0.82930000  1.0 0.7178208339
Ni  Ni27  1  0.33333333  0.66666667  0.82730000  1.0 0.7646331297
Ni  Ni28  1  0.66666667  0.33333333  0.17270000  1.0 0.7652482497
C  C1  1  0.19090000  0.59510000  0.27600000  1.0 0.5080733627
C  C2  1  0.40490000  0.59580000  0.27600000  1.0 0.5080733627
C  C3  1  0.40420000  0.80910000  0.27600000  1.0 0.5080733627
C  C4  1  0.80910000  0.40490000  0.72400000  1.0 0.5025575909
C  C5  1  0.59510000  0.40420000  0.72400000  1.0 0.5080733627
C  C6  1  0.59580000  0.19090000  0.72400000  1.0 0.5080733627
C  C7  1  0.20250000  0.60190000  0.11400000  1.0 0.0024252837
C  C8  1  0.39810000  0.60060000  0.11400000  1.0 0.0024252837
C  C9  1  0.39940000  0.79750000  0.11400000  1.0 0.0024252837
C  C10  1  0.79750000  0.39810000  0.88600000  1.0 0.0024252837
C  C11  1  0.60190000  0.39940000  0.88600000  1.0 0.0024252837
C  C12  1  0.60060000  0.20250000  0.88600000  1.0 0.0024252837
C  C13  1  0.23590000  0.61910000  0.13400000  1.0 -0.0013778312
C  C14  1  0.38090000  0.61680000  0.13400000  1.0 -0.0013778312
C  C15  1  0.38320000  0.76410000  0.13400000  1.0 -0.0013778312
C  C16  1  0.76410000  0.38090000  0.86600000  1.0 0.0024252837
C  C17  1  0.61910000  0.38320000  0.86600000  1.0 0.0024252837
C  C18  1  0.61680000  0.23590000  0.86600000  1.0 0.0024252837
C  C19  1  0.25080000  0.62650000  0.00300000  1.0 0.0091285329
C  C20  1  0.37350000  0.62430000  0.00300000  1.0 0.0091285329
C  C21  1  0.37570000  0.74920000  0.00300000  1.0 0.0091285329
C  C22  1  0.74920000  0.37350000  0.99700000  1.0 0.0024252837
C  C23  1  0.62650000  0.37570000  0.99700000  1.0 0.0024252837
C  C24  1  0.62430000  0.25080000  0.99700000  1.0 0.0024252837
C  C25  1  0.23730000  0.61940000  0.86900000  1.0 0.032135705
C  C26  1  0.38060000  0.61790000  0.86900000  1.0 0.032135705
C  C27  1  0.38210000  0.76270000  0.86900000  1.0 0.032135705
C  C28  1  0.76270000  0.38060000  0.13100000  1.0 0.0358233745
C  C29  1  0.61940000  0.38210000  0.13100000  1.0 0.0358233745
C  C30  1  0.61790000  0.23730000  0.13100000  1.0 0.0358233745
C  C31  1  0.20360000  0.60220000  0.87900000  1.0 -0.0191629131
C  C32  1  0.39780000  0.60140000  0.87900000  1.0 -0.0191629131
C  C33  1  0.39860000  0.79640000  0.87900000  1.0 -0.0191629131
C  C34  1  0.79640000  0.39780000  0.12100000  1.0 -0.0191629131
C  C35  1  0.60220000  0.39860000  0.12100000  1.0 -0.0191629131
C  C36  1  0.60140000  0.20360000  0.12100000  1.0 -0.0191629131
C  C37  1  0.18300000  0.59170000  0.99500000  1.0 0.0869953007
C  C38  1  0.40830000  0.59130000  0.99500000  1.0 0.0869953007
C  C39  1  0.40870000  0.81700000  0.99500000  1.0 0.0869953007
C  C40  1  0.81700000  0.40830000  0.00500000  1.0 0.0869953007
C  C41  1  0.59170000  0.40870000  0.00500000  1.0 0.0869953007
C  C42  1  0.59130000  0.18300000  0.00500000  1.0 0.0869953007
C  C43  1  0.28450000  0.64390000  0.00400000  1.0 0.5080733627
C  C44  1  0.35610000  0.64060000  0.00400000  1.0 0.5080733627
C  C45  1  0.35940000  0.71550000  0.00400000  1.0 0.5080733627
C  C46  1  0.71550000  0.35610000  0.99600000  1.0 0.5080733627
C  C47  1  0.64390000  0.35940000  0.99600000  1.0 0.5080733627
C  C48  1  0.64060000  0.28450000  0.99600000  1.0 0.5080733627
C  C49  1  0.18800000  0.59300000  0.72000000  1.0 0.519818863
C  C50  1  0.40700000  0.59500000  0.72000000  1.0 0.519818863
C  C51  1  0.40500000  0.81200000  0.72000000  1.0 0.519818863
C  C52  1  0.81200000  0.40700000  0.28000000  1.0 0.519818863
C  C53  1  0.59300000  0.40500000  0.28000000  1.0 0.519818863
C  C54  1  0.59500000  0.18800000  0.28000000  1.0 0.519818863
C  C55  1  0.13520000  0.64760000  0.50100000  1.0 0.0091285329
C  C56  1  0.35240000  0.48760000  0.50100000  1.0 0.0091285329
C  C57  1  0.51240000  0.86480000  0.50100000  1.0 0.0091285329
C  C58  1  0.86480000  0.35240000  0.49900000  1.0 0.0091285329
C  C59  1  0.64760000  0.51240000  0.49900000  1.0 0.0091285329
C  C60  1  0.48760000  0.13520000  0.49900000  1.0 0.0091285329
C  C61  1  0.34120000  0.90830000  0.49600000  1.0 0.0520262107
C  C62  1  0.09170000  0.43290000  0.49600000  1.0 0.0520262107
C  C63  1  0.56710000  0.65880000  0.49600000  1.0 0.0520262107
C  C64  1  0.65880000  0.09170000  0.50400000  1.0 0.0520262107
C  C65  1  0.90830000  0.56710000  0.50400000  1.0 0.0520262107
C  C66  1  0.43290000  0.34120000  0.50400000  1.0 0.0520262107
C  C67  1  0.14460000  0.69980000  0.49900000  1.0 -0.0191629131
C  C68  1  0.30020000  0.44480000  0.49900000  1.0 -0.0191629131
C  C69  1  0.55520000  0.85540000  0.49900000  1.0 -0.0191629131
C  C70  1  0.85540000  0.30020000  0.50100000  1.0 -0.0191629131
C  C71  1  0.69980000  0.55520000  0.50100000  1.0 -0.0191629131
C  C72  1  0.44480000  0.14460000  0.50100000  1.0 -0.0191629131
C  C73  1  0.19750000  0.80040000  0.25500000  1.0 0.5080733627
C  C74  1  0.19960000  0.39710000  0.25500000  1.0 0.5080733627
C  C75  1  0.60290000  0.80250000  0.25500000  1.0 0.5080733627
C  C76  1  0.80250000  0.19960000  0.74500000  1.0 0.5080733627
C  C77  1  0.80040000  0.60290000  0.74500000  1.0 0.5080733627
C  C78  1  0.39710000  0.19750000  0.74500000  1.0 0.5080733627
C  C79  1  0.19690000  0.80180000  0.74200000  1.0 0.5080733627
C  C80  1  0.19820000  0.39510000  0.74200000  1.0 0.5080733627
C  C81  1  0.60490000  0.80310000  0.74200000  1.0 0.5080733627
C  C82  1  0.80310000  0.19820000  0.25800000  1.0 0.5080733627
C  C83  1  0.80180000  0.60490000  0.25800000  1.0 0.5080733627
C  C84  1  0.39510000  0.19690000  0.25800000  1.0 0.5080733627
C  C85  1  0.00020000  0.66020000  0.25500000  1.0 0.5080733627
C  C86  1  0.33980000  0.34000000  0.25500000  1.0 0.5080733627
C  C87  1  0.66000000  0.99980000  0.25500000  1.0 0.5080733627
C  C88  1  0.99980000  0.33980000  0.74500000  1.0 0.5080733627
C  C89  1  0.66020000  0.66000000  0.74500000  1.0 0.5080733627
C  C90  1  0.34000000  0.00020000  0.74500000  1.0 0.5080733627
C  C91  1  0.30060000  0.85630000  0.49900000  1.0 0.0091285329
C  C92  1  0.14370000  0.44430000  0.49900000  1.0 0.0091285329
C  C93  1  0.55570000  0.69940000  0.49900000  1.0 0.0091285329
C  C94  1  0.69940000  0.14370000  0.50100000  1.0 0.0091285329
C  C95  1  0.85630000  0.55570000  0.50100000  1.0 0.0091285329
C  C96  1  0.44430000  0.30060000  0.50100000  1.0 0.0091285329
C  C97  1  0.09070000  0.65710000  0.50100000  1.0 0.0193286675
C  C98  1  0.34290000  0.43360000  0.50100000  1.0 0.0193286675
C  C99  1  0.56640000  0.90930000  0.50100000  1.0 0.0193286675
C  C100  1  0.90930000  0.34290000  0.49900000  1.0 0.0193286675
C  C101  1  0.65710000  0.56640000  0.49900000  1.0 0.0193286675
C  C102  1  0.43360000  0.09070000  0.49900000  1.0 0.0193286675
C  C103  1  0.35990000  0.89440000  0.50400000  1.0 -0.1872130054
C  C104  1  0.10560000  0.46550000  0.50400000  1.0 -0.1872130054
C  C105  1  0.53450000  0.64010000  0.50400000  1.0 -0.1872130054
C  C106  1  0.64010000  0.10560000  0.49600000  1.0 -0.1872130054
C  C107  1  0.89440000  0.53450000  0.49600000  1.0 -0.1872130054
C  C108  1  0.46550000  0.35990000  0.49600000  1.0 -0.1872130054
C  C109  1  0.35420000  0.86450000  0.50200000  1.0 0.0520262107
C  C110  1  0.13550000  0.48970000  0.50200000  1.0 0.0520262107
C  C111  1  0.51030000  0.64580000  0.50200000  1.0 0.0520262107
C  C112  1  0.64580000  0.13550000  0.49800000  1.0 0.0520262107
C  C113  1  0.86450000  0.51030000  0.49800000  1.0 0.0520262107
C  C114  1  0.48970000  0.35420000  0.49800000  1.0 0.0520262107
C  C115  1  0.10240000  0.63780000  0.49900000  1.0 -0.1275941983
C  C116  1  0.36220000  0.46460000  0.49900000  1.0 -0.1275941983
C  C117  1  0.53540000  0.89760000  0.49900000  1.0 -0.1275941983
C  C118  1  0.89760000  0.36220000  0.50100000  1.0 -0.1275941983
C  C119  1  0.63780000  0.53540000  0.50100000  1.0 -0.1275941983
C  C120  1  0.46460000  0.10240000  0.50100000  1.0 -0.1275941983
C  C121  1  0.35410000  0.94590000  0.49760000  1.0 0.5080733627
C  C122  1  0.05410000  0.40820000  0.49760000  1.0 0.5080733627
C  C123  1  0.59180000  0.64590000  0.49760000  1.0 0.5080733627
C  C124  1  0.64590000  0.05410000  0.50240000  1.0 0.5080733627
C  C125  1  0.94590000  0.59180000  0.50240000  1.0 0.5080733627
C  C126  1  0.40820000  0.35410000  0.50240000  1.0 0.5080733627
C  C127  1  0.05270000  0.64740000  0.49730000  1.0 0.5494546748
C  C128  1  0.35260000  0.40530000  0.49730000  1.0 0.5494546748
C  C129  1  0.59470000  0.94730000  0.49730000  1.0 0.5494546748
C  C130  1  0.94730000  0.35260000  0.50270000  1.0 0.5494546748
C  C131  1  0.64740000  0.59470000  0.50270000  1.0 0.5494546748
C  C132  1  0.40530000  0.05270000  0.50270000  1.0 0.5494546748
C  C133  1  0.32410000  0.84420000  0.50350000  1.0 0.0193286675
C  C134  1  0.15580000  0.47990000  0.50350000  1.0 0.0193286675
C  C135  1  0.52010000  0.67590000  0.50350000  1.0 0.0193286675
C  C136  1  0.67590000  0.15580000  0.49650000  1.0 0.0193286675
C  C137  1  0.84420000  0.52010000  0.49650000  1.0 0.0193286675
C  C138  1  0.47990000  0.32410000  0.49650000  1.0 0.0193286675
C  C139  1  0.15610000  0.67800000  0.49820000  1.0 0.0601313781
C  C140  1  0.32200000  0.47810000  0.49820000  1.0 0.0601313781
C  C141  1  0.52190000  0.84390000  0.49820000  1.0 0.0601313781
C  C142  1  0.84390000  0.32200000  0.50180000  1.0 0.0601313781
C  C143  1  0.67800000  0.52190000  0.50180000  1.0 0.0601313781
C  C144  1  0.47810000  0.15610000  0.50180000  1.0 0.0601313781
C  C145  1  0.12790000  0.61260000  0.49500000  1.0 0.5692867048
C  C146  1  0.38740000  0.51530000  0.49500000  1.0 0.5692867048
C  C147  1  0.48470000  0.87210000  0.49500000  1.0 0.5692867048
C  C148  1  0.87210000  0.38740000  0.50500000  1.0 0.5692867048
C  C149  1  0.61260000  0.48470000  0.50500000  1.0 0.5692867048
C  C150  1  0.51530000  0.12790000  0.50500000  1.0 0.5692867048
C  C151  1  0.16900000  0.73450000  0.49900000  1.0 0.5692867048
C  C152  1  0.26550000  0.43450000  0.49900000  1.0 0.5692867048
C  C153  1  0.56550000  0.83100000  0.49900000  1.0 0.5692867048
C  C154  1  0.83100000  0.26550000  0.50100000  1.0 0.5692867048
C  C155  1  0.73450000  0.56550000  0.50100000  1.0 0.5692867048
C  C156  1  0.43450000  0.16900000  0.50100000  1.0 0.5692867048
C  C157  1  0.38660000  0.87130000  0.49800000  1.0 0.5280460325
C  C158  1  0.12870000  0.51530000  0.49800000  1.0 0.5280460325
C  C159  1  0.48470000  0.61340000  0.49800000  1.0 0.5280460325
C  C160  1  0.61340000  0.12870000  0.50200000  1.0 0.5280460325
C  C161  1  0.87130000  0.48470000  0.50200000  1.0 0.5280460325
C  C162  1  0.51530000  0.38660000  0.50200000  1.0 0.5280460325
C  C163  1  0.26420000  0.83210000  0.49760000  1.0 0.5692867048
C  C164  1  0.16790000  0.43210000  0.49760000  1.0 0.5692867048
C  C165  1  0.56790000  0.73580000  0.49760000  1.0 0.5692867048
C  C166  1  0.73580000  0.16790000  0.50240000  1.0 0.5692867048
C  C167  1  0.83210000  0.56790000  0.50240000  1.0 0.5692867048
C  C168  1  0.43210000  0.26420000  0.50240000  1.0 0.5692867048
C  C169  1  0.31330000  0.88970000  0.49400000  1.0 -0.0107762607
C  C170  1  0.11030000  0.42360000  0.49400000  1.0 -0.0107762607
C  C171  1  0.57640000  0.68670000  0.49400000  1.0 -0.0107762607
C  C172  1  0.68670000  0.11030000  0.50600000  1.0 -0.0107762607
C  C173  1  0.88970000  0.57640000  0.50600000  1.0 -0.0107762607
C  C174  1  0.42360000  0.31330000  0.50600000  1.0 -0.0107762607
C  C175  1  0.11150000  0.68610000  0.50200000  1.0 0.032135705
C  C176  1  0.31390000  0.42540000  0.50200000  1.0 0.032135705
C  C177  1  0.57460000  0.88850000  0.50200000  1.0 0.032135705
C  C178  1  0.88850000  0.31390000  0.49800000  1.0 0.032135705
C  C179  1  0.68610000  0.57460000  0.49800000  1.0 0.032135705
C  C180  1  0.42540000  0.11150000  0.49800000  1.0 0.032135705
C  C181  1  0.00150000  0.66120000  0.74100000  1.0 0.5025575909
C  C182  1  0.33880000  0.34030000  0.74100000  1.0 0.5025575909
C  C183  1  0.65970000  0.99850000  0.74100000  1.0 0.5025575909
C  C184  1  0.99850000  0.33880000  0.25900000  1.0 0.5025575909
C  C185  1  0.66120000  0.65970000  0.25900000  1.0 0.5025575909
C  C186  1  0.34030000  0.00150000  0.25900000  1.0 0.5025575909
C  C187  1  0.00050000  0.65760000  0.00000000  1.0 -0.0107762607
C  C188  1  0.34240000  0.34290000  0.00000000  1.0 -0.0107762607
C  C189  1  0.65710000  0.99950000  0.00000000  1.0 -0.0107762607
C  C190  1  0.99950000  0.34240000  0.00000000  1.0 -0.0107762607
C  C191  1  0.65760000  0.65710000  0.00000000  1.0 -0.0107762607
C  C192  1  0.34290000  0.00050000  0.00000000  1.0 -0.0107762607
C  C193  1  0.19390000  0.80680000  0.99600000  1.0 0.0091285329
C  C194  1  0.19320000  0.38710000  0.99600000  1.0 0.0091285329
C  C195  1  0.61290000  0.80610000  0.99600000  1.0 0.0091285329
C  C196  1  0.80610000  0.19320000  0.00400000  1.0 0.0091285329
C  C197  1  0.80680000  0.61290000  0.00400000  1.0 0.0091285329
C  C198  1  0.38710000  0.19390000  0.00400000  1.0 0.0091285329
C  C199  1  0.18850000  0.81670000  0.86700000  1.0 -0.0191629131
C  C200  1  0.18330000  0.37180000  0.86700000  1.0 -0.0191629131
C  C201  1  0.62820000  0.81150000  0.86700000  1.0 -0.0191629131
C  C202  1  0.81150000  0.18330000  0.13300000  1.0 -0.0191629131
C  C203  1  0.81670000  0.62820000  0.13300000  1.0 -0.0191629131
C  C204  1  0.37180000  0.18850000  0.13300000  1.0 -0.0191629131
C  C205  1  0.18670000  0.81400000  0.12800000  1.0 -0.0107762607
C  C206  1  0.18600000  0.37270000  0.12800000  1.0 -0.0107762607
C  C207  1  0.62730000  0.81330000  0.12800000  1.0 -0.0107762607
C  C208  1  0.81330000  0.18600000  0.87200000  1.0 -0.0107762607
C  C209  1  0.81400000  0.62730000  0.87200000  1.0 -0.0107762607
C  C210  1  0.37270000  0.18670000  0.87200000  1.0 -0.0107762607
C  C211  1  0.97610000  0.65860000  0.09700000  1.0 0.0024252837
C  C212  1  0.34140000  0.31750000  0.09700000  1.0 0.0024252837
C  C213  1  0.68250000  0.02390000  0.09700000  1.0 0.0024252837
C  C214  1  0.02390000  0.34140000  0.90300000  1.0 0.0091285329
C  C215  1  0.65860000  0.68250000  0.90300000  1.0 0.0024252837
C  C216  1  0.31750000  0.97610000  0.90300000  1.0 0.0024252837
C  C217  1  0.00590000  0.67600000  0.10900000  1.0 -0.0013778312
C  C218  1  0.32400000  0.32990000  0.10900000  1.0 0.0024252837
C  C219  1  0.67010000  0.99410000  0.10900000  1.0 0.0024252837
C  C220  1  0.99410000  0.32400000  0.89100000  1.0 -0.0013778312
C  C221  1  0.67600000  0.67010000  0.89100000  1.0 -0.0013778312
C  C222  1  0.32990000  0.00590000  0.89100000  1.0 -0.0013778312
C  C223  1  0.98320000  0.69390000  0.13700000  1.0 0.0601313781
C  C224  1  0.30610000  0.28930000  0.13700000  1.0 0.0601313781
C  C225  1  0.71070000  0.01680000  0.13700000  1.0 0.0601313781
C  C226  1  0.01680000  0.30610000  0.86300000  1.0 0.0601313781
C  C227  1  0.69390000  0.71070000  0.86300000  1.0 0.0601313781
C  C228  1  0.28930000  0.98320000  0.86300000  1.0 0.0601313781
C  C229  1  0.01350000  0.70930000  0.12200000  1.0 0.0091285329
C  C230  1  0.29070000  0.30420000  0.12200000  1.0 0.0091285329
C  C231  1  0.69580000  0.98650000  0.12200000  1.0 0.0091285329
C  C232  1  0.98650000  0.29070000  0.87800000  1.0 0.0091285329
C  C233  1  0.70930000  0.69580000  0.87800000  1.0 0.0091285329
C  C234  1  0.30420000  0.01350000  0.87800000  1.0 0.0091285329
C  C235  1  0.97840000  0.65690000  0.91000000  1.0 -0.0107762607
C  C236  1  0.34310000  0.32150000  0.91000000  1.0 -0.0107762607
C  C237  1  0.67850000  0.02160000  0.91000000  1.0 -0.0107762607
C  C238  1  0.02160000  0.34310000  0.09000000  1.0 -0.0107762607
C  C239  1  0.65690000  0.67850000  0.09000000  1.0 -0.0107762607
C  C240  1  0.32150000  0.97840000  0.09000000  1.0 -0.0107762607
C  C241  1  0.00720000  0.67420000  0.89300000  1.0 -0.0013778312
C  C242  1  0.32580000  0.33300000  0.89300000  1.0 -0.0013778312
C  C243  1  0.66700000  0.99280000  0.89300000  1.0 -0.0013778312
C  C244  1  0.99280000  0.32580000  0.10700000  1.0 0.0024252837
C  C245  1  0.67420000  0.66700000  0.10700000  1.0 -0.0013778312
C  C246  1  0.33300000  0.00720000  0.10700000  1.0 -0.0013778312
C  C247  1  0.01610000  0.70870000  0.87400000  1.0 0.0969063324
C  C248  1  0.29130000  0.30740000  0.87400000  1.0 0.0969063324
C  C249  1  0.69260000  0.98390000  0.87400000  1.0 0.0969063324
C  C250  1  0.98390000  0.29130000  0.12600000  1.0 0.0969063324
C  C251  1  0.70870000  0.69260000  0.12600000  1.0 0.0969063324
C  C252  1  0.30740000  0.01610000  0.12600000  1.0 0.0969063324
C  C253  1  0.98110000  0.68980000  0.87600000  1.0 0.0601313781
C  C254  1  0.31020000  0.29130000  0.87600000  1.0 0.0601313781
C  C255  1  0.70870000  0.01890000  0.87600000  1.0 0.0601313781
C  C256  1  0.01890000  0.31020000  0.12400000  1.0 0.0601313781
C  C257  1  0.68980000  0.70870000  0.12400000  1.0 0.0601313781
C  C258  1  0.29130000  0.98110000  0.12400000  1.0 0.0601313781
C  C259  1  0.15500000  0.80740000  0.10900000  1.0 0.0520262107
C  C260  1  0.19260000  0.34760000  0.10900000  1.0 0.0520262107
C  C261  1  0.65240000  0.84500000  0.10900000  1.0 0.0520262107
C  C262  1  0.84500000  0.19260000  0.89100000  1.0 0.0520262107
C  C263  1  0.80740000  0.65240000  0.89100000  1.0 0.0520262107
C  C264  1  0.34760000  0.15500000  0.89100000  1.0 0.0520262107
C  C265  1  0.19020000  0.84460000  0.11400000  1.0 0.0193286675
C  C266  1  0.15540000  0.34560000  0.11400000  1.0 0.0193286675
C  C267  1  0.65440000  0.80980000  0.11400000  1.0 0.0193286675
C  C268  1  0.80980000  0.15540000  0.88600000  1.0 0.0193286675
C  C269  1  0.84460000  0.65440000  0.88600000  1.0 0.0193286675
C  C270  1  0.34560000  0.19020000  0.88600000  1.0 0.0193286675
C  C271  1  0.15790000  0.81380000  0.87300000  1.0 0.0869953007
C  C272  1  0.18620000  0.34410000  0.87300000  1.0 0.0869953007
C  C273  1  0.65590000  0.84210000  0.87300000  1.0 0.0837938817
C  C274  1  0.84210000  0.18620000  0.12700000  1.0 0.0869953007
C  C275  1  0.81380000  0.65590000  0.12700000  1.0 0.0869953007
C  C276  1  0.34410000  0.15790000  0.12700000  1.0 0.0869953007
C  C277  1  0.19040000  0.84680000  0.87800000  1.0 0.0601313781
C  C278  1  0.15320000  0.34360000  0.87800000  1.0 0.0601313781
C  C279  1  0.65640000  0.80960000  0.87800000  1.0 0.0601313781
C  C280  1  0.80960000  0.15320000  0.12200000  1.0 0.0601313781
C  C281  1  0.84680000  0.65640000  0.12200000  1.0 0.0601313781
C  C282  1  0.34360000  0.19040000  0.12200000  1.0 0.0601313781
C  C283  1  0.96200000  0.72020000  0.99800000  1.0 0.5494546748
C  C284  1  0.27980000  0.24180000  0.99800000  1.0 0.5494546748
C  C285  1  0.75820000  0.03800000  0.99800000  1.0 0.5494546748
C  C286  1  0.03800000  0.27980000  0.00200000  1.0 0.5494546748
C  C287  1  0.72020000  0.75820000  0.00200000  1.0 0.5494546748
C  C288  1  0.24180000  0.96200000  0.00200000  1.0 0.5494546748
C  C289  1  0.04010000  0.76290000  0.01400000  1.0 0.519818863
C  C290  1  0.23710000  0.27720000  0.01400000  1.0 0.519818863
C  C291  1  0.72280000  0.95990000  0.01400000  1.0 0.519818863
C  C292  1  0.95990000  0.23710000  0.98600000  1.0 0.519818863
C  C293  1  0.76290000  0.72280000  0.98600000  1.0 0.519818863
C  C294  1  0.27720000  0.04010000  0.98600000  1.0 0.519818863
C  C295  1  0.96980000  0.69460000  0.00200000  1.0 -0.2139507575
C  C296  1  0.30540000  0.27520000  0.00200000  1.0 -0.2139507575
C  C297  1  0.72480000  0.03020000  0.00200000  1.0 -0.2139507575
C  C298  1  0.03020000  0.30540000  0.99800000  1.0 -0.2139507575
C  C299  1  0.69460000  0.72480000  0.99800000  1.0 -0.2139507575
C  C300  1  0.27520000  0.96980000  0.99800000  1.0 -0.2139507575
C  C301  1  0.03380000  0.72820000  0.99600000  1.0 -0.0741849286
C  C302  1  0.27180000  0.30560000  0.99600000  1.0 -0.0741849286
C  C303  1  0.69440000  0.96620000  0.99600000  1.0 -0.0741849286
C  C304  1  0.96620000  0.27180000  0.00400000  1.0 -0.0741849286
C  C305  1  0.72820000  0.69440000  0.00400000  1.0 -0.0741849286
C  C306  1  0.30560000  0.03380000  0.00400000  1.0 -0.0741849286
C  C307  1  0.16600000  0.88110000  0.00300000  1.0 0.5280460325
C  C308  1  0.11890000  0.28490000  0.00300000  1.0 0.5280460325
C  C309  1  0.71510000  0.83400000  0.00300000  1.0 0.5280460325
C  C310  1  0.83400000  0.11890000  0.99700000  1.0 0.5280460325
C  C311  1  0.88110000  0.71510000  0.99700000  1.0 0.5280460325
C  C312  1  0.28490000  0.16600000  0.99700000  1.0 0.5280460325
C  C313  1  0.12640000  0.83380000  0.99100000  1.0 0.5025575909
C  C314  1  0.16620000  0.29260000  0.99100000  1.0 0.5025575909
C  C315  1  0.70740000  0.87360000  0.99100000  1.0 0.5025575909
C  C316  1  0.87360000  0.16620000  0.00900000  1.0 0.5025575909
C  C317  1  0.83380000  0.70740000  0.00900000  1.0 0.5025575909
C  C318  1  0.29260000  0.12640000  0.00900000  1.0 0.5025575909
C  C319  1  0.14620000  0.82000000  0.99600000  1.0 -0.1568267114
C  C320  1  0.18000000  0.32620000  0.99600000  1.0 -0.1568267114
C  C321  1  0.67380000  0.85380000  0.99600000  1.0 -0.1568267114
C  C322  1  0.85380000  0.18000000  0.00400000  1.0 -0.1568267114
C  C323  1  0.82000000  0.67380000  0.00400000  1.0 -0.1568267114
C  C324  1  0.32620000  0.14620000  0.00400000  1.0 -0.1568267114
C  C325  1  0.18500000  0.85970000  0.00000000  1.0 -0.0372446878
C  C326  1  0.14030000  0.32530000  0.00000000  1.0 -0.0372446878
C  C327  1  0.67470000  0.81500000  0.00000000  1.0 -0.0372446878
C  C328  1  0.81500000  0.14030000  0.00000000  1.0 -0.0372446878
C  C329  1  0.85970000  0.67470000  0.00000000  1.0 -0.0372446878
C  C330  1  0.32530000  0.18500000  0.00000000  1.0 -0.0339165913
O  O1  1  0.19150000  0.98520000  0.88900000  1.0 0.3824467468
O  O2  1  0.01480000  0.20630000  0.88900000  1.0 0.3859289991
O  O3  1  0.79370000  0.80850000  0.88900000  1.0 0.3824467468
O  O4  1  0.80850000  0.01480000  0.11100000  1.0 0.3859289991
O  O5  1  0.98520000  0.79370000  0.11100000  1.0 0.3824467468
O  O6  1  0.20630000  0.19150000  0.11100000  1.0 0.3824467468
O  O7  1  0.09850000  0.87250000  0.90100000  1.0 -0.1199750247
O  O8  1  0.12750000  0.22600000  0.90100000  1.0 -0.1199750247
O  O9  1  0.77400000  0.90150000  0.90100000  1.0 -0.1199750247
O  O10  1  0.90150000  0.12750000  0.09900000  1.0 -0.1199750247
O  O11  1  0.87250000  0.77400000  0.09900000  1.0 -0.1199750247
O  O12  1  0.22600000  0.09850000  0.09900000  1.0 -0.1199750247
O  O13  1  0.99930000  0.63370000  0.26280000  1.0 -0.5106238741
O  O14  1  0.36630000  0.36560000  0.26280000  1.0 -0.5106238741
O  O15  1  0.63440000  0.00070000  0.26280000  1.0 -0.5106238741
O  O16  1  0.00070000  0.36630000  0.73720000  1.0 -0.5106238741
O  O17  1  0.63370000  0.63440000  0.73720000  1.0 -0.5106238741
O  O18  1  0.36560000  0.99930000  0.73720000  1.0 -0.5106238741
O  O19  1  0.18720000  0.81550000  0.63890000  1.0 -0.5325308534
O  O20  1  0.18450000  0.37170000  0.63890000  1.0 -0.5325308534
O  O21  1  0.62830000  0.81280000  0.63890000  1.0 -0.5325308534
O  O22  1  0.81280000  0.18450000  0.36110000  1.0 -0.5325308534
O  O23  1  0.81550000  0.62830000  0.36110000  1.0 -0.5325308534
O  O24  1  0.37170000  0.18720000  0.36110000  1.0 -0.5325308534
O  O25  1  0.28850000  0.64373000  0.88160000  1.0 -0.4610584023
O  O26  1  0.35627000  0.64477000  0.88160000  1.0 -0.4610584023
O  O27  1  0.35523000  0.71150000  0.88160000  1.0 -0.4610584023
O  O28  1  0.71150000  0.35627000  0.11840000  1.0 -0.4610584023
O  O29  1  0.64373000  0.35523000  0.11840000  1.0 -0.4610584023
O  O30  1  0.64477000  0.28850000  0.11840000  1.0 -0.4610584023
O  O31  1  0.28790000  0.64523000  0.12720000  1.0 -0.448272605
O  O32  1  0.35477000  0.64267000  0.12720000  1.0 -0.448272605
O  O33  1  0.35733000  0.71210000  0.12720000  1.0 -0.448272605
O  O34  1  0.71210000  0.35477000  0.87280000  1.0 -0.448272605
O  O35  1  0.64523000  0.35733000  0.87280000  1.0 -0.448272605
O  O36  1  0.64267000  0.28790000  0.87280000  1.0 -0.448272605
O  O37  1  0.00010000  0.67560000  0.35440000  1.0 -0.4789410127
O  O38  1  0.32440000  0.32450000  0.35440000  1.0 -0.4789410127
O  O39  1  0.67550000  0.99990000  0.35440000  1.0 -0.4789410127
O  O40  1  0.99990000  0.32440000  0.64560000  1.0 -0.4789410127
O  O41  1  0.67560000  0.67550000  0.64560000  1.0 -0.4789410127
O  O42  1  0.32450000  0.00010000  0.64560000  1.0 -0.4789410127
O  O43  1  0.21090000  0.79070000  0.75160000  1.0 -0.3585751215
O  O44  1  0.20930000  0.42020000  0.75160000  1.0 -0.3585751215
O  O45  1  0.57980000  0.78910000  0.75160000  1.0 -0.3585751215
O  O46  1  0.78910000  0.20930000  0.24840000  1.0 -0.3585751215
O  O47  1  0.79070000  0.57980000  0.24840000  1.0 -0.3585751215
O  O48  1  0.42020000  0.21090000  0.24840000  1.0 -0.3585751215
O  O49  1  0.20980000  0.78990000  0.25410000  1.0 -0.3339306158
O  O50  1  0.21010000  0.41990000  0.25410000  1.0 -0.3339306158
O  O51  1  0.58010000  0.79020000  0.25410000  1.0 -0.3339306158
O  O52  1  0.79020000  0.21010000  0.74590000  1.0 -0.3339306158
O  O53  1  0.78990000  0.58010000  0.74590000  1.0 -0.3339306158
O  O54  1  0.41990000  0.20980000  0.74590000  1.0 -0.3339306158
O  O55  1  0.99960000  0.63500000  0.73940000  1.0 -0.4709336122
O  O56  1  0.36500000  0.36460000  0.73940000  1.0 -0.4709336122
O  O57  1  0.63540000  0.00040000  0.73940000  1.0 -0.4709336122
O  O58  1  0.00040000  0.36500000  0.26060000  1.0 -0.4709336122
O  O59  1  0.63500000  0.63540000  0.26060000  1.0 -0.4709336122
O  O60  1  0.36460000  0.99960000  0.26060000  1.0 -0.4709336122
O  O61  1  0.15510000  0.57620000  0.72500000  1.0 -0.5690951705
O  O62  1  0.42380000  0.57890000  0.72500000  1.0 -0.5690951705
O  O63  1  0.42110000  0.84490000  0.72500000  1.0 -0.5690951705
O  O64  1  0.84490000  0.42380000  0.27500000  1.0 -0.5690951705
O  O65  1  0.57620000  0.42110000  0.27500000  1.0 -0.5690951705
O  O66  1  0.57890000  0.15510000  0.27500000  1.0 -0.5690951705
O  O67  1  0.18610000  0.81430000  0.36080000  1.0 -0.5197405808
O  O68  1  0.18570000  0.37180000  0.36080000  1.0 -0.5197405808
O  O69  1  0.62820000  0.81390000  0.36080000  1.0 -0.5197405808
O  O70  1  0.81390000  0.18570000  0.63920000  1.0 -0.5197405808
O  O71  1  0.81430000  0.62820000  0.63920000  1.0 -0.5197405808
O  O72  1  0.37180000  0.18610000  0.63920000  1.0 -0.5197405808
O  O73  1  0.12270000  0.58760000  0.49810000  1.0 -0.3422211534
O  O74  1  0.41240000  0.53510000  0.49810000  1.0 -0.3422211534
O  O75  1  0.46490000  0.87730000  0.49810000  1.0 -0.3422211534
O  O76  1  0.87730000  0.41240000  0.50190000  1.0 -0.3422211534
O  O77  1  0.58760000  0.46490000  0.50190000  1.0 -0.3422211534
O  O78  1  0.53510000  0.12270000  0.50190000  1.0 -0.3422211534
O  O79  1  0.41170000  0.87770000  0.49450000  1.0 -0.3208833355
O  O80  1  0.12230000  0.53400000  0.49450000  1.0 -0.3208833355
O  O81  1  0.46600000  0.58830000  0.49450000  1.0 -0.3208833355
O  O82  1  0.58830000  0.12230000  0.50550000  1.0 -0.3208833355
O  O83  1  0.87770000  0.46600000  0.50550000  1.0 -0.3208833355
O  O84  1  0.53400000  0.41170000  0.50550000  1.0 -0.3208833355
O  O85  1  0.15520000  0.57810000  0.27100000  1.0 -0.5690951705
O  O86  1  0.42190000  0.57710000  0.27100000  1.0 -0.5690951705
O  O87  1  0.42290000  0.84480000  0.27100000  1.0 -0.5690951705
O  O88  1  0.84480000  0.42190000  0.72900000  1.0 -0.5690951705
O  O89  1  0.57810000  0.42290000  0.72900000  1.0 -0.5690951705
O  O90  1  0.57710000  0.15520000  0.72900000  1.0 -0.5690951705
O  O91  1  0.19700000  0.74390000  0.49670000  1.0 -0.5106238741
O  O92  1  0.25610000  0.45310000  0.49670000  1.0 -0.5106238741
O  O93  1  0.54690000  0.80300000  0.49670000  1.0 -0.5106238741
O  O94  1  0.80300000  0.25610000  0.50330000  1.0 -0.5106238741
O  O95  1  0.74390000  0.54690000  0.50330000  1.0 -0.5106238741
O  O96  1  0.45310000  0.19700000  0.50330000  1.0 -0.5106238741
O  O97  1  0.24550000  0.84480000  0.50100000  1.0 -0.5690951705
O  O98  1  0.15520000  0.40070000  0.50100000  1.0 -0.5690951705
O  O99  1  0.59930000  0.75450000  0.50100000  1.0 -0.5690951705
O  O100  1  0.75450000  0.15520000  0.49900000  1.0 -0.5690951705
O  O101  1  0.84480000  0.59930000  0.49900000  1.0 -0.5690951705
O  O102  1  0.40070000  0.24550000  0.49900000  1.0 -0.5690951705
O  O103  1  0.15580000  0.75530000  0.49760000  1.0 -0.6265082352
O  O104  1  0.24470000  0.40050000  0.49760000  1.0 -0.6265082352
O  O105  1  0.59950000  0.84420000  0.49760000  1.0 -0.6265082352
O  O106  1  0.84420000  0.24470000  0.50240000  1.0 -0.6265082352
O  O107  1  0.75530000  0.59950000  0.50240000  1.0 -0.6265082352
O  O108  1  0.40050000  0.15580000  0.50240000  1.0 -0.6265082352
O  O109  1  0.03380000  0.62080000  0.49770000  1.0 -0.4325297368
O  O110  1  0.37920000  0.41300000  0.49770000  1.0 -0.4325297368
O  O111  1  0.58700000  0.96620000  0.49770000  1.0 -0.4325297368
O  O112  1  0.96620000  0.37920000  0.50230000  1.0 -0.4325297368
O  O113  1  0.62080000  0.58700000  0.50230000  1.0 -0.4325297368
O  O114  1  0.41300000  0.03380000  0.50230000  1.0 -0.4325297368
O  O115  1  0.25690000  0.80510000  0.49860000  1.0 -0.4902823709
O  O116  1  0.19490000  0.45180000  0.49860000  1.0 -0.4902823709
O  O117  1  0.54820000  0.74310000  0.49860000  1.0 -0.4902823709
O  O118  1  0.74310000  0.19490000  0.50140000  1.0 -0.4902823709
O  O119  1  0.80510000  0.54820000  0.50140000  1.0 -0.4902823709
O  O120  1  0.45180000  0.25690000  0.50140000  1.0 -0.4902823709
O  O121  1  0.37780000  0.96630000  0.49580000  1.0 -0.3208833355
O  O122  1  0.03370000  0.41150000  0.49580000  1.0 -0.3208833355
O  O123  1  0.58850000  0.62220000  0.49580000  1.0 -0.3208833355
O  O124  1  0.62220000  0.03370000  0.50420000  1.0 -0.3208833355
O  O125  1  0.96630000  0.58850000  0.50420000  1.0 -0.3208833355
O  O126  1  0.41150000  0.37780000  0.50420000  1.0 -0.3208833355
O  O127  1  0.16690000  0.63010000  0.49860000  1.0 -0.6076493604
O  O128  1  0.36990000  0.53680000  0.49860000  1.0 -0.6076493604
O  O129  1  0.46320000  0.83310000  0.49860000  1.0 -0.6076493604
O  O130  1  0.83310000  0.36990000  0.50140000  1.0 -0.6076493604
O  O131  1  0.63010000  0.46320000  0.50140000  1.0 -0.6076493604
O  O132  1  0.53680000  0.16690000  0.50140000  1.0 -0.6076493604
O  O133  1  0.36830000  0.83290000  0.49830000  1.0 -0.5594145748
O  O134  1  0.16710000  0.53540000  0.49830000  1.0 -0.5594145748
O  O135  1  0.46460000  0.63170000  0.49830000  1.0 -0.5594145748
O  O136  1  0.63170000  0.16710000  0.50170000  1.0 -0.5594145748
O  O137  1  0.83290000  0.46460000  0.50170000  1.0 -0.5594145748
O  O138  1  0.53540000  0.36830000  0.50170000  1.0 -0.5594145748
O  O139  1  0.05200000  0.67040000  0.49800000  1.0 -0.448272605
O  O140  1  0.32960000  0.38160000  0.49800000  1.0 -0.448272605
O  O141  1  0.61840000  0.94800000  0.49800000  1.0 -0.448272605
O  O142  1  0.94800000  0.32960000  0.50200000  1.0 -0.448272605
O  O143  1  0.67040000  0.61840000  0.50200000  1.0 -0.448272605
O  O144  1  0.38160000  0.05200000  0.50200000  1.0 -0.448272605
O  O145  1  0.00090000  0.67700000  0.64450000  1.0 -0.4789410127
O  O146  1  0.32300000  0.32390000  0.64450000  1.0 -0.4789410127
O  O147  1  0.67610000  0.99910000  0.64450000  1.0 -0.4789410127
O  O148  1  0.99910000  0.32300000  0.35550000  1.0 -0.4789410127
O  O149  1  0.67700000  0.67610000  0.35550000  1.0 -0.4789410127
O  O150  1  0.32390000  0.00090000  0.35550000  1.0 -0.4789410127
O  O151  1  0.33210000  0.94880000  0.50770000  1.0 -0.3945639325
O  O152  1  0.05120000  0.38330000  0.50770000  1.0 -0.3945639325
O  O153  1  0.61670000  0.66790000  0.50770000  1.0 -0.3945639325
O  O154  1  0.66790000  0.05120000  0.49230000  1.0 -0.3945639325
O  O155  1  0.94880000  0.61670000  0.49230000  1.0 -0.3960471941
O  O156  1  0.38330000  0.33210000  0.49230000  1.0 -0.3945639325
O  O157  1  0.21140000  0.60570000  0.34100000  1.0 -0.3101148068
O  O158  1  0.39430000  0.60570000  0.34100000  1.0 -0.3101148068
O  O159  1  0.39430000  0.78860000  0.34100000  1.0 -0.3101148068
O  O160  1  0.78860000  0.39430000  0.65900000  1.0 -0.3101148068
O  O161  1  0.60570000  0.39430000  0.65900000  1.0 -0.3101148068
O  O162  1  0.60570000  0.21140000  0.65900000  1.0 -0.3101148068
O  O163  1  0.21160000  0.60450000  0.66100000  1.0 -0.3667109866
O  O164  1  0.39550000  0.60710000  0.66100000  1.0 -0.3667109866
O  O165  1  0.39290000  0.78840000  0.66100000  1.0 -0.3667109866
O  O166  1  0.78840000  0.39550000  0.33900000  1.0 -0.3667109866
O  O167  1  0.60450000  0.39290000  0.33900000  1.0 -0.3667109866
O  O168  1  0.60710000  0.21160000  0.33900000  1.0 -0.3667109866
O  O169  1  0.05940000  0.83560000  0.01100000  1.0 -0.6076493604
O  O170  1  0.16440000  0.22380000  0.01100000  1.0 -0.6076493604
O  O171  1  0.77620000  0.94060000  0.01100000  1.0 -0.6076493604
O  O172  1  0.94060000  0.16440000  0.98900000  1.0 -0.6076493604
O  O173  1  0.83560000  0.77620000  0.98900000  1.0 -0.6076493604
O  O174  1  0.22380000  0.05940000  0.98900000  1.0 -0.6076493604
O  O175  1  0.16220000  0.94130000  0.98700000  1.0 -0.6806732608
O  O176  1  0.05870000  0.22090000  0.98700000  1.0 -0.6806732608
O  O177  1  0.77910000  0.83780000  0.98700000  1.0 -0.6806732608
O  O178  1  0.83780000  0.05870000  0.01300000  1.0 -0.6806732608
O  O179  1  0.94130000  0.77910000  0.01300000  1.0 -0.6806732608
O  O180  1  0.22090000  0.16220000  0.01300000  1.0 -0.6806732608
O  O181  1  0.03760000  0.77280000  0.09900000  1.0 -0.3039467526
O  O182  1  0.22720000  0.26480000  0.09900000  1.0 -0.3039467526
O  O183  1  0.73520000  0.96240000  0.09900000  1.0 -0.3039467526
O  O184  1  0.96240000  0.22720000  0.90100000  1.0 -0.3101148068
O  O185  1  0.77280000  0.73520000  0.90100000  1.0 -0.3101148068
O  O186  1  0.26480000  0.03760000  0.90100000  1.0 -0.3101148068
O  O187  1  0.03720000  0.77170000  0.90300000  1.0 -0.3535598112
O  O188  1  0.22830000  0.26550000  0.90300000  1.0 -0.3535598112
O  O189  1  0.73450000  0.96280000  0.90300000  1.0 -0.3535598112
O  O190  1  0.96280000  0.22830000  0.09700000  1.0 -0.3535598112
O  O191  1  0.77170000  0.73450000  0.09700000  1.0 -0.3535598112
O  O192  1  0.26550000  0.03720000  0.09700000  1.0 -0.3535598112
O  O193  1  0.96380000  0.73590000  0.90300000  1.0 -0.3422211534
O  O194  1  0.26410000  0.22790000  0.90300000  1.0 -0.3422211534
O  O195  1  0.77210000  0.03620000  0.90300000  1.0 -0.3422211534
O  O196  1  0.03620000  0.26410000  0.09700000  1.0 -0.3422211534
O  O197  1  0.73590000  0.77210000  0.09700000  1.0 -0.3422211534
O  O198  1  0.22790000  0.96380000  0.09700000  1.0 -0.3422211534
O  O199  1  0.96320000  0.73610000  0.09600000  1.0 -0.3830730809
O  O200  1  0.26390000  0.22710000  0.09600000  1.0 -0.3830730809
O  O201  1  0.77290000  0.03680000  0.09600000  1.0 -0.3830730809
O  O202  1  0.03680000  0.26390000  0.90400000  1.0 -0.3830730809
O  O203  1  0.73610000  0.77290000  0.90400000  1.0 -0.3830730809
O  O204  1  0.22710000  0.96320000  0.90400000  1.0 -0.3830730809
O  O205  1  0.02990000  0.82350000  0.28500000  1.0 -0.4610584023
O  O206  1  0.17650000  0.20640000  0.28500000  1.0 -0.4610584023
O  O207  1  0.79360000  0.97010000  0.28500000  1.0 -0.4610584023
O  O208  1  0.97010000  0.17650000  0.71500000  1.0 -0.4610584023
O  O209  1  0.82350000  0.79360000  0.71500000  1.0 -0.4610584023
O  O210  1  0.20640000  0.02990000  0.71500000  1.0 -0.4610584023
O  O211  1  0.02910000  0.82140000  0.71400000  1.0 -0.4392658812
O  O212  1  0.17860000  0.20770000  0.71400000  1.0 -0.4392658812
O  O213  1  0.79230000  0.97090000  0.71400000  1.0 -0.4392658812
O  O214  1  0.97090000  0.17860000  0.28600000  1.0 -0.4392658812
O  O215  1  0.82140000  0.79230000  0.28600000  1.0 -0.4392658812
O  O216  1  0.20770000  0.02910000  0.28600000  1.0 -0.4392658812
O  O217  1  0.01660000  0.81030000  0.88700000  1.0 0.2557723927
O  O218  1  0.18970000  0.20630000  0.88700000  1.0 0.2512460755
O  O219  1  0.79370000  0.98340000  0.88700000  1.0 0.2512460755
O  O220  1  0.98340000  0.18970000  0.11300000  1.0 0.2512460755
O  O221  1  0.81030000  0.79370000  0.11300000  1.0 0.2512460755
O  O222  1  0.20630000  0.01660000  0.11300000  1.0 0.2512460755
O  O223  1  0.17850000  0.96930000  0.71800000  1.0 -0.4902823709
O  O224  1  0.03070000  0.20920000  0.71800000  1.0 -0.4902823709
O  O225  1  0.79080000  0.82150000  0.71800000  1.0 -0.4902823709
O  O226  1  0.82150000  0.03070000  0.28200000  1.0 -0.4902823709
O  O227  1  0.96930000  0.79080000  0.28200000  1.0 -0.4902823709
O  O228  1  0.20920000  0.17850000  0.28200000  1.0 -0.4902823709
O  O229  1  0.17910000  0.96980000  0.28600000  1.0 -0.4789410127
O  O230  1  0.03020000  0.20930000  0.28600000  1.0 -0.4789410127
O  O231  1  0.79070000  0.82090000  0.28600000  1.0 -0.4709336122
O  O232  1  0.82090000  0.03020000  0.71400000  1.0 -0.4709336122
O  O233  1  0.96980000  0.79070000  0.71400000  1.0 -0.4709336122
O  O234  1  0.20930000  0.17910000  0.71400000  1.0 -0.4789410127
O  O235  1  0.98480000  0.79460000  0.88900000  1.0 0.3387674398
O  O236  1  0.20540000  0.19020000  0.88900000  1.0 0.3387674398
O  O237  1  0.80980000  0.01520000  0.88900000  1.0 0.3387674398
O  O238  1  0.01520000  0.20540000  0.11100000  1.0 0.3387674398
O  O239  1  0.79460000  0.80980000  0.11100000  1.0 0.3387674398
O  O240  1  0.19020000  0.98480000  0.11100000  1.0 0.3387674398
O  O241  1  0.10490000  0.82430000  0.90800000  1.0 -0.2886875165
O  O242  1  0.17570000  0.28060000  0.90800000  1.0 -0.2886875165
O  O243  1  0.71940000  0.89510000  0.90800000  1.0 -0.2886875165
O  O244  1  0.89510000  0.17570000  0.09200000  1.0 -0.2886875165
O  O245  1  0.82430000  0.71940000  0.09200000  1.0 -0.2886875165
O  O246  1  0.28060000  0.10490000  0.09200000  1.0 -0.2886875165
O  O247  1  0.17910000  0.89730000  0.88800000  1.0 -0.5325308534
O  O248  1  0.10270000  0.28180000  0.88800000  1.0 -0.5325308534
O  O249  1  0.71820000  0.82090000  0.88800000  1.0 -0.5325308534
O  O250  1  0.82090000  0.10270000  0.11200000  1.0 -0.5325308534
O  O251  1  0.89730000  0.71820000  0.11200000  1.0 -0.5325308534
O  O252  1  0.28180000  0.17910000  0.11200000  1.0 -0.5325308534
O  O253  1  0.13440000  0.91330000  0.27500000  1.0 -0.3667109866
O  O254  1  0.08670000  0.22110000  0.27500000  1.0 -0.3667109866
O  O255  1  0.77890000  0.86560000  0.27500000  1.0 -0.3585751215
O  O256  1  0.86560000  0.08670000  0.72500000  1.0 -0.3585751215
O  O257  1  0.91330000  0.77890000  0.72500000  1.0 -0.3585751215
O  O258  1  0.22110000  0.13440000  0.72500000  1.0 -0.3667109866
O  O259  1  0.12890000  0.90140000  0.10800000  1.0 0.2729653897
O  O260  1  0.09860000  0.22750000  0.10800000  1.0 0.2729653897
O  O261  1  0.77250000  0.87110000  0.10800000  1.0 0.2729653897
O  O262  1  0.87110000  0.09860000  0.89200000  1.0 0.2751724826
O  O263  1  0.90140000  0.77250000  0.89200000  1.0 0.2751724826
O  O264  1  0.22750000  0.12890000  0.89200000  1.0 0.2729653897
O  O265  1  0.10500000  0.82450000  0.08700000  1.0 -0.3422211534
O  O266  1  0.17550000  0.28050000  0.08700000  1.0 -0.3422211534
O  O267  1  0.71950000  0.89500000  0.08700000  1.0 -0.3422211534
O  O268  1  0.89500000  0.17550000  0.91300000  1.0 -0.3422211534
O  O269  1  0.82450000  0.71950000  0.91300000  1.0 -0.3422211534
O  O270  1  0.28050000  0.10500000  0.91300000  1.0 -0.3422211534
O  O271  1  0.08650000  0.86390000  0.27800000  1.0 -0.4610584023
O  O272  1  0.13610000  0.22260000  0.27800000  1.0 -0.4610584023
O  O273  1  0.77740000  0.91350000  0.27800000  1.0 -0.4610584023
O  O274  1  0.91350000  0.13610000  0.72200000  1.0 -0.4610584023
O  O275  1  0.86390000  0.77740000  0.72200000  1.0 -0.4610584023
O  O276  1  0.22260000  0.08650000  0.72200000  1.0 -0.4610584023
O  O277  1  0.09840000  0.87090000  0.10600000  1.0 0.5976767885
O  O278  1  0.12910000  0.22750000  0.10600000  1.0 0.5976767885
O  O279  1  0.77250000  0.90160000  0.10600000  1.0 0.5976767885
O  O280  1  0.90160000  0.12910000  0.89400000  1.0 0.5976767885
O  O281  1  0.87090000  0.77250000  0.89400000  1.0 0.5976767885
O  O282  1  0.22750000  0.09840000  0.89400000  1.0 0.5946822273
O  O283  1  0.17840000  0.89700000  0.10700000  1.0 -0.5106238741
O  O284  1  0.10300000  0.28140000  0.10700000  1.0 -0.5106238741
O  O285  1  0.71860000  0.82160000  0.10700000  1.0 -0.5106238741
O  O286  1  0.82160000  0.10300000  0.89300000  1.0 -0.5106238741
O  O287  1  0.89700000  0.71860000  0.89300000  1.0 -0.5106238741
O  O288  1  0.28140000  0.17840000  0.89300000  1.0 -0.5106238741
O  O289  1  0.13780000  0.91330000  0.71900000  1.0 -0.5106238741
O  O290  1  0.08670000  0.22450000  0.71900000  1.0 -0.5106238741
O  O291  1  0.77550000  0.86220000  0.71900000  1.0 -0.5106238741
O  O292  1  0.86220000  0.08670000  0.28100000  1.0 -0.5106238741
O  O293  1  0.91330000  0.77550000  0.28100000  1.0 -0.5106238741
O  O294  1  0.22450000  0.13780000  0.28100000  1.0 -0.5106238741
O  O295  1  0.20530000  0.01550000  0.88400000  1.0 0.295724045
O  O296  1  0.98450000  0.18980000  0.88400000  1.0 0.2934733214
O  O297  1  0.81020000  0.79470000  0.88400000  1.0 0.2934733214
O  O298  1  0.79470000  0.98450000  0.11600000  1.0 0.2934733214
O  O299  1  0.01550000  0.81020000  0.11600000  1.0 0.295724045
O  O300  1  0.18980000  0.20530000  0.11600000  1.0 0.2934733214
O  O301  1  0.12720000  0.90170000  0.89400000  1.0 0.5426727044
O  O302  1  0.09830000  0.22550000  0.89400000  1.0 0.5426727044
O  O303  1  0.77450000  0.87280000  0.89400000  1.0 0.5426727044
O  O304  1  0.87280000  0.09830000  0.10600000  1.0 0.5426727044
O  O305  1  0.90170000  0.77450000  0.10600000  1.0 0.5426727044
O  O306  1  0.22550000  0.12720000  0.10600000  1.0 0.5426727044
