# DDEC6 charges by PACMAN v1.1 (https://github.com/mtap-research/PACMAN-charge/)
data_WEBJIY_ASR_pacman
_symmetry_space_group_name_H-M   'P 1'
_cell_length_a   49.57600000
_cell_length_b   49.57600000
_cell_length_c   9.93800000
_cell_angle_alpha   90.00000000
_cell_angle_beta   90.00000000
_cell_angle_gamma   120.00000000
_symmetry_Int_Tables_number   1
_chemical_formula_structural   In9Co14(C55O52)3
_chemical_formula_sum   'In18 Co28 C330 O312'
_cell_volume   21153.03024642
_cell_formula_units_Z   2
loop_
 _symmetry_equiv_pos_site_id
 _symmetry_equiv_pos_as_xyz
  1  'x, y, z'
loop_
 _atom_site_type_symbol
 _atom_site_label
 _atom_site_symmetry_multiplicity
 _atom_site_fract_x
 _atom_site_fract_y
 _atom_site_fract_z
 _atom_site_occupancy
 _atom_site_charge
In  In1  1  0.20761000  0.79238000  0.50020000  1.0 1.3456672917
In  In2  1  0.20762000  0.41523000  0.50020000  1.0 1.3456672917
In  In3  1  0.58477000  0.79239000  0.50020000  1.0 1.3446092377
In  In4  1  0.79239000  0.20762000  0.49980000  1.0 1.3456672917
In  In5  1  0.79238000  0.58477000  0.49980000  1.0 1.3456672917
In  In6  1  0.41523000  0.20761000  0.49980000  1.0 1.3456672917
In  In7  1  0.00000000  0.63994000  0.49996000  1.0 1.3072377811
In  In8  1  0.36006000  0.36006000  0.49996000  1.0 1.3072377811
In  In9  1  0.63994000  0.00000000  0.49996000  1.0 1.3072377811
In  In10  1  0.00000000  0.36006000  0.50004000  1.0 1.3072377811
In  In11  1  0.63994000  0.63994000  0.50004000  1.0 1.3072377811
In  In12  1  0.36006000  0.00000000  0.50004000  1.0 1.3072377811
In  In13  1  0.15966000  0.57983000  0.49988000  1.0 1.3023241291
In  In14  1  0.42017000  0.57983000  0.49988000  1.0 1.2914613257
In  In15  1  0.42017000  0.84034000  0.49988000  1.0 1.3023241291
In  In16  1  0.84034000  0.42017000  0.50012000  1.0 1.3023241291
In  In17  1  0.57983000  0.42017000  0.50012000  1.0 1.3023241291
In  In18  1  0.57983000  0.15966000  0.50012000  1.0 1.3023241291
Co  Co1  1  0.06569000  0.82024000  0.16540000  1.0 1.0183336904
Co  Co2  1  0.17976000  0.24545000  0.16540000  1.0 1.0183336904
Co  Co3  1  0.75455000  0.93431000  0.16540000  1.0 1.0183336904
Co  Co4  1  0.93431000  0.17976000  0.83460000  1.0 1.0183336904
Co  Co5  1  0.82024000  0.75455000  0.83460000  1.0 1.0183336904
Co  Co6  1  0.24545000  0.06569000  0.83460000  1.0 1.0183336904
Co  Co7  1  0.06584000  0.82042000  0.83460000  1.0 1.0731849144
Co  Co8  1  0.17958000  0.24542000  0.83460000  1.0 1.0731849144
Co  Co9  1  0.75458000  0.93416000  0.83460000  1.0 1.075632907
Co  Co10  1  0.93416000  0.17958000  0.16540000  1.0 1.0731849144
Co  Co11  1  0.82042000  0.75458000  0.16540000  1.0 1.075632907
Co  Co12  1  0.24542000  0.06584000  0.16540000  1.0 1.0731849144
Co  Co13  1  0.17961000  0.93434000  0.16570000  1.0 1.0433004389
Co  Co14  1  0.06566000  0.24527000  0.16570000  1.0 1.0340882311
Co  Co15  1  0.75473000  0.82039000  0.16570000  1.0 1.0433004389
Co  Co16  1  0.82039000  0.06566000  0.83430000  1.0 1.0433004389
Co  Co17  1  0.93434000  0.75473000  0.83430000  1.0 1.0433004389
Co  Co18  1  0.24527000  0.17961000  0.83430000  1.0 1.0433004389
Co  Co19  1  0.17973000  0.93429000  0.83410000  1.0 1.0910264621
Co  Co20  1  0.06571000  0.24544000  0.83410000  1.0 1.0910264621
Co  Co21  1  0.75456000  0.82027000  0.83410000  1.0 1.0910264621
Co  Co22  1  0.82027000  0.06571000  0.16590000  1.0 1.0910264621
Co  Co23  1  0.93429000  0.75456000  0.16590000  1.0 1.0910264621
Co  Co24  1  0.24544000  0.17973000  0.16590000  1.0 1.0910264621
Co  Co25  1  0.33333333  0.66666667  0.19020000  1.0 0.9731080602
Co  Co26  1  0.66666667  0.33333333  0.80980000  1.0 0.9731080602
Co  Co27  1  0.33333333  0.66666667  0.81120000  1.0 0.9576658676
Co  Co28  1  0.66666667  0.33333333  0.18880000  1.0 0.9576658676
C  C1  1  0.18180000  0.59100000  0.25750000  1.0 0.582348619
C  C2  1  0.40900000  0.59080000  0.25750000  1.0 0.582348619
C  C3  1  0.40920000  0.81820000  0.25750000  1.0 0.582348619
C  C4  1  0.81820000  0.40900000  0.74250000  1.0 0.582348619
C  C5  1  0.59100000  0.40920000  0.74250000  1.0 0.582348619
C  C6  1  0.59080000  0.18180000  0.74250000  1.0 0.582348619
C  C7  1  0.19860000  0.59940000  0.12530000  1.0 -0.1000336418
C  C8  1  0.40060000  0.59920000  0.12530000  1.0 -0.1000336418
C  C9  1  0.40080000  0.80140000  0.12530000  1.0 -0.1000336418
C  C10  1  0.80140000  0.40060000  0.87470000  1.0 -0.1000336418
C  C11  1  0.59940000  0.40080000  0.87470000  1.0 -0.1000336418
C  C12  1  0.59920000  0.19860000  0.87470000  1.0 -0.1000336418
C  C13  1  0.23220000  0.61630000  0.11140000  1.0 0.0811135038
C  C14  1  0.38370000  0.61590000  0.11140000  1.0 0.0811135038
C  C15  1  0.38410000  0.76780000  0.11140000  1.0 0.0811135038
C  C16  1  0.76780000  0.38370000  0.88860000  1.0 0.0893942935
C  C17  1  0.61630000  0.38410000  0.88860000  1.0 0.0893942935
C  C18  1  0.61590000  0.23220000  0.88860000  1.0 0.0893942935
C  C19  1  0.25300000  0.62670000  0.99640000  1.0 -0.0130959065
C  C20  1  0.37330000  0.62630000  0.99640000  1.0 -0.0130959065
C  C21  1  0.37370000  0.74700000  0.99640000  1.0 -0.0130959065
C  C22  1  0.74700000  0.37330000  0.00360000  1.0 -0.0130959065
C  C23  1  0.62670000  0.37370000  0.00360000  1.0 -0.0130959065
C  C24  1  0.62630000  0.25300000  0.00360000  1.0 -0.0130959065
C  C25  1  0.23160000  0.61580000  0.88360000  1.0 0.0893942935
C  C26  1  0.38420000  0.61580000  0.88360000  1.0 0.0893942935
C  C27  1  0.38420000  0.76840000  0.88360000  1.0 0.0893942935
C  C28  1  0.76840000  0.38420000  0.11640000  1.0 0.0893942935
C  C29  1  0.61580000  0.38420000  0.11640000  1.0 0.0893942935
C  C30  1  0.61580000  0.23160000  0.11640000  1.0 0.0893942935
C  C31  1  0.19790000  0.59890000  0.87260000  1.0 -0.1198601157
C  C32  1  0.40110000  0.59900000  0.87260000  1.0 -0.1198601157
C  C33  1  0.40100000  0.80210000  0.87260000  1.0 -0.1198601157
C  C34  1  0.80210000  0.40110000  0.12740000  1.0 -0.1198601157
C  C35  1  0.59890000  0.40100000  0.12740000  1.0 -0.1198601157
C  C36  1  0.59900000  0.19790000  0.12740000  1.0 -0.1198601157
C  C37  1  0.18130000  0.59060000  0.99980000  1.0 0.1564257406
C  C38  1  0.40940000  0.59070000  0.99980000  1.0 0.1564257406
C  C39  1  0.40930000  0.81870000  0.99980000  1.0 0.1564257406
C  C40  1  0.81870000  0.40940000  0.00020000  1.0 0.1516822844
C  C41  1  0.59060000  0.40930000  0.00020000  1.0 0.1516822844
C  C42  1  0.59070000  0.18130000  0.00020000  1.0 0.1564257406
C  C43  1  0.28670000  0.64360000  0.00830000  1.0 0.52553717
C  C44  1  0.35640000  0.64310000  0.00830000  1.0 0.52553717
C  C45  1  0.35690000  0.71330000  0.00830000  1.0 0.52553717
C  C46  1  0.71330000  0.35640000  0.99170000  1.0 0.5243370304
C  C47  1  0.64360000  0.35690000  0.99170000  1.0 0.5243370304
C  C48  1  0.64310000  0.28670000  0.99170000  1.0 0.5243370304
C  C49  1  0.18320000  0.59130000  0.73900000  1.0 0.5861176024
C  C50  1  0.40870000  0.59190000  0.73900000  1.0 0.5861176024
C  C51  1  0.40810000  0.81680000  0.73900000  1.0 0.5861176024
C  C52  1  0.81680000  0.40870000  0.26100000  1.0 0.582348619
C  C53  1  0.59130000  0.40810000  0.26100000  1.0 0.582348619
C  C54  1  0.59190000  0.18320000  0.26100000  1.0 0.582348619
C  C55  1  0.13080000  0.64400000  0.49990000  1.0 -0.1000336418
C  C56  1  0.35600000  0.48680000  0.49990000  1.0 -0.1000336418
C  C57  1  0.51320000  0.86920000  0.49990000  1.0 -0.1000336418
C  C58  1  0.86920000  0.35600000  0.50010000  1.0 -0.1000336418
C  C59  1  0.64400000  0.51320000  0.50010000  1.0 -0.1000336418
C  C60  1  0.48680000  0.13080000  0.50010000  1.0 -0.1000336418
C  C61  1  0.34170000  0.90860000  0.50110000  1.0 -0.0388552463
C  C62  1  0.09140000  0.43310000  0.50110000  1.0 -0.0388552463
C  C63  1  0.56690000  0.65830000  0.50110000  1.0 -0.0388552463
C  C64  1  0.65830000  0.09140000  0.49890000  1.0 -0.0388552463
C  C65  1  0.90860000  0.56690000  0.49890000  1.0 -0.0388552463
C  C66  1  0.43310000  0.34170000  0.49890000  1.0 -0.0388552463
C  C67  1  0.14230000  0.69670000  0.50270000  1.0 -0.0456029741
C  C68  1  0.30330000  0.44560000  0.50270000  1.0 -0.0456029741
C  C69  1  0.55440000  0.85770000  0.50270000  1.0 -0.0388552463
C  C70  1  0.85770000  0.30330000  0.49730000  1.0 -0.0456029741
C  C71  1  0.69670000  0.55440000  0.49730000  1.0 -0.0456029741
C  C72  1  0.44560000  0.14230000  0.49730000  1.0 -0.0456029741
C  C73  1  0.19680000  0.80320000  0.25530000  1.0 0.5700627138
C  C74  1  0.19680000  0.39360000  0.25530000  1.0 0.5700627138
C  C75  1  0.60640000  0.80320000  0.25530000  1.0 0.5700627138
C  C76  1  0.80320000  0.19680000  0.74470000  1.0 0.5700627138
C  C77  1  0.80320000  0.60640000  0.74470000  1.0 0.5700627138
C  C78  1  0.39360000  0.19680000  0.74470000  1.0 0.5700627138
C  C79  1  0.19640000  0.80370000  0.74700000  1.0 0.543880155
C  C80  1  0.19630000  0.39270000  0.74700000  1.0 0.543880155
C  C81  1  0.60730000  0.80360000  0.74700000  1.0 0.543880155
C  C82  1  0.80360000  0.19630000  0.25300000  1.0 0.543880155
C  C83  1  0.80370000  0.60730000  0.25300000  1.0 0.543880155
C  C84  1  0.39270000  0.19640000  0.25300000  1.0 0.543880155
C  C85  1  0.99970000  0.65900000  0.25210000  1.0 0.4911440407
C  C86  1  0.34100000  0.34070000  0.25210000  1.0 0.4911440407
C  C87  1  0.65930000  0.00030000  0.25210000  1.0 0.4911440407
C  C88  1  0.00030000  0.34100000  0.74790000  1.0 0.4911440407
C  C89  1  0.65900000  0.65930000  0.74790000  1.0 0.4911440407
C  C90  1  0.34070000  0.99970000  0.74790000  1.0 0.4911440407
C  C91  1  0.30250000  0.85670000  0.50380000  1.0 -0.0348300865
C  C92  1  0.14330000  0.44580000  0.50380000  1.0 -0.0388552463
C  C93  1  0.55420000  0.69750000  0.50380000  1.0 -0.0388552463
C  C94  1  0.69750000  0.14330000  0.49620000  1.0 -0.0388552463
C  C95  1  0.85670000  0.55420000  0.49620000  1.0 -0.0388552463
C  C96  1  0.44580000  0.30250000  0.49620000  1.0 -0.0388552463
C  C97  1  0.09120000  0.65840000  0.50220000  1.0 -0.0388552463
C  C98  1  0.34160000  0.43280000  0.50220000  1.0 -0.0388552463
C  C99  1  0.56720000  0.90880000  0.50220000  1.0 -0.0388552463
C  C100  1  0.90880000  0.34160000  0.49780000  1.0 -0.0388552463
C  C101  1  0.65840000  0.56720000  0.49780000  1.0 -0.0388552463
C  C102  1  0.43280000  0.09120000  0.49780000  1.0 -0.0388552463
C  C103  1  0.36580000  0.90100000  0.50080000  1.0 0.070949675
C  C104  1  0.09900000  0.46480000  0.50080000  1.0 0.070949675
C  C105  1  0.53520000  0.63420000  0.50080000  1.0 0.070949675
C  C106  1  0.63420000  0.09900000  0.49920000  1.0 0.070949675
C  C107  1  0.90100000  0.53520000  0.49920000  1.0 0.070949675
C  C108  1  0.46480000  0.36580000  0.49920000  1.0 0.070949675
C  C109  1  0.35560000  0.86920000  0.49950000  1.0 -0.0917200277
C  C110  1  0.13080000  0.48640000  0.49950000  1.0 -0.0917200277
C  C111  1  0.51360000  0.64440000  0.49950000  1.0 -0.0917200277
C  C112  1  0.64440000  0.13080000  0.50050000  1.0 -0.0917200277
C  C113  1  0.86920000  0.51360000  0.50050000  1.0 -0.0917200277
C  C114  1  0.48640000  0.35560000  0.50050000  1.0 -0.0917200277
C  C115  1  0.09830000  0.63410000  0.50010000  1.0 0.0964504639
C  C116  1  0.36590000  0.46420000  0.50010000  1.0 0.0964504639
C  C117  1  0.53580000  0.90170000  0.50010000  1.0 0.0893942935
C  C118  1  0.90170000  0.36590000  0.49990000  1.0 0.0964504639
C  C119  1  0.63410000  0.53580000  0.49990000  1.0 0.0964504639
C  C120  1  0.46420000  0.09830000  0.49990000  1.0 0.0964504639
C  C121  1  0.35010000  0.94410000  0.49540000  1.0 0.5466979182
C  C122  1  0.05590000  0.40600000  0.49540000  1.0 0.5466979182
C  C123  1  0.59400000  0.64990000  0.49540000  1.0 0.5466979182
C  C124  1  0.64990000  0.05590000  0.50460000  1.0 0.5466979182
C  C125  1  0.94410000  0.59400000  0.50460000  1.0 0.5466979182
C  C126  1  0.40600000  0.35010000  0.50460000  1.0 0.5466979182
C  C127  1  0.05600000  0.64980000  0.49560000  1.0 0.543880155
C  C128  1  0.35020000  0.40620000  0.49560000  1.0 0.5466979182
C  C129  1  0.59380000  0.94400000  0.49560000  1.0 0.543880155
C  C130  1  0.94400000  0.35020000  0.50440000  1.0 0.543880155
C  C131  1  0.64980000  0.59380000  0.50440000  1.0 0.5466979182
C  C132  1  0.40620000  0.05600000  0.50440000  1.0 0.5466979182
C  C133  1  0.32340000  0.84530000  0.49970000  1.0 0.1114116865
C  C134  1  0.15470000  0.47810000  0.49970000  1.0 0.1168786021
C  C135  1  0.52190000  0.67660000  0.49970000  1.0 0.1114116865
C  C136  1  0.67660000  0.15470000  0.50030000  1.0 0.1168786021
C  C137  1  0.84530000  0.52190000  0.50030000  1.0 0.1168786021
C  C138  1  0.47810000  0.32340000  0.50030000  1.0 0.1168786021
C  C139  1  0.15540000  0.67670000  0.49830000  1.0 0.1281523774
C  C140  1  0.32330000  0.47870000  0.49830000  1.0 0.1281523774
C  C141  1  0.52130000  0.84460000  0.49830000  1.0 0.1281523774
C  C142  1  0.84460000  0.32330000  0.50170000  1.0 0.1281523774
C  C143  1  0.67670000  0.52130000  0.50170000  1.0 0.1281523774
C  C144  1  0.47870000  0.15540000  0.50170000  1.0 0.1281523774
C  C145  1  0.14030000  0.62000000  0.50120000  1.0 0.6005833368
C  C146  1  0.38000000  0.52030000  0.50120000  1.0 0.6005833368
C  C147  1  0.47970000  0.85970000  0.50120000  1.0 0.6005833368
C  C148  1  0.85970000  0.38000000  0.49880000  1.0 0.6005833368
C  C149  1  0.62000000  0.47970000  0.49880000  1.0 0.6005833368
C  C150  1  0.52030000  0.14030000  0.49880000  1.0 0.6005833368
C  C151  1  0.16750000  0.73250000  0.49790000  1.0 0.6005833368
C  C152  1  0.26750000  0.43500000  0.49790000  1.0 0.6005833368
C  C153  1  0.56500000  0.83250000  0.49790000  1.0 0.6005833368
C  C154  1  0.83250000  0.26750000  0.50210000  1.0 0.6005833368
C  C155  1  0.73250000  0.56500000  0.50210000  1.0 0.6005833368
C  C156  1  0.43500000  0.16750000  0.50210000  1.0 0.6005833368
C  C157  1  0.37960000  0.85960000  0.50080000  1.0 0.6083601584
C  C158  1  0.14040000  0.52000000  0.50080000  1.0 0.6083601584
C  C159  1  0.48000000  0.62040000  0.50080000  1.0 0.6083601584
C  C160  1  0.62040000  0.14040000  0.49920000  1.0 0.6083601584
C  C161  1  0.85960000  0.48000000  0.49920000  1.0 0.6083601584
C  C162  1  0.52000000  0.37960000  0.49920000  1.0 0.6083601584
C  C163  1  0.26650000  0.83100000  0.49940000  1.0 0.582348619
C  C164  1  0.16900000  0.43550000  0.49940000  1.0 0.582348619
C  C165  1  0.56450000  0.73350000  0.49940000  1.0 0.582348619
C  C166  1  0.73350000  0.16900000  0.50060000  1.0 0.582348619
C  C167  1  0.83100000  0.56450000  0.50060000  1.0 0.582348619
C  C168  1  0.43550000  0.26650000  0.50060000  1.0 0.582348619
C  C169  1  0.30960000  0.88620000  0.50250000  1.0 0.0526924746
C  C170  1  0.11380000  0.42340000  0.50250000  1.0 0.0526924746
C  C171  1  0.57660000  0.69040000  0.50250000  1.0 0.0526924746
C  C172  1  0.69040000  0.11380000  0.49750000  1.0 0.0526924746
C  C173  1  0.88620000  0.57660000  0.49750000  1.0 0.0526924746
C  C174  1  0.42340000  0.30960000  0.49750000  1.0 0.0526924746
C  C175  1  0.11260000  0.69010000  0.50200000  1.0 0.0206709111
C  C176  1  0.30990000  0.42250000  0.50200000  1.0 0.0305833351
C  C177  1  0.57750000  0.88740000  0.50200000  1.0 0.0206709111
C  C178  1  0.88740000  0.30990000  0.49800000  1.0 0.0305833351
C  C179  1  0.69010000  0.57750000  0.49800000  1.0 0.0305833351
C  C180  1  0.42250000  0.11260000  0.49800000  1.0 0.0305833351
C  C181  1  0.00020000  0.65940000  0.74540000  1.0 0.4911440407
C  C182  1  0.34060000  0.34080000  0.74540000  1.0 0.4911440407
C  C183  1  0.65920000  0.99980000  0.74540000  1.0 0.4911440407
C  C184  1  0.99980000  0.34060000  0.25460000  1.0 0.4911440407
C  C185  1  0.65940000  0.65920000  0.25460000  1.0 0.4911440407
C  C186  1  0.34080000  0.00020000  0.25460000  1.0 0.4911440407
C  C187  1  0.99970000  0.65700000  0.00020000  1.0 0.0893942935
C  C188  1  0.34300000  0.34270000  0.00020000  1.0 0.0893942935
C  C189  1  0.65730000  0.00030000  0.00020000  1.0 0.0964504639
C  C190  1  0.00030000  0.34300000  0.99980000  1.0 0.0964504639
C  C191  1  0.65700000  0.65730000  0.99980000  1.0 0.0964504639
C  C192  1  0.34270000  0.99970000  0.99980000  1.0 0.0964504639
C  C193  1  0.19710000  0.80290000  0.00020000  1.0 0.1773908258
C  C194  1  0.19710000  0.39420000  0.00020000  1.0 0.1716630876
C  C195  1  0.60580000  0.80290000  0.00020000  1.0 0.1773908258
C  C196  1  0.80290000  0.19710000  0.99980000  1.0 0.1716630876
C  C197  1  0.80290000  0.60580000  0.99980000  1.0 0.1716630876
C  C198  1  0.39420000  0.19710000  0.99980000  1.0 0.1716630876
C  C199  1  0.18890000  0.81120000  0.87000000  1.0 -0.0577153159
C  C200  1  0.18880000  0.37770000  0.87000000  1.0 -0.0577153159
C  C201  1  0.62230000  0.81110000  0.87000000  1.0 -0.0577153159
C  C202  1  0.81110000  0.18880000  0.13000000  1.0 -0.0577153159
C  C203  1  0.81120000  0.62230000  0.13000000  1.0 -0.0577153159
C  C204  1  0.37770000  0.18890000  0.13000000  1.0 -0.0577153159
C  C205  1  0.18970000  0.81210000  0.12700000  1.0 -0.0577153159
C  C206  1  0.18790000  0.37760000  0.12700000  1.0 -0.0577153159
C  C207  1  0.62240000  0.81030000  0.12700000  1.0 -0.0577153159
C  C208  1  0.81030000  0.18790000  0.87300000  1.0 -0.0577153159
C  C209  1  0.81210000  0.62240000  0.87300000  1.0 -0.0577153159
C  C210  1  0.37760000  0.18970000  0.87300000  1.0 -0.0577153159
C  C211  1  0.98730000  0.66530000  0.12100000  1.0 0.0206709111
C  C212  1  0.33470000  0.32200000  0.12100000  1.0 0.0206709111
C  C213  1  0.67800000  0.01270000  0.12100000  1.0 0.0206709111
C  C214  1  0.01270000  0.33470000  0.87900000  1.0 0.0206709111
C  C215  1  0.66530000  0.67800000  0.87900000  1.0 0.0206709111
C  C216  1  0.32200000  0.98730000  0.87900000  1.0 0.0206709111
C  C217  1  0.00870000  0.67780000  0.12100000  1.0 0.0526924746
C  C218  1  0.32220000  0.33090000  0.12100000  1.0 0.0526924746
C  C219  1  0.66910000  0.99130000  0.12100000  1.0 0.0526924746
C  C220  1  0.99130000  0.32220000  0.87900000  1.0 0.0526924746
C  C221  1  0.67780000  0.66910000  0.87900000  1.0 0.0526924746
C  C222  1  0.33090000  0.00870000  0.87900000  1.0 0.0526924746
C  C223  1  0.98510000  0.69210000  0.12900000  1.0 0.0811135038
C  C224  1  0.30790000  0.29300000  0.12900000  1.0 0.0811135038
C  C225  1  0.70700000  0.01490000  0.12900000  1.0 0.0811135038
C  C226  1  0.01490000  0.30790000  0.87100000  1.0 0.0811135038
C  C227  1  0.69210000  0.70700000  0.87100000  1.0 0.0811135038
C  C228  1  0.29300000  0.98510000  0.87100000  1.0 0.0811135038
C  C229  1  0.01800000  0.70980000  0.13200000  1.0 0.0526924746
C  C230  1  0.29020000  0.30820000  0.13200000  1.0 0.0526924746
C  C231  1  0.69180000  0.98200000  0.13200000  1.0 0.0526924746
C  C232  1  0.98200000  0.29020000  0.86800000  1.0 0.0581067088
C  C233  1  0.70980000  0.69180000  0.86800000  1.0 0.0581067088
C  C234  1  0.30820000  0.01800000  0.86800000  1.0 0.0581067088
C  C235  1  0.98960000  0.66820000  0.87700000  1.0 0.0305833351
C  C236  1  0.33180000  0.32140000  0.87700000  1.0 0.0305833351
C  C237  1  0.67860000  0.01040000  0.87700000  1.0 0.0305833351
C  C238  1  0.01040000  0.33180000  0.12300000  1.0 0.0305833351
C  C239  1  0.66820000  0.67860000  0.12300000  1.0 0.0305833351
C  C240  1  0.32140000  0.98960000  0.12300000  1.0 0.0305833351
C  C241  1  0.01210000  0.67730000  0.87900000  1.0 0.0206709111
C  C242  1  0.32270000  0.33480000  0.87900000  1.0 0.0206709111
C  C243  1  0.66520000  0.98790000  0.87900000  1.0 0.0206709111
C  C244  1  0.98790000  0.32270000  0.12100000  1.0 0.0206709111
C  C245  1  0.67730000  0.66520000  0.12100000  1.0 0.0206709111
C  C246  1  0.33480000  0.01210000  0.12100000  1.0 0.0206709111
C  C247  1  0.01860000  0.70830000  0.87400000  1.0 0.0964504639
C  C248  1  0.29170000  0.31030000  0.87400000  1.0 0.0964504639
C  C249  1  0.68970000  0.98140000  0.87400000  1.0 0.0964504639
C  C250  1  0.98140000  0.29170000  0.12600000  1.0 0.0964504639
C  C251  1  0.70830000  0.68970000  0.12600000  1.0 0.0964504639
C  C252  1  0.31030000  0.01860000  0.12600000  1.0 0.0964504639
C  C253  1  0.98260000  0.69210000  0.86700000  1.0 0.0893942935
C  C254  1  0.30790000  0.29050000  0.86700000  1.0 0.0893942935
C  C255  1  0.70950000  0.01740000  0.86700000  1.0 0.0893942935
C  C256  1  0.01740000  0.30790000  0.13300000  1.0 0.0893942935
C  C257  1  0.69210000  0.70950000  0.13300000  1.0 0.0893942935
C  C258  1  0.29050000  0.98260000  0.13300000  1.0 0.0893942935
C  C259  1  0.15880000  0.81150000  0.12000000  1.0 0.0581067088
C  C260  1  0.18850000  0.34730000  0.12000000  1.0 0.0581067088
C  C261  1  0.65270000  0.84120000  0.12000000  1.0 0.0581067088
C  C262  1  0.84120000  0.18850000  0.88000000  1.0 0.0581067088
C  C263  1  0.81150000  0.65270000  0.88000000  1.0 0.0581067088
C  C264  1  0.34730000  0.15880000  0.88000000  1.0 0.0581067088
C  C265  1  0.18730000  0.84150000  0.12600000  1.0 0.0893942935
C  C266  1  0.15850000  0.34580000  0.12600000  1.0 0.0893942935
C  C267  1  0.65420000  0.81270000  0.12600000  1.0 0.0893942935
C  C268  1  0.81270000  0.15850000  0.87400000  1.0 0.0893942935
C  C269  1  0.84150000  0.65420000  0.87400000  1.0 0.0893942935
C  C270  1  0.34580000  0.18730000  0.87400000  1.0 0.0893942935
C  C271  1  0.15790000  0.81330000  0.87700000  1.0 0.070949675
C  C272  1  0.18670000  0.34460000  0.87700000  1.0 0.070949675
C  C273  1  0.65540000  0.84210000  0.87700000  1.0 0.070949675
C  C274  1  0.84210000  0.18670000  0.12300000  1.0 0.070949675
C  C275  1  0.81330000  0.65540000  0.12300000  1.0 0.070949675
C  C276  1  0.34460000  0.15790000  0.12300000  1.0 0.070949675
C  C277  1  0.18780000  0.84150000  0.87600000  1.0 0.0811135038
C  C278  1  0.15850000  0.34630000  0.87600000  1.0 0.0811135038
C  C279  1  0.65370000  0.81220000  0.87600000  1.0 0.0811135038
C  C280  1  0.81220000  0.15850000  0.12400000  1.0 0.0811135038
C  C281  1  0.84150000  0.65370000  0.12400000  1.0 0.0811135038
C  C282  1  0.34630000  0.18780000  0.12400000  1.0 0.0811135038
C  C283  1  0.96250000  0.72270000  0.99200000  1.0 0.5700627138
C  C284  1  0.27730000  0.23980000  0.99200000  1.0 0.5700627138
C  C285  1  0.76020000  0.03750000  0.99200000  1.0 0.5700627138
C  C286  1  0.03750000  0.27730000  0.00800000  1.0 0.5700627138
C  C287  1  0.72270000  0.76020000  0.00800000  1.0 0.5700627138
C  C288  1  0.23980000  0.96250000  0.00800000  1.0 0.5700627138
C  C289  1  0.03670000  0.76040000  0.01100000  1.0 0.5700627138
C  C290  1  0.23960000  0.27630000  0.01100000  1.0 0.5700627138
C  C291  1  0.72370000  0.96330000  0.01100000  1.0 0.5700627138
C  C292  1  0.96330000  0.23960000  0.98900000  1.0 0.5700627138
C  C293  1  0.76040000  0.72370000  0.98900000  1.0 0.5700627138
C  C294  1  0.27630000  0.03670000  0.98900000  1.0 0.5700627138
C  C295  1  0.97260000  0.69980000  0.00100000  1.0 -0.182611471
C  C296  1  0.30020000  0.27280000  0.00100000  1.0 -0.182611471
C  C297  1  0.72720000  0.02740000  0.00100000  1.0 -0.182611471
C  C298  1  0.02740000  0.30020000  0.99900000  1.0 -0.182611471
C  C299  1  0.69980000  0.72720000  0.99900000  1.0 -0.182611471
C  C300  1  0.27280000  0.97260000  0.99900000  1.0 -0.182611471
C  C301  1  0.02690000  0.72650000  0.00500000  1.0 -0.1890314053
C  C302  1  0.27350000  0.30040000  0.00500000  1.0 -0.1890314053
C  C303  1  0.69960000  0.97310000  0.00500000  1.0 -0.1890314053
C  C304  1  0.97310000  0.27350000  0.99500000  1.0 -0.1890314053
C  C305  1  0.72650000  0.69960000  0.99500000  1.0 -0.1890314053
C  C306  1  0.30040000  0.02690000  0.99500000  1.0 -0.1890314053
C  C307  1  0.16790000  0.87450000  0.99600000  1.0 0.6083601584
C  C308  1  0.12550000  0.29340000  0.99600000  1.0 0.6083601584
C  C309  1  0.70660000  0.83210000  0.99600000  1.0 0.6083601584
C  C310  1  0.83210000  0.12550000  0.00400000  1.0 0.6083601584
C  C311  1  0.87450000  0.70660000  0.00400000  1.0 0.6083601584
C  C312  1  0.29340000  0.16790000  0.00400000  1.0 0.6083601584
C  C313  1  0.12440000  0.83000000  0.99900000  1.0 0.582348619
C  C314  1  0.17000000  0.29440000  0.99900000  1.0 0.582348619
C  C315  1  0.70560000  0.87560000  0.99900000  1.0 0.582348619
C  C316  1  0.87560000  0.17000000  0.00100000  1.0 0.582348619
C  C317  1  0.83000000  0.70560000  0.00100000  1.0 0.582348619
C  C318  1  0.29440000  0.12440000  0.00100000  1.0 0.582348619
C  C319  1  0.14570000  0.81540000  0.00300000  1.0 -0.1074064876
C  C320  1  0.18460000  0.33030000  0.00300000  1.0 -0.1074064876
C  C321  1  0.66970000  0.85430000  0.00300000  1.0 -0.1074064876
C  C322  1  0.85430000  0.18460000  0.99700000  1.0 -0.1074064876
C  C323  1  0.81540000  0.66970000  0.99700000  1.0 -0.1074064876
C  C324  1  0.33030000  0.14570000  0.99700000  1.0 -0.1074064876
C  C325  1  0.18380000  0.85440000  0.00000000  1.0 -0.1000336418
C  C326  1  0.14560000  0.32940000  0.00000000  1.0 -0.1000336418
C  C327  1  0.67060000  0.81620000  0.00000000  1.0 -0.1000336418
C  C328  1  0.81620000  0.14560000  0.00000000  1.0 -0.1000336418
C  C329  1  0.85440000  0.67060000  0.00000000  1.0 -0.1000336418
C  C330  1  0.32940000  0.18380000  0.00000000  1.0 -0.1000336418
O  O1  1  0.99960000  0.63440000  0.26640000  1.0 -0.4503569128
O  O2  1  0.36560000  0.36520000  0.26640000  1.0 -0.4503569128
O  O3  1  0.63480000  0.00040000  0.26640000  1.0 -0.4503569128
O  O4  1  0.00040000  0.36560000  0.73360000  1.0 -0.4503569128
O  O5  1  0.63440000  0.63480000  0.73360000  1.0 -0.4503569128
O  O6  1  0.36520000  0.99960000  0.73360000  1.0 -0.4503569128
O  O7  1  0.18710000  0.81270000  0.64350000  1.0 -0.4916310201
O  O8  1  0.18730000  0.37440000  0.64350000  1.0 -0.4916310201
O  O9  1  0.62560000  0.81290000  0.64350000  1.0 -0.4916310201
O  O10  1  0.81290000  0.18730000  0.35650000  1.0 -0.5006234358
O  O11  1  0.81270000  0.62560000  0.35650000  1.0 -0.4916310201
O  O12  1  0.37440000  0.18710000  0.35650000  1.0 -0.4916310201
O  O13  1  0.29014000  0.64460000  0.88570000  1.0 -0.4319757175
O  O14  1  0.35540000  0.64554000  0.88570000  1.0 -0.4319757175
O  O15  1  0.35446000  0.70986000  0.88570000  1.0 -0.4319757175
O  O16  1  0.70986000  0.35540000  0.11430000  1.0 -0.4403775894
O  O17  1  0.64460000  0.35446000  0.11430000  1.0 -0.4403775894
O  O18  1  0.64554000  0.29014000  0.11430000  1.0 -0.4403775894
O  O19  1  0.28886000  0.64530000  0.13150000  1.0 -0.4616596104
O  O20  1  0.35470000  0.64356000  0.13150000  1.0 -0.4616596104
O  O21  1  0.35644000  0.71114000  0.13150000  1.0 -0.4616596104
O  O22  1  0.71114000  0.35470000  0.86850000  1.0 -0.4616596104
O  O23  1  0.64530000  0.35644000  0.86850000  1.0 -0.4616596104
O  O24  1  0.64356000  0.28886000  0.86850000  1.0 -0.4616596104
O  O25  1  0.00050000  0.67510000  0.35580000  1.0 -0.4916310201
O  O26  1  0.32490000  0.32540000  0.35580000  1.0 -0.4916310201
O  O27  1  0.67460000  0.99950000  0.35580000  1.0 -0.4916310201
O  O28  1  0.99950000  0.32490000  0.64420000  1.0 -0.5006234358
O  O29  1  0.67510000  0.67460000  0.64420000  1.0 -0.5006234358
O  O30  1  0.32540000  0.00050000  0.64420000  1.0 -0.4916310201
O  O31  1  0.21140000  0.78870000  0.73770000  1.0 -0.5006234358
O  O32  1  0.21130000  0.42270000  0.73770000  1.0 -0.5006234358
O  O33  1  0.57730000  0.78860000  0.73770000  1.0 -0.5006234358
O  O34  1  0.78860000  0.21130000  0.26230000  1.0 -0.5006234358
O  O35  1  0.78870000  0.57730000  0.26230000  1.0 -0.5006234358
O  O36  1  0.42270000  0.21140000  0.26230000  1.0 -0.5006234358
O  O37  1  0.21180000  0.78840000  0.26370000  1.0 -0.5083150165
O  O38  1  0.21160000  0.42340000  0.26370000  1.0 -0.5083150165
O  O39  1  0.57660000  0.78820000  0.26370000  1.0 -0.5083150165
O  O40  1  0.78820000  0.21160000  0.73630000  1.0 -0.5083150165
O  O41  1  0.78840000  0.57660000  0.73630000  1.0 -0.5083150165
O  O42  1  0.42340000  0.21180000  0.73630000  1.0 -0.5083150165
O  O43  1  0.00020000  0.63460000  0.73350000  1.0 -0.4616596104
O  O44  1  0.36540000  0.36560000  0.73350000  1.0 -0.4616596104
O  O45  1  0.63440000  0.99980000  0.73350000  1.0 -0.4616596104
O  O46  1  0.99980000  0.36540000  0.26650000  1.0 -0.4616596104
O  O47  1  0.63460000  0.63440000  0.26650000  1.0 -0.4616596104
O  O48  1  0.36560000  0.00020000  0.26650000  1.0 -0.4616596104
O  O49  1  0.15330000  0.57650000  0.73900000  1.0 -0.5294983053
O  O50  1  0.42350000  0.57680000  0.73900000  1.0 -0.5294983053
O  O51  1  0.42320000  0.84670000  0.73900000  1.0 -0.5294983053
O  O52  1  0.84670000  0.42350000  0.26100000  1.0 -0.5294983053
O  O53  1  0.57650000  0.42320000  0.26100000  1.0 -0.5294983053
O  O54  1  0.57680000  0.15330000  0.26100000  1.0 -0.5294983053
O  O55  1  0.18700000  0.81260000  0.35370000  1.0 -0.4916310201
O  O56  1  0.18740000  0.37440000  0.35370000  1.0 -0.4916310201
O  O57  1  0.62560000  0.81300000  0.35370000  1.0 -0.4916310201
O  O58  1  0.81300000  0.18740000  0.64630000  1.0 -0.4916310201
O  O59  1  0.81260000  0.62560000  0.64630000  1.0 -0.4916310201
O  O60  1  0.37440000  0.18700000  0.64630000  1.0 -0.4916310201
O  O61  1  0.11980000  0.59190000  0.49950000  1.0 -0.5006234358
O  O62  1  0.40810000  0.52790000  0.49950000  1.0 -0.5006234358
O  O63  1  0.47210000  0.88020000  0.49950000  1.0 -0.5006234358
O  O64  1  0.88020000  0.40810000  0.50050000  1.0 -0.5006234358
O  O65  1  0.59190000  0.47210000  0.50050000  1.0 -0.5006234358
O  O66  1  0.52790000  0.11980000  0.50050000  1.0 -0.5006234358
O  O67  1  0.40810000  0.87970000  0.49910000  1.0 -0.5083150165
O  O68  1  0.12030000  0.52840000  0.49910000  1.0 -0.5083150165
O  O69  1  0.47160000  0.59190000  0.49910000  1.0 -0.5083150165
O  O70  1  0.59190000  0.12030000  0.50090000  1.0 -0.5083150165
O  O71  1  0.87970000  0.47160000  0.50090000  1.0 -0.5083150165
O  O72  1  0.52840000  0.40810000  0.50090000  1.0 -0.5083150165
O  O73  1  0.15330000  0.57650000  0.26440000  1.0 -0.5083150165
O  O74  1  0.42350000  0.57680000  0.26440000  1.0 -0.5083150165
O  O75  1  0.42320000  0.84670000  0.26440000  1.0 -0.5083150165
O  O76  1  0.84670000  0.42350000  0.73560000  1.0 -0.5083150165
O  O77  1  0.57650000  0.42320000  0.73560000  1.0 -0.5083150165
O  O78  1  0.57680000  0.15330000  0.73560000  1.0 -0.5083150165
O  O79  1  0.19660000  0.74230000  0.50010000  1.0 -0.5231046065
O  O80  1  0.25770000  0.45430000  0.50010000  1.0 -0.5231046065
O  O81  1  0.54570000  0.80340000  0.50010000  1.0 -0.5231046065
O  O82  1  0.80340000  0.25770000  0.49990000  1.0 -0.5231046065
O  O83  1  0.74230000  0.54570000  0.49990000  1.0 -0.5231046065
O  O84  1  0.45430000  0.19660000  0.49990000  1.0 -0.5231046065
O  O85  1  0.24740000  0.84030000  0.49950000  1.0 -0.5294983053
O  O86  1  0.15970000  0.40710000  0.49950000  1.0 -0.5231046065
O  O87  1  0.59290000  0.75260000  0.49950000  1.0 -0.5231046065
O  O88  1  0.75260000  0.15970000  0.50050000  1.0 -0.5231046065
O  O89  1  0.84030000  0.59290000  0.50050000  1.0 -0.5231046065
O  O90  1  0.40710000  0.24740000  0.50050000  1.0 -0.5294983053
O  O91  1  0.15970000  0.75310000  0.49990000  1.0 -0.5231046065
O  O92  1  0.24690000  0.40660000  0.49990000  1.0 -0.5231046065
O  O93  1  0.59340000  0.84030000  0.49990000  1.0 -0.5231046065
O  O94  1  0.84030000  0.24690000  0.50010000  1.0 -0.5231046065
O  O95  1  0.75310000  0.59340000  0.50010000  1.0 -0.5231046065
O  O96  1  0.40660000  0.15970000  0.50010000  1.0 -0.5231046065
O  O97  1  0.03560000  0.62250000  0.49920000  1.0 -0.4616596104
O  O98  1  0.37750000  0.41310000  0.49920000  1.0 -0.4711937716
O  O99  1  0.58690000  0.96440000  0.49920000  1.0 -0.4616596104
O  O100  1  0.96440000  0.37750000  0.50080000  1.0 -0.4616596104
O  O101  1  0.62250000  0.58690000  0.50080000  1.0 -0.4711937716
O  O102  1  0.41310000  0.03560000  0.50080000  1.0 -0.4711937716
O  O103  1  0.25790000  0.80300000  0.49960000  1.0 -0.5231046065
O  O104  1  0.19700000  0.45490000  0.49960000  1.0 -0.5231046065
O  O105  1  0.54510000  0.74210000  0.49960000  1.0 -0.5231046065
O  O106  1  0.74210000  0.19700000  0.50040000  1.0 -0.5231046065
O  O107  1  0.80300000  0.54510000  0.50040000  1.0 -0.5231046065
O  O108  1  0.45490000  0.25790000  0.50040000  1.0 -0.5231046065
O  O109  1  0.37740000  0.96460000  0.50040000  1.0 -0.4711937716
O  O110  1  0.03540000  0.41280000  0.50040000  1.0 -0.4711937716
O  O111  1  0.58720000  0.62260000  0.50040000  1.0 -0.4711937716
O  O112  1  0.62260000  0.03540000  0.49960000  1.0 -0.4711937716
O  O113  1  0.96460000  0.58720000  0.49960000  1.0 -0.4711937716
O  O114  1  0.41280000  0.37740000  0.49960000  1.0 -0.4711937716
O  O115  1  0.16870000  0.62970000  0.49880000  1.0 -0.5294983053
O  O116  1  0.37030000  0.53900000  0.49880000  1.0 -0.5294983053
O  O117  1  0.46100000  0.83130000  0.49880000  1.0 -0.5294983053
O  O118  1  0.83130000  0.37030000  0.50120000  1.0 -0.5294983053
O  O119  1  0.62970000  0.46100000  0.50120000  1.0 -0.5294983053
O  O120  1  0.53900000  0.16870000  0.50120000  1.0 -0.5294983053
O  O121  1  0.37040000  0.83110000  0.49920000  1.0 -0.5294983053
O  O122  1  0.16890000  0.53930000  0.49920000  1.0 -0.5294983053
O  O123  1  0.46070000  0.62960000  0.49920000  1.0 -0.5294983053
O  O124  1  0.62960000  0.16890000  0.50080000  1.0 -0.5383794536
O  O125  1  0.83110000  0.46070000  0.50080000  1.0 -0.5383794536
O  O126  1  0.53930000  0.37040000  0.50080000  1.0 -0.5294983053
O  O127  1  0.05130000  0.67090000  0.49670000  1.0 -0.4503569128
O  O128  1  0.32910000  0.38040000  0.49670000  1.0 -0.4503569128
O  O129  1  0.61960000  0.94870000  0.49670000  1.0 -0.4503569128
O  O130  1  0.94870000  0.32910000  0.50330000  1.0 -0.4503569128
O  O131  1  0.67090000  0.61960000  0.50330000  1.0 -0.4503569128
O  O132  1  0.38040000  0.05130000  0.50330000  1.0 -0.4503569128
O  O133  1  0.00010000  0.67570000  0.64490000  1.0 -0.4916310201
O  O134  1  0.32430000  0.32440000  0.64490000  1.0 -0.4916310201
O  O135  1  0.67560000  0.99990000  0.64490000  1.0 -0.4916310201
O  O136  1  0.99990000  0.32430000  0.35510000  1.0 -0.4916310201
O  O137  1  0.67570000  0.67560000  0.35510000  1.0 -0.4916310201
O  O138  1  0.32440000  0.00010000  0.35510000  1.0 -0.4916310201
O  O139  1  0.32890000  0.94890000  0.50130000  1.0 -0.4616596104
O  O140  1  0.05110000  0.38000000  0.50130000  1.0 -0.4616596104
O  O141  1  0.62000000  0.67110000  0.50130000  1.0 -0.4616596104
O  O142  1  0.67110000  0.05110000  0.49870000  1.0 -0.4616596104
O  O143  1  0.94890000  0.62000000  0.49870000  1.0 -0.4616596104
O  O144  1  0.38000000  0.32890000  0.49870000  1.0 -0.4616596104
O  O145  1  0.20350000  0.60220000  0.35220000  1.0 -0.4839643171
O  O146  1  0.39780000  0.60130000  0.35220000  1.0 -0.4839643171
O  O147  1  0.39870000  0.79650000  0.35220000  1.0 -0.4839643171
O  O148  1  0.79650000  0.39780000  0.64780000  1.0 -0.4916310201
O  O149  1  0.60220000  0.39870000  0.64780000  1.0 -0.4916310201
O  O150  1  0.60130000  0.20350000  0.64780000  1.0 -0.4916310201
O  O151  1  0.20320000  0.60190000  0.64440000  1.0 -0.4916310201
O  O152  1  0.39810000  0.60130000  0.64440000  1.0 -0.4916310201
O  O153  1  0.39870000  0.79680000  0.64440000  1.0 -0.4916310201
O  O154  1  0.79680000  0.39810000  0.35560000  1.0 -0.4916310201
O  O155  1  0.60190000  0.39870000  0.35560000  1.0 -0.4916310201
O  O156  1  0.60130000  0.20320000  0.35560000  1.0 -0.4916310201
O  O157  1  0.05990000  0.83610000  0.99660000  1.0 -0.6546706786
O  O158  1  0.16390000  0.22380000  0.99660000  1.0 -0.6546706786
O  O159  1  0.77620000  0.94010000  0.99660000  1.0 -0.6546706786
O  O160  1  0.94010000  0.16390000  0.00340000  1.0 -0.6629762083
O  O161  1  0.83610000  0.77620000  0.00340000  1.0 -0.6629762083
O  O162  1  0.22380000  0.05990000  0.00340000  1.0 -0.6629762083
O  O163  1  0.16390000  0.94020000  0.99420000  1.0 -0.6629762083
O  O164  1  0.05980000  0.22370000  0.99420000  1.0 -0.6629762083
O  O165  1  0.77630000  0.83610000  0.99420000  1.0 -0.6629762083
O  O166  1  0.83610000  0.05980000  0.00580000  1.0 -0.6629762083
O  O167  1  0.94020000  0.77630000  0.00580000  1.0 -0.6629762083
O  O168  1  0.22370000  0.16390000  0.00580000  1.0 -0.6629762083
O  O169  1  0.03930000  0.77140000  0.10800000  1.0 -0.4503569128
O  O170  1  0.22860000  0.26790000  0.10800000  1.0 -0.4503569128
O  O171  1  0.73210000  0.96070000  0.10800000  1.0 -0.4503569128
O  O172  1  0.96070000  0.22860000  0.89200000  1.0 -0.4503569128
O  O173  1  0.77140000  0.73210000  0.89200000  1.0 -0.4503569128
O  O174  1  0.26790000  0.03930000  0.89200000  1.0 -0.4503569128
O  O175  1  0.03870000  0.77130000  0.89300000  1.0 -0.4711937716
O  O176  1  0.22870000  0.26740000  0.89300000  1.0 -0.4711937716
O  O177  1  0.73260000  0.96130000  0.89300000  1.0 -0.4711937716
O  O178  1  0.96130000  0.22870000  0.10700000  1.0 -0.4711937716
O  O179  1  0.77130000  0.73260000  0.10700000  1.0 -0.4711937716
O  O180  1  0.26740000  0.03870000  0.10700000  1.0 -0.4711937716
O  O181  1  0.95930000  0.73190000  0.89200000  1.0 -0.4403775894
O  O182  1  0.26810000  0.22740000  0.89200000  1.0 -0.4503569128
O  O183  1  0.77260000  0.04070000  0.89200000  1.0 -0.4403775894
O  O184  1  0.04070000  0.26810000  0.10800000  1.0 -0.4403775894
O  O185  1  0.73190000  0.77260000  0.10800000  1.0 -0.4403775894
O  O186  1  0.22740000  0.95930000  0.10800000  1.0 -0.4403775894
O  O187  1  0.96000000  0.73180000  0.10400000  1.0 -0.4503569128
O  O188  1  0.26820000  0.22820000  0.10400000  1.0 -0.4503569128
O  O189  1  0.77180000  0.04000000  0.10400000  1.0 -0.4503569128
O  O190  1  0.04000000  0.26820000  0.89600000  1.0 -0.4503569128
O  O191  1  0.73180000  0.77180000  0.89600000  1.0 -0.4503569128
O  O192  1  0.22820000  0.96000000  0.89600000  1.0 -0.4503569128
O  O193  1  0.02830000  0.81990000  0.27100000  1.0 -0.3691279705
O  O194  1  0.18010000  0.20840000  0.27100000  1.0 -0.3691279705
O  O195  1  0.79160000  0.97170000  0.27100000  1.0 -0.3691279705
O  O196  1  0.97170000  0.18010000  0.72900000  1.0 -0.3691279705
O  O197  1  0.81990000  0.79160000  0.72900000  1.0 -0.3691279705
O  O198  1  0.20840000  0.02830000  0.72900000  1.0 -0.3691279705
O  O199  1  0.02870000  0.82080000  0.73400000  1.0 -0.3611618807
O  O200  1  0.17920000  0.20790000  0.73400000  1.0 -0.3611618807
O  O201  1  0.79210000  0.97130000  0.73400000  1.0 -0.3611618807
O  O202  1  0.97130000  0.17920000  0.26600000  1.0 -0.34895122
O  O203  1  0.82080000  0.79210000  0.26600000  1.0 -0.34895122
O  O204  1  0.20790000  0.02870000  0.26600000  1.0 -0.34895122
O  O205  1  0.18010000  0.97120000  0.73000000  1.0 -0.3691279705
O  O206  1  0.02880000  0.20890000  0.73000000  1.0 -0.3691279705
O  O207  1  0.79110000  0.81990000  0.73000000  1.0 -0.3691279705
O  O208  1  0.81990000  0.02880000  0.27000000  1.0 -0.3611618807
O  O209  1  0.97120000  0.79110000  0.27000000  1.0 -0.3691279705
O  O210  1  0.20890000  0.18010000  0.27000000  1.0 -0.3691279705
O  O211  1  0.18010000  0.97140000  0.27000000  1.0 -0.3782561451
O  O212  1  0.02860000  0.20870000  0.27000000  1.0 -0.3691279705
O  O213  1  0.79130000  0.81990000  0.27000000  1.0 -0.3782561451
O  O214  1  0.81990000  0.02860000  0.73000000  1.0 -0.3782561451
O  O215  1  0.97140000  0.79130000  0.73000000  1.0 -0.3782561451
O  O216  1  0.20870000  0.18010000  0.73000000  1.0 -0.3782561451
O  O217  1  0.11030000  0.82710000  0.89900000  1.0 -0.4064460228
O  O218  1  0.17290000  0.28320000  0.89900000  1.0 -0.4064460228
O  O219  1  0.71680000  0.88970000  0.89900000  1.0 -0.4064460228
O  O220  1  0.88970000  0.17290000  0.10100000  1.0 -0.4064460228
O  O221  1  0.82710000  0.71680000  0.10100000  1.0 -0.4064460228
O  O222  1  0.28320000  0.11030000  0.10100000  1.0 -0.4064460228
O  O223  1  0.08700000  0.86250000  0.72300000  1.0 -0.3782561451
O  O224  1  0.13750000  0.22450000  0.72300000  1.0 -0.3691279705
O  O225  1  0.77550000  0.91300000  0.72300000  1.0 -0.3691279705
O  O226  1  0.91300000  0.13750000  0.27700000  1.0 -0.3691279705
O  O227  1  0.86250000  0.77550000  0.27700000  1.0 -0.3691279705
O  O228  1  0.22450000  0.08700000  0.27700000  1.0 -0.3691279705
O  O229  1  0.17580000  0.89230000  0.89500000  1.0 -0.4403775894
O  O230  1  0.10770000  0.28350000  0.89500000  1.0 -0.4319757175
O  O231  1  0.71650000  0.82420000  0.89500000  1.0 -0.4319757175
O  O232  1  0.82420000  0.10770000  0.10500000  1.0 -0.4319757175
O  O233  1  0.89230000  0.71650000  0.10500000  1.0 -0.4319757175
O  O234  1  0.28350000  0.17580000  0.10500000  1.0 -0.4319757175
O  O235  1  0.13720000  0.91240000  0.26800000  1.0 -0.34895122
O  O236  1  0.08760000  0.22480000  0.26800000  1.0 -0.3443010976
O  O237  1  0.77520000  0.86280000  0.26800000  1.0 -0.34895122
O  O238  1  0.86280000  0.08760000  0.73200000  1.0 -0.34895122
O  O239  1  0.91240000  0.77520000  0.73200000  1.0 -0.34895122
O  O240  1  0.22480000  0.13720000  0.73200000  1.0 -0.34895122
O  O241  1  0.11170000  0.82860000  0.10100000  1.0 -0.3989943345
O  O242  1  0.17140000  0.28310000  0.10100000  1.0 -0.3989943345
O  O243  1  0.71690000  0.88830000  0.10100000  1.0 -0.3989943345
O  O244  1  0.88830000  0.17140000  0.89900000  1.0 -0.3989943345
O  O245  1  0.82860000  0.71690000  0.89900000  1.0 -0.3989943345
O  O246  1  0.28310000  0.11170000  0.89900000  1.0 -0.3989943345
O  O247  1  0.08840000  0.86200000  0.27100000  1.0 -0.34895122
O  O248  1  0.13800000  0.22640000  0.27100000  1.0 -0.34895122
O  O249  1  0.77360000  0.91160000  0.27100000  1.0 -0.34895122
O  O250  1  0.91160000  0.13800000  0.72900000  1.0 -0.34895122
O  O251  1  0.86200000  0.77360000  0.72900000  1.0 -0.34895122
O  O252  1  0.22640000  0.08840000  0.72900000  1.0 -0.34895122
O  O253  1  0.17370000  0.88970000  0.09800000  1.0 -0.4319757175
O  O254  1  0.11030000  0.28400000  0.09800000  1.0 -0.4319757175
O  O255  1  0.71600000  0.82630000  0.09800000  1.0 -0.4319757175
O  O256  1  0.82630000  0.11030000  0.90200000  1.0 -0.4319757175
O  O257  1  0.88970000  0.71600000  0.90200000  1.0 -0.4319757175
O  O258  1  0.28400000  0.17370000  0.90200000  1.0 -0.4319757175
O  O259  1  0.13760000  0.91160000  0.72800000  1.0 -0.3691279705
O  O260  1  0.08840000  0.22600000  0.72800000  1.0 -0.3691279705
O  O261  1  0.77400000  0.86240000  0.72800000  1.0 -0.3691279705
O  O262  1  0.86240000  0.08840000  0.27200000  1.0 -0.3611618807
O  O263  1  0.91160000  0.77400000  0.27200000  1.0 -0.3691279705
O  O264  1  0.22600000  0.13760000  0.27200000  1.0 -0.3611618807
O  O265  1  0.01840000  0.80760000  0.12000000  1.0 0.1564257406
O  O266  1  0.19240000  0.21080000  0.12000000  1.0 0.1516822844
O  O267  1  0.78920000  0.98160000  0.12000000  1.0 0.1516822844
O  O268  1  0.98160000  0.19240000  0.88000000  1.0 0.1564257406
O  O269  1  0.80760000  0.78920000  0.88000000  1.0 0.1716630876
O  O270  1  0.21080000  0.01840000  0.88000000  1.0 0.1716630876
O  O271  1  0.01810000  0.80700000  0.88100000  1.0 0.1773908258
O  O272  1  0.19300000  0.21110000  0.88100000  1.0 0.1900426777
O  O273  1  0.78890000  0.98190000  0.88100000  1.0 0.1900426777
O  O274  1  0.98190000  0.19300000  0.11900000  1.0 0.1716630876
O  O275  1  0.80700000  0.78890000  0.11900000  1.0 0.1716630876
O  O276  1  0.21110000  0.01810000  0.11900000  1.0 0.1716630876
O  O277  1  0.98170000  0.78850000  0.12100000  1.0 0.1716630876
O  O278  1  0.21150000  0.19320000  0.12100000  1.0 0.1716630876
O  O279  1  0.80680000  0.01830000  0.12100000  1.0 0.1716630876
O  O280  1  0.01830000  0.21150000  0.87900000  1.0 0.1963726947
O  O281  1  0.78850000  0.80680000  0.87900000  1.0 0.1900426777
O  O282  1  0.19320000  0.98170000  0.87900000  1.0 0.1900426777
O  O283  1  0.98200000  0.78940000  0.87900000  1.0 0.1516822844
O  O284  1  0.21060000  0.19260000  0.87900000  1.0 0.1516822844
O  O285  1  0.80740000  0.01800000  0.87900000  1.0 0.1516822844
O  O286  1  0.01800000  0.21060000  0.12100000  1.0 0.1364705582
O  O287  1  0.78940000  0.80740000  0.12100000  1.0 0.1364705582
O  O288  1  0.19260000  0.98200000  0.12100000  1.0 0.1364705582
O  O289  1  0.10100000  0.86750000  0.87900000  1.0 0.2814554344
O  O290  1  0.13250000  0.23350000  0.87900000  1.0 0.2636293763
O  O291  1  0.76650000  0.89900000  0.87900000  1.0 0.2814554344
O  O292  1  0.89900000  0.13250000  0.12100000  1.0 0.2636293763
O  O293  1  0.86750000  0.76650000  0.12100000  1.0 0.2636293763
O  O294  1  0.23350000  0.10100000  0.12100000  1.0 0.2636293763
O  O295  1  0.13240000  0.89880000  0.12200000  1.0 0.1516822844
O  O296  1  0.10120000  0.23360000  0.12200000  1.0 0.1564257406
O  O297  1  0.76640000  0.86760000  0.12200000  1.0 0.1516822844
O  O298  1  0.86760000  0.10120000  0.87800000  1.0 0.1716630876
O  O299  1  0.89880000  0.76640000  0.87800000  1.0 0.1716630876
O  O300  1  0.23360000  0.13240000  0.87800000  1.0 0.1716630876
O  O301  1  0.10130000  0.86740000  0.12100000  1.0 0.2081870158
O  O302  1  0.13260000  0.23390000  0.12100000  1.0 0.2081870158
O  O303  1  0.76610000  0.89870000  0.12100000  1.0 0.2081870158
O  O304  1  0.89870000  0.13260000  0.87900000  1.0 0.2293454478
O  O305  1  0.86740000  0.76610000  0.87900000  1.0 0.2293454478
O  O306  1  0.23390000  0.10130000  0.87900000  1.0 0.2293454478
O  O307  1  0.13250000  0.89940000  0.88100000  1.0 0.2533749709
O  O308  1  0.10060000  0.23310000  0.88100000  1.0 0.2350613395
O  O309  1  0.76690000  0.86750000  0.88100000  1.0 0.2533749709
O  O310  1  0.86750000  0.10060000  0.11900000  1.0 0.2293454478
O  O311  1  0.89940000  0.76690000  0.11900000  1.0 0.2293454478
O  O312  1  0.23310000  0.13250000  0.11900000  1.0 0.2293454478
