# DDEC6 charges by PACMAN v1.1 (https://github.com/mtap-research/PACMAN-charge/)
data_WEBKIX_ion_pacman
_symmetry_space_group_name_H-M   'P 1'
_cell_length_a   19.04120000
_cell_length_b   23.65400000
_cell_length_c   27.38400000
_cell_angle_alpha   90.00000000
_cell_angle_beta   128.36500000
_cell_angle_gamma   90.00000000
_symmetry_Int_Tables_number   1
_chemical_formula_structural   Cd6H40C60N10ClO26
_chemical_formula_sum   'Cd24 H160 C240 N40 Cl4 O104'
_cell_volume   9670.57178398
_cell_formula_units_Z   4
loop_
 _symmetry_equiv_pos_site_id
 _symmetry_equiv_pos_as_xyz
  1  'x, y, z'
loop_
 _atom_site_type_symbol
 _atom_site_label
 _atom_site_symmetry_multiplicity
 _atom_site_fract_x
 _atom_site_fract_y
 _atom_site_fract_z
 _atom_site_occupancy
 _atom_site_charge
Cd  Cd1  1  0.09943000  0.12119000  0.83150000  1.0 0.9022810772
Cd  Cd2  1  0.09943000  0.37881000  0.33150000  1.0 0.9022810772
Cd  Cd3  1  0.90057000  0.87881000  0.16850000  1.0 0.9022810772
Cd  Cd4  1  0.90057000  0.62119000  0.66850000  1.0 0.9022810772
Cd  Cd5  1  0.96049000  0.99274000  0.75325000  1.0 0.9797164763
Cd  Cd6  1  0.96049000  0.50726000  0.25325000  1.0 0.9797164763
Cd  Cd7  1  0.03951000  0.00726000  0.24675000  1.0 0.9797164763
Cd  Cd8  1  0.03951000  0.49274000  0.74675000  1.0 0.9797164763
Cd  Cd9  1  0.82069000  0.11949000  0.65697000  1.0 0.9022810772
Cd  Cd10  1  0.82069000  0.38051000  0.15697000  1.0 0.9022810772
Cd  Cd11  1  0.17931000  0.88051000  0.34303000  1.0 0.9022810772
Cd  Cd12  1  0.17931000  0.61949000  0.84303000  1.0 0.9022810772
Cd  Cd13  1  0.32240000  0.11807000  0.65883000  1.0 0.9054130282
Cd  Cd14  1  0.32240000  0.38193000  0.15883000  1.0 0.9054130282
Cd  Cd15  1  0.67760000  0.88193000  0.34117000  1.0 0.9054130282
Cd  Cd16  1  0.67760000  0.61807000  0.84117000  1.0 0.9054130282
Cd  Cd17  1  0.44978000  0.25218000  0.74128000  1.0 0.9673864211
Cd  Cd18  1  0.44978000  0.24782000  0.24128000  1.0 0.9673864211
Cd  Cd19  1  0.55022000  0.74782000  0.25872000  1.0 0.9673864211
Cd  Cd20  1  0.55022000  0.75218000  0.75872000  1.0 0.9673864211
Cd  Cd21  1  0.60086000  0.13287000  0.83312000  1.0 0.9022810772
Cd  Cd22  1  0.60086000  0.36713000  0.33312000  1.0 0.9022810772
Cd  Cd23  1  0.39914000  0.86713000  0.16688000  1.0 0.9022810772
Cd  Cd24  1  0.39914000  0.63287000  0.66688000  1.0 0.9022810772
H  H1  1  0.40390000  0.96580000  0.08750000  1.0 0.1090897172
H  H2  1  0.40390000  0.53420000  0.58750000  1.0 0.1090897172
H  H3  1  0.59610000  0.03420000  0.91250000  1.0 0.1090897172
H  H4  1  0.59610000  0.46580000  0.41250000  1.0 0.1090897172
H  H5  1  0.31320000  0.01740000  0.99460000  1.0 0.1319098103
H  H6  1  0.31320000  0.48260000  0.49460000  1.0 0.1319098103
H  H7  1  0.68680000  0.98260000  0.00540000  1.0 0.1319098103
H  H8  1  0.68680000  0.51740000  0.50540000  1.0 0.1319098103
H  H9  1  0.10650000  0.91410000  0.93950000  1.0 0.156816345
H  H10  1  0.10650000  0.58590000  0.43950000  1.0 0.156816345
H  H11  1  0.89350000  0.08590000  0.06050000  1.0 0.156816345
H  H12  1  0.89350000  0.41410000  0.56050000  1.0 0.156816345
H  H13  1  0.20310000  0.86360000  0.03130000  1.0 0.1090897172
H  H14  1  0.20310000  0.63640000  0.53130000  1.0 0.1090897172
H  H15  1  0.79690000  0.13640000  0.96870000  1.0 0.1090897172
H  H16  1  0.79690000  0.36360000  0.46870000  1.0 0.1090897172
H  H17  1  0.61970000  0.98100000  0.39170000  1.0 0.1090897172
H  H18  1  0.61970000  0.51900000  0.89170000  1.0 0.1090897172
H  H19  1  0.38030000  0.01900000  0.60830000  1.0 0.1090897172
H  H20  1  0.38030000  0.48100000  0.10830000  1.0 0.1090897172
H  H21  1  0.65720000  0.01850000  0.48370000  1.0 0.1319098103
H  H22  1  0.65720000  0.48150000  0.98370000  1.0 0.1319098103
H  H23  1  0.34280000  0.98150000  0.51630000  1.0 0.1319098103
H  H24  1  0.34280000  0.51850000  0.01630000  1.0 0.1319098103
H  H25  1  0.89200000  0.93290000  0.57850000  1.0 0.1400546661
H  H26  1  0.89200000  0.56710000  0.07850000  1.0 0.1400546661
H  H27  1  0.10800000  0.06710000  0.42150000  1.0 0.1400546661
H  H28  1  0.10800000  0.43290000  0.92150000  1.0 0.1400546661
H  H29  1  0.84840000  0.89700000  0.48500000  1.0 0.1172326136
H  H30  1  0.84840000  0.60300000  0.98500000  1.0 0.1172326136
H  H31  1  0.15160000  0.10300000  0.51500000  1.0 0.1172326136
H  H32  1  0.15160000  0.39700000  0.01500000  1.0 0.1172326136
H  H33  1  0.86750000  0.40190000  0.67080000  1.0 0.1018791425
H  H34  1  0.86750000  0.09810000  0.17080000  1.0 0.1018791425
H  H35  1  0.13250000  0.59810000  0.32920000  1.0 0.1018791425
H  H36  1  0.13250000  0.90190000  0.82920000  1.0 0.1018791425
H  H37  1  0.84100000  0.30580000  0.66540000  1.0 0.1400546661
H  H38  1  0.84100000  0.19420000  0.16540000  1.0 0.1400546661
H  H39  1  0.15900000  0.69420000  0.33460000  1.0 0.1400546661
H  H40  1  0.15900000  0.80580000  0.83460000  1.0 0.1400546661
H  H41  1  0.09510000  0.28560000  0.82070000  1.0 0.1319098103
H  H42  1  0.09510000  0.21440000  0.32070000  1.0 0.1319098103
H  H43  1  0.90490000  0.71440000  0.17930000  1.0 0.1319098103
H  H44  1  0.90490000  0.78560000  0.67930000  1.0 0.1319098103
H  H45  1  0.11490000  0.38440000  0.82450000  1.0 0.1018791425
H  H46  1  0.11490000  0.11560000  0.32450000  1.0 0.1018791425
H  H47  1  0.88510000  0.61560000  0.17550000  1.0 0.1018791425
H  H48  1  0.88510000  0.88440000  0.67550000  1.0 0.1018791425
H  H49  1  0.66880000  0.04480000  0.78110000  1.0 0.1090897172
H  H50  1  0.66880000  0.45520000  0.28110000  1.0 0.1090897172
H  H51  1  0.33120000  0.95520000  0.21890000  1.0 0.1090897172
H  H52  1  0.33120000  0.54480000  0.71890000  1.0 0.1090897172
H  H53  1  0.77070000  0.03460000  0.76310000  1.0 0.1400546661
H  H54  1  0.77070000  0.46540000  0.26310000  1.0 0.1400546661
H  H55  1  0.22930000  0.96540000  0.23690000  1.0 0.1400546661
H  H56  1  0.22930000  0.53460000  0.73690000  1.0 0.1400546661
H  H57  1  0.90240000  0.17260000  0.86970000  1.0 0.1400546661
H  H58  1  0.90240000  0.32740000  0.36970000  1.0 0.1400546661
H  H59  1  0.09760000  0.82740000  0.13030000  1.0 0.1400546661
H  H60  1  0.09760000  0.67260000  0.63030000  1.0 0.1400546661
H  H61  1  0.78840000  0.18460000  0.87730000  1.0 0.1172326136
H  H62  1  0.78840000  0.31540000  0.37730000  1.0 0.1172326136
H  H63  1  0.21160000  0.81540000  0.12270000  1.0 0.1172326136
H  H64  1  0.21160000  0.68460000  0.62270000  1.0 0.1172326136
H  H65  1  0.12570000  0.16260000  0.60520000  1.0 0.1172326136
H  H66  1  0.12570000  0.33740000  0.10520000  1.0 0.1172326136
H  H67  1  0.87430000  0.83740000  0.39480000  1.0 0.1172326136
H  H68  1  0.87430000  0.66260000  0.89480000  1.0 0.1172326136
H  H69  1  0.01740000  0.15310000  0.61890000  1.0 0.1493806581
H  H70  1  0.01740000  0.34690000  0.11890000  1.0 0.1493806581
H  H71  1  0.98260000  0.84690000  0.38110000  1.0 0.1493806581
H  H72  1  0.98260000  0.65310000  0.88110000  1.0 0.1493806581
H  H73  1  0.15490000  0.02160000  0.73230000  1.0 0.1400546661
H  H74  1  0.15490000  0.47840000  0.23230000  1.0 0.1400546661
H  H75  1  0.84510000  0.97840000  0.26770000  1.0 0.1400546661
H  H76  1  0.84510000  0.52160000  0.76770000  1.0 0.1400546661
H  H77  1  0.25730000  0.03000000  0.71240000  1.0 0.1090897172
H  H78  1  0.25730000  0.47000000  0.21240000  1.0 0.1090897172
H  H79  1  0.74270000  0.97000000  0.28760000  1.0 0.1090897172
H  H80  1  0.74270000  0.53000000  0.78760000  1.0 0.1090897172
H  H81  1  0.16430000  0.20420000  0.77360000  1.0 0.1090897172
H  H82  1  0.16430000  0.29580000  0.27360000  1.0 0.1090897172
H  H83  1  0.83570000  0.79580000  0.22640000  1.0 0.1090897172
H  H84  1  0.83570000  0.70420000  0.72640000  1.0 0.1090897172
H  H85  1  0.26660000  0.21220000  0.75530000  1.0 0.1493806581
H  H86  1  0.26660000  0.28780000  0.25530000  1.0 0.1493806581
H  H87  1  0.73340000  0.78780000  0.24470000  1.0 0.1493806581
H  H88  1  0.73340000  0.71220000  0.74470000  1.0 0.1493806581
H  H89  1  0.40900000  0.08510000  0.87810000  1.0 0.1400546661
H  H90  1  0.40900000  0.41490000  0.37810000  1.0 0.1400546661
H  H91  1  0.59100000  0.91490000  0.12190000  1.0 0.1400546661
H  H92  1  0.59100000  0.58510000  0.62190000  1.0 0.1400546661
H  H93  1  0.29470000  0.07500000  0.88640000  1.0 0.1090897172
H  H94  1  0.29470000  0.42500000  0.38640000  1.0 0.1090897172
H  H95  1  0.70530000  0.92500000  0.11360000  1.0 0.1090897172
H  H96  1  0.70530000  0.57500000  0.61360000  1.0 0.1090897172
H  H97  1  0.05970000  0.22170000  0.89370000  1.0 0.1090897172
H  H98  1  0.05970000  0.27830000  0.39370000  1.0 0.1090897172
H  H99  1  0.94030000  0.77830000  0.10630000  1.0 0.1090897172
H  H100  1  0.94030000  0.72170000  0.60630000  1.0 0.1090897172
H  H101  1  0.12190000  0.27290000  0.98340000  1.0 0.1493806581
H  H102  1  0.12190000  0.22710000  0.48340000  1.0 0.1493806581
H  H103  1  0.87810000  0.72710000  0.01660000  1.0 0.1493806581
H  H104  1  0.87810000  0.77290000  0.51660000  1.0 0.1493806581
H  H105  1  0.35520000  0.19180000  0.05820000  1.0 0.1400546661
H  H106  1  0.35520000  0.30820000  0.55820000  1.0 0.1400546661
H  H107  1  0.64480000  0.80820000  0.94180000  1.0 0.1400546661
H  H108  1  0.64480000  0.69180000  0.44180000  1.0 0.1400546661
H  H109  1  0.28580000  0.14460000  0.96440000  1.0 0.1018791425
H  H110  1  0.28580000  0.35540000  0.46440000  1.0 0.1018791425
H  H111  1  0.71420000  0.85540000  0.03560000  1.0 0.1018791425
H  H112  1  0.71420000  0.64460000  0.53560000  1.0 0.1018791425
H  H113  1  0.85460000  0.21200000  0.58620000  1.0 0.1172326136
H  H114  1  0.85460000  0.28800000  0.08620000  1.0 0.1172326136
H  H115  1  0.14540000  0.78800000  0.41380000  1.0 0.1172326136
H  H116  1  0.14540000  0.71200000  0.91380000  1.0 0.1172326136
H  H117  1  0.78270000  0.25740000  0.49030000  1.0 0.1493806581
H  H118  1  0.78270000  0.24260000  0.99030000  1.0 0.1493806581
H  H119  1  0.21730000  0.74260000  0.50970000  1.0 0.1493806581
H  H120  1  0.21730000  0.75740000  0.00970000  1.0 0.1493806581
H  H121  1  0.56070000  0.16540000  0.42270000  1.0 0.1400546661
H  H122  1  0.56070000  0.33460000  0.92270000  1.0 0.1400546661
H  H123  1  0.43930000  0.83460000  0.57730000  1.0 0.1400546661
H  H124  1  0.43930000  0.66540000  0.07730000  1.0 0.1400546661
H  H125  1  0.63620000  0.12310000  0.51910000  1.0 0.1018791425
H  H126  1  0.63620000  0.37690000  0.01910000  1.0 0.1018791425
H  H127  1  0.36380000  0.87690000  0.48090000  1.0 0.1018791425
H  H128  1  0.36380000  0.62310000  0.98090000  1.0 0.1018791425
H  H129  1  0.62470000  0.85920000  0.84180000  1.0 0.1018791425
H  H130  1  0.62470000  0.64080000  0.34180000  1.0 0.1018791425
H  H131  1  0.37530000  0.14080000  0.15820000  1.0 0.1018791425
H  H132  1  0.37530000  0.35920000  0.65820000  1.0 0.1018791425
H  H133  1  0.60920000  0.95720000  0.83740000  1.0 0.1319098103
H  H134  1  0.60920000  0.54280000  0.33740000  1.0 0.1319098103
H  H135  1  0.39080000  0.04280000  0.16260000  1.0 0.1319098103
H  H136  1  0.39080000  0.45720000  0.66260000  1.0 0.1319098103
H  H137  1  0.35480000  0.93760000  0.68290000  1.0 0.1400546661
H  H138  1  0.35480000  0.56240000  0.18290000  1.0 0.1400546661
H  H139  1  0.64520000  0.06240000  0.31710000  1.0 0.1400546661
H  H140  1  0.64520000  0.43760000  0.81710000  1.0 0.1400546661
H  H141  1  0.37880000  0.84220000  0.68780000  1.0 0.1090897172
H  H142  1  0.37880000  0.65780000  0.18780000  1.0 0.1090897172
H  H143  1  0.62120000  0.15780000  0.31220000  1.0 0.1090897172
H  H144  1  0.62120000  0.34220000  0.81220000  1.0 0.1090897172
H  H145  1  0.75020000  0.21140000  0.70250000  1.0 0.1090897172
H  H146  1  0.75020000  0.28860000  0.20250000  1.0 0.1090897172
H  H147  1  0.24980000  0.78860000  0.29750000  1.0 0.1090897172
H  H148  1  0.24980000  0.71140000  0.79750000  1.0 0.1090897172
H  H149  1  0.64610000  0.22500000  0.71960000  1.0 0.1400546661
H  H150  1  0.64610000  0.27500000  0.21960000  1.0 0.1400546661
H  H151  1  0.35390000  0.77500000  0.28040000  1.0 0.1400546661
H  H152  1  0.35390000  0.72500000  0.78040000  1.0 0.1400546661
H  H153  1  0.52120000  0.08030000  0.62340000  1.0 0.1400546661
H  H154  1  0.52120000  0.41970000  0.12340000  1.0 0.1400546661
H  H155  1  0.47880000  0.91970000  0.37660000  1.0 0.1400546661
H  H156  1  0.47880000  0.58030000  0.87660000  1.0 0.1400546661
H  H157  1  0.62950000  0.07170000  0.60880000  1.0 0.1090897172
H  H158  1  0.62950000  0.42830000  0.10880000  1.0 0.1090897172
H  H159  1  0.37050000  0.92830000  0.39120000  1.0 0.1090897172
H  H160  1  0.37050000  0.57170000  0.89120000  1.0 0.1090897172
C  C1  1  0.34300000  0.95530000  0.05730000  1.0 0.0799975342
C  C2  1  0.34300000  0.54470000  0.55730000  1.0 0.0799975342
C  C3  1  0.65700000  0.04470000  0.94270000  1.0 0.0799975342
C  C4  1  0.65700000  0.45530000  0.44270000  1.0 0.0799975342
C  C5  1  0.28910000  0.98630000  0.00180000  1.0 -0.1703615316
C  C6  1  0.28910000  0.51370000  0.50180000  1.0 -0.1703615316
C  C7  1  0.71090000  0.01370000  0.99820000  1.0 -0.1703615316
C  C8  1  0.71090000  0.48630000  0.49820000  1.0 -0.1703615316
C  C9  1  0.20000000  0.97090000  0.95750000  1.0 0.0197160837
C  C10  1  0.20000000  0.52910000  0.45750000  1.0 0.0197160837
C  C11  1  0.80000000  0.02910000  0.04250000  1.0 0.0197160837
C  C12  1  0.80000000  0.47090000  0.54250000  1.0 0.0197160837
C  C13  1  0.16730000  0.92530000  0.96890000  1.0 -0.1308751737
C  C14  1  0.16730000  0.57470000  0.46890000  1.0 -0.1308751737
C  C15  1  0.83270000  0.07470000  0.03110000  1.0 -0.1308751737
C  C16  1  0.83270000  0.42530000  0.53110000  1.0 -0.1308751737
C  C17  1  0.22510000  0.89610000  0.02430000  1.0 0.0898918235
C  C18  1  0.22510000  0.60390000  0.52430000  1.0 0.0898918235
C  C19  1  0.77490000  0.10390000  0.97570000  1.0 0.0898918235
C  C20  1  0.77490000  0.39610000  0.47570000  1.0 0.0898918235
C  C21  1  0.13970000  0.00480000  0.89740000  1.0 0.5731224582
C  C22  1  0.13970000  0.49520000  0.39740000  1.0 0.5731224582
C  C23  1  0.86030000  0.99520000  0.10260000  1.0 0.5731224582
C  C24  1  0.86030000  0.50480000  0.60260000  1.0 0.5731224582
C  C25  1  0.67490000  0.97070000  0.43030000  1.0 0.0711378742
C  C26  1  0.67490000  0.52930000  0.93030000  1.0 0.0711378742
C  C27  1  0.32510000  0.02930000  0.56970000  1.0 0.0711378742
C  C28  1  0.32510000  0.47070000  0.06970000  1.0 0.0711378742
C  C29  1  0.69730000  0.99360000  0.48490000  1.0 -0.1593375347
C  C30  1  0.69730000  0.50640000  0.98490000  1.0 -0.1593375347
C  C31  1  0.30270000  0.00640000  0.51510000  1.0 -0.1593375347
C  C32  1  0.30270000  0.49360000  0.01510000  1.0 -0.1593375347
C  C33  1  0.77820000  0.98000000  0.54100000  1.0 0.0387517179
C  C34  1  0.77820000  0.52000000  0.04100000  1.0 0.0387517179
C  C35  1  0.22180000  0.02000000  0.45900000  1.0 0.0387517179
C  C36  1  0.22180000  0.48000000  0.95900000  1.0 0.0387517179
C  C37  1  0.83560000  0.94300000  0.54070000  1.0 -0.1593375347
C  C38  1  0.83560000  0.55700000  0.04070000  1.0 -0.1593375347
C  C39  1  0.16440000  0.05700000  0.45930000  1.0 -0.1593375347
C  C40  1  0.16440000  0.44300000  0.95930000  1.0 -0.1593375347
C  C41  1  0.80890000  0.92160000  0.48490000  1.0 0.0898918235
C  C42  1  0.80890000  0.57840000  0.98490000  1.0 0.0898918235
C  C43  1  0.19110000  0.07840000  0.51510000  1.0 0.0898918235
C  C44  1  0.19110000  0.42160000  0.01510000  1.0 0.0898918235
C  C45  1  0.80650000  0.00260000  0.60280000  1.0 0.5731224582
C  C46  1  0.80650000  0.49740000  0.10280000  1.0 0.5731224582
C  C47  1  0.19350000  0.99740000  0.39720000  1.0 0.5731224582
C  C48  1  0.19350000  0.50260000  0.89720000  1.0 0.5731224582
C  C49  1  0.91460000  0.37820000  0.70220000  1.0 0.0898918235
C  C50  1  0.91460000  0.12180000  0.20220000  1.0 0.0898918235
C  C51  1  0.08540000  0.62180000  0.29780000  1.0 0.0898918235
C  C52  1  0.08540000  0.87820000  0.79780000  1.0 0.0898918235
C  C53  1  0.89860000  0.32060000  0.69790000  1.0 -0.149808003
C  C54  1  0.89860000  0.17940000  0.19790000  1.0 -0.149808003
C  C55  1  0.10140000  0.67940000  0.30210000  1.0 -0.149808003
C  C56  1  0.10140000  0.82060000  0.80210000  1.0 -0.149808003
C  C57  1  0.96610000  0.28550000  0.74050000  1.0 0.0107583025
C  C58  1  0.96610000  0.21450000  0.24050000  1.0 0.0107583025
C  C59  1  0.03390000  0.71450000  0.25950000  1.0 0.0030588565
C  C60  1  0.03390000  0.78550000  0.75950000  1.0 0.0030588565
C  C61  1  0.04750000  0.30910000  0.78920000  1.0 -0.1593375347
C  C62  1  0.04750000  0.19090000  0.28920000  1.0 -0.1593375347
C  C63  1  0.95250000  0.69090000  0.21080000  1.0 -0.1593375347
C  C64  1  0.95250000  0.80910000  0.71080000  1.0 -0.1593375347
C  C65  1  0.05890000  0.36820000  0.79150000  1.0 0.0898918235
C  C66  1  0.05890000  0.13180000  0.29150000  1.0 0.0898918235
C  C67  1  0.94110000  0.63180000  0.20850000  1.0 0.0898918235
C  C68  1  0.94110000  0.86820000  0.70850000  1.0 0.0898918235
C  C69  1  0.95660000  0.22290000  0.73750000  1.0 0.5859998579
C  C70  1  0.95660000  0.27710000  0.23750000  1.0 0.5859998579
C  C71  1  0.04340000  0.77710000  0.26250000  1.0 0.5859998579
C  C72  1  0.04340000  0.72290000  0.76250000  1.0 0.5859998579
C  C73  1  0.71510000  0.07200000  0.79760000  1.0 0.0529769476
C  C74  1  0.71510000  0.42800000  0.29760000  1.0 0.0529769476
C  C75  1  0.28490000  0.92800000  0.20240000  1.0 0.0529769476
C  C76  1  0.28490000  0.57200000  0.70240000  1.0 0.0529769476
C  C77  1  0.77650000  0.06530000  0.78780000  1.0 -0.149808003
C  C78  1  0.77650000  0.43470000  0.28780000  1.0 -0.149808003
C  C79  1  0.22350000  0.93470000  0.21220000  1.0 -0.149808003
C  C80  1  0.22350000  0.56530000  0.71220000  1.0 -0.149808003
C  C81  1  0.84680000  0.10240000  0.81320000  1.0 0.0030588565
C  C82  1  0.84680000  0.39760000  0.31320000  1.0 0.0030588565
C  C83  1  0.15320000  0.89760000  0.18680000  1.0 0.0030588565
C  C84  1  0.15320000  0.60240000  0.68680000  1.0 0.0030588565
C  C85  1  0.85330000  0.14710000  0.84940000  1.0 -0.1308751737
C  C86  1  0.85330000  0.35290000  0.34940000  1.0 -0.1308751737
C  C87  1  0.14670000  0.85290000  0.15060000  1.0 -0.1308751737
C  C88  1  0.14670000  0.64710000  0.65060000  1.0 -0.1308751737
C  C89  1  0.78610000  0.15300000  0.85490000  1.0 0.0898918235
C  C90  1  0.78610000  0.34700000  0.35490000  1.0 0.0898918235
C  C91  1  0.21390000  0.84700000  0.14510000  1.0 0.0898918235
C  C92  1  0.21390000  0.65300000  0.64510000  1.0 0.0898918235
C  C93  1  0.91370000  0.09730000  0.80250000  1.0 0.5790006365
C  C94  1  0.91370000  0.40270000  0.30250000  1.0 0.5790006365
C  C95  1  0.08630000  0.90270000  0.19750000  1.0 0.5790006365
C  C96  1  0.08630000  0.59730000  0.69750000  1.0 0.5790006365
C  C97  1  0.13170000  0.13310000  0.63110000  1.0 0.0898918235
C  C98  1  0.13170000  0.36690000  0.13110000  1.0 0.0898918235
C  C99  1  0.86830000  0.86690000  0.36890000  1.0 0.0898918235
C  C100  1  0.86830000  0.63310000  0.86890000  1.0 0.0898918235
C  C101  1  0.06720000  0.12810000  0.63970000  1.0 -0.1379682928
C  C102  1  0.06720000  0.37190000  0.13970000  1.0 -0.1379682928
C  C103  1  0.93280000  0.87190000  0.36030000  1.0 -0.1379682928
C  C104  1  0.93280000  0.62810000  0.86030000  1.0 -0.1379682928
C  C105  1  0.07620000  0.08680000  0.67830000  1.0 0.0107583025
C  C106  1  0.07620000  0.41320000  0.17830000  1.0 0.0107583025
C  C107  1  0.92380000  0.91320000  0.32170000  1.0 0.0107583025
C  C108  1  0.92380000  0.58680000  0.82170000  1.0 0.0107583025
C  C109  1  0.14740000  0.05070000  0.70550000  1.0 -0.1593375347
C  C110  1  0.14740000  0.44930000  0.20550000  1.0 -0.1593375347
C  C111  1  0.85260000  0.94930000  0.29450000  1.0 -0.1593375347
C  C112  1  0.85260000  0.55070000  0.79450000  1.0 -0.1593375347
C  C113  1  0.20930000  0.05630000  0.69420000  1.0 0.0711378742
C  C114  1  0.20930000  0.44370000  0.19420000  1.0 0.0711378742
C  C115  1  0.79070000  0.94370000  0.30580000  1.0 0.0711378742
C  C116  1  0.79070000  0.55630000  0.80580000  1.0 0.0711378742
C  C117  1  0.01210000  0.08360000  0.69250000  1.0 0.5859998579
C  C118  1  0.01210000  0.41640000  0.19250000  1.0 0.5859998579
C  C119  1  0.98790000  0.91640000  0.30750000  1.0 0.5859998579
C  C120  1  0.98790000  0.58360000  0.80750000  1.0 0.5859998579
C  C121  1  0.21320000  0.17860000  0.79330000  1.0 0.0608243135
C  C122  1  0.21320000  0.32140000  0.29330000  1.0 0.0608243135
C  C123  1  0.78680000  0.82140000  0.20670000  1.0 0.0608243135
C  C124  1  0.78680000  0.67860000  0.70670000  1.0 0.0608243135
C  C125  1  0.27430000  0.18410000  0.78310000  1.0 -0.1379682928
C  C126  1  0.27430000  0.31590000  0.28310000  1.0 -0.1379682928
C  C127  1  0.72570000  0.81590000  0.21690000  1.0 -0.1379682928
C  C128  1  0.72570000  0.68410000  0.71690000  1.0 -0.1379682928
C  C129  1  0.34730000  0.14830000  0.81340000  1.0 0.0301421891
C  C130  1  0.34730000  0.35170000  0.31340000  1.0 0.0301421891
C  C131  1  0.65270000  0.85170000  0.18660000  1.0 0.0301421891
C  C132  1  0.65270000  0.64830000  0.68660000  1.0 0.0301421891
C  C133  1  0.35740000  0.10850000  0.85450000  1.0 -0.1703615316
C  C134  1  0.35740000  0.39150000  0.35450000  1.0 -0.1703615316
C  C135  1  0.64260000  0.89150000  0.14550000  1.0 -0.1703615316
C  C136  1  0.64260000  0.60850000  0.64550000  1.0 -0.1703615316
C  C137  1  0.29010000  0.10370000  0.86030000  1.0 0.0711378742
C  C138  1  0.29010000  0.39630000  0.36030000  1.0 0.0711378742
C  C139  1  0.70990000  0.89630000  0.13970000  1.0 0.0711378742
C  C140  1  0.70990000  0.60370000  0.63970000  1.0 0.0711378742
C  C141  1  0.41530000  0.15220000  0.80230000  1.0 0.5790006365
C  C142  1  0.41530000  0.34780000  0.30230000  1.0 0.5790006365
C  C143  1  0.58470000  0.84780000  0.19770000  1.0 0.5790006365
C  C144  1  0.58470000  0.65220000  0.69770000  1.0 0.5790006365
C  C145  1  0.12120000  0.21590000  0.92760000  1.0 0.0898918235
C  C146  1  0.12120000  0.28410000  0.42760000  1.0 0.0898918235
C  C147  1  0.87880000  0.78410000  0.07240000  1.0 0.0898918235
C  C148  1  0.87880000  0.71590000  0.57240000  1.0 0.0898918235
C  C149  1  0.15700000  0.24620000  0.98120000  1.0 -0.1379682928
C  C150  1  0.15700000  0.25380000  0.48120000  1.0 -0.1379682928
C  C151  1  0.84300000  0.75380000  0.01880000  1.0 -0.1379682928
C  C152  1  0.84300000  0.74620000  0.51880000  1.0 -0.1379682928
C  C153  1  0.24470000  0.23670000  0.03140000  1.0 0.0301421891
C  C154  1  0.24470000  0.26330000  0.53140000  1.0 0.0301421891
C  C155  1  0.75530000  0.76330000  0.96860000  1.0 0.0301421891
C  C156  1  0.75530000  0.73670000  0.46860000  1.0 0.0301421891
C  C157  1  0.29380000  0.19860000  0.02460000  1.0 -0.1593375347
C  C158  1  0.29380000  0.30140000  0.52460000  1.0 -0.1593375347
C  C159  1  0.70620000  0.80140000  0.97540000  1.0 -0.1593375347
C  C160  1  0.70620000  0.69860000  0.47540000  1.0 -0.1593375347
C  C161  1  0.25220000  0.17090000  0.96860000  1.0 0.0529769476
C  C162  1  0.25220000  0.32910000  0.46860000  1.0 0.0529769476
C  C163  1  0.74780000  0.82910000  0.03140000  1.0 0.0529769476
C  C164  1  0.74780000  0.67090000  0.53140000  1.0 0.0529769476
C  C165  1  0.28990000  0.26660000  0.09340000  1.0 0.5790006365
C  C166  1  0.28990000  0.23340000  0.59340000  1.0 0.5790006365
C  C167  1  0.71010000  0.73340000  0.90660000  1.0 0.5790006365
C  C168  1  0.71010000  0.76660000  0.40660000  1.0 0.5790006365
C  C169  1  0.79420000  0.20290000  0.55270000  1.0 0.1018791425
C  C170  1  0.79420000  0.29710000  0.05270000  1.0 0.1018791425
C  C171  1  0.20580000  0.79710000  0.44730000  1.0 0.1018791425
C  C172  1  0.20580000  0.70290000  0.94730000  1.0 0.1018791425
C  C173  1  0.75160000  0.23000000  0.49570000  1.0 -0.1164371555
C  C174  1  0.75160000  0.27000000  0.99570000  1.0 -0.1164371555
C  C175  1  0.24840000  0.77000000  0.50430000  1.0 -0.1164371555
C  C176  1  0.24840000  0.73000000  0.00430000  1.0 -0.1164371555
C  C177  1  0.66410000  0.21690000  0.44720000  1.0 0.0197160837
C  C178  1  0.66410000  0.28310000  0.94720000  1.0 0.0197160837
C  C179  1  0.33590000  0.78310000  0.55280000  1.0 0.0197160837
C  C180  1  0.33590000  0.71690000  0.05280000  1.0 0.0197160837
C  C181  1  0.62060000  0.17590000  0.45580000  1.0 -0.1593375347
C  C182  1  0.62060000  0.32410000  0.95580000  1.0 -0.1593375347
C  C183  1  0.37940000  0.82410000  0.54420000  1.0 -0.1593375347
C  C184  1  0.37940000  0.67590000  0.04420000  1.0 -0.1593375347
C  C185  1  0.66620000  0.15090000  0.51310000  1.0 0.0608243135
C  C186  1  0.66620000  0.34910000  0.01310000  1.0 0.0608243135
C  C187  1  0.33380000  0.84910000  0.48690000  1.0 0.0608243135
C  C188  1  0.33380000  0.65090000  0.98690000  1.0 0.0608243135
C  C189  1  0.61600000  0.24750000  0.38590000  1.0 0.5731224582
C  C190  1  0.61600000  0.25250000  0.88590000  1.0 0.5731224582
C  C191  1  0.38400000  0.75250000  0.61410000  1.0 0.5731224582
C  C192  1  0.38400000  0.74750000  0.11410000  1.0 0.5731224582
C  C193  1  0.56980000  0.87570000  0.80790000  1.0 0.0898918235
C  C194  1  0.56980000  0.62430000  0.30790000  1.0 0.0898918235
C  C195  1  0.43020000  0.12430000  0.19210000  1.0 0.0898918235
C  C196  1  0.43020000  0.37570000  0.69210000  1.0 0.0898918235
C  C197  1  0.56070000  0.93420000  0.80610000  1.0 -0.1703615316
C  C198  1  0.56070000  0.56580000  0.30610000  1.0 -0.1703615316
C  C199  1  0.43930000  0.06580000  0.19390000  1.0 -0.1703615316
C  C200  1  0.43930000  0.43420000  0.69390000  1.0 -0.1703615316
C  C201  1  0.47930000  0.95870000  0.75760000  1.0 0.0197160837
C  C202  1  0.47930000  0.54130000  0.25760000  1.0 0.0197160837
C  C203  1  0.52070000  0.04130000  0.24240000  1.0 0.0197160837
C  C204  1  0.52070000  0.45870000  0.74240000  1.0 0.0197160837
C  C205  1  0.41230000  0.92280000  0.71530000  1.0 -0.1593375347
C  C206  1  0.41230000  0.57720000  0.21530000  1.0 -0.1593375347
C  C207  1  0.58770000  0.07720000  0.28470000  1.0 -0.1593375347
C  C208  1  0.58770000  0.42280000  0.78470000  1.0 -0.1593375347
C  C209  1  0.42650000  0.86580000  0.71880000  1.0 0.0711378742
C  C210  1  0.42650000  0.63420000  0.21880000  1.0 0.0711378742
C  C211  1  0.57350000  0.13420000  0.28120000  1.0 0.0711378742
C  C212  1  0.57350000  0.36580000  0.78120000  1.0 0.0711378742
C  C213  1  0.46980000  0.02200000  0.75270000  1.0 0.5790006365
C  C214  1  0.46980000  0.47800000  0.25270000  1.0 0.5790006365
C  C215  1  0.53020000  0.97800000  0.24730000  1.0 0.5790006365
C  C216  1  0.53020000  0.52200000  0.74730000  1.0 0.5790006365
C  C217  1  0.70380000  0.18440000  0.68700000  1.0 0.0799975342
C  C218  1  0.70380000  0.31560000  0.18700000  1.0 0.0799975342
C  C219  1  0.29620000  0.81560000  0.31300000  1.0 0.0799975342
C  C220  1  0.29620000  0.68440000  0.81300000  1.0 0.0799975342
C  C221  1  0.64200000  0.19250000  0.69750000  1.0 -0.149808003
C  C222  1  0.64200000  0.30750000  0.19750000  1.0 -0.149808003
C  C223  1  0.35800000  0.80750000  0.30250000  1.0 -0.149808003
C  C224  1  0.35800000  0.69250000  0.80250000  1.0 -0.149808003
C  C225  1  0.57450000  0.15370000  0.67590000  1.0 0.0301421891
C  C226  1  0.57450000  0.34630000  0.17590000  1.0 0.0301421891
C  C227  1  0.42550000  0.84630000  0.32410000  1.0 0.0301421891
C  C228  1  0.42550000  0.65370000  0.82410000  1.0 0.0301421891
C  C229  1  0.56800000  0.10730000  0.64070000  1.0 -0.1703615316
C  C230  1  0.56800000  0.39270000  0.14070000  1.0 -0.1703615316
C  C231  1  0.43200000  0.89270000  0.35930000  1.0 -0.1703615316
C  C232  1  0.43200000  0.60730000  0.85930000  1.0 -0.1703615316
C  C233  1  0.63320000  0.10260000  0.63240000  1.0 0.0898918235
C  C234  1  0.63320000  0.39740000  0.13240000  1.0 0.0898918235
C  C235  1  0.36680000  0.89740000  0.36760000  1.0 0.0898918235
C  C236  1  0.36680000  0.60260000  0.86760000  1.0 0.0898918235
C  C237  1  0.50950000  0.15780000  0.68970000  1.0 0.5790006365
C  C238  1  0.50950000  0.34220000  0.18970000  1.0 0.5790006365
C  C239  1  0.49050000  0.84220000  0.31030000  1.0 0.5790006365
C  C240  1  0.49050000  0.65780000  0.81030000  1.0 0.5790006365
N  N1  1  0.31080000  0.91130000  0.06880000  1.0 -0.2315534238
N  N2  1  0.31080000  0.58870000  0.56880000  1.0 -0.2315534238
N  N3  1  0.68920000  0.08870000  0.93120000  1.0 -0.2315534238
N  N4  1  0.68920000  0.41130000  0.43120000  1.0 -0.2315534238
N  N5  1  0.72980000  0.93390000  0.43050000  1.0 -0.2315534238
N  N6  1  0.72980000  0.56610000  0.93050000  1.0 -0.2315534238
N  N7  1  0.27020000  0.06610000  0.56950000  1.0 -0.2315534238
N  N8  1  0.27020000  0.43390000  0.06950000  1.0 -0.2315534238
N  N9  1  0.99180000  0.40230000  0.74760000  1.0 -0.2409005349
N  N10  1  0.99180000  0.09770000  0.24760000  1.0 -0.2409005349
N  N11  1  0.00820000  0.59770000  0.25240000  1.0 -0.2409005349
N  N12  1  0.00820000  0.90230000  0.75240000  1.0 -0.2409005349
N  N13  1  0.71800000  0.11660000  0.83030000  1.0 -0.2480939736
N  N14  1  0.71800000  0.38340000  0.33030000  1.0 -0.2480939736
N  N15  1  0.28200000  0.88340000  0.16970000  1.0 -0.2480939736
N  N16  1  0.28200000  0.61660000  0.66970000  1.0 -0.2480939736
N  N17  1  0.20240000  0.09820000  0.65810000  1.0 -0.2480939736
N  N18  1  0.20240000  0.40180000  0.15810000  1.0 -0.2480939736
N  N19  1  0.79760000  0.90180000  0.34190000  1.0 -0.2480939736
N  N20  1  0.79760000  0.59820000  0.84190000  1.0 -0.2480939736
N  N21  1  0.22010000  0.13770000  0.83100000  1.0 -0.2409005349
N  N22  1  0.22010000  0.36230000  0.33100000  1.0 -0.2409005349
N  N23  1  0.77990000  0.86230000  0.16900000  1.0 -0.2409005349
N  N24  1  0.77990000  0.63770000  0.66900000  1.0 -0.2409005349
N  N25  1  0.16590000  0.17960000  0.91980000  1.0 -0.2315534238
N  N26  1  0.16590000  0.32040000  0.41980000  1.0 -0.2315534238
N  N27  1  0.83410000  0.82040000  0.08020000  1.0 -0.2315534238
N  N28  1  0.83410000  0.67960000  0.58020000  1.0 -0.2315534238
N  N29  1  0.75100000  0.16380000  0.56120000  1.0 -0.2315534238
N  N30  1  0.75100000  0.33620000  0.06120000  1.0 -0.2315534238
N  N31  1  0.24900000  0.83620000  0.43880000  1.0 -0.2315534238
N  N32  1  0.24900000  0.66380000  0.93880000  1.0 -0.2315534238
N  N33  1  0.50490000  0.84200000  0.76420000  1.0 -0.2315534238
N  N34  1  0.50490000  0.65800000  0.26420000  1.0 -0.2315534238
N  N35  1  0.49510000  0.15800000  0.23580000  1.0 -0.2315534238
N  N36  1  0.49510000  0.34200000  0.73580000  1.0 -0.2315534238
N  N37  1  0.69980000  0.13930000  0.65560000  1.0 -0.2480939736
N  N38  1  0.69980000  0.36070000  0.15560000  1.0 -0.2480939736
N  N39  1  0.30020000  0.86070000  0.34440000  1.0 -0.2480939736
N  N40  1  0.30020000  0.63930000  0.84440000  1.0 -0.2480939736
Cl  Cl1  1  0.02440000  0.77320000  0.97600000  1.0 1.2861360277
Cl  Cl2  1  0.02440000  0.72680000  0.47600000  1.0 1.2824495202
Cl  Cl3  1  0.97560000  0.22680000  0.02400000  1.0 1.2824495202
Cl  Cl4  1  0.97560000  0.27320000  0.52400000  1.0 1.2824495202
O  O1  1  0.17470000  0.04710000  0.89330000  1.0 -0.5509764918
O  O2  1  0.17470000  0.45290000  0.39330000  1.0 -0.5509764918
O  O3  1  0.82530000  0.95290000  0.10670000  1.0 -0.5509764918
O  O4  1  0.82530000  0.54710000  0.60670000  1.0 -0.5509764918
O  O5  1  0.06140000  0.98630000  0.85780000  1.0 -0.5427447294
O  O6  1  0.06140000  0.51370000  0.35780000  1.0 -0.5427447294
O  O7  1  0.93860000  0.01370000  0.14220000  1.0 -0.5427447294
O  O8  1  0.93860000  0.48630000  0.64220000  1.0 -0.5427447294
O  O9  1  0.87740000  0.98310000  0.65050000  1.0 -0.5427447294
O  O10  1  0.87740000  0.51690000  0.15050000  1.0 -0.5427447294
O  O11  1  0.12260000  0.01690000  0.34950000  1.0 -0.5427447294
O  O12  1  0.12260000  0.48310000  0.84950000  1.0 -0.5427447294
O  O13  1  0.75720000  0.03890000  0.60070000  1.0 -0.5509764918
O  O14  1  0.75720000  0.46110000  0.10070000  1.0 -0.5509764918
O  O15  1  0.24280000  0.96110000  0.39930000  1.0 -0.5509764918
O  O16  1  0.24280000  0.53890000  0.89930000  1.0 -0.5509764918
O  O17  1  0.02820000  0.19450000  0.76600000  1.0 -0.5668807611
O  O18  1  0.02820000  0.30550000  0.26600000  1.0 -0.5668807611
O  O19  1  0.97180000  0.80550000  0.23400000  1.0 -0.5668807611
O  O20  1  0.97180000  0.69450000  0.73400000  1.0 -0.5668807611
O  O21  1  0.87810000  0.20340000  0.70570000  1.0 -0.5584387284
O  O22  1  0.87810000  0.29660000  0.20570000  1.0 -0.5584387284
O  O23  1  0.12190000  0.79660000  0.29430000  1.0 -0.5584387284
O  O24  1  0.12190000  0.70340000  0.79430000  1.0 -0.5584387284
O  O25  1  0.98900000  0.11760000  0.84110000  1.0 -0.519705895
O  O26  1  0.98900000  0.38240000  0.34110000  1.0 -0.519705895
O  O27  1  0.01100000  0.88240000  0.15890000  1.0 -0.519705895
O  O28  1  0.01100000  0.61760000  0.65890000  1.0 -0.519705895
O  O29  1  0.88820000  0.07100000  0.75300000  1.0 -0.5795100664
O  O30  1  0.88820000  0.42900000  0.25300000  1.0 -0.5795100664
O  O31  1  0.11180000  0.92900000  0.24700000  1.0 -0.5795100664
O  O32  1  0.11180000  0.57100000  0.74700000  1.0 -0.5795100664
O  O33  1  0.04150000  0.05870000  0.74390000  1.0 -0.6104489897
O  O34  1  0.04150000  0.44130000  0.24390000  1.0 -0.6104489897
O  O35  1  0.95850000  0.94130000  0.25610000  1.0 -0.6104489897
O  O36  1  0.95850000  0.55870000  0.75610000  1.0 -0.6104489897
O  O37  1  0.93770000  0.10420000  0.65500000  1.0 -0.5093151365
O  O38  1  0.93770000  0.39580000  0.15500000  1.0 -0.5093151365
O  O39  1  0.06230000  0.89580000  0.34500000  1.0 -0.5093151365
O  O40  1  0.06230000  0.60420000  0.84500000  1.0 -0.5093151365
O  O41  1  0.38800000  0.17250000  0.75010000  1.0 -0.5795100664
O  O42  1  0.38800000  0.32750000  0.25010000  1.0 -0.5795100664
O  O43  1  0.61200000  0.82750000  0.24990000  1.0 -0.5795100664
O  O44  1  0.61200000  0.67250000  0.74990000  1.0 -0.5795100664
O  O45  1  0.49290000  0.13510000  0.84440000  1.0 -0.5312073464
O  O46  1  0.49290000  0.36490000  0.34440000  1.0 -0.5312073464
O  O47  1  0.50710000  0.86490000  0.15560000  1.0 -0.5312073464
O  O48  1  0.50710000  0.63510000  0.65560000  1.0 -0.5312073464
O  O49  1  0.24890000  0.30710000  0.09450000  1.0 -0.5312073464
O  O50  1  0.24890000  0.19290000  0.59450000  1.0 -0.5312073464
O  O51  1  0.75110000  0.69290000  0.90550000  1.0 -0.5312073464
O  O52  1  0.75110000  0.80710000  0.40550000  1.0 -0.5312073464
O  O53  1  0.36390000  0.24610000  0.13790000  1.0 -0.5584387284
O  O54  1  0.36390000  0.25390000  0.63790000  1.0 -0.5584387284
O  O55  1  0.63610000  0.75390000  0.86210000  1.0 -0.5584387284
O  O56  1  0.63610000  0.74610000  0.36210000  1.0 -0.5584387284
O  O57  1  0.53560000  0.23400000  0.34370000  1.0 -0.5509764918
O  O58  1  0.53560000  0.26600000  0.84370000  1.0 -0.5509764918
O  O59  1  0.46440000  0.76600000  0.65630000  1.0 -0.5509764918
O  O60  1  0.46440000  0.73400000  0.15630000  1.0 -0.5509764918
O  O61  1  0.66030000  0.28370000  0.38150000  1.0 -0.5509764918
O  O62  1  0.66030000  0.21630000  0.88150000  1.0 -0.5509764918
O  O63  1  0.33970000  0.71630000  0.61850000  1.0 -0.5509764918
O  O64  1  0.33970000  0.78370000  0.11850000  1.0 -0.5509764918
O  O65  1  0.54020000  0.05000000  0.78280000  1.0 -0.5509764918
O  O66  1  0.54020000  0.45000000  0.28280000  1.0 -0.5509764918
O  O67  1  0.45980000  0.95000000  0.21720000  1.0 -0.5509764918
O  O68  1  0.45980000  0.55000000  0.71720000  1.0 -0.5509764918
O  O69  1  0.39140000  0.04010000  0.71910000  1.0 -0.5509764918
O  O70  1  0.39140000  0.45990000  0.21910000  1.0 -0.5509764918
O  O71  1  0.60860000  0.95990000  0.28090000  1.0 -0.5509764918
O  O72  1  0.60860000  0.54010000  0.78090000  1.0 -0.5509764918
O  O73  1  0.43790000  0.13300000  0.65580000  1.0 -0.519705895
O  O74  1  0.43790000  0.36700000  0.15580000  1.0 -0.519705895
O  O75  1  0.56210000  0.86700000  0.34420000  1.0 -0.519705895
O  O76  1  0.56210000  0.63300000  0.84420000  1.0 -0.519705895
O  O77  1  0.53800000  0.18710000  0.73870000  1.0 -0.6104489897
O  O78  1  0.53800000  0.31290000  0.23870000  1.0 -0.6104489897
O  O79  1  0.46200000  0.81290000  0.26130000  1.0 -0.6104489897
O  O80  1  0.46200000  0.68710000  0.76130000  1.0 -0.6104489897
O  O81  1  0.33710000  0.30100000  0.73700000  1.0 -0.3078689758
O  O82  1  0.33710000  0.19900000  0.23700000  1.0 -0.3078689758
O  O83  1  0.66290000  0.69900000  0.26300000  1.0 -0.3078689758
O  O84  1  0.66290000  0.80100000  0.76300000  1.0 -0.3078689758
O  O85  1  0.85550000  0.94390000  0.75590000  1.0 -0.4080784727
O  O86  1  0.85550000  0.55610000  0.25590000  1.0 -0.4080784727
O  O87  1  0.14450000  0.05610000  0.24410000  1.0 -0.4080784727
O  O88  1  0.14450000  0.44390000  0.74410000  1.0 -0.4080784727
O  O89  1  0.92330000  0.76230000  0.93550000  1.0 -0.5312073464
O  O90  1  0.05000000  0.83100000  0.01200000  1.0 -0.5584387284
O  O91  1  0.05450000  0.77600000  0.93400000  1.0 -0.5668807611
O  O92  1  0.07800000  0.72500000  0.02500000  1.0 -0.5668807611
O  O93  1  0.92330000  0.73770000  0.43550000  1.0 -0.5312073464
O  O94  1  0.05000000  0.66900000  0.51200000  1.0 -0.5509764918
O  O95  1  0.05450000  0.72400000  0.43400000  1.0 -0.5668807611
O  O96  1  0.07800000  0.77500000  0.52500000  1.0 -0.5668807611
O  O97  1  0.07670000  0.23770000  0.06450000  1.0 -0.5312073464
O  O98  1  0.95000000  0.16900000  0.98800000  1.0 -0.5509764918
O  O99  1  0.94550000  0.22400000  0.06600000  1.0 -0.5668807611
O  O100  1  0.92200000  0.27500000  0.97500000  1.0 -0.5668807611
O  O101  1  0.07670000  0.26230000  0.56450000  1.0 -0.5312073464
O  O102  1  0.95000000  0.33100000  0.48800000  1.0 -0.5509764918
O  O103  1  0.94550000  0.27600000  0.56600000  1.0 -0.5668807611
O  O104  1  0.92200000  0.22500000  0.47500000  1.0 -0.5668807611
