# DDEC6 charges by PACMAN v1.1 (https://github.com/mtap-research/PACMAN-charge/)
data_WEBZEK_ion_pacman
_symmetry_space_group_name_H-M   'P 1'
_cell_length_a   26.88230000
_cell_length_b   26.88230000
_cell_length_c   26.88230000
_cell_angle_alpha   131.27100000
_cell_angle_beta   131.27100000
_cell_angle_gamma   71.38280000
_symmetry_Int_Tables_number   1
_chemical_formula_structural   Cd3H72C68(NO14)2
_chemical_formula_sum   'Cd12 H288 C272 N8 O112'
_cell_volume   10740.86188650
_cell_formula_units_Z   4
loop_
 _symmetry_equiv_pos_site_id
 _symmetry_equiv_pos_as_xyz
  1  'x, y, z'
loop_
 _atom_site_type_symbol
 _atom_site_label
 _atom_site_symmetry_multiplicity
 _atom_site_fract_x
 _atom_site_fract_y
 _atom_site_fract_z
 _atom_site_occupancy
 _atom_site_charge
Cd  Cd1  1  0.55664000  0.05454000  0.76100000  1.0 0.9193268923
Cd  Cd2  1  0.29354000  0.79565000  0.23901000  1.0 0.9193268923
Cd  Cd3  1  0.94547000  0.70646000  0.50211000  1.0 0.9193268923
Cd  Cd4  1  0.20436000  0.44336000  0.49790000  1.0 0.9193268923
Cd  Cd5  1  0.45646000  0.19546000  0.00211000  1.0 0.9193268923
Cd  Cd6  1  0.19336000  0.45436000  0.99790000  1.0 0.9193268923
Cd  Cd7  1  0.54565000  0.54354000  0.73901000  1.0 0.9193268923
Cd  Cd8  1  0.80453000  0.80664000  0.26100000  1.0 0.9193268923
Cd  Cd9  1  0.50715000  0.12500000  0.88215000  1.0 1.0182858316
Cd  Cd10  1  0.24285000  0.62500000  0.11786000  1.0 1.0182858316
Cd  Cd11  1  0.87500000  0.75715000  0.38215000  1.0 1.0182858316
Cd  Cd12  1  0.37500000  0.49286000  0.61786000  1.0 1.0182858316
H  H1  1  0.29649000  0.89440000  0.47829000  1.0 0.287491726
H  H2  1  0.41610000  0.81821000  0.52171000  1.0 0.287491726
H  H3  1  0.10561000  0.58390000  0.40210000  1.0 0.287491726
H  H4  1  0.18180000  0.70351000  0.59790000  1.0 0.287491726
H  H5  1  0.33389000  0.35561000  0.90210000  1.0 0.287491726
H  H6  1  0.45350000  0.43179000  0.09790000  1.0 0.287491726
H  H7  1  0.56820000  0.66610000  0.02171000  1.0 0.287491726
H  H8  1  0.64440000  0.54650000  0.97829000  1.0 0.287491726
H  H9  1  0.31190000  0.90160000  0.44289000  1.0 0.287491726
H  H10  1  0.45870000  0.86901000  0.55711000  1.0 0.287491726
H  H11  1  0.09841000  0.54130000  0.41030000  1.0 0.287491726
H  H12  1  0.13100000  0.68811000  0.58970000  1.0 0.287491726
H  H13  1  0.29130000  0.34841000  0.91030000  1.0 0.287491726
H  H14  1  0.43811000  0.38100000  0.08970000  1.0 0.287491726
H  H15  1  0.61900000  0.70871000  0.05711000  1.0 0.287491726
H  H16  1  0.65159000  0.56190000  0.94289000  1.0 0.287491726
H  H17  1  0.36829000  0.87480000  0.58089000  1.0 0.1105001593
H  H18  1  0.29391000  0.78741000  0.41911000  1.0 0.1105001593
H  H19  1  0.12521000  0.70610000  0.49350000  1.0 0.1105001593
H  H20  1  0.21260000  0.63171000  0.50650000  1.0 0.1105001593
H  H21  1  0.45610000  0.37521000  0.99350000  1.0 0.1105001593
H  H22  1  0.38171000  0.46260000  0.00650000  1.0 0.1105001593
H  H23  1  0.53741000  0.54391000  0.91911000  1.0 0.1105001593
H  H24  1  0.62479000  0.61830000  0.08089000  1.0 0.1105001593
H  H25  1  0.26190000  0.83330000  0.51679000  1.0 0.1207376163
H  H26  1  0.31651000  0.74511000  0.48321000  1.0 0.1207376163
H  H27  1  0.16671000  0.68350000  0.42860000  1.0 0.1207376163
H  H28  1  0.25489000  0.73811000  0.57140000  1.0 0.1207376163
H  H29  1  0.43350000  0.41671000  0.92860000  1.0 0.1207376163
H  H30  1  0.48811000  0.50489000  0.07140000  1.0 0.1207376163
H  H31  1  0.49510000  0.56651000  0.98321000  1.0 0.1207376163
H  H32  1  0.58330000  0.51189000  0.01679000  1.0 0.1207376163
H  H33  1  0.34050000  0.06480000  0.70529000  1.0 0.128731186
H  H34  1  0.35951000  0.63521000  0.29471000  1.0 0.128731186
H  H35  1  0.93520000  0.64050000  0.27570000  1.0 0.128731186
H  H36  1  0.36480000  0.65951000  0.72430000  1.0 0.128731186
H  H37  1  0.39049000  0.18521000  0.77570000  1.0 0.128731186
H  H38  1  0.40950000  0.61480000  0.22430000  1.0 0.128731186
H  H39  1  0.38521000  0.60950000  0.79471000  1.0 0.128731186
H  H40  1  0.81480000  0.59050000  0.20529000  1.0 0.128731186
H  H41  1  0.12430000  0.87790000  0.41699000  1.0 0.1105001593
H  H42  1  0.46091000  0.70730000  0.58301000  1.0 0.1105001593
H  H43  1  0.12211000  0.53909000  0.24640000  1.0 0.1105001593
H  H44  1  0.29270000  0.87570000  0.75360000  1.0 0.1105001593
H  H45  1  0.28909000  0.37211000  0.74640000  1.0 0.1105001593
H  H46  1  0.62570000  0.54270000  0.25360000  1.0 0.1105001593
H  H47  1  0.45730000  0.71091000  0.08301000  1.0 0.1105001593
H  H48  1  0.62790000  0.37429000  0.91699000  1.0 0.1105001593
H  H49  1  0.01419000  0.83880000  0.34759000  1.0 0.1207376163
H  H50  1  0.49120000  0.66666667  0.65241000  1.0 0.1207376163
H  H51  1  0.16121000  0.50879000  0.17540000  1.0 0.1207376163
H  H52  1  0.33340000  0.98581000  0.82460000  1.0 0.1207376163
H  H53  1  0.25880000  0.41121000  0.67540000  1.0 0.1207376163
H  H54  1  0.73581000  0.58340000  0.32460000  1.0 0.1207376163
H  H55  1  0.41660000  0.74121000  0.15241000  1.0 0.1207376163
H  H56  1  0.58879000  0.26420000  0.84759000  1.0 0.1207376163
H  H57  1  0.07699000  0.86700000  0.54719000  1.0 0.128731186
H  H58  1  0.31980000  0.52980000  0.45281000  1.0 0.128731186
H  H59  1  0.13301000  0.68019000  0.21000000  1.0 0.128731186
H  H60  1  0.47019000  0.92301000  0.79000000  1.0 0.128731186
H  H61  1  0.43020000  0.38301000  0.71000000  1.0 0.128731186
H  H62  1  0.67300000  0.72020000  0.29000000  1.0 0.128731186
H  H63  1  0.27981000  0.56981000  0.95281000  1.0 0.128731186
H  H64  1  0.61699000  0.32699000  0.04719000  1.0 0.128731186
H  H65  1  0.23830000  0.11520000  0.76709000  1.0 0.128731186
H  H66  1  0.34810000  0.47120000  0.23291000  1.0 0.128731186
H  H67  1  0.88480000  0.65190000  0.12310000  1.0 0.128731186
H  H68  1  0.52879000  0.76171000  0.87690000  1.0 0.128731186
H  H69  1  0.40190000  0.13481000  0.62310000  1.0 0.128731186
H  H70  1  0.51170000  0.77880000  0.37690000  1.0 0.128731186
H  H71  1  0.22121000  0.59810000  0.73291000  1.0 0.128731186
H  H72  1  0.86520000  0.48830000  0.26709000  1.0 0.128731186
H  H73  1  0.25150000  0.13690000  0.73439000  1.0 0.1105001593
H  H74  1  0.40251000  0.51711000  0.26561000  1.0 0.1105001593
H  H75  1  0.86310000  0.59750000  0.11460000  1.0 0.1105001593
H  H76  1  0.48290000  0.74850000  0.88540000  1.0 0.1105001593
H  H77  1  0.34750000  0.11310000  0.61460000  1.0 0.1105001593
H  H78  1  0.49850000  0.73289000  0.38540000  1.0 0.1105001593
H  H79  1  0.26710000  0.65251000  0.76561000  1.0 0.1105001593
H  H80  1  0.88689000  0.50150000  0.23439000  1.0 0.1105001593
H  H81  1  0.30470000  0.10540000  0.77789000  1.0 0.128731186
H  H82  1  0.32750000  0.52680000  0.22211000  1.0 0.128731186
H  H83  1  0.89460000  0.67250000  0.19930000  1.0 0.128731186
H  H84  1  0.47320000  0.69531000  0.80070000  1.0 0.128731186
H  H85  1  0.42250000  0.14461000  0.69930000  1.0 0.128731186
H  H86  1  0.44531000  0.72320000  0.30070000  1.0 0.128731186
H  H87  1  0.27681000  0.57751000  0.72211000  1.0 0.128731186
H  H88  1  0.85540000  0.55470000  0.27789000  1.0 0.128731186
H  H89  1  0.15080000  0.89340000  0.66379000  1.0 0.1105001593
H  H90  1  0.22961000  0.48701000  0.33621000  1.0 0.1105001593
H  H91  1  0.10660000  0.77040000  0.25740000  1.0 0.1105001593
H  H92  1  0.51299000  0.84921000  0.74260000  1.0 0.1105001593
H  H93  1  0.52040000  0.35661000  0.75740000  1.0 0.1105001593
H  H94  1  0.59920000  0.76300000  0.24260000  1.0 0.1105001593
H  H95  1  0.23701000  0.47961000  0.83621000  1.0 0.1105001593
H  H96  1  0.64340000  0.40080000  0.16379000  1.0 0.1105001593
H  H97  1  0.14210000  0.96410000  0.68479000  1.0 0.1207376163
H  H98  1  0.27930000  0.45731000  0.31521000  1.0 0.1207376163
H  H99  1  0.03590000  0.72069000  0.17800000  1.0 0.1207376163
H  H100  1  0.54270000  0.85791000  0.82200000  1.0 0.1207376163
H  H101  1  0.47070000  0.28591000  0.67800000  1.0 0.1207376163
H  H102  1  0.60791000  0.79270000  0.32200000  1.0 0.1207376163
H  H103  1  0.20731000  0.52931000  0.81521000  1.0 0.1207376163
H  H104  1  0.71409000  0.39210000  0.18479000  1.0 0.1207376163
H  H105  1  0.21049000  0.95620000  0.74929000  1.0 0.1207376163
H  H106  1  0.20690000  0.46121000  0.25071000  1.0 0.1207376163
H  H107  1  0.04381000  0.79310000  0.25430000  1.0 0.1207376163
H  H108  1  0.53880000  0.78951000  0.74570000  1.0 0.1207376163
H  H109  1  0.54309000  0.29381000  0.75430000  1.0 0.1207376163
H  H110  1  0.53951000  0.78880000  0.24570000  1.0 0.1207376163
H  H111  1  0.21121000  0.45691000  0.75071000  1.0 0.1207376163
H  H112  1  0.70619000  0.46050000  0.24929000  1.0 0.1207376163
H  H113  1  0.66619000  0.18590000  0.04609000  1.0 0.1207376163
H  H114  1  0.13981000  0.62011000  0.95391000  1.0 0.1207376163
H  H115  1  0.81410000  0.86020000  0.48030000  1.0 0.1207376163
H  H116  1  0.37989000  0.33381000  0.51970000  1.0 0.1207376163
H  H117  1  0.61020000  0.06411000  0.98030000  1.0 0.1207376163
H  H118  1  0.08381000  0.62989000  0.01970000  1.0 0.1207376163
H  H119  1  0.37010000  0.38981000  0.45391000  1.0 0.1207376163
H  H120  1  0.93590000  0.91619000  0.54609000  1.0 0.1207376163
H  H121  1  0.79900000  0.37100000  0.33359000  1.0 0.1207376163
H  H122  1  0.03741000  0.46541000  0.66641000  1.0 0.1207376163
H  H123  1  0.62901000  0.96260000  0.42800000  1.0 0.1207376163
H  H124  1  0.53460000  0.20101000  0.57200000  1.0 0.1207376163
H  H125  1  0.71259000  0.87901000  0.92800000  1.0 0.1207376163
H  H126  1  0.95101000  0.78460000  0.07200000  1.0 0.1207376163
H  H127  1  0.21540000  0.28741000  0.16641000  1.0 0.1207376163
H  H128  1  0.12100000  0.04900000  0.83359000  1.0 0.1207376163
H  H129  1  0.68249000  0.33840000  0.25729000  1.0 0.1207376163
H  H130  1  0.08111000  0.42521000  0.74271000  1.0 0.1207376163
H  H131  1  0.66160000  0.91890000  0.34410000  1.0 0.1207376163
H  H132  1  0.57480000  0.31751000  0.65590000  1.0 0.1207376163
H  H133  1  0.66890000  0.91161000  0.84410000  1.0 0.1207376163
H  H134  1  0.06751000  0.82479000  0.15590000  1.0 0.1207376163
H  H135  1  0.17521000  0.33110000  0.24271000  1.0 0.1207376163
H  H136  1  0.08840000  0.93250000  0.75729000  1.0 0.1207376163
H  H137  1  0.89879000  0.24269000  0.25309000  1.0 0.1105001593
H  H138  1  0.98961000  0.64570000  0.74691000  1.0 0.1105001593
H  H139  1  0.75731000  0.01040000  0.65610000  1.0 0.1105001593
H  H140  1  0.35430000  0.10121000  0.34390000  1.0 0.1105001593
H  H141  1  0.76039000  0.00731000  0.15610000  1.0 0.1105001593
H  H142  1  0.85120000  0.60430000  0.84390000  1.0 0.1105001593
H  H143  1  0.39570000  0.23961000  0.24691000  1.0 0.1105001593
H  H144  1  0.99269000  0.14880000  0.75309000  1.0 0.1105001593
H  H145  1  0.01050000  0.27470000  0.32139000  1.0 0.128731186
H  H146  1  0.95330000  0.68911000  0.67861000  1.0 0.128731186
H  H147  1  0.72530000  0.04670000  0.73580000  1.0 0.128731186
H  H148  1  0.31089000  0.98951000  0.26420000  1.0 0.128731186
H  H149  1  0.79669000  0.97530000  0.23580000  1.0 0.128731186
H  H150  1  0.73951000  0.56090000  0.76420000  1.0 0.128731186
H  H151  1  0.43911000  0.20331000  0.17861000  1.0 0.128731186
H  H152  1  0.02469000  0.26049000  0.82139000  1.0 0.128731186
H  H153  1  0.97539000  0.46380000  0.40079000  1.0 0.1207376163
H  H154  1  0.06301000  0.57461000  0.59921000  1.0 0.1207376163
H  H155  1  0.53620000  0.93700000  0.51160000  1.0 0.1207376163
H  H156  1  0.42539000  0.02461000  0.48840000  1.0 0.1207376163
H  H157  1  0.68700000  0.78621000  0.01160000  1.0 0.1207376163
H  H158  1  0.77460000  0.67539000  0.98840000  1.0 0.1207376163
H  H159  1  0.32460000  0.31300000  0.09921000  1.0 0.1207376163
H  H160  1  0.21380000  0.22540000  0.90079000  1.0 0.1207376163
H  H161  1  0.74329000  0.12670000  0.01519000  1.0 0.1207376163
H  H162  1  0.11151000  0.72811000  0.98481000  1.0 0.1207376163
H  H163  1  0.87330000  0.88850000  0.61660000  1.0 0.1207376163
H  H164  1  0.27190000  0.25671000  0.38340000  1.0 0.1207376163
H  H165  1  0.63850000  0.12331000  0.11660000  1.0 0.1207376163
H  H166  1  0.00671000  0.52190000  0.88340000  1.0 0.1207376163
H  H167  1  0.47811000  0.36151000  0.48481000  1.0 0.1207376163
H  H168  1  0.87669000  0.99330000  0.51519000  1.0 0.1207376163
H  H169  1  0.76860000  0.15770000  0.00049000  1.0 0.1411850743
H  H170  1  0.15721000  0.76811000  0.99951000  1.0 0.1411850743
H  H171  1  0.84231000  0.84279000  0.61090000  1.0 0.1411850743
H  H172  1  0.23190000  0.23141000  0.38910000  1.0 0.1411850743
H  H173  1  0.59279000  0.09231000  0.11090000  1.0 0.1411850743
H  H174  1  0.98140000  0.48190000  0.88910000  1.0 0.1411850743
H  H175  1  0.51811000  0.40721000  0.49951000  1.0 0.1411850743
H  H176  1  0.90769000  0.01860000  0.50049000  1.0 0.1411850743
H  H177  1  0.70360000  0.17490000  0.99329000  1.0 0.1207376163
H  H178  1  0.18161000  0.71030000  0.00671000  1.0 0.1207376163
H  H179  1  0.82510000  0.81839000  0.52870000  1.0 0.1207376163
H  H180  1  0.28969000  0.29641000  0.47130000  1.0 0.1207376163
H  H181  1  0.56839000  0.07511000  0.02870000  1.0 0.1207376163
H  H182  1  0.04641000  0.53970000  0.97130000  1.0 0.1207376163
H  H183  1  0.46030000  0.43161000  0.50671000  1.0 0.1207376163
H  H184  1  0.92490000  0.95359000  0.49329000  1.0 0.1207376163
H  H185  1  0.87489000  0.53340000  0.44029000  1.0 0.1207376163
H  H186  1  0.09311000  0.43461000  0.55971000  1.0 0.1207376163
H  H187  1  0.46660000  0.90690000  0.34150000  1.0 0.1207376163
H  H188  1  0.56540000  0.12511000  0.65850000  1.0 0.1207376163
H  H189  1  0.65690000  0.71661000  0.84150000  1.0 0.1207376163
H  H190  1  0.87511000  0.81539000  0.15850000  1.0 0.1207376163
H  H191  1  0.18460000  0.34310000  0.05971000  1.0 0.1207376163
H  H192  1  0.28340000  0.12490000  0.94029000  1.0 0.1207376163
H  H193  1  0.83549000  0.53670000  0.36659000  1.0 0.1207376163
H  H194  1  0.17011000  0.46891000  0.63341000  1.0 0.1207376163
H  H195  1  0.46330000  0.82990000  0.29880000  1.0 0.1207376163
H  H196  1  0.53110000  0.16451000  0.70120000  1.0 0.1207376163
H  H197  1  0.57990000  0.71331000  0.79880000  1.0 0.1207376163
H  H198  1  0.91451000  0.78110000  0.20120000  1.0 0.1207376163
H  H199  1  0.21890000  0.42011000  0.13341000  1.0 0.1207376163
H  H200  1  0.28670000  0.08550000  0.86659000  1.0 0.1207376163
H  H201  1  0.91190000  0.53190000  0.41259000  1.0 0.1044441668
H  H202  1  0.11931000  0.49931000  0.58741000  1.0 0.1044441668
H  H203  1  0.46811000  0.88070000  0.38000000  1.0 0.1044441668
H  H204  1  0.50070000  0.08811000  0.62000000  1.0 0.1044441668
H  H205  1  0.63070000  0.71811000  0.88000000  1.0 0.1044441668
H  H206  1  0.83810000  0.75070000  0.12000000  1.0 0.1044441668
H  H207  1  0.24931000  0.36930000  0.08741000  1.0 0.1044441668
H  H208  1  0.28190000  0.16190000  0.91259000  1.0 0.1044441668
H  H209  1  0.44059000  0.89919000  0.51899000  1.0 0.1719911082
H  H210  1  0.38020000  0.92161000  0.48101000  1.0 0.1719911082
H  H211  1  0.10081000  0.61980000  0.54140000  1.0 0.1719911082
H  H212  1  0.07840000  0.55941000  0.45860000  1.0 0.1719911082
H  H213  1  0.36979000  0.35080000  0.04140000  1.0 0.1719911082
H  H214  1  0.30941000  0.32840000  0.95860000  1.0 0.1719911082
H  H215  1  0.67161000  0.63021000  0.98101000  1.0 0.1719911082
H  H216  1  0.64919000  0.69059000  0.01899000  1.0 0.1719911082
H  H217  1  0.41009000  0.94869000  0.51139000  1.0 0.200599829
H  H218  1  0.43730000  0.89870000  0.48861000  1.0 0.200599829
H  H219  1  0.05131000  0.56270000  0.46140000  1.0 0.200599829
H  H220  1  0.10130000  0.58991000  0.53860000  1.0 0.200599829
H  H221  1  0.31270000  0.30131000  0.96140000  1.0 0.200599829
H  H222  1  0.33991000  0.35130000  0.03860000  1.0 0.200599829
H  H223  1  0.64871000  0.68731000  0.98861000  1.0 0.200599829
H  H224  1  0.69869000  0.66010000  0.01139000  1.0 0.200599829
H  H225  1  0.61309000  0.86500000  0.15989000  1.0 0.1411850743
H  H226  1  0.54049000  0.87379000  0.10249000  1.0 0.1207376163
H  H227  1  0.57300000  0.90570000  0.19469000  1.0 0.1207376163
H  H228  1  0.43929000  0.78870000  0.05179000  1.0 0.128731186
H  H229  1  0.48619000  0.81710000  0.14629000  1.0 0.1207376163
H  H230  1  0.47440000  0.86540000  0.12699000  1.0 0.1207376163
H  H231  1  0.52609000  0.77029000  0.05779000  1.0 0.2710801132
H  H232  1  0.56919000  0.79350000  0.14449000  1.0 0.2710801132
H  H233  1  0.70510000  0.45321000  0.84011000  1.0 0.1411850743
H  H234  1  0.77131000  0.43801000  0.89751000  1.0 0.1207376163
H  H235  1  0.71100000  0.37831000  0.80531000  1.0 0.1207376163
H  H236  1  0.73691000  0.38751000  0.94821000  1.0 0.128731186
H  H237  1  0.67080000  0.33991000  0.85371000  1.0 0.1207376163
H  H238  1  0.73840000  0.34741000  0.87301000  1.0 0.1207376163
H  H239  1  0.71251000  0.46831000  0.94221000  1.0 0.2710801132
H  H240  1  0.64901000  0.42471000  0.85551000  1.0 0.2710801132
H  H241  1  0.13501000  0.29490000  0.74810000  1.0 0.1411850743
H  H242  1  0.12621000  0.22870000  0.66666667  1.0 0.1207376163
H  H243  1  0.09431000  0.28900000  0.66730000  1.0 0.1207376163
H  H244  1  0.21131000  0.26310000  0.65060000  1.0 0.128731186
H  H245  1  0.18291000  0.32920000  0.66910000  1.0 0.1207376163
H  H246  1  0.13461000  0.26160000  0.60900000  1.0 0.1207376163
H  H247  1  0.22970000  0.28750000  0.75580000  1.0 0.2710801132
H  H248  1  0.20650000  0.35100000  0.77570000  1.0 0.2710801132
H  H249  1  0.54680000  0.38690000  0.25190000  1.0 0.1411850743
H  H250  1  0.56200000  0.45951000  0.33333333  1.0 0.1207376163
H  H251  1  0.62169000  0.42701000  0.33270000  1.0 0.1207376163
H  H252  1  0.61250000  0.56071000  0.34940000  1.0 0.128731186
H  H253  1  0.66010000  0.51380000  0.33090000  1.0 0.1207376163
H  H254  1  0.65259000  0.52561000  0.39100000  1.0 0.1207376163
H  H255  1  0.53170000  0.47391000  0.24420000  1.0 0.2710801132
H  H256  1  0.57530000  0.43081000  0.22430000  1.0 0.2710801132
H  H257  1  0.04489000  0.38501000  0.24810000  1.0 0.1411850743
H  H258  1  0.97869000  0.37621000  0.16670000  1.0 0.128731186
H  H259  1  0.03900000  0.34431000  0.16730000  1.0 0.1207376163
H  H260  1  0.01310000  0.46131000  0.15060000  1.0 0.128731186
H  H261  1  0.07919000  0.43291000  0.16910000  1.0 0.1207376163
H  H262  1  0.01160000  0.38461000  0.10900000  1.0 0.1207376163
H  H263  1  0.03750000  0.47971000  0.25580000  1.0 0.2710801132
H  H264  1  0.10100000  0.45651000  0.27570000  1.0 0.2710801132
H  H265  1  0.13691000  0.79680000  0.75190000  1.0 0.1411850743
H  H266  1  0.20951000  0.81200000  0.83330000  1.0 0.1207376163
H  H267  1  0.17701000  0.87170000  0.83270000  1.0 0.1207376163
H  H268  1  0.31071000  0.86250000  0.84940000  1.0 0.128731186
H  H269  1  0.26381000  0.91010000  0.83090000  1.0 0.1207376163
H  H270  1  0.27561000  0.90260000  0.89100000  1.0 0.1207376163
H  H271  1  0.22391000  0.78170000  0.74420000  1.0 0.2710801132
H  H272  1  0.18081000  0.82530000  0.72430000  1.0 0.2710801132
H  H273  1  0.20320000  0.95511000  0.34011000  1.0 0.1411850743
H  H274  1  0.18801000  0.02131000  0.39751000  1.0 0.1207376163
H  H275  1  0.12830000  0.96101000  0.30531000  1.0 0.1207376163
H  H276  1  0.13750000  0.98691000  0.44821000  1.0 0.128731186
H  H277  1  0.08991000  0.92080000  0.35371000  1.0 0.1207376163
H  H278  1  0.09741000  0.98840000  0.37301000  1.0 0.1207376163
H  H279  1  0.21830000  0.96251000  0.44221000  1.0 0.2710801132
H  H280  1  0.17471000  0.89901000  0.35551000  1.0 0.2710801132
H  H281  1  0.61499000  0.86310000  0.65989000  1.0 0.1411850743
H  H282  1  0.62379000  0.79050000  0.60249000  1.0 0.1207376163
H  H283  1  0.65570000  0.82300000  0.69469000  1.0 0.1207376163
H  H284  1  0.53870000  0.68930000  0.55179000  1.0 0.128731186
H  H285  1  0.56709000  0.73620000  0.64629000  1.0 0.1207376163
H  H286  1  0.61539000  0.72440000  0.62699000  1.0 0.1207376163
H  H287  1  0.52030000  0.77609000  0.55779000  1.0 0.2710801132
H  H288  1  0.54349000  0.81920000  0.64449000  1.0 0.275395116
C  C1  1  0.42964000  0.00465000  0.68759000  1.0 0.5513974076
C  C2  1  0.31705000  0.74206000  0.31241000  1.0 0.5513974076
C  C3  1  0.99536000  0.68295000  0.42500000  1.0 0.5513974076
C  C4  1  0.25794000  0.57036000  0.57500000  1.0 0.5513974076
C  C5  1  0.43295000  0.24536000  0.92500000  1.0 0.5513974076
C  C6  1  0.32036000  0.50794000  0.07500000  1.0 0.5513974076
C  C7  1  0.49206000  0.56706000  0.81241000  1.0 0.5513974076
C  C8  1  0.75464000  0.67965000  0.18759000  1.0 0.5513974076
C  C9  1  0.36488000  0.97388000  0.64939000  1.0 -0.0202189722
C  C10  1  0.32448000  0.71549000  0.35061000  1.0 -0.0202189722
C  C11  1  0.02613000  0.67551000  0.39100000  1.0 -0.0202189722
C  C12  1  0.28452000  0.63513000  0.60900000  1.0 -0.0202189722
C  C13  1  0.42552000  0.27613000  0.89100000  1.0 -0.0202189722
C  C14  1  0.38512000  0.53451000  0.10900000  1.0 -0.0202189722
C  C15  1  0.46548000  0.57449000  0.85061000  1.0 -0.0202189722
C  C16  1  0.72387000  0.61488000  0.14939000  1.0 -0.0202189722
C  C17  1  0.34137000  0.90458000  0.59299000  1.0 -0.1491278222
C  C18  1  0.31158000  0.74839000  0.40701000  1.0 -0.1491278222
C  C19  1  0.09542000  0.68842000  0.43680000  1.0 -0.1491278222
C  C20  1  0.25162000  0.65863000  0.56320000  1.0 -0.1491278222
C  C21  1  0.43841000  0.34543000  0.93680000  1.0 -0.1491278222
C  C22  1  0.40862000  0.50162000  0.06320000  1.0 -0.1491278222
C  C23  1  0.49839000  0.56159000  0.90701000  1.0 -0.1491278222
C  C24  1  0.65458000  0.59137000  0.09299000  1.0 -0.1491278222
C  C25  1  0.27770000  0.87971000  0.55459000  1.0 -0.1491278222
C  C26  1  0.32511000  0.72312000  0.44541000  1.0 -0.1491278222
C  C27  1  0.12030000  0.67488000  0.39800000  1.0 -0.1491278222
C  C28  1  0.27689000  0.72230000  0.60200000  1.0 -0.1491278222
C  C29  1  0.42489000  0.37030000  0.89800000  1.0 -0.1491278222
C  C30  1  0.47229000  0.52689000  0.10200000  1.0 -0.1491278222
C  C31  1  0.47312000  0.57512000  0.94541000  1.0 -0.1491278222
C  C32  1  0.62971000  0.52770000  0.05459000  1.0 -0.1491278222
C  C33  1  0.23753000  0.92423000  0.57269000  1.0 -0.0104734259
C  C34  1  0.35154000  0.66483000  0.42731000  1.0 -0.0104734259
C  C35  1  0.07578000  0.64846000  0.31330000  1.0 -0.0104734259
C  C36  1  0.33516000  0.76248000  0.68670000  1.0 -0.0104734259
C  C37  1  0.39847000  0.32578000  0.81330000  1.0 -0.0104734259
C  C38  1  0.51248000  0.58517000  0.18670000  1.0 -0.0104734259
C  C39  1  0.41484000  0.60154000  0.92731000  1.0 -0.0104734259
C  C40  1  0.67422000  0.48752000  0.07269000  1.0 -0.0104734259
C  C41  1  0.26112000  0.99352000  0.62919000  1.0 0.1799925288
C  C42  1  0.36434000  0.63194000  0.37081000  1.0 0.1799925288
C  C43  1  0.00648000  0.63567000  0.26760000  1.0 0.1799925288
C  C44  1  0.36806000  0.73888000  0.73240000  1.0 0.1799925288
C  C45  1  0.38566000  0.25648000  0.76760000  1.0 0.1799925288
C  C46  1  0.48888000  0.61806000  0.23240000  1.0 0.1799925288
C  C47  1  0.38193000  0.61434000  0.87081000  1.0 0.1799925288
C  C48  1  0.74352000  0.51113000  0.12919000  1.0 0.1799925288
C  C49  1  0.32480000  0.01840000  0.66759000  1.0 -0.2382294822
C  C50  1  0.35080000  0.65721000  0.33241000  1.0 -0.2382294822
C  C51  1  0.98160000  0.64920000  0.30640000  1.0 -0.2382294822
C  C52  1  0.34280000  0.67521000  0.69360000  1.0 -0.2382294822
C  C53  1  0.39920000  0.23161000  0.80640000  1.0 -0.2382294822
C  C54  1  0.42520000  0.59279000  0.19360000  1.0 -0.2382294822
C  C55  1  0.40721000  0.60081000  0.83241000  1.0 -0.2382294822
C  C56  1  0.76840000  0.57479000  0.16759000  1.0 -0.2382294822
C  C57  1  0.16651000  0.89691000  0.52539000  1.0 -0.0202189722
C  C58  1  0.37151000  0.64111000  0.47461000  1.0 -0.0202189722
C  C59  1  0.10309000  0.62848000  0.26960000  1.0 -0.0202189722
C  C60  1  0.35888000  0.83350000  0.73040000  1.0 -0.0202189722
C  C61  1  0.37849000  0.35310000  0.76960000  1.0 -0.0202189722
C  C62  1  0.58349000  0.60889000  0.23040000  1.0 -0.0202189722
C  C63  1  0.39112000  0.62152000  0.97461000  1.0 -0.0202189722
C  C64  1  0.64690000  0.41651000  0.02539000  1.0 -0.0202189722
C  C65  1  0.11531000  0.87611000  0.44379000  1.0 -0.1303505368
C  C66  1  0.43231000  0.67152000  0.55621000  1.0 -0.1303505368
C  C67  1  0.12389000  0.56768000  0.23920000  1.0 -0.1303505368
C  C68  1  0.32849000  0.88470000  0.76080000  1.0 -0.1303505368
C  C69  1  0.31768000  0.37389000  0.73920000  1.0 -0.1303505368
C  C70  1  0.63470000  0.57849000  0.26080000  1.0 -0.1303505368
C  C71  1  0.42152000  0.68232000  0.05621000  1.0 -0.1303505368
C  C72  1  0.62611000  0.36531000  0.94379000  1.0 -0.1303505368
C  C73  1  0.04919000  0.85198000  0.40199000  1.0 -0.1188421201
C  C74  1  0.44999000  0.64719000  0.59801000  1.0 -0.1188421201
C  C75  1  0.14802000  0.55000000  0.19720000  1.0 -0.1188421201
C  C76  1  0.35280000  0.95081000  0.80280000  1.0 -0.1188421201
C  C77  1  0.30001000  0.39802000  0.69720000  1.0 -0.1188421201
C  C78  1  0.70081000  0.60281000  0.30280000  1.0 -0.1188421201
C  C79  1  0.39720000  0.70000000  0.09801000  1.0 -0.1188421201
C  C80  1  0.60199000  0.29919000  0.90199000  1.0 -0.1188421201
C  C81  1  0.03533000  0.84754000  0.44019000  1.0 -0.0104734259
C  C82  1  0.40734000  0.59515000  0.55981000  1.0 -0.0104734259
C  C83  1  0.15246000  0.59266000  0.18780000  1.0 -0.0104734259
C  C84  1  0.40486000  0.96467000  0.81220000  1.0 -0.0104734259
C  C85  1  0.34266000  0.40247000  0.68780000  1.0 -0.0104734259
C  C86  1  0.71466000  0.65485000  0.31220000  1.0 -0.0104734259
C  C87  1  0.34514000  0.65734000  0.05981000  1.0 -0.0104734259
C  C88  1  0.59753000  0.28534000  0.94019000  1.0 -0.0104734259
C  C89  1  0.08645000  0.86926000  0.52099000  1.0 -0.2382294822
C  C90  1  0.34826000  0.56547000  0.47901000  1.0 -0.2382294822
C  C91  1  0.13074000  0.65174000  0.21720000  1.0 -0.2382294822
C  C92  1  0.43453000  0.91355000  0.78280000  1.0 -0.2382294822
C  C93  1  0.40174000  0.38075000  0.71720000  1.0 -0.2382294822
C  C94  1  0.66355000  0.68454000  0.28280000  1.0 -0.2382294822
C  C95  1  0.31547000  0.59827000  0.97901000  1.0 -0.2382294822
C  C96  1  0.61925000  0.33646000  0.02099000  1.0 -0.2382294822
C  C97  1  0.15269000  0.89499000  0.56609000  1.0 0.2137171386
C  C98  1  0.32889000  0.58660000  0.43391000  1.0 0.2137171386
C  C99  1  0.10501000  0.67110000  0.25770000  1.0 0.2137171386
C  C100  1  0.41341000  0.84732000  0.74230000  1.0 0.2137171386
C  C101  1  0.42111000  0.35502000  0.75770000  1.0 0.2137171386
C  C102  1  0.59732000  0.66341000  0.24230000  1.0 0.2137171386
C  C103  1  0.33660000  0.57890000  0.93391000  1.0 0.2137171386
C  C104  1  0.64498000  0.40269000  0.06609000  1.0 0.2137171386
C  C105  1  0.96511000  0.82722000  0.39949000  1.0 0.5702229498
C  C106  1  0.42772000  0.56563000  0.60051000  1.0 0.5702229498
C  C107  1  0.17279000  0.57227000  0.13790000  1.0 0.5702229498
C  C108  1  0.43438000  0.03489000  0.86210000  1.0 0.5702229498
C  C109  1  0.32228000  0.42279000  0.63790000  1.0 0.5702229498
C  C110  1  0.78488000  0.68437000  0.36210000  1.0 0.5702229498
C  C111  1  0.31562000  0.67773000  0.10051000  1.0 0.5702229498
C  C112  1  0.57722000  0.21512000  0.89949000  1.0 0.5702229498
C  C113  1  0.25731000  0.10441000  0.74149000  1.0 -0.2382294822
C  C114  1  0.36291000  0.51582000  0.25851000  1.0 -0.2382294822
C  C115  1  0.89559000  0.63709000  0.15290000  1.0 -0.2382294822
C  C116  1  0.48418000  0.74269000  0.84710000  1.0 -0.2382294822
C  C117  1  0.38709000  0.14560000  0.65290000  1.0 -0.2382294822
C  C118  1  0.49269000  0.73419000  0.34710000  1.0 -0.2382294822
C  C119  1  0.26582000  0.61291000  0.75851000  1.0 -0.2382294822
C  C120  1  0.85440000  0.50731000  0.24149000  1.0 -0.2382294822
C  C121  1  0.17330000  0.93449000  0.68999000  1.0 -0.2292976173
C  C122  1  0.24450000  0.48331000  0.31001000  1.0 -0.2292976173
C  C123  1  0.06551000  0.75550000  0.23880000  1.0 -0.2292976173
C  C124  1  0.51670000  0.82671000  0.76120000  1.0 -0.2292976173
C  C125  1  0.50549000  0.31551000  0.73880000  1.0 -0.2292976173
C  C126  1  0.57671000  0.76670000  0.26120000  1.0 -0.2292976173
C  C127  1  0.23330000  0.49451000  0.81001000  1.0 -0.2292976173
C  C128  1  0.68449000  0.42330000  0.18999000  1.0 -0.2292976173
C  C129  1  0.59229000  0.23300000  0.09669000  1.0 0.5513974076
C  C130  1  0.13630000  0.49561000  0.90331000  1.0 0.5513974076
C  C131  1  0.76701000  0.86369000  0.35930000  1.0 0.5513974076
C  C132  1  0.50440000  0.40770000  0.64070000  1.0 0.5513974076
C  C133  1  0.61369000  0.01701000  0.85930000  1.0 0.5513974076
C  C134  1  0.15771000  0.75440000  0.14070000  1.0 0.5513974076
C  C135  1  0.24560000  0.38631000  0.40331000  1.0 0.5513974076
C  C136  1  0.98299000  0.84230000  0.59669000  1.0 0.5513974076
C  C137  1  0.66380000  0.26240000  0.14779000  1.0 -0.0104734259
C  C138  1  0.11462000  0.51602000  0.85221000  1.0 -0.0104734259
C  C139  1  0.73759000  0.88538000  0.40140000  1.0 -0.0104734259
C  C140  1  0.48398000  0.33620000  0.59860000  1.0 -0.0104734259
C  C141  1  0.63538000  0.98760000  0.90140000  1.0 -0.0104734259
C  C142  1  0.08619000  0.73398000  0.09860000  1.0 -0.0104734259
C  C143  1  0.26601000  0.36462000  0.35221000  1.0 -0.0104734259
C  C144  1  0.01240000  0.91381000  0.64779000  1.0 -0.0104734259
C  C145  1  0.69068000  0.22579000  0.10229000  1.0 -0.2382294822
C  C146  1  0.12350000  0.58840000  0.89771000  1.0 -0.2382294822
C  C147  1  0.77421000  0.87651000  0.46490000  1.0 -0.2382294822
C  C148  1  0.41161000  0.30932000  0.53510000  1.0 -0.2382294822
C  C149  1  0.62650000  0.02422000  0.96490000  1.0 -0.2382294822
C  C150  1  0.05932000  0.66160000  0.03510000  1.0 -0.2382294822
C  C151  1  0.33839000  0.37350000  0.39771000  1.0 -0.2382294822
C  C152  1  0.97579000  0.94068000  0.60229000  1.0 -0.2382294822
C  C153  1  0.75548000  0.25457000  0.14889000  1.0 0.1719911082
C  C154  1  0.10568000  0.60659000  0.85111000  1.0 0.1719911082
C  C155  1  0.74542000  0.89432000  0.50090000  1.0 0.1719911082
C  C156  1  0.39342000  0.24453000  0.49910000  1.0 0.1719911082
C  C157  1  0.64431000  0.99543000  0.00090000  1.0 0.1719911082
C  C158  1  0.99452000  0.64342000  0.99910000  1.0 0.1719911082
C  C159  1  0.35659000  0.35569000  0.35111000  1.0 0.1719911082
C  C160  1  0.00458000  0.00548000  0.64889000  1.0 0.1719911082
C  C161  1  0.79694000  0.30574000  0.23079000  1.0 -0.0104734259
C  C162  1  0.07496000  0.56615000  0.76921000  1.0 -0.0104734259
C  C163  1  0.69426000  0.92505000  0.49120000  1.0 -0.0104734259
C  C164  1  0.43384000  0.20306000  0.50880000  1.0 -0.0104734259
C  C165  1  0.67505000  0.94426000  0.99120000  1.0 -0.0104734259
C  C166  1  0.95305000  0.68385000  0.00880000  1.0 -0.0104734259
C  C167  1  0.31616000  0.32496000  0.26921000  1.0 -0.0104734259
C  C168  1  0.05575000  0.04695000  0.73079000  1.0 -0.0104734259
C  C169  1  0.77082000  0.33672000  0.27489000  1.0 -0.1491278222
C  C170  1  0.06184000  0.49594000  0.72511000  1.0 -0.1491278222
C  C171  1  0.66327000  0.93817000  0.43410000  1.0 -0.1491278222
C  C172  1  0.50406000  0.22918000  0.56590000  1.0 -0.1491278222
C  C173  1  0.68817000  0.91327000  0.93410000  1.0 -0.1491278222
C  C174  1  0.97917000  0.75406000  0.06590000  1.0 -0.1491278222
C  C175  1  0.24593000  0.31183000  0.22511000  1.0 -0.1491278222
C  C176  1  0.08673000  0.02083000  0.77489000  1.0 -0.1491278222
C  C177  1  0.70085000  0.31536000  0.22949000  1.0 -0.1389535114
C  C178  1  0.08586000  0.47137000  0.77051000  1.0 -0.1389535114
C  C179  1  0.68464000  0.91414000  0.38550000  1.0 -0.1389535114
C  C180  1  0.52863000  0.29915000  0.61450000  1.0 -0.1389535114
C  C181  1  0.66414000  0.93465000  0.88550000  1.0 -0.1389535114
C  C182  1  0.04914000  0.77863000  0.11450000  1.0 -0.1389535114
C  C183  1  0.22137000  0.33587000  0.27051000  1.0 -0.1389535114
C  C184  1  0.06536000  0.95086000  0.72949000  1.0 -0.1389535114
C  C185  1  0.86935000  0.33005000  0.27989000  1.0 -0.0202189722
C  C186  1  0.05017000  0.58947000  0.72011000  1.0 -0.0202189722
C  C187  1  0.66994000  0.94983000  0.53930000  1.0 -0.0202189722
C  C188  1  0.41054000  0.13065000  0.46070000  1.0 -0.0202189722
C  C189  1  0.69983000  0.91995000  0.03930000  1.0 -0.0202189722
C  C190  1  0.88065000  0.66053000  0.96070000  1.0 -0.0202189722
C  C191  1  0.33947000  0.30017000  0.22011000  1.0 -0.0202189722
C  C192  1  0.08005000  0.11936000  0.77989000  1.0 -0.0202189722
C  C193  1  0.91446000  0.28686000  0.28179000  1.0 -0.1303505368
C  C194  1  0.00507000  0.63267000  0.71821000  1.0 -0.1303505368
C  C195  1  0.71314000  0.99494000  0.62760000  1.0 -0.1303505368
C  C196  1  0.36733000  0.08555000  0.37240000  1.0 -0.1303505368
C  C197  1  0.74494000  0.96315000  0.12760000  1.0 -0.1303505368
C  C198  1  0.83554000  0.61734000  0.87240000  1.0 -0.1303505368
C  C199  1  0.38266000  0.25507000  0.21821000  1.0 -0.1303505368
C  C200  1  0.03686000  0.16446000  0.78179000  1.0 -0.1303505368
C  C201  1  0.98230000  0.30569000  0.32419000  1.0 -0.1098916948
C  C202  1  0.98151000  0.65811000  0.67581000  1.0 -0.1098916948
C  C203  1  0.69430000  0.01849000  0.67660000  1.0 -0.1098916948
C  C204  1  0.34190000  0.01771000  0.32340000  1.0 -0.1098916948
C  C205  1  0.76849000  0.94430000  0.17660000  1.0 -0.1098916948
C  C206  1  0.76770000  0.59190000  0.82340000  1.0 -0.1098916948
C  C207  1  0.40811000  0.23151000  0.17581000  1.0 -0.1098916948
C  C208  1  0.05570000  0.23230000  0.82419000  1.0 -0.1098916948
C  C209  1  0.00559000  0.37339000  0.37099000  1.0 -0.0295705267
C  C210  1  0.00239000  0.63460000  0.62901000  1.0 -0.0295705267
C  C211  1  0.62661000  0.99760000  0.63220000  1.0 -0.0295705267
C  C212  1  0.36540000  0.99442000  0.36780000  1.0 -0.0295705267
C  C213  1  0.74760000  0.87662000  0.13220000  1.0 -0.0295705267
C  C214  1  0.74442000  0.61541000  0.86780000  1.0 -0.0295705267
C  C215  1  0.38459000  0.25240000  0.12901000  1.0 -0.0295705267
C  C216  1  0.12339000  0.25559000  0.87099000  1.0 -0.0295705267
C  C217  1  0.96103000  0.41894000  0.37149000  1.0 -0.2190371881
C  C218  1  0.04745000  0.58955000  0.62851000  1.0 -0.2190371881
C  C219  1  0.58106000  0.95256000  0.54210000  1.0 -0.2190371881
C  C220  1  0.41046000  0.03897000  0.45790000  1.0 -0.2190371881
C  C221  1  0.70256000  0.83107000  0.04210000  1.0 -0.2190371881
C  C222  1  0.78896000  0.66046000  0.95790000  1.0 -0.2190371881
C  C223  1  0.33954000  0.29745000  0.12851000  1.0 -0.2190371881
C  C224  1  0.16894000  0.21104000  0.87149000  1.0 -0.2190371881
C  C225  1  0.89629000  0.39449000  0.32719000  1.0 0.1863220094
C  C226  1  0.06730000  0.56910000  0.67281000  1.0 0.1863220094
C  C227  1  0.60551000  0.93271000  0.50180000  1.0 0.1863220094
C  C228  1  0.43091000  0.10372000  0.49820000  1.0 0.1863220094
C  C229  1  0.68270000  0.85552000  0.00180000  1.0 0.1863220094
C  C230  1  0.85372000  0.68090000  0.99820000  1.0 0.1863220094
C  C231  1  0.31909000  0.31730000  0.17281000  1.0 0.1863220094
C  C232  1  0.14448000  0.14629000  0.82719000  1.0 0.1863220094
C  C233  1  0.07493000  0.39792000  0.41499000  1.0 0.5434074608
C  C234  1  0.98294000  0.65994000  0.58501000  1.0 0.5434074608
C  C235  1  0.60208000  0.01707000  0.67700000  1.0 0.5434074608
C  C236  1  0.34007000  0.92508000  0.32300000  1.0 0.5434074608
C  C237  1  0.76706000  0.85208000  0.17700000  1.0 0.5434074608
C  C238  1  0.67507000  0.59006000  0.82300000  1.0 0.5434074608
C  C239  1  0.40993000  0.23294000  0.08501000  1.0 0.5434074608
C  C240  1  0.14793000  0.32493000  0.91499000  1.0 0.5434074608
C  C241  1  0.74757000  0.16578000  0.02279000  1.0 -0.210392529
C  C242  1  0.14299000  0.72479000  0.97721000  1.0 -0.210392529
C  C243  1  0.83422000  0.85702000  0.58180000  1.0 -0.210392529
C  C244  1  0.27521000  0.25243000  0.41820000  1.0 -0.210392529
C  C245  1  0.60701000  0.08422000  0.08180000  1.0 -0.210392529
C  C246  1  0.00243000  0.52522000  0.91820000  1.0 -0.210392529
C  C247  1  0.47478000  0.39299000  0.47721000  1.0 -0.210392529
C  C248  1  0.91578000  0.99757000  0.52279000  1.0 -0.210392529
C  C249  1  0.86991000  0.51780000  0.39289000  1.0 -0.2671190815
C  C250  1  0.12491000  0.47702000  0.60711000  1.0 -0.2671190815
C  C251  1  0.48219000  0.87509000  0.35210000  1.0 -0.2671190815
C  C252  1  0.52299000  0.13010000  0.64790000  1.0 -0.2671190815
C  C253  1  0.62509000  0.73220000  0.85210000  1.0 -0.2671190815
C  C254  1  0.88009000  0.77299000  0.14790000  1.0 -0.2671190815
C  C255  1  0.22701000  0.37491000  0.10711000  1.0 -0.2671190815
C  C256  1  0.26781000  0.11991000  0.89289000  1.0 -0.2671190815
C  C257  1  0.56912000  0.86791000  0.14499000  1.0 -0.2624092492
C  C258  1  0.47941000  0.82041000  0.10879000  1.0 -0.2961852158
C  C259  1  0.72293000  0.42412000  0.85501000  1.0 -0.2624092492
C  C260  1  0.71161000  0.37062000  0.89121000  1.0 -0.2961852158
C  C261  1  0.13208000  0.27708000  0.70120000  1.0 -0.2624092492
C  C262  1  0.17959000  0.28839000  0.65900000  1.0 -0.2961852158
C  C263  1  0.57588000  0.43089000  0.29880000  1.0 -0.2624092492
C  C264  1  0.62938000  0.52060000  0.34100000  1.0 -0.2961852158
C  C265  1  0.02708000  0.38209000  0.20120000  1.0 -0.2624092492
C  C266  1  0.03839000  0.42960000  0.15900000  1.0 -0.2961852158
C  C267  1  0.18089000  0.82588000  0.79880000  1.0 -0.2624092492
C  C268  1  0.27060000  0.87939000  0.84100000  1.0 -0.2961852158
C  C269  1  0.17413000  0.97293000  0.35501000  1.0 -0.2624092492
C  C270  1  0.12061000  0.96161000  0.39121000  1.0 -0.2961852158
C  C271  1  0.61791000  0.81912000  0.64499000  1.0 -0.2624092492
C  C272  1  0.57041000  0.72940000  0.60879000  1.0 -0.2961852158
N  N1  1  0.53915000  0.80476000  0.11059000  1.0 -0.1303505368
N  N2  1  0.69417000  0.42857000  0.88941000  1.0 -0.1303505368
N  N3  1  0.19525000  0.30584000  0.73440000  1.0 -0.1303505368
N  N4  1  0.57144000  0.46085000  0.26560000  1.0 -0.1303505368
N  N5  1  0.05583000  0.44525000  0.23440000  1.0 -0.1303505368
N  N6  1  0.21084000  0.82144000  0.76560000  1.0 -0.1303505368
N  N7  1  0.17856000  0.94417000  0.38941000  1.0 -0.1303505368
N  N8  1  0.55475000  0.78916000  0.61059000  1.0 -0.1303505368
O  O1  1  0.28019000  0.88999000  0.43539000  1.0 -0.6592952402
O  O2  1  0.45460000  0.84481000  0.56461000  1.0 -0.6592952402
O  O3  1  0.11001000  0.54540000  0.39020000  1.0 -0.6592952402
O  O4  1  0.15519000  0.71981000  0.60980000  1.0 -0.6592952402
O  O5  1  0.29539000  0.36001000  0.89020000  1.0 -0.6592952402
O  O6  1  0.46980000  0.40520000  0.10980000  1.0 -0.6592952402
O  O7  1  0.59481000  0.70461000  0.06461000  1.0 -0.6592952402
O  O8  1  0.63999000  0.53020000  0.93539000  1.0 -0.6592952402
O  O9  1  0.46432000  0.95954000  0.66275000  1.0 -0.5553182157
O  O10  1  0.29679000  0.80156000  0.33725000  1.0 -0.5553182157
O  O11  1  0.04047000  0.70322000  0.50478000  1.0 -0.5553182157
O  O12  1  0.19844000  0.53569000  0.49522000  1.0 -0.5553182157
O  O13  1  0.45321000  0.29046000  0.00478000  1.0 -0.5553182157
O  O14  1  0.28569000  0.44844000  0.99522000  1.0 -0.5553182157
O  O15  1  0.55156000  0.54679000  0.83725000  1.0 -0.5553182157
O  O16  1  0.70954000  0.71432000  0.16275000  1.0 -0.5553182157
O  O17  1  0.45274000  0.06459000  0.73974000  1.0 -0.5108808333
O  O18  1  0.32484000  0.71300000  0.26026000  1.0 -0.5108808333
O  O19  1  0.93542000  0.67516000  0.38815000  1.0 -0.5108808333
O  O20  1  0.28700000  0.54727000  0.61185000  1.0 -0.5108808333
O  O21  1  0.42516000  0.18542000  0.88815000  1.0 -0.5108808333
O  O22  1  0.29726000  0.53701000  0.11185000  1.0 -0.5108808333
O  O23  1  0.46299000  0.57485000  0.76026000  1.0 -0.5108808333
O  O24  1  0.81458000  0.70274000  0.23974000  1.0 -0.5108808333
O  O25  1  0.91683000  0.82022000  0.32990000  1.0 -0.5503480824
O  O26  1  0.49032000  0.58693000  0.67010000  1.0 -0.5503480824
O  O27  1  0.17979000  0.50969000  0.09661000  1.0 -0.5503480824
O  O28  1  0.41307000  0.08318000  0.90339000  1.0 -0.5503480824
O  O29  1  0.25968000  0.42979000  0.59661000  1.0 -0.5503480824
O  O30  1  0.83317000  0.66307000  0.40339000  1.0 -0.5503480824
O  O31  1  0.33692000  0.74031000  0.17010000  1.0 -0.5503480824
O  O32  1  0.57022000  0.16683000  0.82990000  1.0 -0.5503480824
O  O33  1  0.95659000  0.80799000  0.42220000  1.0 -0.4826181585
O  O34  1  0.38579000  0.53440000  0.57780000  1.0 -0.4826181585
O  O35  1  0.19201000  0.61421000  0.14861000  1.0 -0.4826181585
O  O36  1  0.46561000  0.04340000  0.85139000  1.0 -0.4826181585
O  O37  1  0.36422000  0.44202000  0.64861000  1.0 -0.4826181585
O  O38  1  0.79341000  0.71561000  0.35139000  1.0 -0.4826181585
O  O39  1  0.28439000  0.63579000  0.07780000  1.0 -0.4826181585
O  O40  1  0.55798000  0.20660000  0.92220000  1.0 -0.4826181585
O  O41  1  0.22360000  0.03770000  0.65941000  1.0 -0.1820963062
O  O42  1  0.37829000  0.56419000  0.34059000  1.0 -0.1820963062
O  O43  1  0.96230000  0.62172000  0.18590000  1.0 -0.1820963062
O  O44  1  0.43582000  0.77641000  0.81410000  1.0 -0.1820963062
O  O45  1  0.37172000  0.21231000  0.68590000  1.0 -0.1820963062
O  O46  1  0.52641000  0.68581000  0.31410000  1.0 -0.1820963062
O  O47  1  0.31418000  0.62828000  0.84059000  1.0 -0.1820963062
O  O48  1  0.78770000  0.47360000  0.15941000  1.0 -0.1820963062
O  O49  1  0.19776000  0.91956000  0.64924000  1.0 -0.1389535114
O  O50  1  0.27032000  0.54853000  0.35076000  1.0 -0.1389535114
O  O51  1  0.08045000  0.72969000  0.27821000  1.0 -0.1389535114
O  O52  1  0.45148000  0.80224000  0.72179000  1.0 -0.1389535114
O  O53  1  0.47969000  0.33045000  0.77821000  1.0 -0.1389535114
O  O54  1  0.55224000  0.70148000  0.22179000  1.0 -0.1389535114
O  O55  1  0.29853000  0.52031000  0.85076000  1.0 -0.1389535114
O  O56  1  0.66956000  0.44777000  0.14924000  1.0 -0.1389535114
O  O57  1  0.55985000  0.18216000  0.02315000  1.0 -0.5108808333
O  O58  1  0.15901000  0.53671000  0.97685000  1.0 -0.5108808333
O  O59  1  0.81785000  0.84100000  0.37770000  1.0 -0.5108808333
O  O60  1  0.46330000  0.44015000  0.62230000  1.0 -0.5108808333
O  O61  1  0.59099000  0.06785000  0.87770000  1.0 -0.5108808333
O  O62  1  0.19015000  0.71330000  0.12230000  1.0 -0.5108808333
O  O63  1  0.28670000  0.40901000  0.47685000  1.0 -0.5108808333
O  O64  1  0.93215000  0.80985000  0.52315000  1.0 -0.5108808333
O  O65  1  0.56558000  0.26894000  0.13234000  1.0 -0.5108808333
O  O66  1  0.13661000  0.43324000  0.86766000  1.0 -0.5108808333
O  O67  1  0.73105000  0.86340000  0.29663000  1.0 -0.5108808333
O  O68  1  0.56676000  0.43443000  0.70337000  1.0 -0.5108808333
O  O69  1  0.61340000  0.98106000  0.79663000  1.0 -0.5108808333
O  O70  1  0.18443000  0.81677000  0.20337000  1.0 -0.5108808333
O  O71  1  0.18324000  0.38660000  0.36766000  1.0 -0.5108808333
O  O72  1  0.01894000  0.81558000  0.63234000  1.0 -0.5108808333
O  O73  1  0.11687000  0.35675000  0.41550000  1.0 -0.5108808333
O  O74  1  0.94125000  0.70137000  0.58450000  1.0 -0.5108808333
O  O75  1  0.64324000  0.05874000  0.76011000  1.0 -0.5108808333
O  O76  1  0.29863000  0.88314000  0.23989000  1.0 -0.5108808333
O  O77  1  0.80875000  0.89324000  0.26011000  1.0 -0.5108808333
O  O78  1  0.63314000  0.54864000  0.73989000  1.0 -0.5108808333
O  O79  1  0.45137000  0.19126000  0.08450000  1.0 -0.5108808333
O  O80  1  0.10676000  0.36686000  0.91550000  1.0 -0.5108808333
O  O81  1  0.09897000  0.45748000  0.46009000  1.0 -0.5006505342
O  O82  1  0.99738000  0.63889000  0.53991000  1.0 -0.5006505342
O  O83  1  0.54253000  0.00262000  0.64150000  1.0 -0.5006505342
O  O84  1  0.36111000  0.90103000  0.35850000  1.0 -0.5006505342
O  O85  1  0.75262000  0.79253000  0.14150000  1.0 -0.5006505342
O  O86  1  0.65103000  0.61112000  0.85850000  1.0 -0.5006505342
O  O87  1  0.38888000  0.24738000  0.03991000  1.0 -0.5006505342
O  O88  1  0.20748000  0.34898000  0.96009000  1.0 -0.5006505342
O  O89  1  0.78682000  0.22070000  0.10841000  1.0 -0.1744946482
O  O90  1  0.11229000  0.67841000  0.89159000  1.0 -0.1820963062
O  O91  1  0.77930000  0.88772000  0.56612000  1.0 -0.1820963062
O  O92  1  0.32159000  0.21319000  0.43388000  1.0 -0.1820963062
O  O93  1  0.63772000  0.02931000  0.06612000  1.0 -0.1744946482
O  O94  1  0.96318000  0.57159000  0.93388000  1.0 -0.1744946482
O  O95  1  0.42840000  0.36229000  0.39159000  1.0 -0.1744946482
O  O96  1  0.97069000  0.03682000  0.60841000  1.0 -0.1744946482
O  O97  1  0.84913000  0.43932000  0.32672000  1.0 -0.2190371881
O  O98  1  0.11260000  0.52240000  0.67328000  1.0 -0.2190371881
O  O99  1  0.56069000  0.88740000  0.40981000  1.0 -0.2190371881
O  O100  1  0.47759000  0.15088000  0.59019000  1.0 -0.2190371881
O  O101  1  0.63740000  0.81069000  0.90981000  1.0 -0.2190371881
O  O102  1  0.90087000  0.72760000  0.09019000  1.0 -0.2190371881
O  O103  1  0.27241000  0.36260000  0.17328000  1.0 -0.2190371881
O  O104  1  0.18932000  0.09913000  0.82672000  1.0 -0.2190371881
O  O105  1  0.44239000  0.94149000  0.54609000  1.0 -0.2469068932
O  O106  1  0.39541000  0.89631000  0.45391000  1.0 -0.2469068932
O  O107  1  0.05851000  0.60460000  0.50090000  1.0 -0.2469068932
O  O108  1  0.10370000  0.55761000  0.49910000  1.0 -0.2469068932
O  O109  1  0.35459000  0.30851000  0.00090000  1.0 -0.2469068932
O  O110  1  0.30761000  0.35370000  0.99910000  1.0 -0.2469068932
O  O111  1  0.64631000  0.64541000  0.95391000  1.0 -0.2469068932
O  O112  1  0.69149000  0.69240000  0.04609000  1.0 -0.2469068932
