# DDEC6 charges by PACMAN v1.1 (https://github.com/mtap-research/PACMAN-charge/)
data_WECJIZ_FSR_pacman
_symmetry_space_group_name_H-M   'P 1'
_cell_length_a   25.19860000
_cell_length_b   25.19860000
_cell_length_c   22.72100000
_cell_angle_alpha   71.03420000
_cell_angle_beta   108.96600000
_cell_angle_gamma   76.31890000
_symmetry_Int_Tables_number   1
_chemical_formula_structural   Zn6H286C215S12(NO3)8
_chemical_formula_sum   'Zn12 H572 C430 S24 N16 O48'
_cell_volume   11921.71146090
_cell_formula_units_Z   2
loop_
 _symmetry_equiv_pos_site_id
 _symmetry_equiv_pos_as_xyz
  1  'x, y, z'
loop_
 _atom_site_type_symbol
 _atom_site_label
 _atom_site_symmetry_multiplicity
 _atom_site_fract_x
 _atom_site_fract_y
 _atom_site_fract_z
 _atom_site_occupancy
 _atom_site_charge
Zn  Zn1  1  0.46599000  0.47323000  0.59342000  1.0 0.7548728998
Zn  Zn2  1  0.47323000  0.46599000  0.90658000  1.0 0.7548728998
Zn  Zn3  1  0.53401000  0.52677000  0.40658000  1.0 0.7548728998
Zn  Zn4  1  0.52677000  0.53401000  0.09342000  1.0 0.7548728998
Zn  Zn5  1  0.48641000  0.99107000  0.27546000  1.0 0.8488598431
Zn  Zn6  1  0.99107000  0.48641000  0.22454000  1.0 0.8488598431
Zn  Zn7  1  0.51359000  0.00893000  0.72454000  1.0 0.8488598431
Zn  Zn8  1  0.00893000  0.51359000  0.77546000  1.0 0.8488598431
Zn  Zn9  1  0.45911000  0.06525000  0.34793000  1.0 0.8373860086
Zn  Zn10  1  0.06525000  0.45911000  0.15207000  1.0 0.8373860086
Zn  Zn11  1  0.54089000  0.93475000  0.65207000  1.0 0.8373860086
Zn  Zn12  1  0.93475000  0.54089000  0.84793000  1.0 0.8373860086
H  H1  1  0.34840000  0.67140000  0.40790000  1.0 0.1598590143
H  H2  1  0.67140000  0.34840000  0.09210000  1.0 0.1598590143
H  H3  1  0.65160000  0.32860000  0.59210000  1.0 0.1598590143
H  H4  1  0.32860000  0.65160000  0.90790000  1.0 0.1598590143
H  H5  1  0.40460000  0.92740000  0.49950000  1.0 0.138973343
H  H6  1  0.92740000  0.40460000  0.00050000  1.0 0.138973343
H  H7  1  0.59540000  0.07260000  0.50050000  1.0 0.138973343
H  H8  1  0.07260000  0.59540000  0.99950000  1.0 0.138973343
H  H9  1  0.69110000  0.27790000  0.75950000  1.0 0.1498026385
H  H10  1  0.27790000  0.69110000  0.74050000  1.0 0.1498026385
H  H11  1  0.30890000  0.72210000  0.24050000  1.0 0.1498026385
H  H12  1  0.72210000  0.30890000  0.25950000  1.0 0.1498026385
H  H13  1  0.89850000  0.41910000  0.66230000  1.0 0.138973343
H  H14  1  0.41910000  0.89850000  0.83770000  1.0 0.138973343
H  H15  1  0.10150000  0.58090000  0.33770000  1.0 0.138973343
H  H16  1  0.58090000  0.10150000  0.16230000  1.0 0.138973343
H  H17  1  0.64430000  0.96530000  0.54040000  1.0 0.138973343
H  H18  1  0.96530000  0.64430000  0.95960000  1.0 0.138973343
H  H19  1  0.35570000  0.03470000  0.45960000  1.0 0.138973343
H  H20  1  0.03470000  0.35570000  0.04040000  1.0 0.138973343
H  H21  1  0.91840000  0.70900000  0.59200000  1.0 0.1498026385
H  H22  1  0.70900000  0.91840000  0.90800000  1.0 0.1498026385
H  H23  1  0.08160000  0.29100000  0.40800000  1.0 0.1498026385
H  H24  1  0.29100000  0.08160000  0.09200000  1.0 0.1498026385
H  H25  1  0.42860000  0.48200000  0.45080000  1.0 0.1094546994
H  H26  1  0.48200000  0.42860000  0.04920000  1.0 0.1094546994
H  H27  1  0.57140000  0.51800000  0.54920000  1.0 0.1094546994
H  H28  1  0.51800000  0.57140000  0.95080000  1.0 0.1094546994
H  H29  1  0.46920000  0.34720000  0.62370000  1.0 0.1094546994
H  H30  1  0.34720000  0.46920000  0.87630000  1.0 0.1094546994
H  H31  1  0.53080000  0.65280000  0.37630000  1.0 0.1094546994
H  H32  1  0.65280000  0.53080000  0.12370000  1.0 0.1094546994
H  H33  1  0.40970000  0.42470000  0.39160000  1.0 0.130898769
H  H34  1  0.42470000  0.40970000  0.10840000  1.0 0.130898769
H  H35  1  0.59030000  0.57530000  0.60840000  1.0 0.130898769
H  H36  1  0.57530000  0.59030000  0.89160000  1.0 0.130898769
H  H37  1  0.44740000  0.28860000  0.57000000  1.0 0.130898769
H  H38  1  0.28860000  0.44740000  0.93000000  1.0 0.130898769
H  H39  1  0.55260000  0.71140000  0.43000000  1.0 0.130898769
H  H40  1  0.71140000  0.55260000  0.07000000  1.0 0.130898769
H  H41  1  0.41090000  0.32810000  0.39110000  1.0 0.1191439491
H  H42  1  0.32810000  0.41090000  0.10890000  1.0 0.1191439491
H  H43  1  0.58910000  0.67190000  0.60890000  1.0 0.1191439491
H  H44  1  0.67190000  0.58910000  0.89110000  1.0 0.1191439491
H  H45  1  0.42170000  0.24150000  0.50990000  1.0 0.130898769
H  H46  1  0.24150000  0.42170000  0.99010000  1.0 0.130898769
H  H47  1  0.57830000  0.75850000  0.49010000  1.0 0.1191439491
H  H48  1  0.75850000  0.57830000  0.00990000  1.0 0.130898769
H  H49  1  0.40640000  0.27020000  0.33800000  1.0 0.130898769
H  H50  1  0.27020000  0.40640000  0.16200000  1.0 0.130898769
H  H51  1  0.59360000  0.72980000  0.66200000  1.0 0.130898769
H  H52  1  0.72980000  0.59360000  0.83800000  1.0 0.130898769
H  H53  1  0.43780000  0.13980000  0.51690000  1.0 0.130898769
H  H54  1  0.13980000  0.43780000  0.98310000  1.0 0.130898769
H  H55  1  0.56220000  0.86020000  0.48310000  1.0 0.130898769
H  H56  1  0.86020000  0.56220000  0.01690000  1.0 0.130898769
H  H57  1  0.42190000  0.19830000  0.29810000  1.0 0.1191439491
H  H58  1  0.19830000  0.42190000  0.20190000  1.0 0.1191439491
H  H59  1  0.57810000  0.80170000  0.70190000  1.0 0.1191439491
H  H60  1  0.80170000  0.57810000  0.79810000  1.0 0.1191439491
H  H61  1  0.45290000  0.07190000  0.47250000  1.0 0.1191439491
H  H62  1  0.07190000  0.45290000  0.02750000  1.0 0.1191439491
H  H63  1  0.54710000  0.92810000  0.52750000  1.0 0.1191439491
H  H64  1  0.92810000  0.54710000  0.97250000  1.0 0.1191439491
H  H65  1  0.05300000  0.44960000  0.69910000  1.0 0.130898769
H  H66  1  0.44960000  0.05300000  0.80090000  1.0 0.130898769
H  H67  1  0.94700000  0.55040000  0.30090000  1.0 0.130898769
H  H68  1  0.55040000  0.94700000  0.19910000  1.0 0.130898769
H  H69  1  0.10590000  0.55530000  0.77400000  1.0 0.1094546994
H  H70  1  0.55530000  0.10590000  0.72600000  1.0 0.1094546994
H  H71  1  0.89410000  0.44470000  0.22600000  1.0 0.1094546994
H  H72  1  0.44470000  0.89410000  0.27400000  1.0 0.1094546994
H  H73  1  0.12330000  0.44110000  0.65740000  1.0 0.138973343
H  H74  1  0.44110000  0.12330000  0.84260000  1.0 0.138973343
H  H75  1  0.87670000  0.55890000  0.34260000  1.0 0.138973343
H  H76  1  0.55890000  0.87670000  0.15740000  1.0 0.138973343
H  H77  1  0.18340000  0.54580000  0.73930000  1.0 0.138973343
H  H78  1  0.54580000  0.18340000  0.76070000  1.0 0.138973343
H  H79  1  0.81660000  0.45420000  0.26070000  1.0 0.138973343
H  H80  1  0.45420000  0.81660000  0.23930000  1.0 0.138973343
H  H81  1  0.21200000  0.46000000  0.64740000  1.0 0.130898769
H  H82  1  0.46000000  0.21200000  0.85260000  1.0 0.130898769
H  H83  1  0.78800000  0.54000000  0.35260000  1.0 0.130898769
H  H84  1  0.54000000  0.78800000  0.14740000  1.0 0.130898769
H  H85  1  0.26100000  0.51540000  0.72160000  1.0 0.130898769
H  H86  1  0.51540000  0.26100000  0.77840000  1.0 0.130898769
H  H87  1  0.73900000  0.48460000  0.27840000  1.0 0.130898769
H  H88  1  0.48460000  0.73900000  0.22160000  1.0 0.130898769
H  H89  1  0.35470000  0.52290000  0.72560000  1.0 0.138973343
H  H90  1  0.52290000  0.35470000  0.77440000  1.0 0.138973343
H  H91  1  0.64530000  0.47710000  0.27440000  1.0 0.138973343
H  H92  1  0.47710000  0.64530000  0.22560000  1.0 0.138973343
H  H93  1  0.28120000  0.44580000  0.61030000  1.0 0.138973343
H  H94  1  0.44580000  0.28120000  0.88970000  1.0 0.138973343
H  H95  1  0.71880000  0.55420000  0.38970000  1.0 0.130898769
H  H96  1  0.55420000  0.71880000  0.11030000  1.0 0.138973343
H  H97  1  0.43050000  0.51190000  0.69010000  1.0 0.1094546994
H  H98  1  0.51190000  0.43050000  0.80990000  1.0 0.1094546994
H  H99  1  0.56950000  0.48810000  0.30990000  1.0 0.1094546994
H  H100  1  0.48810000  0.56950000  0.19010000  1.0 0.1094546994
H  H101  1  0.35770000  0.43810000  0.57730000  1.0 0.0996913972
H  H102  1  0.43810000  0.35770000  0.92270000  1.0 0.0996913972
H  H103  1  0.64230000  0.56190000  0.42270000  1.0 0.0996913972
H  H104  1  0.56190000  0.64230000  0.07730000  1.0 0.0996913972
H  H105  1  0.30000000  0.83980000  0.34150000  1.0 0.0704714463
H  H106  1  0.83980000  0.30000000  0.15850000  1.0 0.0704714463
H  H107  1  0.70000000  0.16020000  0.65850000  1.0 0.0704714463
H  H108  1  0.16020000  0.70000000  0.84150000  1.0 0.0704714463
H  H109  1  0.28700000  0.79320000  0.31310000  1.0 0.0506731956
H  H110  1  0.79320000  0.28700000  0.18690000  1.0 0.0506731956
H  H111  1  0.71300000  0.20680000  0.68690000  1.0 0.0506731956
H  H112  1  0.20680000  0.71300000  0.81310000  1.0 0.0506731956
H  H113  1  0.23000000  0.77320000  0.37540000  1.0 0.0611590715
H  H114  1  0.77320000  0.23000000  0.12460000  1.0 0.0611590715
H  H115  1  0.77000000  0.22680000  0.62460000  1.0 0.0611590715
H  H116  1  0.22680000  0.77000000  0.87540000  1.0 0.0611590715
H  H117  1  0.24280000  0.82020000  0.40350000  1.0 0.0506731956
H  H118  1  0.82020000  0.24280000  0.09650000  1.0 0.0506731956
H  H119  1  0.75720000  0.17980000  0.59650000  1.0 0.0506731956
H  H120  1  0.17980000  0.75720000  0.90350000  1.0 0.0506731956
H  H121  1  0.16080000  0.84500000  0.27140000  1.0 0.0704714463
H  H122  1  0.84500000  0.16080000  0.22860000  1.0 0.0704714463
H  H123  1  0.83920000  0.15500000  0.72860000  1.0 0.0704714463
H  H124  1  0.15500000  0.83920000  0.77140000  1.0 0.0704714463
H  H125  1  0.18860000  0.89340000  0.27750000  1.0 0.0611590715
H  H126  1  0.89340000  0.18860000  0.22250000  1.0 0.0611590715
H  H127  1  0.81140000  0.10660000  0.72250000  1.0 0.0611590715
H  H128  1  0.10660000  0.81140000  0.77750000  1.0 0.0611590715
H  H129  1  0.14530000  0.91010000  0.34950000  1.0 0.0611590715
H  H130  1  0.91010000  0.14530000  0.15050000  1.0 0.0611590715
H  H131  1  0.85470000  0.08990000  0.65050000  1.0 0.0611590715
H  H132  1  0.08990000  0.85470000  0.84950000  1.0 0.0611590715
H  H133  1  0.12150000  0.85770000  0.35100000  1.0 0.0808637188
H  H134  1  0.85770000  0.12150000  0.14900000  1.0 0.0808637188
H  H135  1  0.87850000  0.14230000  0.64900000  1.0 0.0808637188
H  H136  1  0.14230000  0.87850000  0.85100000  1.0 0.0808637188
H  H137  1  0.06250000  0.97590000  0.25820000  1.0 0.0996913972
H  H138  1  0.97590000  0.06250000  0.24180000  1.0 0.0996913972
H  H139  1  0.93750000  0.02410000  0.74180000  1.0 0.0996913972
H  H140  1  0.02410000  0.93750000  0.75820000  1.0 0.0996913972
H  H141  1  0.07280000  0.93800000  0.21730000  1.0 0.0611590715
H  H142  1  0.93800000  0.07280000  0.28270000  1.0 0.0611590715
H  H143  1  0.92720000  0.06200000  0.78270000  1.0 0.0611590715
H  H144  1  0.06200000  0.92720000  0.71730000  1.0 0.0611590715
H  H145  1  0.97750000  0.95230000  0.21950000  1.0 0.0996913972
H  H146  1  0.95230000  0.97750000  0.28050000  1.0 0.0996913972
H  H147  1  0.02250000  0.04770000  0.78050000  1.0 0.0996913972
H  H148  1  0.04770000  0.02250000  0.71950000  1.0 0.0996913972
H  H149  1  0.01010000  0.91730000  0.30050000  1.0 0.0894700077
H  H150  1  0.91730000  0.01010000  0.19950000  1.0 0.0894700077
H  H151  1  0.98990000  0.08270000  0.69950000  1.0 0.0894700077
H  H152  1  0.08270000  0.98990000  0.80050000  1.0 0.0894700077
H  H153  1  0.01820000  0.88280000  0.25580000  1.0 0.0808637188
H  H154  1  0.88280000  0.01820000  0.24420000  1.0 0.0808637188
H  H155  1  0.98180000  0.11720000  0.74420000  1.0 0.0808637188
H  H156  1  0.11720000  0.98180000  0.75580000  1.0 0.0808637188
H  H157  1  0.41120000  0.81400000  0.60090000  1.0 0.1094546994
H  H158  1  0.81400000  0.41120000  0.89910000  1.0 0.1094546994
H  H159  1  0.58880000  0.18600000  0.39910000  1.0 0.1094546994
H  H160  1  0.18600000  0.58880000  0.10090000  1.0 0.1094546994
H  H161  1  0.36170000  0.79670000  0.55750000  1.0 0.1191439491
H  H162  1  0.79670000  0.36170000  0.94250000  1.0 0.1191439491
H  H163  1  0.63830000  0.20330000  0.44250000  1.0 0.1191439491
H  H164  1  0.20330000  0.63830000  0.05750000  1.0 0.1191439491
H  H165  1  0.31940000  0.86400000  0.59590000  1.0 0.0808637188
H  H166  1  0.86400000  0.31940000  0.90410000  1.0 0.0808637188
H  H167  1  0.68060000  0.13600000  0.40410000  1.0 0.0808637188
H  H168  1  0.13600000  0.68060000  0.09590000  1.0 0.0808637188
H  H169  1  0.33970000  0.91250000  0.55590000  1.0 0.0894700077
H  H170  1  0.91250000  0.33970000  0.94410000  1.0 0.0894700077
H  H171  1  0.66030000  0.08750000  0.44410000  1.0 0.0894700077
H  H172  1  0.08750000  0.66030000  0.05590000  1.0 0.0894700077
H  H173  1  0.24910000  0.87430000  0.49430000  1.0 0.0996913972
H  H174  1  0.87430000  0.24910000  0.00570000  1.0 0.0996913972
H  H175  1  0.75090000  0.12570000  0.50570000  1.0 0.0996913972
H  H176  1  0.12570000  0.75090000  0.99430000  1.0 0.0996913972
H  H177  1  0.27340000  0.91560000  0.45080000  1.0 0.0996913972
H  H178  1  0.91560000  0.27340000  0.04920000  1.0 0.0996913972
H  H179  1  0.72660000  0.08440000  0.54920000  1.0 0.0996913972
H  H180  1  0.08440000  0.72660000  0.95080000  1.0 0.0996913972
H  H181  1  0.23820000  0.99180000  0.48320000  1.0 0.0996913972
H  H182  1  0.99180000  0.23820000  0.01680000  1.0 0.0996913972
H  H183  1  0.76180000  0.00820000  0.51680000  1.0 0.0996913972
H  H184  1  0.00820000  0.76180000  0.98320000  1.0 0.0996913972
H  H185  1  0.21300000  0.95060000  0.52530000  1.0 0.0996913972
H  H186  1  0.95060000  0.21300000  0.97470000  1.0 0.0996913972
H  H187  1  0.78700000  0.04940000  0.47470000  1.0 0.0996913972
H  H188  1  0.04940000  0.78700000  0.02530000  1.0 0.0996913972
H  H189  1  0.14240000  0.95780000  0.42100000  1.0 0.0894700077
H  H190  1  0.95780000  0.14240000  0.07900000  1.0 0.0894700077
H  H191  1  0.85760000  0.04220000  0.57900000  1.0 0.0894700077
H  H192  1  0.04220000  0.85760000  0.92100000  1.0 0.0894700077
H  H193  1  0.16760000  0.99880000  0.37880000  1.0 0.0808637188
H  H194  1  0.99880000  0.16760000  0.12120000  1.0 0.0808637188
H  H195  1  0.83240000  0.00120000  0.62120000  1.0 0.0808637188
H  H196  1  0.00120000  0.83240000  0.87880000  1.0 0.0808637188
H  H197  1  0.07650000  0.06090000  0.37050000  1.0 0.1094546994
H  H198  1  0.06090000  0.07650000  0.12950000  1.0 0.1094546994
H  H199  1  0.92350000  0.93910000  0.62950000  1.0 0.1094546994
H  H200  1  0.93910000  0.92350000  0.87050000  1.0 0.1094546994
H  H201  1  0.12980000  0.07660000  0.40950000  1.0 0.1094546994
H  H202  1  0.07660000  0.12980000  0.09050000  1.0 0.1094546994
H  H203  1  0.87020000  0.92340000  0.59050000  1.0 0.1094546994
H  H204  1  0.92340000  0.87020000  0.90950000  1.0 0.1094546994
H  H205  1  0.10430000  0.03570000  0.45120000  1.0 0.1094546994
H  H206  1  0.03570000  0.10430000  0.04880000  1.0 0.1094546994
H  H207  1  0.89570000  0.96430000  0.54880000  1.0 0.1094546994
H  H208  1  0.96430000  0.89570000  0.95120000  1.0 0.1094546994
H  H209  1  0.84830000  0.27090000  0.80200000  1.0 0.1094546994
H  H210  1  0.27090000  0.84830000  0.69800000  1.0 0.1094546994
H  H211  1  0.15170000  0.72910000  0.19800000  1.0 0.1094546994
H  H212  1  0.72910000  0.15170000  0.30200000  1.0 0.1094546994
H  H213  1  0.81900000  0.23900000  0.75910000  1.0 0.1094546994
H  H214  1  0.23900000  0.81900000  0.74090000  1.0 0.1094546994
H  H215  1  0.18100000  0.76100000  0.24090000  1.0 0.1094546994
H  H216  1  0.76100000  0.18100000  0.25910000  1.0 0.1094546994
H  H217  1  0.81540000  0.22980000  0.88540000  1.0 0.0996913972
H  H218  1  0.22980000  0.81540000  0.61460000  1.0 0.0996913972
H  H219  1  0.18460000  0.77020000  0.11460000  1.0 0.0996913972
H  H220  1  0.77020000  0.18460000  0.38540000  1.0 0.0996913972
H  H221  1  0.78210000  0.20070000  0.84150000  1.0 0.0996913972
H  H222  1  0.20070000  0.78210000  0.65850000  1.0 0.0996913972
H  H223  1  0.21790000  0.79930000  0.15850000  1.0 0.0996913972
H  H224  1  0.79930000  0.21790000  0.34150000  1.0 0.0996913972
H  H225  1  0.90940000  0.16340000  0.91100000  1.0 0.0996913972
H  H226  1  0.16340000  0.90940000  0.58900000  1.0 0.0996913972
H  H227  1  0.09060000  0.83660000  0.08900000  1.0 0.0996913972
H  H228  1  0.83660000  0.09060000  0.41100000  1.0 0.0996913972
H  H229  1  0.87940000  0.13840000  0.85960000  1.0 0.0894700077
H  H230  1  0.13840000  0.87940000  0.64040000  1.0 0.0894700077
H  H231  1  0.12060000  0.86160000  0.14040000  1.0 0.0894700077
H  H232  1  0.86160000  0.12060000  0.35960000  1.0 0.0894700077
H  H233  1  0.86970000  0.11750000  0.98870000  1.0 0.1094546994
H  H234  1  0.11750000  0.86970000  0.51130000  1.0 0.1094546994
H  H235  1  0.13030000  0.88250000  0.01130000  1.0 0.1094546994
H  H236  1  0.88250000  0.13030000  0.48870000  1.0 0.1094546994
H  H237  1  0.83170000  0.09830000  0.93510000  1.0 0.1094546994
H  H238  1  0.09830000  0.83170000  0.56490000  1.0 0.1094546994
H  H239  1  0.16830000  0.90170000  0.06490000  1.0 0.1094546994
H  H240  1  0.90170000  0.16830000  0.43510000  1.0 0.1094546994
H  H241  1  0.96150000  0.05110000  0.99980000  1.0 0.0996913972
H  H242  1  0.05110000  0.96150000  0.50020000  1.0 0.0996913972
H  H243  1  0.03850000  0.94890000  0.00020000  1.0 0.0996913972
H  H244  1  0.94890000  0.03850000  0.49980000  1.0 0.0996913972
H  H245  1  0.92300000  0.03120000  0.94720000  1.0 0.0704714463
H  H246  1  0.03120000  0.92300000  0.55280000  1.0 0.0704714463
H  H247  1  0.07700000  0.96880000  0.05280000  1.0 0.0704714463
H  H248  1  0.96880000  0.07700000  0.44720000  1.0 0.0704714463
H  H249  1  0.95230000  0.95910000  0.06540000  1.0 -0.0180794045
H  H250  1  0.95910000  0.95230000  0.43460000  1.0 -0.0180794045
H  H251  1  0.04770000  0.04090000  0.93460000  1.0 -0.0180794045
H  H252  1  0.04090000  0.04770000  0.56540000  1.0 -0.0180794045
H  H253  1  0.88130000  0.99090000  0.02590000  1.0 0.0894700077
H  H254  1  0.99090000  0.88130000  0.47410000  1.0 0.0894700077
H  H255  1  0.11870000  0.00910000  0.97410000  1.0 0.0894700077
H  H256  1  0.00910000  0.11870000  0.52590000  1.0 0.0894700077
H  H257  1  0.91810000  0.01190000  0.07780000  1.0 0.1094546994
H  H258  1  0.01190000  0.91810000  0.42220000  1.0 0.1094546994
H  H259  1  0.08190000  0.98810000  0.92220000  1.0 0.1094546994
H  H260  1  0.98810000  0.08190000  0.57780000  1.0 0.1094546994
H  H261  1  0.85530000  0.32250000  0.63930000  1.0 0.0808637188
H  H262  1  0.32250000  0.85530000  0.86070000  1.0 0.0808637188
H  H263  1  0.14470000  0.67750000  0.36070000  1.0 0.0808637188
H  H264  1  0.67750000  0.14470000  0.13930000  1.0 0.0808637188
H  H265  1  0.78550000  0.34790000  0.61830000  1.0 0.0704714463
H  H266  1  0.34790000  0.78550000  0.88170000  1.0 0.0704714463
H  H267  1  0.21450000  0.65210000  0.38170000  1.0 0.0704714463
H  H268  1  0.65210000  0.21450000  0.11830000  1.0 0.0704714463
H  H269  1  0.77080000  0.43660000  0.52880000  1.0 0.0808637188
H  H270  1  0.43660000  0.77080000  0.97120000  1.0 0.0808637188
H  H271  1  0.22920000  0.56340000  0.47120000  1.0 0.0808637188
H  H272  1  0.56340000  0.22920000  0.02880000  1.0 0.0808637188
H  H273  1  0.84110000  0.41690000  0.55250000  1.0 0.0704714463
H  H274  1  0.41690000  0.84110000  0.94750000  1.0 0.0704714463
H  H275  1  0.15890000  0.58310000  0.44750000  1.0 0.0704714463
H  H276  1  0.58310000  0.15890000  0.05250000  1.0 0.0704714463
H  H277  1  0.80550000  0.39670000  0.45940000  1.0 0.0808637188
H  H278  1  0.39670000  0.80550000  0.04060000  1.0 0.0808637188
H  H279  1  0.19450000  0.60330000  0.54060000  1.0 0.0808637188
H  H280  1  0.60330000  0.19450000  0.95940000  1.0 0.0808637188
H  H281  1  0.84040000  0.33320000  0.52400000  1.0 0.0611590715
H  H282  1  0.33320000  0.84040000  0.97600000  1.0 0.0611590715
H  H283  1  0.15960000  0.66680000  0.47600000  1.0 0.0611590715
H  H284  1  0.66680000  0.15960000  0.02400000  1.0 0.0611590715
H  H285  1  0.71250000  0.39290000  0.46030000  1.0 0.0704714463
H  H286  1  0.39290000  0.71250000  0.03970000  1.0 0.0704714463
H  H287  1  0.28750000  0.60710000  0.53970000  1.0 0.0704714463
H  H288  1  0.60710000  0.28750000  0.96030000  1.0 0.0704714463
H  H289  1  0.74860000  0.32780000  0.52240000  1.0 0.0611590715
H  H290  1  0.32780000  0.74860000  0.97760000  1.0 0.0611590715
H  H291  1  0.25140000  0.67220000  0.47760000  1.0 0.0611590715
H  H292  1  0.67220000  0.25140000  0.02240000  1.0 0.0611590715
H  H293  1  0.74400000  0.35640000  0.38780000  1.0 0.0405614381
H  H294  1  0.35640000  0.74400000  0.11220000  1.0 0.0405614381
H  H295  1  0.25600000  0.64360000  0.61220000  1.0 0.0405614381
H  H296  1  0.64360000  0.25600000  0.88780000  1.0 0.0405614381
H  H297  1  0.78190000  0.29150000  0.45000000  1.0 0.0704714463
H  H298  1  0.29150000  0.78190000  0.05000000  1.0 0.0704714463
H  H299  1  0.21810000  0.70850000  0.55000000  1.0 0.0704714463
H  H300  1  0.70850000  0.21810000  0.95000000  1.0 0.0704714463
H  H301  1  0.68860000  0.29360000  0.37920000  1.0 0.0704714463
H  H302  1  0.29360000  0.68860000  0.12080000  1.0 0.0704714463
H  H303  1  0.31140000  0.70640000  0.62080000  1.0 0.0704714463
H  H304  1  0.70640000  0.31140000  0.87920000  1.0 0.0704714463
H  H305  1  0.65330000  0.34730000  0.38970000  1.0 0.0611590715
H  H306  1  0.34730000  0.65330000  0.11030000  1.0 0.0611590715
H  H307  1  0.34670000  0.65270000  0.61030000  1.0 0.0611590715
H  H308  1  0.65270000  0.34670000  0.88970000  1.0 0.0611590715
H  H309  1  0.69100000  0.28260000  0.45210000  1.0 0.0611590715
H  H310  1  0.28260000  0.69100000  0.04790000  1.0 0.0611590715
H  H311  1  0.30900000  0.71740000  0.54790000  1.0 0.0611590715
H  H312  1  0.71740000  0.30900000  0.95210000  1.0 0.0611590715
H  H313  1  0.76390000  0.85270000  0.68210000  1.0 0.1094546994
H  H314  1  0.85270000  0.76390000  0.81790000  1.0 0.1094546994
H  H315  1  0.23610000  0.14730000  0.31790000  1.0 0.1094546994
H  H316  1  0.14730000  0.23610000  0.18210000  1.0 0.1094546994
H  H317  1  0.80160000  0.88480000  0.65210000  1.0 0.1094546994
H  H318  1  0.88480000  0.80160000  0.84790000  1.0 0.1094546994
H  H319  1  0.19840000  0.11520000  0.34790000  1.0 0.1094546994
H  H320  1  0.11520000  0.19840000  0.15210000  1.0 0.1094546994
H  H321  1  0.69490000  0.94450000  0.65710000  1.0 0.0996913972
H  H322  1  0.94450000  0.69490000  0.84290000  1.0 0.0996913972
H  H323  1  0.30510000  0.05550000  0.34290000  1.0 0.0996913972
H  H324  1  0.05550000  0.30510000  0.15710000  1.0 0.0996913972
H  H325  1  0.72620000  0.97980000  0.61870000  1.0 0.0894700077
H  H326  1  0.97980000  0.72620000  0.88130000  1.0 0.0894700077
H  H327  1  0.27380000  0.02020000  0.38130000  1.0 0.0894700077
H  H328  1  0.02020000  0.27380000  0.11870000  1.0 0.0894700077
H  H329  1  0.78470000  0.90450000  0.76270000  1.0 0.0894700077
H  H330  1  0.90450000  0.78470000  0.73730000  1.0 0.0894700077
H  H331  1  0.21530000  0.09550000  0.23730000  1.0 0.0894700077
H  H332  1  0.09550000  0.21530000  0.26270000  1.0 0.0894700077
H  H333  1  0.81050000  0.94650000  0.72240000  1.0 0.0894700077
H  H334  1  0.94650000  0.81050000  0.77760000  1.0 0.0894700077
H  H335  1  0.18950000  0.05350000  0.27760000  1.0 0.0894700077
H  H336  1  0.05350000  0.18950000  0.22240000  1.0 0.0894700077
H  H337  1  0.73100000  0.03260000  0.69900000  1.0 0.0894700077
H  H338  1  0.03260000  0.73100000  0.80100000  1.0 0.0894700077
H  H339  1  0.26900000  0.96740000  0.30100000  1.0 0.0894700077
H  H340  1  0.96740000  0.26900000  0.19900000  1.0 0.0894700077
H  H341  1  0.70500000  0.99080000  0.73900000  1.0 0.0996913972
H  H342  1  0.99080000  0.70500000  0.76100000  1.0 0.0996913972
H  H343  1  0.29500000  0.00920000  0.26100000  1.0 0.0996913972
H  H344  1  0.00920000  0.29500000  0.23900000  1.0 0.0996913972
H  H345  1  0.81420000  0.00540000  0.79970000  1.0 0.0894700077
H  H346  1  0.00540000  0.81420000  0.70030000  1.0 0.0894700077
H  H347  1  0.18580000  0.99460000  0.20030000  1.0 0.0894700077
H  H348  1  0.99460000  0.18580000  0.29970000  1.0 0.0894700077
H  H349  1  0.79750000  0.95430000  0.84180000  1.0 0.0996913972
H  H350  1  0.95430000  0.79750000  0.65820000  1.0 0.0996913972
H  H351  1  0.20250000  0.04570000  0.15820000  1.0 0.0996913972
H  H352  1  0.04570000  0.20250000  0.34180000  1.0 0.0996913972
H  H353  1  0.72120000  0.08000000  0.78090000  1.0 0.1094546994
H  H354  1  0.08000000  0.72120000  0.71910000  1.0 0.1094546994
H  H355  1  0.27880000  0.92000000  0.21910000  1.0 0.1094546994
H  H356  1  0.92000000  0.27880000  0.28090000  1.0 0.1094546994
H  H357  1  0.76860000  0.04520000  0.85890000  1.0 0.1094546994
H  H358  1  0.04520000  0.76860000  0.64110000  1.0 0.1094546994
H  H359  1  0.23140000  0.95480000  0.14110000  1.0 0.1094546994
H  H360  1  0.95480000  0.23140000  0.35890000  1.0 0.1094546994
H  H361  1  0.71320000  0.02700000  0.83240000  1.0 0.1191439491
H  H362  1  0.02700000  0.71320000  0.66760000  1.0 0.1191439491
H  H363  1  0.28680000  0.97300000  0.16760000  1.0 0.1191439491
H  H364  1  0.97300000  0.28680000  0.33240000  1.0 0.1191439491
H  H365  1  0.88240000  0.83200000  0.50910000  1.0 0.0276507048
H  H366  1  0.83200000  0.88240000  0.99090000  1.0 0.0276507048
H  H367  1  0.11760000  0.16800000  0.49090000  1.0 0.0276507048
H  H368  1  0.16800000  0.11760000  0.00910000  1.0 0.0276507048
H  H369  1  0.81200000  0.86660000  0.47670000  1.0 0.0704714463
H  H370  1  0.86660000  0.81200000  0.02330000  1.0 0.0704714463
H  H371  1  0.18800000  0.13340000  0.52330000  1.0 0.0704714463
H  H372  1  0.13340000  0.18800000  0.97670000  1.0 0.0704714463
H  H373  1  0.79400000  0.80780000  0.41940000  1.0 0.0894700077
H  H374  1  0.80780000  0.79400000  0.08060000  1.0 0.0894700077
H  H375  1  0.20600000  0.19220000  0.58060000  1.0 0.0894700077
H  H376  1  0.19220000  0.20600000  0.91940000  1.0 0.0894700077
H  H377  1  0.86160000  0.76260000  0.46000000  1.0 0.0808637188
H  H378  1  0.76260000  0.86160000  0.04000000  1.0 0.0808637188
H  H379  1  0.13840000  0.23740000  0.54000000  1.0 0.0808637188
H  H380  1  0.23740000  0.13840000  0.96000000  1.0 0.0808637188
H  H381  1  0.82570000  0.88010000  0.35580000  1.0 0.0894700077
H  H382  1  0.88010000  0.82570000  0.14420000  1.0 0.0894700077
H  H383  1  0.17430000  0.11990000  0.64420000  1.0 0.0894700077
H  H384  1  0.11990000  0.17430000  0.85580000  1.0 0.0894700077
H  H385  1  0.89050000  0.82970000  0.39240000  1.0 0.0611590715
H  H386  1  0.82970000  0.89050000  0.10760000  1.0 0.0611590715
H  H387  1  0.10950000  0.17030000  0.60760000  1.0 0.0611590715
H  H388  1  0.17030000  0.10950000  0.89240000  1.0 0.0611590715
H  H389  1  0.78890000  0.83110000  0.29140000  1.0 0.0611590715
H  H390  1  0.83110000  0.78890000  0.20860000  1.0 0.0611590715
H  H391  1  0.21110000  0.16890000  0.70860000  1.0 0.0611590715
H  H392  1  0.16890000  0.21110000  0.79140000  1.0 0.0611590715
H  H393  1  0.85150000  0.77710000  0.33050000  1.0 0.0506731956
H  H394  1  0.77710000  0.85150000  0.16950000  1.0 0.0506731956
H  H395  1  0.14850000  0.22290000  0.66950000  1.0 0.0506731956
H  H396  1  0.22290000  0.14850000  0.83050000  1.0 0.0506731956
H  H397  1  0.82490000  0.92210000  0.15740000  1.0 0.0611590715
H  H398  1  0.92210000  0.82490000  0.34260000  1.0 0.0611590715
H  H399  1  0.17510000  0.07790000  0.84260000  1.0 0.0611590715
H  H400  1  0.07790000  0.17510000  0.65740000  1.0 0.0611590715
H  H401  1  0.79730000  0.94150000  0.20340000  1.0 0.0996913972
H  H402  1  0.94150000  0.79730000  0.29660000  1.0 0.0996913972
H  H403  1  0.20270000  0.05850000  0.79660000  1.0 0.0996913972
H  H404  1  0.05850000  0.20270000  0.70340000  1.0 0.0996913972
H  H405  1  0.76810000  0.90890000  0.16160000  1.0 0.0808637188
H  H406  1  0.90890000  0.76810000  0.33840000  1.0 0.0808637188
H  H407  1  0.23190000  0.09110000  0.83840000  1.0 0.0808637188
H  H408  1  0.09110000  0.23190000  0.66160000  1.0 0.0808637188
H  H409  1  0.14940000  0.11240000  0.76980000  1.0 0.0190352893
H  H410  1  0.11240000  0.14940000  0.73020000  1.0 0.0190352893
H  H411  1  0.85060000  0.88760000  0.23020000  1.0 0.0116248586
H  H412  1  0.88760000  0.85060000  0.26980000  1.0 0.0116248586
H  H413  1  0.18120000  0.14620000  0.73150000  1.0 0.0116248586
H  H414  1  0.14620000  0.18120000  0.76850000  1.0 0.0116248586
H  H415  1  0.81880000  0.85380000  0.26850000  1.0 0.0116248586
H  H416  1  0.85380000  0.81880000  0.23150000  1.0 0.0116248586
H  H417  1  0.17290000  0.66330000  0.82070000  1.0 0.0704714463
H  H418  1  0.66330000  0.17290000  0.67930000  1.0 0.0704714463
H  H419  1  0.82710000  0.33670000  0.17930000  1.0 0.0704714463
H  H420  1  0.33670000  0.82710000  0.32070000  1.0 0.0704714463
H  H421  1  0.23400000  0.65100000  0.81200000  1.0 0.1094546994
H  H422  1  0.65100000  0.23400000  0.68800000  1.0 0.1094546994
H  H423  1  0.76600000  0.34900000  0.18800000  1.0 0.1094546994
H  H424  1  0.34900000  0.76600000  0.31200000  1.0 0.1094546994
H  H425  1  0.23950000  0.74130000  0.82390000  1.0 0.0808637188
H  H426  1  0.74130000  0.23950000  0.67610000  1.0 0.0808637188
H  H427  1  0.76050000  0.25870000  0.17610000  1.0 0.0808637188
H  H428  1  0.25870000  0.76050000  0.32390000  1.0 0.0808637188
H  H429  1  0.17970000  0.75890000  0.75910000  1.0 0.0506731956
H  H430  1  0.75890000  0.17970000  0.74090000  1.0 0.0506731956
H  H431  1  0.82030000  0.24110000  0.24090000  1.0 0.0506731956
H  H432  1  0.24110000  0.82030000  0.25910000  1.0 0.0506731956
H  H433  1  0.16230000  0.73590000  0.87810000  1.0 0.0611590715
H  H434  1  0.73590000  0.16230000  0.62190000  1.0 0.0611590715
H  H435  1  0.83770000  0.26410000  0.12190000  1.0 0.0611590715
H  H436  1  0.26410000  0.83770000  0.37810000  1.0 0.0611590715
H  H437  1  0.12090000  0.79050000  0.80480000  1.0 0.0704714463
H  H438  1  0.79050000  0.12090000  0.69520000  1.0 0.0704714463
H  H439  1  0.87910000  0.20950000  0.19520000  1.0 0.0704714463
H  H440  1  0.20950000  0.87910000  0.30480000  1.0 0.0704714463
H  H441  1  0.22570000  0.80570000  0.86580000  1.0 0.0704714463
H  H442  1  0.80570000  0.22570000  0.63420000  1.0 0.0704714463
H  H443  1  0.77430000  0.19430000  0.13420000  1.0 0.0704714463
H  H444  1  0.19430000  0.77430000  0.36580000  1.0 0.0704714463
H  H445  1  0.19280000  0.79820000  0.91400000  1.0 0.0405614381
H  H446  1  0.79820000  0.19280000  0.58600000  1.0 0.0405614381
H  H447  1  0.80720000  0.20180000  0.08600000  1.0 0.0405614381
H  H448  1  0.20180000  0.80720000  0.41400000  1.0 0.0405614381
H  H449  1  0.12940000  0.88820000  0.77490000  1.0 0.0506731956
H  H450  1  0.88820000  0.12940000  0.72510000  1.0 0.0506731956
H  H451  1  0.87060000  0.11180000  0.22510000  1.0 0.0506731956
H  H452  1  0.11180000  0.87060000  0.27490000  1.0 0.0506731956
H  H453  1  0.10960000  0.88520000  0.83410000  1.0 0.0611590715
H  H454  1  0.88520000  0.10960000  0.66590000  1.0 0.0611590715
H  H455  1  0.89040000  0.11480000  0.16590000  1.0 0.0611590715
H  H456  1  0.11480000  0.89040000  0.33410000  1.0 0.0611590715
H  H457  1  0.14690000  0.96230000  0.81540000  1.0 0.0704714463
H  H458  1  0.96230000  0.14690000  0.68460000  1.0 0.0704714463
H  H459  1  0.85310000  0.03770000  0.18460000  1.0 0.0704714463
H  H460  1  0.03770000  0.85310000  0.31540000  1.0 0.0704714463
H  H461  1  0.19460000  0.90940000  0.88770000  1.0 0.1094546994
H  H462  1  0.90940000  0.19460000  0.61230000  1.0 0.1094546994
H  H463  1  0.80540000  0.09060000  0.11230000  1.0 0.1094546994
H  H464  1  0.09060000  0.80540000  0.38770000  1.0 0.1094546994
H  H465  1  0.20710000  0.91910000  0.82250000  1.0 0.1191439491
H  H466  1  0.91910000  0.20710000  0.67750000  1.0 0.1191439491
H  H467  1  0.79290000  0.08090000  0.17750000  1.0 0.1191439491
H  H468  1  0.08090000  0.79290000  0.32250000  1.0 0.1191439491
H  H469  1  0.68640000  0.17300000  0.17720000  1.0 0.0611590715
H  H470  1  0.17300000  0.68640000  0.32280000  1.0 0.0611590715
H  H471  1  0.31360000  0.82700000  0.82280000  1.0 0.0611590715
H  H472  1  0.82700000  0.31360000  0.67720000  1.0 0.0611590715
H  H473  1  0.66500000  0.13120000  0.14500000  1.0 0.0808637188
H  H474  1  0.13120000  0.66500000  0.35500000  1.0 0.0808637188
H  H475  1  0.33500000  0.86880000  0.85500000  1.0 0.0808637188
H  H476  1  0.86880000  0.33500000  0.64500000  1.0 0.0808637188
H  H477  1  0.60690000  0.25970000  0.07570000  1.0 0.0704714463
H  H478  1  0.25970000  0.60690000  0.42430000  1.0 0.0704714463
H  H479  1  0.39310000  0.74030000  0.92430000  1.0 0.0704714463
H  H480  1  0.74030000  0.39310000  0.57570000  1.0 0.0704714463
H  H481  1  0.59180000  0.21580000  0.04330000  1.0 0.0704714463
H  H482  1  0.21580000  0.59180000  0.45670000  1.0 0.0704714463
H  H483  1  0.40820000  0.78420000  0.95670000  1.0 0.0704714463
H  H484  1  0.78420000  0.40820000  0.54330000  1.0 0.0704714463
H  H485  1  0.69070000  0.18630000  0.04810000  1.0 0.0611590715
H  H486  1  0.18630000  0.69070000  0.45190000  1.0 0.0611590715
H  H487  1  0.30930000  0.81370000  0.95190000  1.0 0.0611590715
H  H488  1  0.81370000  0.30930000  0.54810000  1.0 0.0611590715
H  H489  1  0.70270000  0.23350000  0.07620000  1.0 0.0405614381
H  H490  1  0.23350000  0.70270000  0.42380000  1.0 0.0405614381
H  H491  1  0.29730000  0.76650000  0.92380000  1.0 0.0405614381
H  H492  1  0.76650000  0.29730000  0.57620000  1.0 0.0405614381
H  H493  1  0.61940000  0.26220000  0.94130000  1.0 0.0704714463
H  H494  1  0.26220000  0.61940000  0.55870000  1.0 0.0704714463
H  H495  1  0.38060000  0.73780000  0.05870000  1.0 0.0704714463
H  H496  1  0.73780000  0.38060000  0.44130000  1.0 0.0704714463
H  H497  1  0.61950000  0.31190000  0.96870000  1.0 0.0611590715
H  H498  1  0.31190000  0.61950000  0.53130000  1.0 0.0611590715
H  H499  1  0.38050000  0.68810000  0.03130000  1.0 0.0611590715
H  H500  1  0.68810000  0.38050000  0.46870000  1.0 0.0611590715
H  H501  1  0.72110000  0.24710000  0.95660000  1.0 0.0506731956
H  H502  1  0.24710000  0.72110000  0.54340000  1.0 0.0506731956
H  H503  1  0.27890000  0.75290000  0.04340000  1.0 0.0506731956
H  H504  1  0.75290000  0.27890000  0.45660000  1.0 0.0506731956
H  H505  1  0.71800000  0.29980000  0.97940000  1.0 0.0611590715
H  H506  1  0.29980000  0.71800000  0.52060000  1.0 0.0611590715
H  H507  1  0.28200000  0.70020000  0.02060000  1.0 0.0611590715
H  H508  1  0.70020000  0.28200000  0.47940000  1.0 0.0611590715
H  H509  1  0.70050000  0.33550000  0.86250000  1.0 0.0611590715
H  H510  1  0.33550000  0.70050000  0.63750000  1.0 0.0611590715
H  H511  1  0.29950000  0.66450000  0.13750000  1.0 0.0611590715
H  H512  1  0.66450000  0.29950000  0.36250000  1.0 0.0611590715
H  H513  1  0.64360000  0.31800000  0.84490000  1.0 0.0808637188
H  H514  1  0.31800000  0.64360000  0.65510000  1.0 0.0808637188
H  H515  1  0.35640000  0.68200000  0.15510000  1.0 0.0808637188
H  H516  1  0.68200000  0.35640000  0.34490000  1.0 0.0808637188
H  H517  1  0.64320000  0.37020000  0.86810000  1.0 0.0808637188
H  H518  1  0.37020000  0.64320000  0.63190000  1.0 0.0808637188
H  H519  1  0.35680000  0.62980000  0.13190000  1.0 0.0808637188
H  H520  1  0.62980000  0.35680000  0.36810000  1.0 0.0808637188
H  H521  1  0.19610000  0.14450000  0.96690000  1.0 0.0276507048
H  H522  1  0.14450000  0.19610000  0.53310000  1.0 0.0276507048
H  H523  1  0.80390000  0.85550000  0.03310000  1.0 0.0276507048
H  H524  1  0.85550000  0.80390000  0.46690000  1.0 0.0276507048
H  H525  1  0.14420000  0.20100000  0.95570000  1.0 0.0506731956
H  H526  1  0.20100000  0.14420000  0.54430000  1.0 0.0506731956
H  H527  1  0.85580000  0.79900000  0.04430000  1.0 0.0506731956
H  H528  1  0.79900000  0.85580000  0.45570000  1.0 0.0506731956
H  H529  1  0.16300000  0.07820000  0.03450000  1.0 0.0704714463
H  H530  1  0.07820000  0.16300000  0.46550000  1.0 0.0704714463
H  H531  1  0.83700000  0.92180000  0.96550000  1.0 0.0704714463
H  H532  1  0.92180000  0.83700000  0.53450000  1.0 0.0704714463
H  H533  1  0.11170000  0.13450000  0.02460000  1.0 0.0704714463
H  H534  1  0.13450000  0.11170000  0.47540000  1.0 0.0704714463
H  H535  1  0.88830000  0.86550000  0.97540000  1.0 0.0704714463
H  H536  1  0.86550000  0.88830000  0.52460000  1.0 0.0704714463
H  H537  1  0.11560000  0.10700000  0.91300000  1.0 0.0808637188
H  H538  1  0.10700000  0.11560000  0.58700000  1.0 0.0808637188
H  H539  1  0.88440000  0.89300000  0.08700000  1.0 0.0808637188
H  H540  1  0.89300000  0.88440000  0.41300000  1.0 0.0808637188
H  H541  1  0.06430000  0.16330000  0.90310000  1.0 0.0996913972
H  H542  1  0.16330000  0.06430000  0.59690000  1.0 0.0996913972
H  H543  1  0.93570000  0.83670000  0.09690000  1.0 0.0996913972
H  H544  1  0.83670000  0.93570000  0.40310000  1.0 0.0996913972
H  H545  1  0.08270000  0.04130000  0.98380000  1.0 0.0190352893
H  H546  1  0.04130000  0.08270000  0.51620000  1.0 0.0190352893
H  H547  1  0.91730000  0.95870000  0.01620000  1.0 0.0190352893
H  H548  1  0.95870000  0.91730000  0.48380000  1.0 0.0190352893
H  H549  1  0.02900000  0.09880000  0.96740000  1.0 0.1094546994
H  H550  1  0.09880000  0.02900000  0.53260000  1.0 0.1094546994
H  H551  1  0.97100000  0.90120000  0.03260000  1.0 0.1094546994
H  H552  1  0.90120000  0.97100000  0.46740000  1.0 0.1094546994
H  H553  1  0.99520000  0.12000000  0.84490000  1.0 0.130898769
H  H554  1  0.12000000  0.99520000  0.65510000  1.0 0.130898769
H  H555  1  0.00480000  0.88000000  0.15510000  1.0 0.130898769
H  H556  1  0.88000000  0.00480000  0.34490000  1.0 0.130898769
H  H557  1  0.04180000  0.05440000  0.87050000  1.0 0.0894700077
H  H558  1  0.05440000  0.04180000  0.62950000  1.0 0.0894700077
H  H559  1  0.95820000  0.94560000  0.12950000  1.0 0.0894700077
H  H560  1  0.94560000  0.95820000  0.37050000  1.0 0.0894700077
H  H561  1  0.94980000  0.04440000  0.85490000  1.0 0.0894700077
H  H562  1  0.04440000  0.94980000  0.64510000  1.0 0.0894700077
H  H563  1  0.05020000  0.95560000  0.14510000  1.0 0.0894700077
H  H564  1  0.95560000  0.05020000  0.35490000  1.0 0.0894700077
H  H565  1  0.98760000  0.01620000  0.93530000  1.0 0.1094546994
H  H566  1  0.01620000  0.98760000  0.56470000  1.0 0.1094546994
H  H567  1  0.01240000  0.98380000  0.06470000  1.0 0.1094546994
H  H568  1  0.98380000  0.01240000  0.43530000  1.0 0.1094546994
H  H569  1  0.93730000  0.08190000  0.89540000  1.0 0.0704714463
H  H570  1  0.08190000  0.93730000  0.60460000  1.0 0.0704714463
H  H571  1  0.06270000  0.91810000  0.10460000  1.0 0.0704714463
H  H572  1  0.91810000  0.06270000  0.39540000  1.0 0.0704714463
C  C1  1  0.43607000  0.58545000  0.54160000  1.0 0.5087115283
C  C2  1  0.58545000  0.43607000  0.95840000  1.0 0.5087115283
C  C3  1  0.56393000  0.41455000  0.45840000  1.0 0.5087115283
C  C4  1  0.41455000  0.56393000  0.04160000  1.0 0.5087115283
C  C5  1  0.41052000  0.65312000  0.49990000  1.0 -0.11065181
C  C6  1  0.65312000  0.41052000  0.00010000  1.0 -0.11065181
C  C7  1  0.58948000  0.34688000  0.50010000  1.0 -0.11065181
C  C8  1  0.34688000  0.58948000  0.99990000  1.0 -0.11065181
C  C9  1  0.36808000  0.68728000  0.43590000  1.0 -0.2465207686
C  C10  1  0.68728000  0.36808000  0.06410000  1.0 -0.2465207686
C  C11  1  0.63192000  0.31272000  0.56410000  1.0 -0.2465207686
C  C12  1  0.31272000  0.63192000  0.93590000  1.0 -0.2465207686
C  C13  1  0.35479000  0.75119000  0.41320000  1.0 0.0405614381
C  C14  1  0.75119000  0.35479000  0.08680000  1.0 0.0405614381
C  C15  1  0.64521000  0.24881000  0.58680000  1.0 0.0405614381
C  C16  1  0.24881000  0.64521000  0.91320000  1.0 0.0405614381
C  C17  1  0.39034000  0.76206000  0.46350000  1.0 -0.1813365852
C  C18  1  0.76206000  0.39034000  0.03650000  1.0 -0.1813365852
C  C19  1  0.60966000  0.23794000  0.53650000  1.0 -0.1813365852
C  C20  1  0.23794000  0.60966000  0.96350000  1.0 -0.1813365852
C  C21  1  0.39636000  0.81938000  0.45890000  1.0 -0.1305479824
C  C22  1  0.81938000  0.39636000  0.04110000  1.0 -0.1305479824
C  C23  1  0.60364000  0.18062000  0.54110000  1.0 -0.1305479824
C  C24  1  0.18062000  0.60364000  0.95890000  1.0 -0.1305479824
C  C25  1  0.39220000  0.84878000  0.49970000  1.0 0.0808637188
C  C26  1  0.84878000  0.39220000  0.00030000  1.0 0.0808637188
C  C27  1  0.60780000  0.15122000  0.50030000  1.0 0.0808637188
C  C28  1  0.15122000  0.60780000  0.99970000  1.0 0.0808637188
C  C29  1  0.40514000  0.90176000  0.47800000  1.0 -0.1598731395
C  C30  1  0.90176000  0.40514000  0.02200000  1.0 -0.1598731395
C  C31  1  0.59486000  0.09824000  0.52200000  1.0 -0.1598731395
C  C32  1  0.09824000  0.59486000  0.97800000  1.0 -0.1598731395
C  C33  1  0.41841000  0.91165000  0.42310000  1.0 -0.1002047525
C  C34  1  0.91165000  0.41841000  0.07690000  1.0 -0.1002047525
C  C35  1  0.58159000  0.08835000  0.57690000  1.0 -0.1002047525
C  C36  1  0.08835000  0.58159000  0.92310000  1.0 -0.1002047525
C  C37  1  0.43547000  0.96023000  0.38680000  1.0 0.5567472542
C  C38  1  0.96023000  0.43547000  0.11320000  1.0 0.5567472542
C  C39  1  0.56453000  0.03977000  0.61320000  1.0 0.5567472542
C  C40  1  0.03977000  0.56453000  0.88680000  1.0 0.5567472542
C  C41  1  0.58534000  0.38434000  0.68450000  1.0 0.5567472542
C  C42  1  0.38434000  0.58534000  0.81550000  1.0 0.5567472542
C  C43  1  0.41466000  0.61566000  0.31550000  1.0 0.5567472542
C  C44  1  0.61566000  0.41466000  0.18450000  1.0 0.5567472542
C  C45  1  0.65106000  0.36892000  0.70400000  1.0 -0.071298753
C  C46  1  0.36892000  0.65106000  0.79600000  1.0 -0.071298753
C  C47  1  0.34894000  0.63108000  0.29600000  1.0 -0.071298753
C  C48  1  0.63108000  0.34894000  0.20400000  1.0 -0.071298753
C  C49  1  0.69708000  0.31348000  0.74070000  1.0 -0.2324017563
C  C50  1  0.31348000  0.69708000  0.75930000  1.0 -0.2324017563
C  C51  1  0.30292000  0.68652000  0.25930000  1.0 -0.2324017563
C  C52  1  0.68652000  0.30292000  0.24070000  1.0 -0.2324017563
C  C53  1  0.75549000  0.31421000  0.74840000  1.0 0.0036327897
C  C54  1  0.31421000  0.75549000  0.75160000  1.0 0.0036327897
C  C55  1  0.24451000  0.68579000  0.25160000  1.0 0.0036327897
C  C56  1  0.68579000  0.24451000  0.24840000  1.0 0.0036327897
C  C57  1  0.75148000  0.37266000  0.71740000  1.0 -0.1305479824
C  C58  1  0.37266000  0.75148000  0.78260000  1.0 -0.1305479824
C  C59  1  0.24852000  0.62734000  0.28260000  1.0 -0.1305479824
C  C60  1  0.62734000  0.24852000  0.21740000  1.0 -0.1305479824
C  C61  1  0.79942000  0.39450000  0.71370000  1.0 -0.11065181
C  C62  1  0.39450000  0.79942000  0.78630000  1.0 -0.11065181
C  C63  1  0.20058000  0.60550000  0.28630000  1.0 -0.11065181
C  C64  1  0.60550000  0.20058000  0.21370000  1.0 -0.11065181
C  C65  1  0.83187000  0.38805000  0.67660000  1.0 0.0704714463
C  C66  1  0.38805000  0.83187000  0.82340000  1.0 0.0704714463
C  C67  1  0.16813000  0.61195000  0.32340000  1.0 0.0704714463
C  C68  1  0.61195000  0.16813000  0.17660000  1.0 0.0704714463
C  C69  1  0.87261000  0.41893000  0.68360000  1.0 -0.1813365852
C  C70  1  0.41893000  0.87261000  0.81640000  1.0 -0.1813365852
C  C71  1  0.12739000  0.58107000  0.31640000  1.0 -0.1813365852
C  C72  1  0.58107000  0.12739000  0.18360000  1.0 -0.1813365852
C  C73  1  0.87008000  0.44778000  0.72390000  1.0 -0.0901520068
C  C74  1  0.44778000  0.87008000  0.77610000  1.0 -0.0901520068
C  C75  1  0.12992000  0.55222000  0.27610000  1.0 -0.0901520068
C  C76  1  0.55222000  0.12992000  0.22390000  1.0 -0.0901520068
C  C77  1  0.90647000  0.48165000  0.74540000  1.0 0.5907081926
C  C78  1  0.48165000  0.90647000  0.75460000  1.0 0.5907081926
C  C79  1  0.09353000  0.51835000  0.25460000  1.0 0.5907081926
C  C80  1  0.51835000  0.09353000  0.24540000  1.0 0.5907081926
C  C81  1  0.58085000  0.96879000  0.41100000  1.0 0.5720064009
C  C82  1  0.96879000  0.58085000  0.08900000  1.0 0.5720064009
C  C83  1  0.41915000  0.03121000  0.58900000  1.0 0.5720064009
C  C84  1  0.03121000  0.41915000  0.91100000  1.0 0.5720064009
C  C85  1  0.64172000  0.93190000  0.46940000  1.0 -0.1196403169
C  C86  1  0.93190000  0.64172000  0.03060000  1.0 -0.1196403169
C  C87  1  0.35828000  0.06810000  0.53060000  1.0 -0.1196403169
C  C88  1  0.06810000  0.35828000  0.96940000  1.0 -0.1196403169
C  C89  1  0.66525000  0.93645000  0.53040000  1.0 -0.1813365852
C  C90  1  0.93645000  0.66525000  0.96960000  1.0 -0.1813365852
C  C91  1  0.33475000  0.06355000  0.46960000  1.0 -0.1813365852
C  C92  1  0.06355000  0.33475000  0.03040000  1.0 -0.1813365852
C  C93  1  0.72488000  0.89260000  0.57650000  1.0 0.0894700077
C  C94  1  0.89260000  0.72488000  0.92350000  1.0 0.0894700077
C  C95  1  0.27512000  0.10740000  0.42350000  1.0 0.0894700077
C  C96  1  0.10740000  0.27512000  0.07650000  1.0 0.0894700077
C  C97  1  0.74436000  0.85516000  0.54940000  1.0 -0.1002047525
C  C98  1  0.85516000  0.74436000  0.95060000  1.0 -0.1002047525
C  C99  1  0.25564000  0.14484000  0.45060000  1.0 -0.1002047525
C  C100  1  0.14484000  0.25564000  0.04940000  1.0 -0.1002047525
C  C101  1  0.80101000  0.80063000  0.58190000  1.0 -0.1196403169
C  C102  1  0.80063000  0.80101000  0.91810000  1.0 -0.1196403169
C  C103  1  0.19899000  0.19937000  0.41810000  1.0 -0.1196403169
C  C104  1  0.19937000  0.19899000  0.08190000  1.0 -0.1196403169
C  C105  1  0.84241000  0.78561000  0.55730000  1.0 0.1094546994
C  C106  1  0.78561000  0.84241000  0.94270000  1.0 0.1094546994
C  C107  1  0.15759000  0.21439000  0.44270000  1.0 0.1094546994
C  C108  1  0.21439000  0.15759000  0.05730000  1.0 0.1094546994
C  C109  1  0.88683000  0.72637000  0.60090000  1.0 -0.1598731395
C  C110  1  0.72637000  0.88683000  0.89910000  1.0 -0.1598731395
C  C111  1  0.11317000  0.27363000  0.39910000  1.0 -0.1598731395
C  C112  1  0.27363000  0.11317000  0.10090000  1.0 -0.1598731395
C  C113  1  0.87851000  0.69701000  0.65770000  1.0 -0.1002047525
C  C114  1  0.69701000  0.87851000  0.84230000  1.0 -0.1002047525
C  C115  1  0.12149000  0.30299000  0.34230000  1.0 -0.1002047525
C  C116  1  0.30299000  0.12149000  0.15770000  1.0 -0.1002047525
C  C117  1  0.91492000  0.63436000  0.71340000  1.0 0.5907081926
C  C118  1  0.63436000  0.91492000  0.78660000  1.0 0.5907081926
C  C119  1  0.08508000  0.36564000  0.28660000  1.0 0.5907081926
C  C120  1  0.36564000  0.08508000  0.21340000  1.0 0.5907081926
C  C121  1  0.43340000  0.44218000  0.47520000  1.0 0.0996913972
C  C122  1  0.44218000  0.43340000  0.02480000  1.0 0.0996913972
C  C123  1  0.56660000  0.55782000  0.52480000  1.0 0.0996913972
C  C124  1  0.55782000  0.56660000  0.97520000  1.0 0.0996913972
C  C125  1  0.45656000  0.36328000  0.57610000  1.0 0.0704714463
C  C126  1  0.36328000  0.45656000  0.92390000  1.0 0.0704714463
C  C127  1  0.54344000  0.63672000  0.42390000  1.0 0.0704714463
C  C128  1  0.63672000  0.54344000  0.07610000  1.0 0.0704714463
C  C129  1  0.42148000  0.40796000  0.43900000  1.0 -0.1999040904
C  C130  1  0.40796000  0.42148000  0.06100000  1.0 -0.1999040904
C  C131  1  0.57852000  0.59204000  0.56100000  1.0 -0.1999040904
C  C132  1  0.59204000  0.57852000  0.93900000  1.0 -0.1999040904
C  C133  1  0.44440000  0.32740000  0.54450000  1.0 -0.1999040904
C  C134  1  0.32740000  0.44440000  0.95550000  1.0 -0.1999040904
C  C135  1  0.55560000  0.67260000  0.45550000  1.0 -0.1999040904
C  C136  1  0.67260000  0.55560000  0.04450000  1.0 -0.1999040904
C  C137  1  0.42719000  0.34907000  0.47360000  1.0 0.1498026385
C  C138  1  0.34907000  0.42719000  0.02640000  1.0 0.1498026385
C  C139  1  0.57281000  0.65093000  0.52640000  1.0 0.1498026385
C  C140  1  0.65093000  0.57281000  0.97360000  1.0 0.1498026385
C  C141  1  0.41867000  0.31169000  0.43750000  1.0 -0.1598731395
C  C142  1  0.31169000  0.41867000  0.06250000  1.0 -0.1598731395
C  C143  1  0.58133000  0.68831000  0.56250000  1.0 -0.1598731395
C  C144  1  0.68831000  0.58133000  0.93750000  1.0 -0.1598731395
C  C145  1  0.42120000  0.25530000  0.46640000  1.0 -0.1504820577
C  C146  1  0.25530000  0.42120000  0.03360000  1.0 -0.1504820577
C  C147  1  0.57880000  0.74470000  0.53360000  1.0 -0.1504820577
C  C148  1  0.74470000  0.57880000  0.96640000  1.0 -0.1504820577
C  C149  1  0.42331000  0.21341000  0.43390000  1.0 0.1598590143
C  C150  1  0.21341000  0.42331000  0.06610000  1.0 0.1598590143
C  C151  1  0.57669000  0.78659000  0.56610000  1.0 0.1598590143
C  C152  1  0.78659000  0.57669000  0.93390000  1.0 0.1598590143
C  C153  1  0.41693000  0.22973000  0.36700000  1.0 -0.1999040904
C  C154  1  0.22973000  0.41693000  0.13300000  1.0 -0.1999040904
C  C155  1  0.58307000  0.77027000  0.63300000  1.0 -0.1999040904
C  C156  1  0.77027000  0.58307000  0.86700000  1.0 -0.1999040904
C  C157  1  0.43555000  0.15279000  0.47260000  1.0 -0.1999040904
C  C158  1  0.15279000  0.43555000  0.02740000  1.0 -0.1999040904
C  C159  1  0.56445000  0.84721000  0.52740000  1.0 -0.1999040904
C  C160  1  0.84721000  0.56445000  0.97260000  1.0 -0.1999040904
C  C161  1  0.42605000  0.18645000  0.34320000  1.0 0.0808637188
C  C162  1  0.18645000  0.42605000  0.15680000  1.0 0.0808637188
C  C163  1  0.57395000  0.81355000  0.65680000  1.0 0.0808637188
C  C164  1  0.81355000  0.57395000  0.84320000  1.0 0.0808637188
C  C165  1  0.44419000  0.11237000  0.44530000  1.0 0.0996913972
C  C166  1  0.11237000  0.44419000  0.05470000  1.0 0.0996913972
C  C167  1  0.55581000  0.88763000  0.55470000  1.0 0.0996913972
C  C168  1  0.88763000  0.55581000  0.94530000  1.0 0.0996913972
C  C169  1  0.07948000  0.46948000  0.70720000  1.0 0.0808637188
C  C170  1  0.46948000  0.07948000  0.79280000  1.0 0.0808637188
C  C171  1  0.92052000  0.53052000  0.29280000  1.0 0.0808637188
C  C172  1  0.53052000  0.92052000  0.20720000  1.0 0.0808637188
C  C173  1  0.11069000  0.53069000  0.75180000  1.0 0.0894700077
C  C174  1  0.53069000  0.11069000  0.74820000  1.0 0.0894700077
C  C175  1  0.88931000  0.46931000  0.24820000  1.0 0.0894700077
C  C176  1  0.46931000  0.88931000  0.25180000  1.0 0.0894700077
C  C177  1  0.12256000  0.46276000  0.68360000  1.0 -0.1999040904
C  C178  1  0.46276000  0.12256000  0.81640000  1.0 -0.1999040904
C  C179  1  0.87744000  0.53724000  0.31640000  1.0 -0.1999040904
C  C180  1  0.53724000  0.87744000  0.18360000  1.0 -0.1999040904
C  C181  1  0.15774000  0.52514000  0.73110000  1.0 -0.2090261874
C  C182  1  0.52514000  0.15774000  0.76890000  1.0 -0.2090261874
C  C183  1  0.84226000  0.47486000  0.26890000  1.0 -0.2090261874
C  C184  1  0.47486000  0.84226000  0.23110000  1.0 -0.2090261874
C  C185  1  0.16507000  0.48807000  0.69840000  1.0 0.1598590143
C  C186  1  0.48807000  0.16507000  0.80160000  1.0 0.1598590143
C  C187  1  0.83493000  0.51193000  0.30160000  1.0 0.1598590143
C  C188  1  0.51193000  0.83493000  0.19840000  1.0 0.1598590143
C  C189  1  0.21398000  0.47918000  0.67640000  1.0 -0.1504820577
C  C190  1  0.47918000  0.21398000  0.82360000  1.0 -0.1504820577
C  C191  1  0.78602000  0.52082000  0.32360000  1.0 -0.1504820577
C  C192  1  0.52082000  0.78602000  0.17640000  1.0 -0.1504820577
C  C193  1  0.25942000  0.49542000  0.69350000  1.0 -0.11065181
C  C194  1  0.49542000  0.25942000  0.80650000  1.0 -0.11065181
C  C195  1  0.74058000  0.50458000  0.30650000  1.0 -0.11065181
C  C196  1  0.50458000  0.74058000  0.19350000  1.0 -0.11065181
C  C197  1  0.30948000  0.48508000  0.67240000  1.0 0.1498026385
C  C198  1  0.48508000  0.30948000  0.82760000  1.0 0.1498026385
C  C199  1  0.69052000  0.51492000  0.32760000  1.0 0.1498026385
C  C200  1  0.51492000  0.69052000  0.17240000  1.0 0.1498026385
C  C201  1  0.35467000  0.50503000  0.69560000  1.0 -0.2202852198
C  C202  1  0.50503000  0.35467000  0.80440000  1.0 -0.2202852198
C  C203  1  0.64533000  0.49497000  0.30440000  1.0 -0.2202852198
C  C204  1  0.49497000  0.64533000  0.19560000  1.0 -0.2202852198
C  C205  1  0.31117000  0.45957000  0.62740000  1.0 -0.1925804657
C  C206  1  0.45957000  0.31117000  0.87260000  1.0 -0.1925804657
C  C207  1  0.68883000  0.54043000  0.37260000  1.0 -0.1925804657
C  C208  1  0.54043000  0.68883000  0.12740000  1.0 -0.1925804657
C  C209  1  0.40013000  0.49817000  0.67400000  1.0 0.0506731956
C  C210  1  0.49817000  0.40013000  0.82600000  1.0 0.0506731956
C  C211  1  0.59987000  0.50183000  0.32600000  1.0 0.0506731956
C  C212  1  0.50183000  0.59987000  0.17400000  1.0 0.0506731956
C  C213  1  0.35750000  0.45490000  0.60820000  1.0 0.0506731956
C  C214  1  0.45490000  0.35750000  0.89180000  1.0 0.0506731956
C  C215  1  0.64250000  0.54510000  0.39180000  1.0 0.0506731956
C  C216  1  0.54510000  0.64250000  0.10820000  1.0 0.0506731956
C  C217  1  0.29420000  0.80160000  0.35310000  1.0 -0.032258089
C  C218  1  0.80160000  0.29420000  0.14690000  1.0 -0.032258089
C  C219  1  0.70580000  0.19840000  0.64690000  1.0 -0.032258089
C  C220  1  0.19840000  0.70580000  0.85310000  1.0 -0.032258089
C  C221  1  0.23620000  0.81120000  0.36390000  1.0 -0.0493896178
C  C222  1  0.81120000  0.23620000  0.13610000  1.0 -0.0493896178
C  C223  1  0.76380000  0.18880000  0.63610000  1.0 -0.0493896178
C  C224  1  0.18880000  0.76380000  0.86390000  1.0 -0.0493896178
C  C225  1  0.17810000  0.86150000  0.30250000  1.0 -0.0901520068
C  C226  1  0.86150000  0.17810000  0.19750000  1.0 -0.0901520068
C  C227  1  0.82190000  0.13850000  0.69750000  1.0 -0.0901520068
C  C228  1  0.13850000  0.82190000  0.80250000  1.0 -0.0901520068
C  C229  1  0.12950000  0.88990000  0.32220000  1.0 -0.1002047525
C  C230  1  0.88990000  0.12950000  0.17780000  1.0 -0.1002047525
C  C231  1  0.87050000  0.11010000  0.67780000  1.0 -0.1002047525
C  C232  1  0.11010000  0.87050000  0.82220000  1.0 -0.1002047525
C  C233  1  0.06920000  0.93600000  0.25910000  1.0 -0.1196403169
C  C234  1  0.93600000  0.06920000  0.24090000  1.0 -0.1196403169
C  C235  1  0.93080000  0.06400000  0.74090000  1.0 -0.1196403169
C  C236  1  0.06400000  0.93080000  0.75910000  1.0 -0.1196403169
C  C237  1  0.01350000  0.92070000  0.25900000  1.0 -0.3805747663
C  C238  1  0.92070000  0.01350000  0.24100000  1.0 -0.3805747663
C  C239  1  0.98650000  0.07930000  0.74100000  1.0 -0.3805747663
C  C240  1  0.07930000  0.98650000  0.75900000  1.0 -0.3805747663
C  C241  1  0.37524000  0.82964000  0.55760000  1.0 -0.2425944795
C  C242  1  0.82964000  0.37524000  0.94240000  1.0 -0.2425944795
C  C243  1  0.62476000  0.17036000  0.44240000  1.0 -0.2425944795
C  C244  1  0.17036000  0.62476000  0.05760000  1.0 -0.2425944795
C  C245  1  0.32594000  0.87974000  0.55490000  1.0 -0.1196403169
C  C246  1  0.87974000  0.32594000  0.94510000  1.0 -0.1196403169
C  C247  1  0.67406000  0.12026000  0.44510000  1.0 -0.1196403169
C  C248  1  0.12026000  0.67406000  0.05490000  1.0 -0.1196403169
C  C249  1  0.26623000  0.90523000  0.49170000  1.0 -0.2202852198
C  C250  1  0.90523000  0.26623000  0.00830000  1.0 -0.2202852198
C  C251  1  0.73377000  0.09477000  0.50830000  1.0 -0.2202852198
C  C252  1  0.09477000  0.73377000  0.99170000  1.0 -0.2202852198
C  C253  1  0.22080000  0.96120000  0.48480000  1.0 -0.1504820577
C  C254  1  0.96120000  0.22080000  0.01520000  1.0 -0.1504820577
C  C255  1  0.77920000  0.03880000  0.51520000  1.0 -0.1504820577
C  C256  1  0.03880000  0.77920000  0.98480000  1.0 -0.1504820577
C  C257  1  0.15980000  0.98840000  0.41940000  1.0 -0.1196403169
C  C258  1  0.98840000  0.15980000  0.08060000  1.0 -0.1196403169
C  C259  1  0.84020000  0.01160000  0.58060000  1.0 -0.1196403169
C  C260  1  0.01160000  0.84020000  0.91940000  1.0 -0.1196403169
C  C261  1  0.11310000  0.04590000  0.41190000  1.0 -0.4027030801
C  C262  1  0.04590000  0.11310000  0.08810000  1.0 -0.4027030801
C  C263  1  0.88690000  0.95410000  0.58810000  1.0 -0.4027030801
C  C264  1  0.95410000  0.88690000  0.91190000  1.0 -0.4027030801
C  C265  1  0.81445000  0.25825000  0.78890000  1.0 -0.2648460006
C  C266  1  0.25825000  0.81445000  0.71110000  1.0 -0.2658312952
C  C267  1  0.18555000  0.74175000  0.21110000  1.0 -0.2648460006
C  C268  1  0.74175000  0.18555000  0.28890000  1.0 -0.2648460006
C  C269  1  0.81730000  0.21150000  0.85420000  1.0 -0.1598731395
C  C270  1  0.21150000  0.81730000  0.64580000  1.0 -0.1598731395
C  C271  1  0.18270000  0.78850000  0.14580000  1.0 -0.1598731395
C  C272  1  0.78850000  0.18270000  0.35420000  1.0 -0.1598731395
C  C273  1  0.87420000  0.15420000  0.89180000  1.0 -0.1692562343
C  C274  1  0.15420000  0.87420000  0.60820000  1.0 -0.1692562343
C  C275  1  0.12580000  0.84580000  0.10820000  1.0 -0.1692562343
C  C276  1  0.84580000  0.12580000  0.39180000  1.0 -0.1692562343
C  C277  1  0.86910000  0.10430000  0.95290000  1.0 -0.1692562343
C  C278  1  0.10430000  0.86910000  0.54710000  1.0 -0.1692562343
C  C279  1  0.13090000  0.89570000  0.04710000  1.0 -0.1692562343
C  C280  1  0.89570000  0.13090000  0.45290000  1.0 -0.1692562343
C  C281  1  0.92390000  0.04510000  0.98250000  1.0 -0.1598731395
C  C282  1  0.04510000  0.92390000  0.51750000  1.0 -0.1598731395
C  C283  1  0.07610000  0.95490000  0.01750000  1.0 -0.1598731395
C  C284  1  0.95490000  0.07610000  0.48250000  1.0 -0.1598731395
C  C285  1  0.91830000  0.99690000  0.04410000  1.0 -0.1925804657
C  C286  1  0.99690000  0.91830000  0.45590000  1.0 -0.1925804657
C  C287  1  0.08170000  0.00310000  0.95590000  1.0 -0.1925804657
C  C288  1  0.00310000  0.08170000  0.54410000  1.0 -0.1925804657
C  C289  1  0.82010000  0.35930000  0.62170000  1.0 -0.0794693984
C  C290  1  0.35930000  0.82010000  0.87830000  1.0 -0.0794693984
C  C291  1  0.17990000  0.64070000  0.37830000  1.0 -0.0794693984
C  C292  1  0.64070000  0.17990000  0.12170000  1.0 -0.0794693984
C  C293  1  0.80860000  0.40200000  0.54900000  1.0 -0.1504820577
C  C294  1  0.40200000  0.80860000  0.95100000  1.0 -0.1504820577
C  C295  1  0.19140000  0.59800000  0.45100000  1.0 -0.1504820577
C  C296  1  0.59800000  0.19140000  0.04900000  1.0 -0.1504820577
C  C297  1  0.80490000  0.37050000  0.50110000  1.0 -0.1692562343
C  C298  1  0.37050000  0.80490000  0.99890000  1.0 -0.1692562343
C  C299  1  0.19510000  0.62950000  0.49890000  1.0 -0.1692562343
C  C300  1  0.62950000  0.19510000  0.00110000  1.0 -0.1692562343
C  C301  1  0.74820000  0.35600000  0.48130000  1.0 -0.0637932529
C  C302  1  0.35600000  0.74820000  0.01870000  1.0 -0.0637932529
C  C303  1  0.25180000  0.64400000  0.51870000  1.0 -0.0637932529
C  C304  1  0.64400000  0.25180000  0.98130000  1.0 -0.0637932529
C  C305  1  0.74550000  0.32770000  0.42950000  1.0 -0.0794693984
C  C306  1  0.32770000  0.74550000  0.07050000  1.0 -0.0794693984
C  C307  1  0.25450000  0.67230000  0.57050000  1.0 -0.0794693984
C  C308  1  0.67230000  0.25450000  0.92950000  1.0 -0.0794693984
C  C309  1  0.68930000  0.31130000  0.41090000  1.0 -0.1504820577
C  C310  1  0.31130000  0.68930000  0.08910000  1.0 -0.1504820577
C  C311  1  0.31070000  0.68870000  0.58910000  1.0 -0.1504820577
C  C312  1  0.68870000  0.31070000  0.91090000  1.0 -0.1504820577
C  C313  1  0.76078000  0.88896000  0.64650000  1.0 -0.2425944795
C  C314  1  0.88896000  0.76078000  0.85350000  1.0 -0.2425944795
C  C315  1  0.23922000  0.11104000  0.35350000  1.0 -0.2425944795
C  C316  1  0.11104000  0.23922000  0.14650000  1.0 -0.2425944795
C  C317  1  0.73376000  0.94316000  0.65730000  1.0 -0.1504820577
C  C318  1  0.94316000  0.73376000  0.84270000  1.0 -0.1504820577
C  C319  1  0.26624000  0.05684000  0.34270000  1.0 -0.1504820577
C  C320  1  0.05684000  0.26624000  0.15730000  1.0 -0.1504820577
C  C321  1  0.77343000  0.94303000  0.72430000  1.0 -0.1692562343
C  C322  1  0.94303000  0.77343000  0.77570000  1.0 -0.1692562343
C  C323  1  0.22657000  0.05697000  0.27570000  1.0 -0.1692562343
C  C324  1  0.05697000  0.22657000  0.22430000  1.0 -0.1692562343
C  C325  1  0.74215000  0.99415000  0.73750000  1.0 -0.1925804657
C  C326  1  0.99415000  0.74215000  0.76250000  1.0 -0.1925804657
C  C327  1  0.25785000  0.00585000  0.26250000  1.0 -0.1925804657
C  C328  1  0.00585000  0.25785000  0.23750000  1.0 -0.1925804657
C  C329  1  0.78069000  0.99469000  0.80400000  1.0 -0.1196403169
C  C330  1  0.99469000  0.78069000  0.69600000  1.0 -0.1196403169
C  C331  1  0.21931000  0.00531000  0.19600000  1.0 -0.1196403169
C  C332  1  0.00531000  0.21931000  0.30400000  1.0 -0.1196403169
C  C333  1  0.74220000  0.04120000  0.82070000  1.0 -0.3861658757
C  C334  1  0.04120000  0.74220000  0.67930000  1.0 -0.3861658757
C  C335  1  0.25780000  0.95880000  0.17930000  1.0 -0.3861658757
C  C336  1  0.95880000  0.25780000  0.32070000  1.0 -0.3861658757
C  C337  1  0.84350000  0.82750000  0.49550000  1.0 -0.1925804657
C  C338  1  0.82750000  0.84350000  0.00450000  1.0 -0.1925804657
C  C339  1  0.15650000  0.17250000  0.50450000  1.0 -0.1925804657
C  C340  1  0.17250000  0.15650000  0.99550000  1.0 -0.1925804657
C  C341  1  0.83550000  0.80530000  0.43770000  1.0 -0.1002047525
C  C342  1  0.80530000  0.83550000  0.06230000  1.0 -0.1002047525
C  C343  1  0.16450000  0.19470000  0.56230000  1.0 -0.1002047525
C  C344  1  0.19470000  0.16450000  0.93770000  1.0 -0.1002047525
C  C345  1  0.84760000  0.83680000  0.37420000  1.0 -0.2324017563
C  C346  1  0.83680000  0.84760000  0.12580000  1.0 -0.2324017563
C  C347  1  0.15240000  0.16320000  0.62580000  1.0 -0.2324017563
C  C348  1  0.16320000  0.15240000  0.87420000  1.0 -0.2324017563
C  C349  1  0.83230000  0.82090000  0.31160000  1.0 -0.1305479824
C  C350  1  0.82090000  0.83230000  0.18840000  1.0 -0.1305479824
C  C351  1  0.16770000  0.17910000  0.68840000  1.0 -0.1305479824
C  C352  1  0.17910000  0.16770000  0.81160000  1.0 -0.1305479824
C  C353  1  0.84830000  0.84830000  0.25000000  1.0 -0.032258089
C  C354  1  0.15170000  0.15170000  0.75000000  1.0 -0.032258089
C  C355  1  0.80550000  0.91130000  0.18700000  1.0 -0.3039290717
C  C356  1  0.91130000  0.80550000  0.31300000  1.0 -0.3039290717
C  C357  1  0.19450000  0.08870000  0.81300000  1.0 -0.3039290717
C  C358  1  0.08870000  0.19450000  0.68700000  1.0 -0.3039290717
C  C359  1  0.21080000  0.66940000  0.83190000  1.0 -0.1598731395
C  C360  1  0.66940000  0.21080000  0.66810000  1.0 -0.1598731395
C  C361  1  0.78920000  0.33060000  0.16810000  1.0 -0.1598731395
C  C362  1  0.33060000  0.78920000  0.33190000  1.0 -0.1598731395
C  C363  1  0.20050000  0.73750000  0.80920000  1.0 -0.0794693984
C  C364  1  0.73750000  0.20050000  0.69080000  1.0 -0.0794693984
C  C365  1  0.79950000  0.26250000  0.19080000  1.0 -0.0794693984
C  C366  1  0.26250000  0.79950000  0.30920000  1.0 -0.0794693984
C  C367  1  0.16250000  0.76770000  0.84000000  1.0 -0.0493896178
C  C368  1  0.76770000  0.16250000  0.66000000  1.0 -0.0493896178
C  C369  1  0.83750000  0.23230000  0.16000000  1.0 -0.0493896178
C  C370  1  0.23230000  0.83750000  0.34000000  1.0 -0.0493896178
C  C371  1  0.18650000  0.81050000  0.86630000  1.0 -0.1002047525
C  C372  1  0.81050000  0.18650000  0.63370000  1.0 -0.1002047525
C  C373  1  0.81350000  0.18950000  0.13370000  1.0 -0.1002047525
C  C374  1  0.18950000  0.81350000  0.36630000  1.0 -0.1002047525
C  C375  1  0.14430000  0.87830000  0.82400000  1.0 -0.032258089
C  C376  1  0.87830000  0.14430000  0.67600000  1.0 -0.032258089
C  C377  1  0.85570000  0.12170000  0.17600000  1.0 -0.032258089
C  C378  1  0.12170000  0.85570000  0.32400000  1.0 -0.032258089
C  C379  1  0.17620000  0.92140000  0.83900000  1.0 -0.3471901228
C  C380  1  0.92140000  0.17620000  0.66100000  1.0 -0.3471901228
C  C381  1  0.82380000  0.07860000  0.16100000  1.0 -0.3471901228
C  C382  1  0.07860000  0.82380000  0.33900000  1.0 -0.3471901228
C  C383  1  0.65120000  0.16940000  0.14740000  1.0 -0.1305479824
C  C384  1  0.16940000  0.65120000  0.35260000  1.0 -0.1305479824
C  C385  1  0.34880000  0.83060000  0.85260000  1.0 -0.1305479824
C  C386  1  0.83060000  0.34880000  0.64740000  1.0 -0.1305479824
C  C387  1  0.62420000  0.22160000  0.07450000  1.0 -0.0794693984
C  C388  1  0.22160000  0.62420000  0.42550000  1.0 -0.0794693984
C  C389  1  0.37580000  0.77840000  0.92550000  1.0 -0.0794693984
C  C390  1  0.77840000  0.37580000  0.57450000  1.0 -0.0794693984
C  C391  1  0.67150000  0.22530000  0.04640000  1.0 -0.1504820577
C  C392  1  0.22530000  0.67150000  0.45360000  1.0 -0.1504820577
C  C393  1  0.32850000  0.77470000  0.95360000  1.0 -0.1504820577
C  C394  1  0.77470000  0.32850000  0.54640000  1.0 -0.1504820577
C  C395  1  0.64490000  0.27430000  0.97240000  1.0 -0.11065181
C  C396  1  0.27430000  0.64490000  0.52760000  1.0 -0.11065181
C  C397  1  0.35510000  0.72570000  0.02760000  1.0 -0.11065181
C  C398  1  0.72570000  0.35510000  0.47240000  1.0 -0.11065181
C  C399  1  0.69410000  0.28530000  0.95000000  1.0 -0.071298753
C  C400  1  0.28530000  0.69410000  0.55000000  1.0 -0.071298753
C  C401  1  0.30590000  0.71470000  0.05000000  1.0 -0.071298753
C  C402  1  0.71470000  0.30590000  0.45000000  1.0 -0.071298753
C  C403  1  0.66790000  0.33150000  0.87430000  1.0 -0.1999040904
C  C404  1  0.33150000  0.66790000  0.62570000  1.0 -0.1999040904
C  C405  1  0.33210000  0.66850000  0.12570000  1.0 -0.1999040904
C  C406  1  0.66850000  0.33210000  0.37430000  1.0 -0.1999040904
C  C407  1  0.17170000  0.15970000  0.98790000  1.0 -0.1925804657
C  C408  1  0.15970000  0.17170000  0.51210000  1.0 -0.1925804657
C  C409  1  0.82830000  0.84030000  0.01210000  1.0 -0.1925804657
C  C410  1  0.84030000  0.82830000  0.48790000  1.0 -0.1925804657
C  C411  1  0.13530000  0.11990000  0.00280000  1.0 -0.0901520068
C  C412  1  0.11990000  0.13530000  0.49720000  1.0 -0.0901520068
C  C413  1  0.86470000  0.88010000  0.99720000  1.0 -0.0901520068
C  C414  1  0.88010000  0.86470000  0.50280000  1.0 -0.0901520068
C  C415  1  0.09200000  0.12180000  0.93480000  1.0 -0.2425944795
C  C416  1  0.12180000  0.09200000  0.56520000  1.0 -0.2425944795
C  C417  1  0.90800000  0.87820000  0.06520000  1.0 -0.2425944795
C  C418  1  0.87820000  0.90800000  0.43480000  1.0 -0.2425944795
C  C419  1  0.05500000  0.08220000  0.94910000  1.0 -0.0901520068
C  C420  1  0.08220000  0.05500000  0.55090000  1.0 -0.0901520068
C  C421  1  0.94500000  0.91780000  0.05090000  1.0 -0.0901520068
C  C422  1  0.91780000  0.94500000  0.44910000  1.0 -0.0901520068
C  C423  1  0.01590000  0.07950000  0.88270000  1.0 -0.071298753
C  C424  1  0.07950000  0.01590000  0.61730000  1.0 -0.071298753
C  C425  1  0.98410000  0.92050000  0.11730000  1.0 -0.071298753
C  C426  1  0.92050000  0.98410000  0.38270000  1.0 -0.071298753
C  C427  1  0.96810000  0.05290000  0.89310000  1.0 -0.4398550874
C  C428  1  0.05290000  0.96810000  0.60690000  1.0 -0.4398550874
C  C429  1  0.03190000  0.94710000  0.10690000  1.0 -0.4398550874
C  C430  1  0.94710000  0.03190000  0.39310000  1.0 -0.4398550874
S  S1  1  0.43563000  0.69657000  0.53787000  1.0 0.0808637188
S  S2  1  0.69657000  0.43563000  0.96213000  1.0 0.0808637188
S  S3  1  0.56437000  0.30343000  0.46213000  1.0 0.0808637188
S  S4  1  0.30343000  0.56437000  0.03787000  1.0 0.0808637188
S  S5  1  0.41723000  0.85535000  0.39677000  1.0 0.0808637188
S  S6  1  0.85535000  0.41723000  0.10323000  1.0 0.0808637188
S  S7  1  0.58277000  0.14465000  0.60323000  1.0 0.0808637188
S  S8  1  0.14465000  0.58277000  0.89677000  1.0 0.0808637188
S  S9  1  0.67781000  0.42453000  0.67879000  1.0 0.0996913972
S  S10  1  0.42453000  0.67781000  0.82121000  1.0 0.0996913972
S  S11  1  0.32219000  0.57547000  0.32121000  1.0 0.0996913972
S  S12  1  0.57547000  0.32219000  0.17879000  1.0 0.0996913972
S  S13  1  0.81719000  0.43895000  0.75457000  1.0 0.1191439491
S  S14  1  0.43895000  0.81719000  0.74543000  1.0 0.1191439491
S  S15  1  0.18281000  0.56105000  0.24543000  1.0 0.1191439491
S  S16  1  0.56105000  0.18281000  0.25457000  1.0 0.1191439491
S  S17  1  0.69097000  0.87295000  0.46832000  1.0 0.138973343
S  S18  1  0.87295000  0.69097000  0.03168000  1.0 0.138973343
S  S19  1  0.30903000  0.12705000  0.53168000  1.0 0.138973343
S  S20  1  0.12705000  0.30903000  0.96832000  1.0 0.138973343
S  S21  1  0.81616000  0.74196000  0.65802000  1.0 0.138973343
S  S22  1  0.74196000  0.81616000  0.84198000  1.0 0.138973343
S  S23  1  0.18384000  0.25804000  0.34198000  1.0 0.138973343
S  S24  1  0.25804000  0.18384000  0.15802000  1.0 0.130898769
N  N1  1  0.45156000  0.42018000  0.54340000  1.0 -0.2425944795
N  N2  1  0.42018000  0.45156000  0.95660000  1.0 -0.2425944795
N  N3  1  0.54844000  0.57982000  0.45660000  1.0 -0.2425944795
N  N4  1  0.57982000  0.54844000  0.04340000  1.0 -0.2425944795
N  N5  1  0.44078000  0.12760000  0.38250000  1.0 -0.2090261874
N  N6  1  0.12760000  0.44078000  0.11750000  1.0 -0.2090261874
N  N7  1  0.55922000  0.87240000  0.61750000  1.0 -0.2090261874
N  N8  1  0.87240000  0.55922000  0.88250000  1.0 -0.2090261874
N  N9  1  0.07299000  0.50255000  0.74110000  1.0 -0.1999040904
N  N10  1  0.50255000  0.07299000  0.75890000  1.0 -0.1999040904
N  N11  1  0.92701000  0.49745000  0.25890000  1.0 -0.1999040904
N  N12  1  0.49745000  0.92701000  0.24110000  1.0 -0.1999040904
N  N13  1  0.40263000  0.47297000  0.63130000  1.0 -0.2425944795
N  N14  1  0.47297000  0.40263000  0.86870000  1.0 -0.2425944795
N  N15  1  0.59737000  0.52703000  0.36870000  1.0 -0.2425944795
N  N16  1  0.52703000  0.59737000  0.13130000  1.0 -0.2425944795
O  O1  1  0.46535000  0.56401000  0.60540000  1.0 -0.4863743221
O  O2  1  0.56401000  0.46535000  0.89460000  1.0 -0.4863743221
O  O3  1  0.53465000  0.43599000  0.39460000  1.0 -0.4863743221
O  O4  1  0.43599000  0.53465000  0.10540000  1.0 -0.4863743221
O  O5  1  0.42624000  0.55450000  0.50942000  1.0 -0.4986314809
O  O6  1  0.55450000  0.42624000  0.99058000  1.0 -0.4986314809
O  O7  1  0.57376000  0.44550000  0.49058000  1.0 -0.4986314809
O  O8  1  0.44550000  0.57376000  0.00942000  1.0 -0.4986314809
O  O9  1  0.43186000  0.00370000  0.40260000  1.0 -0.5149648225
O  O10  1  0.00370000  0.43186000  0.09740000  1.0 -0.5149648225
O  O11  1  0.56814000  0.99630000  0.59740000  1.0 -0.5149648225
O  O12  1  0.99630000  0.56814000  0.90260000  1.0 -0.5149648225
O  O13  1  0.45271000  0.95373000  0.34248000  1.0 -0.5658179407
O  O14  1  0.95373000  0.45271000  0.15752000  1.0 -0.5658179407
O  O15  1  0.54729000  0.04627000  0.65752000  1.0 -0.5658179407
O  O16  1  0.04627000  0.54729000  0.84248000  1.0 -0.5658179407
O  O17  1  0.55292000  0.44142000  0.64830000  1.0 -0.5395380145
O  O18  1  0.44142000  0.55292000  0.85170000  1.0 -0.5395380145
O  O19  1  0.44708000  0.55858000  0.35170000  1.0 -0.5395380145
O  O20  1  0.55858000  0.44708000  0.14830000  1.0 -0.5395380145
O  O21  1  0.56624000  0.34426000  0.70229000  1.0 -0.5395380145
O  O22  1  0.34426000  0.56624000  0.79771000  1.0 -0.5395380145
O  O23  1  0.43376000  0.65574000  0.29771000  1.0 -0.5395380145
O  O24  1  0.65574000  0.43376000  0.20229000  1.0 -0.5395380145
O  O25  1  0.89404000  0.50520000  0.78291000  1.0 -0.5788973009
O  O26  1  0.50520000  0.89404000  0.71709000  1.0 -0.5788973009
O  O27  1  0.10596000  0.49480000  0.21709000  1.0 -0.5788973009
O  O28  1  0.49480000  0.10596000  0.28291000  1.0 -0.5788973009
O  O29  1  0.94822000  0.48332000  0.72674000  1.0 -0.5190685129
O  O30  1  0.48332000  0.94822000  0.77326000  1.0 -0.5190685129
O  O31  1  0.05178000  0.51668000  0.27326000  1.0 -0.5190685129
O  O32  1  0.51668000  0.05178000  0.22674000  1.0 -0.5190685129
O  O33  1  0.54573000  0.00965000  0.41641000  1.0 -0.5264770424
O  O34  1  0.00965000  0.54573000  0.08359000  1.0 -0.5264770424
O  O35  1  0.45427000  0.99035000  0.58359000  1.0 -0.5264770424
O  O36  1  0.99035000  0.45427000  0.91641000  1.0 -0.5264770424
O  O37  1  0.56875000  0.95603000  0.36027000  1.0 -0.5476229375
O  O38  1  0.95603000  0.56875000  0.13973000  1.0 -0.5476229375
O  O39  1  0.43125000  0.04397000  0.63973000  1.0 -0.5476229375
O  O40  1  0.04397000  0.43125000  0.86027000  1.0 -0.5476229375
O  O41  1  0.90096000  0.62058000  0.76335000  1.0 -0.5476229375
O  O42  1  0.62058000  0.90096000  0.73665000  1.0 -0.5476229375
O  O43  1  0.09904000  0.37942000  0.23665000  1.0 -0.5476229375
O  O44  1  0.37942000  0.09904000  0.26335000  1.0 -0.5476229375
O  O45  1  0.39910000  0.04442000  0.20576000  1.0 -0.5190685129
O  O46  1  0.04442000  0.39910000  0.29424000  1.0 -0.5190685129
O  O47  1  0.60090000  0.95558000  0.79424000  1.0 -0.5190685129
O  O48  1  0.95558000  0.60090000  0.70576000  1.0 -0.5190685129
