# DDEC6 charges by PACMAN v1.1 (https://github.com/mtap-research/PACMAN-charge/)
data_WEGJEB_ASR_pacman
_symmetry_space_group_name_H-M   'P 1'
_cell_length_a   19.31890000
_cell_length_b   19.31890000
_cell_length_c   23.75330000
_cell_angle_alpha   90.00000000
_cell_angle_beta   90.00000000
_cell_angle_gamma   90.00000000
_symmetry_Int_Tables_number   1
_chemical_formula_structural   CuMo6As2H12C16N6O13
_chemical_formula_sum   'Cu8 Mo48 As16 H96 C128 N48 O104'
_cell_volume   8865.20418440
_cell_formula_units_Z   8
loop_
 _symmetry_equiv_pos_site_id
 _symmetry_equiv_pos_as_xyz
  1  'x, y, z'
loop_
 _atom_site_type_symbol
 _atom_site_label
 _atom_site_symmetry_multiplicity
 _atom_site_fract_x
 _atom_site_fract_y
 _atom_site_fract_z
 _atom_site_occupancy
 _atom_site_charge
Cu  Cu1  1  0.50000000  0.28573000  0.25000000  1.0 0.5239992733
Cu  Cu2  1  0.50000000  0.71427000  0.25000000  1.0 0.5239992733
Cu  Cu3  1  0.21427000  0.00000000  0.75000000  1.0 0.5252426709
Cu  Cu4  1  0.78573000  0.00000000  0.75000000  1.0 0.5252426709
Cu  Cu5  1  0.00000000  0.21427000  0.25000000  1.0 0.5239992733
Cu  Cu6  1  0.00000000  0.78573000  0.25000000  1.0 0.5252426709
Cu  Cu7  1  0.28573000  0.50000000  0.75000000  1.0 0.5239992733
Cu  Cu8  1  0.71427000  0.50000000  0.75000000  1.0 0.5252426709
Mo  Mo1  1  0.05745000  0.92398000  0.15447000  1.0 1.6827682698
Mo  Mo2  1  0.03804000  0.79963000  0.05514000  1.0 1.2436580206
Mo  Mo3  1  0.90383000  0.81897000  0.94403000  1.0 1.2127163331
Mo  Mo4  1  0.94255000  0.07602000  0.15447000  1.0 1.6827682698
Mo  Mo5  1  0.96196000  0.20037000  0.05514000  1.0 1.2459357376
Mo  Mo6  1  0.09617000  0.18103000  0.94403000  1.0 1.2127163331
Mo  Mo7  1  0.57602000  0.55745000  0.65447000  1.0 1.6827682698
Mo  Mo8  1  0.70037000  0.53804000  0.55514000  1.0 1.2459357376
Mo  Mo9  1  0.68103000  0.40383000  0.44403000  1.0 1.2127163331
Mo  Mo10  1  0.42398000  0.44255000  0.65447000  1.0 1.6827682698
Mo  Mo11  1  0.29963000  0.46196000  0.55514000  1.0 1.2436580206
Mo  Mo12  1  0.31897000  0.59617000  0.44403000  1.0 1.2127163331
Mo  Mo13  1  0.94255000  0.92398000  0.34553000  1.0 1.6888305901
Mo  Mo14  1  0.96196000  0.79963000  0.44486000  1.0 1.2459357376
Mo  Mo15  1  0.09617000  0.81897000  0.55597000  1.0 1.2127163331
Mo  Mo16  1  0.05745000  0.07602000  0.34553000  1.0 1.6888305901
Mo  Mo17  1  0.03804000  0.20037000  0.44486000  1.0 1.2436580206
Mo  Mo18  1  0.90383000  0.18103000  0.55597000  1.0 1.2127163331
Mo  Mo19  1  0.42398000  0.55745000  0.84553000  1.0 1.6827682698
Mo  Mo20  1  0.29963000  0.53804000  0.94486000  1.0 1.2436580206
Mo  Mo21  1  0.31897000  0.40383000  0.05597000  1.0 1.2127163331
Mo  Mo22  1  0.57602000  0.44255000  0.84553000  1.0 1.6888305901
Mo  Mo23  1  0.70037000  0.46196000  0.94486000  1.0 1.2459357376
Mo  Mo24  1  0.68103000  0.59617000  0.05597000  1.0 1.2127163331
Mo  Mo25  1  0.44255000  0.57602000  0.34553000  1.0 1.6888305901
Mo  Mo26  1  0.46196000  0.70037000  0.44486000  1.0 1.2436580206
Mo  Mo27  1  0.59617000  0.68103000  0.55597000  1.0 1.2127163331
Mo  Mo28  1  0.55745000  0.42398000  0.34553000  1.0 1.6888305901
Mo  Mo29  1  0.53804000  0.29963000  0.44486000  1.0 1.2459357376
Mo  Mo30  1  0.40383000  0.31897000  0.55597000  1.0 1.2127163331
Mo  Mo31  1  0.92398000  0.94255000  0.84553000  1.0 1.6888305901
Mo  Mo32  1  0.79963000  0.96196000  0.94486000  1.0 1.2459357376
Mo  Mo33  1  0.81897000  0.09617000  0.05597000  1.0 1.2127163331
Mo  Mo34  1  0.07602000  0.05745000  0.84553000  1.0 1.6827682698
Mo  Mo35  1  0.20037000  0.03804000  0.94486000  1.0 1.2459357376
Mo  Mo36  1  0.18103000  0.90383000  0.05597000  1.0 1.2127163331
Mo  Mo37  1  0.55745000  0.57602000  0.15447000  1.0 1.6827682698
Mo  Mo38  1  0.53804000  0.70037000  0.05514000  1.0 1.2436580206
Mo  Mo39  1  0.40383000  0.68103000  0.94403000  1.0 1.2127163331
Mo  Mo40  1  0.44255000  0.42398000  0.15447000  1.0 1.6827682698
Mo  Mo41  1  0.46196000  0.29963000  0.05514000  1.0 1.2436580206
Mo  Mo42  1  0.59617000  0.31897000  0.94403000  1.0 1.2127163331
Mo  Mo43  1  0.07602000  0.94255000  0.65447000  1.0 1.6827682698
Mo  Mo44  1  0.20037000  0.96196000  0.55514000  1.0 1.2436580206
Mo  Mo45  1  0.18103000  0.09617000  0.44403000  1.0 1.2127163331
Mo  Mo46  1  0.92398000  0.05745000  0.65447000  1.0 1.6888305901
Mo  Mo47  1  0.79963000  0.03804000  0.55514000  1.0 1.2459357376
Mo  Mo48  1  0.81897000  0.90383000  0.44403000  1.0 1.2127163331
As  As1  1  0.09763000  0.07235000  0.06934000  1.0 1.4403158793
As  As2  1  0.90237000  0.92765000  0.06934000  1.0 1.4403158793
As  As3  1  0.42765000  0.59763000  0.56934000  1.0 1.4403158793
As  As4  1  0.57235000  0.40237000  0.56934000  1.0 1.4403158793
As  As5  1  0.90237000  0.07235000  0.43066000  1.0 1.4403158793
As  As6  1  0.09763000  0.92765000  0.43066000  1.0 1.4403158793
As  As7  1  0.57235000  0.59763000  0.93066000  1.0 1.4403158793
As  As8  1  0.42765000  0.40237000  0.93066000  1.0 1.4403158793
As  As9  1  0.40237000  0.42765000  0.43066000  1.0 1.4403158793
As  As10  1  0.59763000  0.57235000  0.43066000  1.0 1.4403158793
As  As11  1  0.07235000  0.90237000  0.93066000  1.0 1.4403158793
As  As12  1  0.92765000  0.09763000  0.93066000  1.0 1.4403158793
As  As13  1  0.59763000  0.42765000  0.06934000  1.0 1.4403158793
As  As14  1  0.40237000  0.57235000  0.06934000  1.0 1.4403158793
As  As15  1  0.92765000  0.90237000  0.56934000  1.0 1.4403158793
As  As16  1  0.07235000  0.09763000  0.56934000  1.0 1.4403158793
H  H1  1  0.21825000  0.16113000  0.05543000  1.0 0.0841103116
H  H2  1  0.30382000  0.20643000  0.11438000  1.0 0.1024904284
H  H3  1  0.21046000  0.12327000  0.24757000  1.0 0.1024904284
H  H4  1  0.11765000  0.08526000  0.18921000  1.0 0.089257508
H  H5  1  0.37530000  0.25499000  0.17734000  1.0 0.089257508
H  H6  1  0.29486000  0.14655000  0.30354000  1.0 0.1052505369
H  H7  1  0.78175000  0.83887000  0.05543000  1.0 0.0841103116
H  H8  1  0.69618000  0.79357000  0.11438000  1.0 0.1024904284
H  H9  1  0.78954000  0.87673000  0.24757000  1.0 0.1024904284
H  H10  1  0.88235000  0.91474000  0.18921000  1.0 0.089257508
H  H11  1  0.62470000  0.74501000  0.17734000  1.0 0.089257508
H  H12  1  0.70514000  0.85345000  0.30354000  1.0 0.1052505369
H  H13  1  0.33887000  0.71825000  0.55543000  1.0 0.0841103116
H  H14  1  0.29357000  0.80382000  0.61438000  1.0 0.1024904284
H  H15  1  0.37673000  0.71046000  0.74757000  1.0 0.1024904284
H  H16  1  0.41474000  0.61765000  0.68921000  1.0 0.089257508
H  H17  1  0.24501000  0.87530000  0.67734000  1.0 0.089257508
H  H18  1  0.35345000  0.79486000  0.80354000  1.0 0.1052505369
H  H19  1  0.66113000  0.28175000  0.55543000  1.0 0.0841103116
H  H20  1  0.70643000  0.19618000  0.61438000  1.0 0.1024904284
H  H21  1  0.62327000  0.28954000  0.74757000  1.0 0.1024904284
H  H22  1  0.58526000  0.38235000  0.68921000  1.0 0.089257508
H  H23  1  0.75499000  0.12470000  0.67734000  1.0 0.089257508
H  H24  1  0.64655000  0.20514000  0.80354000  1.0 0.1052505369
H  H25  1  0.78175000  0.16113000  0.44457000  1.0 0.0841103116
H  H26  1  0.69618000  0.20643000  0.38562000  1.0 0.1024904284
H  H27  1  0.78954000  0.12327000  0.25243000  1.0 0.1024904284
H  H28  1  0.88235000  0.08526000  0.31079000  1.0 0.089257508
H  H29  1  0.62470000  0.25499000  0.32266000  1.0 0.089257508
H  H30  1  0.70514000  0.14655000  0.19646000  1.0 0.1052505369
H  H31  1  0.21825000  0.83887000  0.44457000  1.0 0.0841103116
H  H32  1  0.30382000  0.79357000  0.38562000  1.0 0.1024904284
H  H33  1  0.21046000  0.87673000  0.25243000  1.0 0.1024904284
H  H34  1  0.11765000  0.91474000  0.31079000  1.0 0.089257508
H  H35  1  0.37530000  0.74501000  0.32266000  1.0 0.089257508
H  H36  1  0.29486000  0.85345000  0.19646000  1.0 0.1052505369
H  H37  1  0.66113000  0.71825000  0.94457000  1.0 0.0841103116
H  H38  1  0.70643000  0.80382000  0.88562000  1.0 0.1024904284
H  H39  1  0.62327000  0.71046000  0.75243000  1.0 0.1024904284
H  H40  1  0.58526000  0.61765000  0.81079000  1.0 0.089257508
H  H41  1  0.75499000  0.87530000  0.82266000  1.0 0.089257508
H  H42  1  0.64655000  0.79486000  0.69646000  1.0 0.1052505369
H  H43  1  0.33887000  0.28175000  0.94457000  1.0 0.0841103116
H  H44  1  0.29357000  0.19618000  0.88562000  1.0 0.1024904284
H  H45  1  0.37673000  0.28954000  0.75243000  1.0 0.1024904284
H  H46  1  0.41474000  0.38235000  0.81079000  1.0 0.089257508
H  H47  1  0.24501000  0.12470000  0.82266000  1.0 0.089257508
H  H48  1  0.35345000  0.20514000  0.69646000  1.0 0.1052505369
H  H49  1  0.28175000  0.33887000  0.44457000  1.0 0.0841103116
H  H50  1  0.19618000  0.29357000  0.38562000  1.0 0.1024904284
H  H51  1  0.28954000  0.37673000  0.25243000  1.0 0.1024904284
H  H52  1  0.38235000  0.41474000  0.31079000  1.0 0.089257508
H  H53  1  0.12470000  0.24501000  0.32266000  1.0 0.089257508
H  H54  1  0.20514000  0.35345000  0.19646000  1.0 0.1052505369
H  H55  1  0.71825000  0.66113000  0.44457000  1.0 0.0841103116
H  H56  1  0.80382000  0.70643000  0.38562000  1.0 0.1024904284
H  H57  1  0.71046000  0.62327000  0.25243000  1.0 0.1024904284
H  H58  1  0.61765000  0.58526000  0.31079000  1.0 0.089257508
H  H59  1  0.87530000  0.75499000  0.32266000  1.0 0.089257508
H  H60  1  0.79486000  0.64655000  0.19646000  1.0 0.1052505369
H  H61  1  0.16113000  0.78175000  0.94457000  1.0 0.0841103116
H  H62  1  0.20643000  0.69618000  0.88562000  1.0 0.1024904284
H  H63  1  0.12327000  0.78954000  0.75243000  1.0 0.1024904284
H  H64  1  0.08526000  0.88235000  0.81079000  1.0 0.089257508
H  H65  1  0.25499000  0.62470000  0.82266000  1.0 0.089257508
H  H66  1  0.14655000  0.70514000  0.69646000  1.0 0.1052505369
H  H67  1  0.83887000  0.21825000  0.94457000  1.0 0.0841103116
H  H68  1  0.79357000  0.30382000  0.88562000  1.0 0.1024904284
H  H69  1  0.87673000  0.21046000  0.75243000  1.0 0.1024904284
H  H70  1  0.91474000  0.11765000  0.81079000  1.0 0.089257508
H  H71  1  0.74501000  0.37530000  0.82266000  1.0 0.089257508
H  H72  1  0.85345000  0.29486000  0.69646000  1.0 0.1052505369
H  H73  1  0.71825000  0.33887000  0.05543000  1.0 0.0841103116
H  H74  1  0.80382000  0.29357000  0.11438000  1.0 0.1024904284
H  H75  1  0.71046000  0.37673000  0.24757000  1.0 0.1024904284
H  H76  1  0.61765000  0.41474000  0.18921000  1.0 0.089257508
H  H77  1  0.87530000  0.24501000  0.17734000  1.0 0.089257508
H  H78  1  0.79486000  0.35345000  0.30354000  1.0 0.1052505369
H  H79  1  0.28175000  0.66113000  0.05543000  1.0 0.0841103116
H  H80  1  0.19618000  0.70643000  0.11438000  1.0 0.1024904284
H  H81  1  0.28954000  0.62327000  0.24757000  1.0 0.1024904284
H  H82  1  0.38235000  0.58526000  0.18921000  1.0 0.089257508
H  H83  1  0.12470000  0.75499000  0.17734000  1.0 0.089257508
H  H84  1  0.20514000  0.64655000  0.30354000  1.0 0.1052505369
H  H85  1  0.83887000  0.78175000  0.55543000  1.0 0.0841103116
H  H86  1  0.79357000  0.69618000  0.61438000  1.0 0.1024904284
H  H87  1  0.87673000  0.78954000  0.74757000  1.0 0.1024904284
H  H88  1  0.91474000  0.88235000  0.68921000  1.0 0.089257508
H  H89  1  0.74501000  0.62470000  0.67734000  1.0 0.089257508
H  H90  1  0.85345000  0.70514000  0.80354000  1.0 0.1052505369
H  H91  1  0.16113000  0.21825000  0.55543000  1.0 0.0841103116
H  H92  1  0.20643000  0.30382000  0.61438000  1.0 0.1024904284
H  H93  1  0.12327000  0.21046000  0.74757000  1.0 0.1024904284
H  H94  1  0.08526000  0.11765000  0.68921000  1.0 0.089257508
H  H95  1  0.25499000  0.37530000  0.67734000  1.0 0.089257508
H  H96  1  0.14655000  0.29486000  0.80354000  1.0 0.1052505369
C  C1  1  0.16280000  0.11670000  0.11680000  1.0 -0.2499603467
C  C2  1  0.21620000  0.15380000  0.09410000  1.0 -0.0876936093
C  C3  1  0.26730000  0.18070000  0.12900000  1.0 -0.1935021435
C  C4  1  0.26220000  0.16810000  0.18600000  1.0 0.1291283019
C  C5  1  0.21080000  0.13210000  0.20910000  1.0 -0.1979811622
C  C6  1  0.15620000  0.10710000  0.17400000  1.0 -0.0679130086
C  C7  1  0.36920000  0.23300000  0.21180000  1.0 0.058216277
C  C8  1  0.32530000  0.17300000  0.28220000  1.0 0.058216277
C  C9  1  0.83720000  0.88330000  0.11680000  1.0 -0.2499603467
C  C10  1  0.78380000  0.84620000  0.09410000  1.0 -0.0876936093
C  C11  1  0.73270000  0.81930000  0.12900000  1.0 -0.1935021435
C  C12  1  0.73780000  0.83190000  0.18600000  1.0 0.1291283019
C  C13  1  0.78920000  0.86790000  0.20910000  1.0 -0.1979811622
C  C14  1  0.84380000  0.89290000  0.17400000  1.0 -0.0679130086
C  C15  1  0.63080000  0.76700000  0.21180000  1.0 0.058216277
C  C16  1  0.67470000  0.82700000  0.28220000  1.0 0.058216277
C  C17  1  0.38330000  0.66280000  0.61680000  1.0 -0.2499603467
C  C18  1  0.34620000  0.71620000  0.59410000  1.0 -0.0876936093
C  C19  1  0.31930000  0.76730000  0.62900000  1.0 -0.1979811622
C  C20  1  0.33190000  0.76220000  0.68600000  1.0 0.1291283019
C  C21  1  0.36790000  0.71080000  0.70910000  1.0 -0.1979811622
C  C22  1  0.39290000  0.65620000  0.67400000  1.0 -0.0679130086
C  C23  1  0.26700000  0.86920000  0.71180000  1.0 0.058216277
C  C24  1  0.32700000  0.82530000  0.78220000  1.0 0.058216277
C  C25  1  0.61670000  0.33720000  0.61680000  1.0 -0.2499603467
C  C26  1  0.65380000  0.28380000  0.59410000  1.0 -0.0876936093
C  C27  1  0.68070000  0.23270000  0.62900000  1.0 -0.1979811622
C  C28  1  0.66810000  0.23780000  0.68600000  1.0 0.1291283019
C  C29  1  0.63210000  0.28920000  0.70910000  1.0 -0.1979811622
C  C30  1  0.60710000  0.34380000  0.67400000  1.0 -0.0679130086
C  C31  1  0.73300000  0.13080000  0.71180000  1.0 0.058216277
C  C32  1  0.67300000  0.17470000  0.78220000  1.0 0.058216277
C  C33  1  0.83720000  0.11670000  0.38320000  1.0 -0.2499603467
C  C34  1  0.78380000  0.15380000  0.40590000  1.0 -0.0876936093
C  C35  1  0.73270000  0.18070000  0.37100000  1.0 -0.1979811622
C  C36  1  0.73780000  0.16810000  0.31400000  1.0 0.1291283019
C  C37  1  0.78920000  0.13210000  0.29090000  1.0 -0.1979811622
C  C38  1  0.84380000  0.10710000  0.32600000  1.0 -0.0679130086
C  C39  1  0.63080000  0.23300000  0.28820000  1.0 0.058216277
C  C40  1  0.67470000  0.17300000  0.21780000  1.0 0.058216277
C  C41  1  0.16280000  0.88330000  0.38320000  1.0 -0.2499603467
C  C42  1  0.21620000  0.84620000  0.40590000  1.0 -0.0876936093
C  C43  1  0.26730000  0.81930000  0.37100000  1.0 -0.1979811622
C  C44  1  0.26220000  0.83190000  0.31400000  1.0 0.1291283019
C  C45  1  0.21080000  0.86790000  0.29090000  1.0 -0.1979811622
C  C46  1  0.15620000  0.89290000  0.32600000  1.0 -0.0679130086
C  C47  1  0.36920000  0.76700000  0.28820000  1.0 0.058216277
C  C48  1  0.32530000  0.82700000  0.21780000  1.0 0.058216277
C  C49  1  0.61670000  0.66280000  0.88320000  1.0 -0.2499603467
C  C50  1  0.65380000  0.71620000  0.90590000  1.0 -0.0876936093
C  C51  1  0.68070000  0.76730000  0.87100000  1.0 -0.1979811622
C  C52  1  0.66810000  0.76220000  0.81400000  1.0 0.1291283019
C  C53  1  0.63210000  0.71080000  0.79090000  1.0 -0.1979811622
C  C54  1  0.60710000  0.65620000  0.82600000  1.0 -0.0679130086
C  C55  1  0.73300000  0.86920000  0.78820000  1.0 0.058216277
C  C56  1  0.67300000  0.82530000  0.71780000  1.0 0.058216277
C  C57  1  0.38330000  0.33720000  0.88320000  1.0 -0.2499603467
C  C58  1  0.34620000  0.28380000  0.90590000  1.0 -0.0876936093
C  C59  1  0.31930000  0.23270000  0.87100000  1.0 -0.1979811622
C  C60  1  0.33190000  0.23780000  0.81400000  1.0 0.1291283019
C  C61  1  0.36790000  0.28920000  0.79090000  1.0 -0.1979811622
C  C62  1  0.39290000  0.34380000  0.82600000  1.0 -0.0679130086
C  C63  1  0.26700000  0.13080000  0.78820000  1.0 0.058216277
C  C64  1  0.32700000  0.17470000  0.71780000  1.0 0.058216277
C  C65  1  0.33720000  0.38330000  0.38320000  1.0 -0.2499603467
C  C66  1  0.28380000  0.34620000  0.40590000  1.0 -0.0876936093
C  C67  1  0.23270000  0.31930000  0.37100000  1.0 -0.1979811622
C  C68  1  0.23780000  0.33190000  0.31400000  1.0 0.1291283019
C  C69  1  0.28920000  0.36790000  0.29090000  1.0 -0.1979811622
C  C70  1  0.34380000  0.39290000  0.32600000  1.0 -0.0679130086
C  C71  1  0.13080000  0.26700000  0.28820000  1.0 0.058216277
C  C72  1  0.17470000  0.32700000  0.21780000  1.0 0.058216277
C  C73  1  0.66280000  0.61670000  0.38320000  1.0 -0.2499603467
C  C74  1  0.71620000  0.65380000  0.40590000  1.0 -0.0876936093
C  C75  1  0.76730000  0.68070000  0.37100000  1.0 -0.1979811622
C  C76  1  0.76220000  0.66810000  0.31400000  1.0 0.1291283019
C  C77  1  0.71080000  0.63210000  0.29090000  1.0 -0.1979811622
C  C78  1  0.65620000  0.60710000  0.32600000  1.0 -0.0679130086
C  C79  1  0.86920000  0.73300000  0.28820000  1.0 0.058216277
C  C80  1  0.82530000  0.67300000  0.21780000  1.0 0.058216277
C  C81  1  0.11670000  0.83720000  0.88320000  1.0 -0.2499603467
C  C82  1  0.15380000  0.78380000  0.90590000  1.0 -0.0876936093
C  C83  1  0.18070000  0.73270000  0.87100000  1.0 -0.1979811622
C  C84  1  0.16810000  0.73780000  0.81400000  1.0 0.1291283019
C  C85  1  0.13210000  0.78920000  0.79090000  1.0 -0.1979811622
C  C86  1  0.10710000  0.84380000  0.82600000  1.0 -0.0679130086
C  C87  1  0.23300000  0.63080000  0.78820000  1.0 0.058216277
C  C88  1  0.17300000  0.67470000  0.71780000  1.0 0.058216277
C  C89  1  0.88330000  0.16280000  0.88320000  1.0 -0.2499603467
C  C90  1  0.84620000  0.21620000  0.90590000  1.0 -0.0876936093
C  C91  1  0.81930000  0.26730000  0.87100000  1.0 -0.1979811622
C  C92  1  0.83190000  0.26220000  0.81400000  1.0 0.1291283019
C  C93  1  0.86790000  0.21080000  0.79090000  1.0 -0.1979811622
C  C94  1  0.89290000  0.15620000  0.82600000  1.0 -0.0679130086
C  C95  1  0.76700000  0.36920000  0.78820000  1.0 0.058216277
C  C96  1  0.82700000  0.32530000  0.71780000  1.0 0.058216277
C  C97  1  0.66280000  0.38330000  0.11680000  1.0 -0.2499603467
C  C98  1  0.71620000  0.34620000  0.09410000  1.0 -0.0876936093
C  C99  1  0.76730000  0.31930000  0.12900000  1.0 -0.1935021435
C  C100  1  0.76220000  0.33190000  0.18600000  1.0 0.1291283019
C  C101  1  0.71080000  0.36790000  0.20910000  1.0 -0.1979811622
C  C102  1  0.65620000  0.39290000  0.17400000  1.0 -0.0679130086
C  C103  1  0.86920000  0.26700000  0.21180000  1.0 0.058216277
C  C104  1  0.82530000  0.32700000  0.28220000  1.0 0.058216277
C  C105  1  0.33720000  0.61670000  0.11680000  1.0 -0.2499603467
C  C106  1  0.28380000  0.65380000  0.09410000  1.0 -0.0876936093
C  C107  1  0.23270000  0.68070000  0.12900000  1.0 -0.1935021435
C  C108  1  0.23780000  0.66810000  0.18600000  1.0 0.1291283019
C  C109  1  0.28920000  0.63210000  0.20910000  1.0 -0.1979811622
C  C110  1  0.34380000  0.60710000  0.17400000  1.0 -0.0679130086
C  C111  1  0.13080000  0.73300000  0.21180000  1.0 0.058216277
C  C112  1  0.17470000  0.67300000  0.28220000  1.0 0.058216277
C  C113  1  0.88330000  0.83720000  0.61680000  1.0 -0.2499603467
C  C114  1  0.84620000  0.78380000  0.59410000  1.0 -0.0876936093
C  C115  1  0.81930000  0.73270000  0.62900000  1.0 -0.1979811622
C  C116  1  0.83190000  0.73780000  0.68600000  1.0 0.1291283019
C  C117  1  0.86790000  0.78920000  0.70910000  1.0 -0.1979811622
C  C118  1  0.89290000  0.84380000  0.67400000  1.0 -0.0679130086
C  C119  1  0.76700000  0.63080000  0.71180000  1.0 0.058216277
C  C120  1  0.82700000  0.67470000  0.78220000  1.0 0.058216277
C  C121  1  0.11670000  0.16280000  0.61680000  1.0 -0.2499603467
C  C122  1  0.15380000  0.21620000  0.59410000  1.0 -0.0876936093
C  C123  1  0.18070000  0.26730000  0.62900000  1.0 -0.1979811622
C  C124  1  0.16810000  0.26220000  0.68600000  1.0 0.1291283019
C  C125  1  0.13210000  0.21080000  0.70910000  1.0 -0.1979811622
C  C126  1  0.10710000  0.15620000  0.67400000  1.0 -0.0679130086
C  C127  1  0.23300000  0.36920000  0.71180000  1.0 0.058216277
C  C128  1  0.17300000  0.32530000  0.78220000  1.0 0.058216277
N  N1  1  0.40980000  0.23990000  0.25370000  1.0 -0.2395359209
N  N2  1  0.38190000  0.20010000  0.30030000  1.0 -0.2114134669
N  N3  1  0.31660000  0.19000000  0.22380000  1.0 -0.0545490128
N  N4  1  0.59020000  0.76010000  0.25370000  1.0 -0.2395359209
N  N5  1  0.61810000  0.79990000  0.30030000  1.0 -0.2114134669
N  N6  1  0.68340000  0.81000000  0.22380000  1.0 -0.0545490128
N  N7  1  0.26010000  0.90980000  0.75370000  1.0 -0.2395359209
N  N8  1  0.29990000  0.88190000  0.80030000  1.0 -0.2114134669
N  N9  1  0.31000000  0.81660000  0.72380000  1.0 -0.0545490128
N  N10  1  0.73990000  0.09020000  0.75370000  1.0 -0.2395359209
N  N11  1  0.70010000  0.11810000  0.80030000  1.0 -0.2114134669
N  N12  1  0.69000000  0.18340000  0.72380000  1.0 -0.0545490128
N  N13  1  0.59020000  0.23990000  0.24630000  1.0 -0.2395359209
N  N14  1  0.61810000  0.20010000  0.19970000  1.0 -0.2114134669
N  N15  1  0.68340000  0.19000000  0.27620000  1.0 -0.0552762677
N  N16  1  0.40980000  0.76010000  0.24630000  1.0 -0.2395359209
N  N17  1  0.38190000  0.79990000  0.19970000  1.0 -0.2114134669
N  N18  1  0.31660000  0.81000000  0.27620000  1.0 -0.0552762677
N  N19  1  0.73990000  0.90980000  0.74630000  1.0 -0.2395359209
N  N20  1  0.70010000  0.88190000  0.69970000  1.0 -0.2114134669
N  N21  1  0.69000000  0.81660000  0.77620000  1.0 -0.0545490128
N  N22  1  0.26010000  0.09020000  0.74630000  1.0 -0.2395359209
N  N23  1  0.29990000  0.11810000  0.69970000  1.0 -0.2114134669
N  N24  1  0.31000000  0.18340000  0.77620000  1.0 -0.0545490128
N  N25  1  0.09020000  0.26010000  0.24630000  1.0 -0.2395359209
N  N26  1  0.11810000  0.29990000  0.19970000  1.0 -0.2114134669
N  N27  1  0.18340000  0.31000000  0.27620000  1.0 -0.0552762677
N  N28  1  0.90980000  0.73990000  0.24630000  1.0 -0.2395359209
N  N29  1  0.88190000  0.70010000  0.19970000  1.0 -0.2114134669
N  N30  1  0.81660000  0.69000000  0.27620000  1.0 -0.0545490128
N  N31  1  0.23990000  0.59020000  0.74630000  1.0 -0.2395359209
N  N32  1  0.20010000  0.61810000  0.69970000  1.0 -0.2114134669
N  N33  1  0.19000000  0.68340000  0.77620000  1.0 -0.0545490128
N  N34  1  0.76010000  0.40980000  0.74630000  1.0 -0.2395359209
N  N35  1  0.79990000  0.38190000  0.69970000  1.0 -0.2114134669
N  N36  1  0.81000000  0.31660000  0.77620000  1.0 -0.0545490128
N  N37  1  0.90980000  0.26010000  0.25370000  1.0 -0.2395359209
N  N38  1  0.88190000  0.29990000  0.30030000  1.0 -0.2114134669
N  N39  1  0.81660000  0.31000000  0.22380000  1.0 -0.0545490128
N  N40  1  0.09020000  0.73990000  0.25370000  1.0 -0.2395359209
N  N41  1  0.11810000  0.70010000  0.30030000  1.0 -0.2114134669
N  N42  1  0.18340000  0.69000000  0.22380000  1.0 -0.0545490128
N  N43  1  0.76010000  0.59020000  0.75370000  1.0 -0.2395359209
N  N44  1  0.79990000  0.61810000  0.80030000  1.0 -0.2114134669
N  N45  1  0.81000000  0.68340000  0.72380000  1.0 -0.0545490128
N  N46  1  0.23990000  0.40980000  0.75370000  1.0 -0.2395359209
N  N47  1  0.20010000  0.38190000  0.80030000  1.0 -0.2114134669
N  N48  1  0.19000000  0.31660000  0.72380000  1.0 -0.0545490128
O  O1  1  0.01510000  0.86200000  0.19220000  1.0 -0.6764360187
O  O2  1  0.10640000  0.85650000  0.10190000  1.0 -0.9825159354
O  O3  1  0.10080000  0.98610000  0.08280000  1.0 -0.8512719708
O  O4  1  0.01690000  0.10060000  0.08140000  1.0 -0.8268636843
O  O5  1  0.96980000  0.79390000  0.99900000  1.0 -0.7580390429
O  O6  1  0.11930000  0.08880000  0.00170000  1.0 -0.8512719708
O  O7  1  0.98490000  0.13800000  0.19220000  1.0 -0.6764360187
O  O8  1  0.89360000  0.14350000  0.10190000  1.0 -0.9825159354
O  O9  1  0.89920000  0.01390000  0.08280000  1.0 -0.8512719708
O  O10  1  0.98310000  0.89940000  0.08140000  1.0 -0.8268636843
O  O11  1  0.03020000  0.20610000  0.99900000  1.0 -0.7580390429
O  O12  1  0.88070000  0.91120000  0.00170000  1.0 -0.8512719708
O  O13  1  0.63800000  0.51510000  0.69220000  1.0 -0.6764360187
O  O14  1  0.64350000  0.60640000  0.60190000  1.0 -0.9825159354
O  O15  1  0.51390000  0.60080000  0.58280000  1.0 -0.8512719708
O  O16  1  0.39940000  0.51690000  0.58140000  1.0 -0.8268636843
O  O17  1  0.70610000  0.46980000  0.49900000  1.0 -0.7580390429
O  O18  1  0.41120000  0.61930000  0.50170000  1.0 -0.8512719708
O  O19  1  0.36200000  0.48490000  0.69220000  1.0 -0.6764360187
O  O20  1  0.35650000  0.39360000  0.60190000  1.0 -0.9825159354
O  O21  1  0.48610000  0.39920000  0.58280000  1.0 -0.8512719708
O  O22  1  0.60060000  0.48310000  0.58140000  1.0 -0.8268636843
O  O23  1  0.29390000  0.53020000  0.49900000  1.0 -0.7580390429
O  O24  1  0.58880000  0.38070000  0.50170000  1.0 -0.8512719708
O  O25  1  0.98490000  0.86200000  0.30780000  1.0 -0.6764360187
O  O26  1  0.89360000  0.85650000  0.39810000  1.0 -0.9825159354
O  O27  1  0.89920000  0.98610000  0.41720000  1.0 -0.8512719708
O  O28  1  0.98310000  0.10060000  0.41860000  1.0 -0.8268636843
O  O29  1  0.03020000  0.79390000  0.50100000  1.0 -0.7580390429
O  O30  1  0.88070000  0.08880000  0.49830000  1.0 -0.8512719708
O  O31  1  0.01510000  0.13800000  0.30780000  1.0 -0.6764360187
O  O32  1  0.10640000  0.14350000  0.39810000  1.0 -0.9825159354
O  O33  1  0.10080000  0.01390000  0.41720000  1.0 -0.8512719708
O  O34  1  0.01690000  0.89940000  0.41860000  1.0 -0.8268636843
O  O35  1  0.96980000  0.20610000  0.50100000  1.0 -0.7580390429
O  O36  1  0.11930000  0.91120000  0.49830000  1.0 -0.8512719708
O  O37  1  0.36200000  0.51510000  0.80780000  1.0 -0.6764360187
O  O38  1  0.35650000  0.60640000  0.89810000  1.0 -0.9825159354
O  O39  1  0.48610000  0.60080000  0.91720000  1.0 -0.8512719708
O  O40  1  0.60060000  0.51690000  0.91860000  1.0 -0.8268636843
O  O41  1  0.29390000  0.46980000  0.00100000  1.0 -0.7580390429
O  O42  1  0.58880000  0.61930000  0.99830000  1.0 -0.8512719708
O  O43  1  0.63800000  0.48490000  0.80780000  1.0 -0.6764360187
O  O44  1  0.64350000  0.39360000  0.89810000  1.0 -0.9825159354
O  O45  1  0.51390000  0.39920000  0.91720000  1.0 -0.8512719708
O  O46  1  0.39940000  0.48310000  0.91860000  1.0 -0.8268636843
O  O47  1  0.70610000  0.53020000  0.00100000  1.0 -0.7580390429
O  O48  1  0.41120000  0.38070000  0.99830000  1.0 -0.8512719708
O  O49  1  0.48490000  0.63800000  0.30780000  1.0 -0.6764360187
O  O50  1  0.39360000  0.64350000  0.39810000  1.0 -0.9825159354
O  O51  1  0.39920000  0.51390000  0.41720000  1.0 -0.8512719708
O  O52  1  0.48310000  0.39940000  0.41860000  1.0 -0.8268636843
O  O53  1  0.53020000  0.70610000  0.50100000  1.0 -0.7580390429
O  O54  1  0.38070000  0.41120000  0.49830000  1.0 -0.8512719708
O  O55  1  0.51510000  0.36200000  0.30780000  1.0 -0.6764360187
O  O56  1  0.60640000  0.35650000  0.39810000  1.0 -0.9825159354
O  O57  1  0.60080000  0.48610000  0.41720000  1.0 -0.8512719708
O  O58  1  0.51690000  0.60060000  0.41860000  1.0 -0.8268636843
O  O59  1  0.46980000  0.29390000  0.50100000  1.0 -0.7580390429
O  O60  1  0.61930000  0.58880000  0.49830000  1.0 -0.8512719708
O  O61  1  0.86200000  0.98490000  0.80780000  1.0 -0.6764360187
O  O62  1  0.85650000  0.89360000  0.89810000  1.0 -0.9825159354
O  O63  1  0.98610000  0.89920000  0.91720000  1.0 -0.8512719708
O  O64  1  0.10060000  0.98310000  0.91860000  1.0 -0.8268636843
O  O65  1  0.79390000  0.03020000  0.00100000  1.0 -0.7580390429
O  O66  1  0.08880000  0.88070000  0.99830000  1.0 -0.8512719708
O  O67  1  0.13800000  0.01510000  0.80780000  1.0 -0.6764360187
O  O68  1  0.14350000  0.10640000  0.89810000  1.0 -0.9825159354
O  O69  1  0.01390000  0.10080000  0.91720000  1.0 -0.8512719708
O  O70  1  0.89940000  0.01690000  0.91860000  1.0 -0.8268636843
O  O71  1  0.20610000  0.96980000  0.00100000  1.0 -0.7580390429
O  O72  1  0.91120000  0.11930000  0.99830000  1.0 -0.8512719708
O  O73  1  0.51510000  0.63800000  0.19220000  1.0 -0.6764360187
O  O74  1  0.60640000  0.64350000  0.10190000  1.0 -0.9825159354
O  O75  1  0.60080000  0.51390000  0.08280000  1.0 -0.8512719708
O  O76  1  0.51690000  0.39940000  0.08140000  1.0 -0.8268636843
O  O77  1  0.46980000  0.70610000  0.99900000  1.0 -0.7580390429
O  O78  1  0.61930000  0.41120000  0.00170000  1.0 -0.8512719708
O  O79  1  0.48490000  0.36200000  0.19220000  1.0 -0.6764360187
O  O80  1  0.39360000  0.35650000  0.10190000  1.0 -0.9825159354
O  O81  1  0.39920000  0.48610000  0.08280000  1.0 -0.8512719708
O  O82  1  0.48310000  0.60060000  0.08140000  1.0 -0.8268636843
O  O83  1  0.53020000  0.29390000  0.99900000  1.0 -0.7580390429
O  O84  1  0.38070000  0.58880000  0.00170000  1.0 -0.8512719708
O  O85  1  0.13800000  0.98490000  0.69220000  1.0 -0.6764360187
O  O86  1  0.14350000  0.89360000  0.60190000  1.0 -0.9825159354
O  O87  1  0.01390000  0.89920000  0.58280000  1.0 -0.8512719708
O  O88  1  0.89940000  0.98310000  0.58140000  1.0 -0.8268636843
O  O89  1  0.20610000  0.03020000  0.49900000  1.0 -0.7580390429
O  O90  1  0.91120000  0.88070000  0.50170000  1.0 -0.8512719708
O  O91  1  0.86200000  0.01510000  0.69220000  1.0 -0.6764360187
O  O92  1  0.85650000  0.10640000  0.60190000  1.0 -0.9825159354
O  O93  1  0.98610000  0.10080000  0.58280000  1.0 -0.8512719708
O  O94  1  0.10060000  0.01690000  0.58140000  1.0 -0.8268636843
O  O95  1  0.79390000  0.96980000  0.49900000  1.0 -0.7580390429
O  O96  1  0.08880000  0.11930000  0.50170000  1.0 -0.8512719708
O  O97  1  0.00000000  0.00000000  0.16740000  1.0 -0.8230695431
O  O98  1  0.50000000  0.50000000  0.66740000  1.0 -0.8230695431
O  O99  1  0.00000000  0.00000000  0.33260000  1.0 -0.8230695431
O  O100  1  0.50000000  0.50000000  0.83260000  1.0 -0.8230695431
O  O101  1  0.50000000  0.50000000  0.33260000  1.0 -0.8230695431
O  O102  1  0.00000000  0.00000000  0.83260000  1.0 -0.8230695431
O  O103  1  0.50000000  0.50000000  0.16740000  1.0 -0.8230695431
O  O104  1  0.00000000  0.00000000  0.66740000  1.0 -0.8230695431
