# DDEC6 charges by PACMAN v1.1 (https://github.com/mtap-research/PACMAN-charge/)
data_WEHJEA_ASR_pacman
_symmetry_space_group_name_H-M   'P 1'
_cell_length_a   21.55300000
_cell_length_b   21.55300000
_cell_length_c   40.78100000
_cell_angle_alpha   90.00000000
_cell_angle_beta   90.00000000
_cell_angle_gamma   90.00000000
_symmetry_Int_Tables_number   1
_chemical_formula_structural   Zn4H20C41NO21
_chemical_formula_sum   'Zn32 H160 C328 N8 O168'
_cell_volume   18944.07170283
_cell_formula_units_Z   8
loop_
 _symmetry_equiv_pos_site_id
 _symmetry_equiv_pos_as_xyz
  1  'x, y, z'
loop_
 _atom_site_type_symbol
 _atom_site_label
 _atom_site_symmetry_multiplicity
 _atom_site_fract_x
 _atom_site_fract_y
 _atom_site_fract_z
 _atom_site_occupancy
 _atom_site_charge
Zn  Zn1  1  0.62001000  0.91525000  0.62714000  1.0 0.9345625856
Zn  Zn2  1  0.37999000  0.08475000  0.12714000  1.0 0.9369484295
Zn  Zn3  1  0.12001000  0.58475000  0.62286000  1.0 0.9345625856
Zn  Zn4  1  0.87999000  0.41525000  0.12286000  1.0 0.9369484295
Zn  Zn5  1  0.08475000  0.37999000  0.87286000  1.0 0.9345625856
Zn  Zn6  1  0.91525000  0.62001000  0.37286000  1.0 0.9345625856
Zn  Zn7  1  0.41525000  0.87999000  0.87714000  1.0 0.9345625856
Zn  Zn8  1  0.58475000  0.12001000  0.37714000  1.0 0.9369484295
Zn  Zn9  1  0.55000000  0.03371000  0.58462000  1.0 0.9815912911
Zn  Zn10  1  0.45000000  0.96629000  0.08462000  1.0 0.9815912911
Zn  Zn11  1  0.05000000  0.46629000  0.66538000  1.0 0.9815912911
Zn  Zn12  1  0.95000000  0.53371000  0.16538000  1.0 0.9815912911
Zn  Zn13  1  0.96629000  0.45000000  0.91538000  1.0 0.9815912911
Zn  Zn14  1  0.03371000  0.55000000  0.41538000  1.0 0.9815912911
Zn  Zn15  1  0.53371000  0.95000000  0.83462000  1.0 0.9815912911
Zn  Zn16  1  0.46629000  0.05000000  0.33462000  1.0 0.9815912911
Zn  Zn17  1  0.05893000  0.06330000  0.60622000  1.0 0.9919664034
Zn  Zn18  1  0.94107000  0.93670000  0.10622000  1.0 0.9919664034
Zn  Zn19  1  0.55893000  0.43670000  0.64378000  1.0 0.9919664034
Zn  Zn20  1  0.44107000  0.56330000  0.14378000  1.0 0.9919664034
Zn  Zn21  1  0.93670000  0.94107000  0.89378000  1.0 0.9919664034
Zn  Zn22  1  0.06330000  0.05893000  0.39378000  1.0 0.9919664034
Zn  Zn23  1  0.56330000  0.44107000  0.85622000  1.0 0.9919664034
Zn  Zn24  1  0.43670000  0.55893000  0.35622000  1.0 0.9919664034
Zn  Zn25  1  0.99125000  0.96549000  0.66062000  1.0 0.9369484295
Zn  Zn26  1  0.00875000  0.03451000  0.16062000  1.0 0.9369484295
Zn  Zn27  1  0.49125000  0.53451000  0.58938000  1.0 0.9369484295
Zn  Zn28  1  0.50875000  0.46549000  0.08938000  1.0 0.9369484295
Zn  Zn29  1  0.03451000  0.00875000  0.83938000  1.0 0.9369484295
Zn  Zn30  1  0.96549000  0.99125000  0.33938000  1.0 0.9369484295
Zn  Zn31  1  0.46549000  0.50875000  0.91062000  1.0 0.9369484295
Zn  Zn32  1  0.53451000  0.49125000  0.41062000  1.0 0.9369484295
H  H1  1  0.76660000  0.22090000  0.49620000  1.0 0.1020024715
H  H2  1  0.23340000  0.77910000  0.99620000  1.0 0.1020024715
H  H3  1  0.26660000  0.27910000  0.75380000  1.0 0.1020024715
H  H4  1  0.73340000  0.72090000  0.25380000  1.0 0.1020024715
H  H5  1  0.77910000  0.23340000  0.00380000  1.0 0.1020024715
H  H6  1  0.22090000  0.76660000  0.50380000  1.0 0.1020024715
H  H7  1  0.72090000  0.73340000  0.74620000  1.0 0.1020024715
H  H8  1  0.27910000  0.26660000  0.24620000  1.0 0.1020024715
H  H9  1  0.79020000  0.27790000  0.47580000  1.0 0.1020024715
H  H10  1  0.20980000  0.72210000  0.97580000  1.0 0.1020024715
H  H11  1  0.29020000  0.22210000  0.77420000  1.0 0.1020024715
H  H12  1  0.70980000  0.77790000  0.27420000  1.0 0.1020024715
H  H13  1  0.72210000  0.20980000  0.02420000  1.0 0.1020024715
H  H14  1  0.27790000  0.79020000  0.52420000  1.0 0.1020024715
H  H15  1  0.77790000  0.70980000  0.72580000  1.0 0.1020024715
H  H16  1  0.22210000  0.29020000  0.22580000  1.0 0.1020024715
H  H17  1  0.91620000  0.28590000  0.49940000  1.0 0.1020024715
H  H18  1  0.08380000  0.71410000  0.99940000  1.0 0.1020024715
H  H19  1  0.41620000  0.21410000  0.75060000  1.0 0.1020024715
H  H20  1  0.58380000  0.78590000  0.25060000  1.0 0.1020024715
H  H21  1  0.71410000  0.08380000  0.00060000  1.0 0.1020024715
H  H22  1  0.28590000  0.91620000  0.50060000  1.0 0.1020024715
H  H23  1  0.78590000  0.58380000  0.74940000  1.0 0.1020024715
H  H24  1  0.21410000  0.41620000  0.24940000  1.0 0.1020024715
H  H25  1  0.87240000  0.34360000  0.49510000  1.0 0.1020024715
H  H26  1  0.12760000  0.65640000  0.99510000  1.0 0.1020024715
H  H27  1  0.37240000  0.15640000  0.75490000  1.0 0.1020024715
H  H28  1  0.62760000  0.84360000  0.25490000  1.0 0.1020024715
H  H29  1  0.65640000  0.12760000  0.00490000  1.0 0.1020024715
H  H30  1  0.34360000  0.87240000  0.50490000  1.0 0.1020024715
H  H31  1  0.84360000  0.62760000  0.74510000  1.0 0.1020024715
H  H32  1  0.15640000  0.37240000  0.24510000  1.0 0.1020024715
H  H33  1  0.74690000  0.28940000  0.54330000  1.0 0.1020024715
H  H34  1  0.25310000  0.71060000  0.04330000  1.0 0.1020024715
H  H35  1  0.24690000  0.21060000  0.70670000  1.0 0.1020024715
H  H36  1  0.75310000  0.78940000  0.20670000  1.0 0.1020024715
H  H37  1  0.71060000  0.25310000  0.95670000  1.0 0.1020024715
H  H38  1  0.28940000  0.74690000  0.45670000  1.0 0.1020024715
H  H39  1  0.78940000  0.75310000  0.79330000  1.0 0.1020024715
H  H40  1  0.21060000  0.24690000  0.29330000  1.0 0.1020024715
H  H41  1  0.80040000  0.33250000  0.55650000  1.0 0.1020024715
H  H42  1  0.19960000  0.66750000  0.05650000  1.0 0.1020024715
H  H43  1  0.30040000  0.16750000  0.69350000  1.0 0.1020024715
H  H44  1  0.69960000  0.83250000  0.19350000  1.0 0.1020024715
H  H45  1  0.66750000  0.19960000  0.94350000  1.0 0.1020024715
H  H46  1  0.33250000  0.80040000  0.44350000  1.0 0.1020024715
H  H47  1  0.83250000  0.69960000  0.80650000  1.0 0.1020024715
H  H48  1  0.16750000  0.30040000  0.30650000  1.0 0.1020024715
H  H49  1  0.87910000  0.19630000  0.53680000  1.0 0.1055248746
H  H50  1  0.12090000  0.80370000  0.03680000  1.0 0.1055248746
H  H51  1  0.37910000  0.30370000  0.71320000  1.0 0.1055248746
H  H52  1  0.62090000  0.69630000  0.21320000  1.0 0.1055248746
H  H53  1  0.80370000  0.12090000  0.96320000  1.0 0.1055248746
H  H54  1  0.19630000  0.87910000  0.46320000  1.0 0.1055248746
H  H55  1  0.69630000  0.62090000  0.78680000  1.0 0.1055248746
H  H56  1  0.30370000  0.37910000  0.28680000  1.0 0.1055248746
H  H57  1  0.86560000  0.24390000  0.56510000  1.0 0.1020024715
H  H58  1  0.13440000  0.75610000  0.06510000  1.0 0.1020024715
H  H59  1  0.36560000  0.25610000  0.68490000  1.0 0.1020024715
H  H60  1  0.63440000  0.74390000  0.18490000  1.0 0.1020024715
H  H61  1  0.75610000  0.13440000  0.93490000  1.0 0.1020024715
H  H62  1  0.24390000  0.86560000  0.43490000  1.0 0.1020024715
H  H63  1  0.74390000  0.63440000  0.81510000  1.0 0.1020024715
H  H64  1  0.25610000  0.36560000  0.31510000  1.0 0.1020024715
H  H65  1  0.71110000  0.12240000  0.57360000  1.0 0.14194666
H  H66  1  0.28890000  0.87760000  0.07360000  1.0 0.14194666
H  H67  1  0.21110000  0.37760000  0.67640000  1.0 0.14194666
H  H68  1  0.78890000  0.62240000  0.17640000  1.0 0.14194666
H  H69  1  0.87760000  0.28890000  0.92640000  1.0 0.14194666
H  H70  1  0.12240000  0.71110000  0.42640000  1.0 0.14194666
H  H71  1  0.62240000  0.78890000  0.82360000  1.0 0.14194666
H  H72  1  0.37760000  0.21110000  0.32360000  1.0 0.14194666
H  H73  1  0.80650000  0.99360000  0.62290000  1.0 0.14194666
H  H74  1  0.19350000  0.00640000  0.12290000  1.0 0.14194666
H  H75  1  0.30650000  0.50640000  0.62710000  1.0 0.14194666
H  H76  1  0.69350000  0.49360000  0.12710000  1.0 0.14194666
H  H77  1  0.00640000  0.19350000  0.87710000  1.0 0.14194666
H  H78  1  0.99360000  0.80650000  0.37710000  1.0 0.14194666
H  H79  1  0.49360000  0.69350000  0.87290000  1.0 0.14194666
H  H80  1  0.50640000  0.30650000  0.37290000  1.0 0.14194666
H  H81  1  0.89540000  0.13520000  0.57930000  1.0 0.1168543932
H  H82  1  0.10460000  0.86480000  0.07930000  1.0 0.1168543932
H  H83  1  0.39540000  0.36480000  0.67070000  1.0 0.1168543932
H  H84  1  0.60460000  0.63520000  0.17070000  1.0 0.1168543932
H  H85  1  0.86480000  0.10460000  0.92070000  1.0 0.1168543932
H  H86  1  0.13520000  0.89540000  0.42070000  1.0 0.1168543932
H  H87  1  0.63520000  0.60460000  0.82930000  1.0 0.1168543932
H  H88  1  0.36480000  0.39540000  0.32930000  1.0 0.1168543932
H  H89  1  0.74000000  0.19090000  0.44450000  1.0 0.1290887612
H  H90  1  0.26000000  0.80910000  0.94450000  1.0 0.1290887612
H  H91  1  0.24000000  0.30910000  0.80550000  1.0 0.1290887612
H  H92  1  0.76000000  0.69090000  0.30550000  1.0 0.1290887612
H  H93  1  0.80910000  0.26000000  0.05550000  1.0 0.1290887612
H  H94  1  0.19090000  0.74000000  0.55550000  1.0 0.1290887612
H  H95  1  0.69090000  0.76000000  0.69450000  1.0 0.1290887612
H  H96  1  0.30910000  0.24000000  0.19450000  1.0 0.1290887612
H  H97  1  0.80170000  0.07910000  0.37470000  1.0 0.1482823857
H  H98  1  0.19830000  0.92090000  0.87470000  1.0 0.1482823857
H  H99  1  0.30170000  0.42090000  0.87530000  1.0 0.1482823857
H  H100  1  0.69830000  0.57910000  0.37530000  1.0 0.1482823857
H  H101  1  0.92090000  0.19830000  0.12530000  1.0 0.1482823857
H  H102  1  0.07910000  0.80170000  0.62530000  1.0 0.1482823857
H  H103  1  0.57910000  0.69830000  0.62470000  1.0 0.1482823857
H  H104  1  0.42090000  0.30170000  0.12470000  1.0 0.1482823857
H  H105  1  0.92110000  0.14650000  0.44150000  1.0 0.14194666
H  H106  1  0.07890000  0.85350000  0.94150000  1.0 0.14194666
H  H107  1  0.42110000  0.35350000  0.80850000  1.0 0.14194666
H  H108  1  0.57890000  0.64650000  0.30850000  1.0 0.14194666
H  H109  1  0.85350000  0.07890000  0.05850000  1.0 0.14194666
H  H110  1  0.14650000  0.92110000  0.55850000  1.0 0.14194666
H  H111  1  0.64650000  0.57890000  0.69150000  1.0 0.14194666
H  H112  1  0.35350000  0.42110000  0.19150000  1.0 0.14194666
H  H113  1  0.96150000  0.40350000  0.58270000  1.0 0.14194666
H  H114  1  0.03850000  0.59650000  0.08270000  1.0 0.14194666
H  H115  1  0.46150000  0.09650000  0.66730000  1.0 0.14194666
H  H116  1  0.53850000  0.90350000  0.16730000  1.0 0.14194666
H  H117  1  0.59650000  0.03850000  0.91730000  1.0 0.14194666
H  H118  1  0.40350000  0.96150000  0.41730000  1.0 0.14194666
H  H119  1  0.90350000  0.53850000  0.83270000  1.0 0.14194666
H  H120  1  0.09650000  0.46150000  0.33270000  1.0 0.14194666
H  H121  1  0.04520000  0.53450000  0.52950000  1.0 0.14194666
H  H122  1  0.95480000  0.46550000  0.02950000  1.0 0.14194666
H  H123  1  0.54520000  0.96550000  0.72050000  1.0 0.14194666
H  H124  1  0.45480000  0.03450000  0.22050000  1.0 0.14194666
H  H125  1  0.46550000  0.95480000  0.97050000  1.0 0.14194666
H  H126  1  0.53450000  0.04520000  0.47050000  1.0 0.14194666
H  H127  1  0.03450000  0.45480000  0.77950000  1.0 0.14194666
H  H128  1  0.96550000  0.54520000  0.27950000  1.0 0.14194666
H  H129  1  0.94890000  0.39930000  0.48460000  1.0 0.1290887612
H  H130  1  0.05110000  0.60070000  0.98460000  1.0 0.1290887612
H  H131  1  0.44890000  0.10070000  0.76540000  1.0 0.1290887612
H  H132  1  0.55110000  0.89930000  0.26540000  1.0 0.1290887612
H  H133  1  0.60070000  0.05110000  0.01540000  1.0 0.1290887612
H  H134  1  0.39930000  0.94890000  0.51540000  1.0 0.1290887612
H  H135  1  0.89930000  0.55110000  0.73460000  1.0 0.1290887612
H  H136  1  0.10070000  0.44890000  0.23460000  1.0 0.1290887612
H  H137  1  0.70030000  0.40150000  0.46790000  1.0 0.1482823857
H  H138  1  0.29970000  0.59850000  0.96790000  1.0 0.1482823857
H  H139  1  0.20030000  0.09850000  0.78210000  1.0 0.1482823857
H  H140  1  0.79970000  0.90150000  0.28210000  1.0 0.1482823857
H  H141  1  0.59850000  0.29970000  0.03210000  1.0 0.1482823857
H  H142  1  0.40150000  0.70030000  0.53210000  1.0 0.1482823857
H  H143  1  0.90150000  0.79970000  0.71790000  1.0 0.1482823857
H  H144  1  0.09850000  0.20030000  0.21790000  1.0 0.1482823857
H  H145  1  0.55140000  0.46100000  0.52010000  1.0 0.14194666
H  H146  1  0.44860000  0.53900000  0.02010000  1.0 0.14194666
H  H147  1  0.05140000  0.03900000  0.72990000  1.0 0.14194666
H  H148  1  0.94860000  0.96100000  0.22990000  1.0 0.14194666
H  H149  1  0.53900000  0.44860000  0.97990000  1.0 0.14194666
H  H150  1  0.46100000  0.55140000  0.47990000  1.0 0.14194666
H  H151  1  0.96100000  0.94860000  0.77010000  1.0 0.14194666
H  H152  1  0.03900000  0.05140000  0.27010000  1.0 0.14194666
H  H153  1  0.69590000  0.38190000  0.56610000  1.0 0.1290887612
H  H154  1  0.30410000  0.61810000  0.06610000  1.0 0.1290887612
H  H155  1  0.19590000  0.11810000  0.68390000  1.0 0.1290887612
H  H156  1  0.80410000  0.88190000  0.18390000  1.0 0.1290887612
H  H157  1  0.61810000  0.30410000  0.93390000  1.0 0.1290887612
H  H158  1  0.38190000  0.69590000  0.43390000  1.0 0.1290887612
H  H159  1  0.88190000  0.80410000  0.81610000  1.0 0.1290887612
H  H160  1  0.11810000  0.19590000  0.31610000  1.0 0.1290887612
C  C1  1  0.83040000  0.27250000  0.52079000  1.0 0.0656873317
C  C2  1  0.16960000  0.72750000  0.02079000  1.0 0.064515888
C  C3  1  0.33040000  0.22750000  0.72921000  1.0 0.064515888
C  C4  1  0.66960000  0.77250000  0.22921000  1.0 0.0656873317
C  C5  1  0.72750000  0.16960000  0.97921000  1.0 0.0656873317
C  C6  1  0.27250000  0.83040000  0.47921000  1.0 0.064515888
C  C7  1  0.77250000  0.66960000  0.77079000  1.0 0.0656873317
C  C8  1  0.22750000  0.33040000  0.27079000  1.0 0.064515888
C  C9  1  0.80300000  0.24500000  0.49053000  1.0 -0.0888529627
C  C10  1  0.19700000  0.75500000  0.99053000  1.0 -0.0888529627
C  C11  1  0.30300000  0.25500000  0.75947000  1.0 -0.0888529627
C  C12  1  0.69700000  0.74500000  0.25947000  1.0 -0.0888529627
C  C13  1  0.75500000  0.19700000  0.00947000  1.0 -0.0888529627
C  C14  1  0.24500000  0.80300000  0.50947000  1.0 -0.0888529627
C  C15  1  0.74500000  0.69700000  0.74053000  1.0 -0.0888529627
C  C16  1  0.25500000  0.30300000  0.24053000  1.0 -0.0888529627
C  C17  1  0.88590000  0.31190000  0.51037000  1.0 -0.0813356767
C  C18  1  0.11410000  0.68810000  0.01037000  1.0 -0.0813356767
C  C19  1  0.38590000  0.18810000  0.73963000  1.0 -0.0813356767
C  C20  1  0.61410000  0.81190000  0.23963000  1.0 -0.0888529627
C  C21  1  0.68810000  0.11410000  0.98963000  1.0 -0.0813356767
C  C22  1  0.31190000  0.88590000  0.48963000  1.0 -0.0888529627
C  C23  1  0.81190000  0.61410000  0.76037000  1.0 -0.0813356767
C  C24  1  0.18810000  0.38590000  0.26037000  1.0 -0.0813356767
C  C25  1  0.78310000  0.31340000  0.53705000  1.0 -0.0888529627
C  C26  1  0.21690000  0.68660000  0.03705000  1.0 -0.0888529627
C  C27  1  0.28310000  0.18660000  0.71295000  1.0 -0.0888529627
C  C28  1  0.71690000  0.81340000  0.21295000  1.0 -0.0888529627
C  C29  1  0.68660000  0.21690000  0.96295000  1.0 -0.0888529627
C  C30  1  0.31340000  0.78310000  0.46295000  1.0 -0.0888529627
C  C31  1  0.81340000  0.71690000  0.78705000  1.0 -0.0888529627
C  C32  1  0.18660000  0.28310000  0.28705000  1.0 -0.0888529627
C  C33  1  0.84810000  0.22400000  0.54590000  1.0 -0.0813356767
C  C34  1  0.15190000  0.77600000  0.04590000  1.0 -0.0813356767
C  C35  1  0.34810000  0.27600000  0.70410000  1.0 -0.0813356767
C  C36  1  0.65190000  0.72400000  0.20410000  1.0 -0.0813356767
C  C37  1  0.77600000  0.15190000  0.95410000  1.0 -0.0813356767
C  C38  1  0.22400000  0.84810000  0.45410000  1.0 -0.0813356767
C  C39  1  0.72400000  0.65190000  0.79590000  1.0 -0.0813356767
C  C40  1  0.27600000  0.34810000  0.29590000  1.0 -0.0813356767
C  C41  1  0.80360000  0.13780000  0.57216000  1.0 0.2496761586
C  C42  1  0.19640000  0.86220000  0.07216000  1.0 0.2496761586
C  C43  1  0.30360000  0.36220000  0.67784000  1.0 0.2496761586
C  C44  1  0.69640000  0.63780000  0.17784000  1.0 0.2496761586
C  C45  1  0.86220000  0.19640000  0.92784000  1.0 0.2496761586
C  C46  1  0.13780000  0.80360000  0.42784000  1.0 0.2496761586
C  C47  1  0.63780000  0.69640000  0.82216000  1.0 0.2496761586
C  C48  1  0.36220000  0.30360000  0.32216000  1.0 0.2496761586
C  C49  1  0.74930000  0.10660000  0.58015000  1.0 -0.2127235427
C  C50  1  0.25070000  0.89340000  0.08015000  1.0 -0.2127235427
C  C51  1  0.24930000  0.39340000  0.66985000  1.0 -0.2127235427
C  C52  1  0.75070000  0.60660000  0.16985000  1.0 -0.2127235427
C  C53  1  0.89340000  0.25070000  0.91985000  1.0 -0.2127235427
C  C54  1  0.10660000  0.74930000  0.41985000  1.0 -0.2127235427
C  C55  1  0.60660000  0.75070000  0.83015000  1.0 -0.2127235427
C  C56  1  0.39340000  0.24930000  0.33015000  1.0 -0.2127235427
C  C57  1  0.75190000  0.05160000  0.59797000  1.0 -0.0100723147
C  C58  1  0.24810000  0.94840000  0.09797000  1.0 -0.004952888
C  C59  1  0.25190000  0.44840000  0.65203000  1.0 -0.004952888
C  C60  1  0.74810000  0.55160000  0.15203000  1.0 -0.004952888
C  C61  1  0.94840000  0.24810000  0.90203000  1.0 -0.004952888
C  C62  1  0.05160000  0.75190000  0.40203000  1.0 -0.0100723147
C  C63  1  0.55160000  0.74810000  0.84797000  1.0 -0.004952888
C  C64  1  0.44840000  0.25190000  0.34797000  1.0 -0.0100723147
C  C65  1  0.68620000  0.01830000  0.60278000  1.0 0.6114337363
C  C66  1  0.31380000  0.98170000  0.10278000  1.0 0.6114337363
C  C67  1  0.18620000  0.48170000  0.64722000  1.0 0.6114337363
C  C68  1  0.81380000  0.51830000  0.14722000  1.0 0.6114337363
C  C69  1  0.98170000  0.31380000  0.89722000  1.0 0.6114337363
C  C70  1  0.01830000  0.68620000  0.39722000  1.0 0.6114337363
C  C71  1  0.51830000  0.81380000  0.85278000  1.0 0.6114337363
C  C72  1  0.48170000  0.18620000  0.35278000  1.0 0.6114337363
C  C73  1  0.80590000  0.02950000  0.61021000  1.0 -0.0888529627
C  C74  1  0.19410000  0.97050000  0.11021000  1.0 -0.0888529627
C  C75  1  0.30590000  0.47050000  0.63979000  1.0 -0.0888529627
C  C76  1  0.69410000  0.52950000  0.13979000  1.0 -0.0888529627
C  C77  1  0.97050000  0.19410000  0.88979000  1.0 -0.0888529627
C  C78  1  0.02950000  0.80590000  0.38979000  1.0 -0.0888529627
C  C79  1  0.52950000  0.69410000  0.86021000  1.0 -0.0888529627
C  C80  1  0.47050000  0.30590000  0.36021000  1.0 -0.0888529627
C  C81  1  0.86030000  0.06150000  0.60336000  1.0 -0.0574565018
C  C82  1  0.13970000  0.93850000  0.10336000  1.0 -0.0574565018
C  C83  1  0.36030000  0.43850000  0.64664000  1.0 -0.0574565018
C  C84  1  0.63970000  0.56150000  0.14664000  1.0 -0.0574565018
C  C85  1  0.93850000  0.13970000  0.89664000  1.0 -0.0574565018
C  C86  1  0.06150000  0.86030000  0.39664000  1.0 -0.0574565018
C  C87  1  0.56150000  0.63970000  0.85336000  1.0 -0.0574565018
C  C88  1  0.43850000  0.36030000  0.35336000  1.0 -0.0574565018
C  C89  1  0.85860000  0.11470000  0.58414000  1.0 -0.2228033954
C  C90  1  0.14140000  0.88530000  0.08414000  1.0 -0.2228033954
C  C91  1  0.35860000  0.38530000  0.66586000  1.0 -0.2228033954
C  C92  1  0.64140000  0.61470000  0.16586000  1.0 -0.2228033954
C  C93  1  0.88530000  0.14140000  0.91586000  1.0 -0.2228033954
C  C94  1  0.11470000  0.85860000  0.41586000  1.0 -0.2228033954
C  C95  1  0.61470000  0.64140000  0.83414000  1.0 -0.2228033954
C  C96  1  0.38530000  0.35860000  0.33414000  1.0 -0.2228033954
C  C97  1  0.92000000  0.03930000  0.61360000  1.0 0.6011452158
C  C98  1  0.08000000  0.96070000  0.11360000  1.0 0.6011452158
C  C99  1  0.42000000  0.46070000  0.63640000  1.0 0.6011452158
C  C100  1  0.58000000  0.53930000  0.13640000  1.0 0.6011452158
C  C101  1  0.96070000  0.08000000  0.88640000  1.0 0.6011452158
C  C102  1  0.03930000  0.92000000  0.38640000  1.0 0.6011452158
C  C103  1  0.53930000  0.58000000  0.86360000  1.0 0.6011452158
C  C104  1  0.46070000  0.42000000  0.36360000  1.0 0.6011452158
C  C105  1  0.83190000  0.17300000  0.44732000  1.0 0.2496761586
C  C106  1  0.16810000  0.82700000  0.94732000  1.0 0.2496761586
C  C107  1  0.33190000  0.32700000  0.80268000  1.0 0.2496761586
C  C108  1  0.66810000  0.67300000  0.30268000  1.0 0.2496761586
C  C109  1  0.82700000  0.16810000  0.05268000  1.0 0.2496761586
C  C110  1  0.17300000  0.83190000  0.55268000  1.0 0.2496761586
C  C111  1  0.67300000  0.66810000  0.69732000  1.0 0.2496761586
C  C112  1  0.32700000  0.33190000  0.19732000  1.0 0.2496761586
C  C113  1  0.77230000  0.16960000  0.43443000  1.0 -0.2483448867
C  C114  1  0.22770000  0.83040000  0.93443000  1.0 -0.2483448867
C  C115  1  0.27230000  0.33040000  0.81557000  1.0 -0.2483448867
C  C116  1  0.72770000  0.66960000  0.31557000  1.0 -0.2483448867
C  C117  1  0.83040000  0.22770000  0.06557000  1.0 -0.2483448867
C  C118  1  0.16960000  0.77230000  0.56557000  1.0 -0.2483448867
C  C119  1  0.66960000  0.72770000  0.68443000  1.0 -0.2483448867
C  C120  1  0.33040000  0.27230000  0.18443000  1.0 -0.2483448867
C  C121  1  0.76110000  0.13420000  0.40656000  1.0 0.0207032676
C  C122  1  0.23890000  0.86580000  0.90656000  1.0 0.0207032676
C  C123  1  0.26110000  0.36580000  0.84344000  1.0 0.0207032676
C  C124  1  0.73890000  0.63420000  0.34344000  1.0 0.0207032676
C  C125  1  0.86580000  0.23890000  0.09344000  1.0 0.0207032676
C  C126  1  0.13420000  0.76110000  0.59344000  1.0 0.0207032676
C  C127  1  0.63420000  0.73890000  0.65656000  1.0 0.0207032676
C  C128  1  0.36580000  0.26110000  0.15656000  1.0 0.0207032676
C  C129  1  0.69220000  0.12840000  0.39130000  1.0 0.4854095497
C  C130  1  0.30780000  0.87160000  0.89130000  1.0 0.4854095497
C  C131  1  0.19220000  0.37160000  0.85870000  1.0 0.4854095497
C  C132  1  0.80780000  0.62840000  0.35870000  1.0 0.4854095497
C  C133  1  0.87160000  0.30780000  0.10870000  1.0 0.4854095497
C  C134  1  0.12840000  0.69220000  0.60870000  1.0 0.4854095497
C  C135  1  0.62840000  0.80780000  0.64130000  1.0 0.4854095497
C  C136  1  0.37160000  0.19220000  0.14130000  1.0 0.4854095497
C  C137  1  0.80900000  0.10390000  0.39297000  1.0 -0.1134953235
C  C138  1  0.19100000  0.89610000  0.89297000  1.0 -0.1134953235
C  C139  1  0.30900000  0.39610000  0.85703000  1.0 -0.1134953235
C  C140  1  0.69100000  0.60390000  0.35703000  1.0 -0.1134953235
C  C141  1  0.89610000  0.19100000  0.10703000  1.0 -0.1134953235
C  C142  1  0.10390000  0.80900000  0.60703000  1.0 -0.1152112416
C  C143  1  0.60390000  0.69100000  0.64297000  1.0 -0.1134953235
C  C144  1  0.39610000  0.30900000  0.14297000  1.0 -0.1152112416
C  C145  1  0.86920000  0.10810000  0.40507000  1.0 -0.0100723147
C  C146  1  0.13080000  0.89190000  0.90507000  1.0 -0.0100723147
C  C147  1  0.36920000  0.39190000  0.84493000  1.0 -0.0100723147
C  C148  1  0.63080000  0.60810000  0.34493000  1.0 -0.0100723147
C  C149  1  0.89190000  0.13080000  0.09493000  1.0 -0.0100723147
C  C150  1  0.10810000  0.86920000  0.59493000  1.0 -0.0100723147
C  C151  1  0.60810000  0.63080000  0.65507000  1.0 -0.0100723147
C  C152  1  0.39190000  0.36920000  0.15507000  1.0 -0.0100723147
C  C153  1  0.88120000  0.14330000  0.43292000  1.0 -0.2228033954
C  C154  1  0.11880000  0.85670000  0.93292000  1.0 -0.2228033954
C  C155  1  0.38120000  0.35670000  0.81708000  1.0 -0.2228033954
C  C156  1  0.61880000  0.64330000  0.31708000  1.0 -0.2252351723
C  C157  1  0.85670000  0.11880000  0.06708000  1.0 -0.2252351723
C  C158  1  0.14330000  0.88120000  0.56708000  1.0 -0.2228033954
C  C159  1  0.64330000  0.61880000  0.68292000  1.0 -0.2228033954
C  C160  1  0.35670000  0.38120000  0.18292000  1.0 -0.2228033954
C  C161  1  0.92370000  0.07520000  0.39013000  1.0 0.6011452158
C  C162  1  0.07630000  0.92480000  0.89013000  1.0 0.6114337363
C  C163  1  0.42370000  0.42480000  0.85987000  1.0 0.6114337363
C  C164  1  0.57630000  0.57520000  0.35987000  1.0 0.6011452158
C  C165  1  0.92480000  0.07630000  0.10987000  1.0 0.6011452158
C  C166  1  0.07520000  0.92370000  0.60987000  1.0 0.6114337363
C  C167  1  0.57520000  0.57630000  0.64013000  1.0 0.6011452158
C  C168  1  0.42480000  0.42370000  0.14013000  1.0 0.6011452158
C  C169  1  0.95320000  0.39050000  0.53376000  1.0 0.2496761586
C  C170  1  0.04680000  0.60950000  0.03376000  1.0 0.2496761586
C  C171  1  0.45320000  0.10950000  0.71624000  1.0 0.2496761586
C  C172  1  0.54680000  0.89050000  0.21624000  1.0 0.2496761586
C  C173  1  0.60950000  0.04680000  0.96624000  1.0 0.2496761586
C  C174  1  0.39050000  0.95320000  0.46624000  1.0 0.2496761586
C  C175  1  0.89050000  0.54680000  0.78376000  1.0 0.2496761586
C  C176  1  0.10950000  0.45320000  0.28376000  1.0 0.2496761586
C  C177  1  0.97320000  0.41930000  0.56237000  1.0 -0.2127235427
C  C178  1  0.02680000  0.58070000  0.06237000  1.0 -0.2127235427
C  C179  1  0.47320000  0.08070000  0.68763000  1.0 -0.2127235427
C  C180  1  0.52680000  0.91930000  0.18763000  1.0 -0.2127235427
C  C181  1  0.58070000  0.02680000  0.93763000  1.0 -0.2127235427
C  C182  1  0.41930000  0.97320000  0.43763000  1.0 -0.2127235427
C  C183  1  0.91930000  0.52680000  0.81237000  1.0 -0.2127235427
C  C184  1  0.08070000  0.47320000  0.31237000  1.0 -0.2127235427
C  C185  1  0.01060000  0.47170000  0.56064000  1.0 -0.0100723147
C  C186  1  0.98940000  0.52830000  0.06064000  1.0 -0.0100723147
C  C187  1  0.51060000  0.02830000  0.68936000  1.0 -0.0100723147
C  C188  1  0.48940000  0.97170000  0.18936000  1.0 -0.0100723147
C  C189  1  0.52830000  0.98940000  0.93936000  1.0 -0.0100723147
C  C190  1  0.47170000  0.01060000  0.43936000  1.0 -0.0100723147
C  C191  1  0.97170000  0.48940000  0.81064000  1.0 -0.0100723147
C  C192  1  0.02830000  0.51060000  0.31064000  1.0 -0.0100723147
C  C193  1  0.03190000  0.49730000  0.59405000  1.0 0.6150362709
C  C194  1  0.96810000  0.50270000  0.09405000  1.0 0.6114337363
C  C195  1  0.53190000  0.00270000  0.65595000  1.0 0.6114337363
C  C196  1  0.46810000  0.99730000  0.15595000  1.0 0.6114337363
C  C197  1  0.50270000  0.96810000  0.90595000  1.0 0.6150362709
C  C198  1  0.49730000  0.03190000  0.40595000  1.0 0.6114337363
C  C199  1  0.99730000  0.46810000  0.84405000  1.0 0.6114337363
C  C200  1  0.00270000  0.53190000  0.34405000  1.0 0.6150362709
C  C201  1  0.02250000  0.49790000  0.53068000  1.0 -0.1134953235
C  C202  1  0.97750000  0.50210000  0.03068000  1.0 -0.1134953235
C  C203  1  0.52250000  0.00210000  0.71932000  1.0 -0.1134953235
C  C204  1  0.47750000  0.99790000  0.21932000  1.0 -0.1134953235
C  C205  1  0.50210000  0.97750000  0.96932000  1.0 -0.1134953235
C  C206  1  0.49790000  0.02250000  0.46932000  1.0 -0.1134953235
C  C207  1  0.99790000  0.47750000  0.78068000  1.0 -0.1134953235
C  C208  1  0.00210000  0.52250000  0.28068000  1.0 -0.1134953235
C  C209  1  0.00080000  0.47040000  0.50204000  1.0 0.0265662575
C  C210  1  0.99920000  0.52960000  0.00204000  1.0 0.0265662575
C  C211  1  0.50080000  0.02960000  0.74796000  1.0 0.0265662575
C  C212  1  0.49920000  0.97040000  0.24796000  1.0 0.0265662575
C  C213  1  0.52960000  0.99920000  0.99796000  1.0 0.0265662575
C  C214  1  0.47040000  0.00080000  0.49796000  1.0 0.0265662575
C  C215  1  0.97040000  0.49920000  0.75204000  1.0 0.0265662575
C  C216  1  0.02960000  0.50080000  0.25204000  1.0 0.0265662575
C  C217  1  0.96490000  0.41700000  0.50365000  1.0 -0.2386072993
C  C218  1  0.03510000  0.58300000  0.00365000  1.0 -0.2386072993
C  C219  1  0.46490000  0.08300000  0.74635000  1.0 -0.2386072993
C  C220  1  0.53510000  0.91700000  0.24635000  1.0 -0.2386072993
C  C221  1  0.58300000  0.03510000  0.99635000  1.0 -0.2386072993
C  C222  1  0.41700000  0.96490000  0.49635000  1.0 -0.2386072993
C  C223  1  0.91700000  0.53510000  0.75365000  1.0 -0.2386072993
C  C224  1  0.08300000  0.46490000  0.25365000  1.0 -0.2386072993
C  C225  1  0.01400000  0.49680000  0.46848000  1.0 0.5455382087
C  C226  1  0.98600000  0.50320000  0.96848000  1.0 0.5455382087
C  C227  1  0.51400000  0.00320000  0.78152000  1.0 0.5455382087
C  C228  1  0.48600000  0.99680000  0.28152000  1.0 0.5455382087
C  C229  1  0.50320000  0.98600000  0.03152000  1.0 0.5455382087
C  C230  1  0.49680000  0.01400000  0.53152000  1.0 0.5455382087
C  C231  1  0.99680000  0.48600000  0.71848000  1.0 0.5455382087
C  C232  1  0.00320000  0.51400000  0.21848000  1.0 0.5455382087
C  C233  1  0.70950000  0.38730000  0.51670000  1.0 0.2613567629
C  C234  1  0.29050000  0.61270000  0.01670000  1.0 0.2613567629
C  C235  1  0.20950000  0.11270000  0.73330000  1.0 0.2613567629
C  C236  1  0.79050000  0.88730000  0.23330000  1.0 0.2613567629
C  C237  1  0.61270000  0.29050000  0.98330000  1.0 0.2613567629
C  C238  1  0.38730000  0.70950000  0.48330000  1.0 0.2613567629
C  C239  1  0.88730000  0.79050000  0.76670000  1.0 0.2613567629
C  C240  1  0.11270000  0.20950000  0.26670000  1.0 0.2613567629
C  C241  1  0.68070000  0.40700000  0.48802000  1.0 -0.2386072993
C  C242  1  0.31930000  0.59300000  0.98802000  1.0 -0.2386072993
C  C243  1  0.18070000  0.09300000  0.76198000  1.0 -0.2386072993
C  C244  1  0.81930000  0.90700000  0.26198000  1.0 -0.2386072993
C  C245  1  0.59300000  0.31930000  0.01198000  1.0 -0.2386072993
C  C246  1  0.40700000  0.68070000  0.51198000  1.0 -0.2386072993
C  C247  1  0.90700000  0.81930000  0.73802000  1.0 -0.2386072993
C  C248  1  0.09300000  0.18070000  0.23802000  1.0 -0.2386072993
C  C249  1  0.62270000  0.43500000  0.48941000  1.0 0.0265662575
C  C250  1  0.37730000  0.56500000  0.98941000  1.0 0.0265662575
C  C251  1  0.12270000  0.06500000  0.76059000  1.0 0.0265662575
C  C252  1  0.87730000  0.93500000  0.26059000  1.0 0.0265662575
C  C253  1  0.56500000  0.37730000  0.01059000  1.0 0.0265662575
C  C254  1  0.43500000  0.62270000  0.51059000  1.0 0.0265662575
C  C255  1  0.93500000  0.87730000  0.73941000  1.0 0.0265662575
C  C256  1  0.06500000  0.12270000  0.23941000  1.0 0.0265662575
C  C257  1  0.59620000  0.45330000  0.45680000  1.0 0.5277220824
C  C258  1  0.40380000  0.54670000  0.95680000  1.0 0.5277220824
C  C259  1  0.09620000  0.04670000  0.79320000  1.0 0.5277220824
C  C260  1  0.90380000  0.95330000  0.29320000  1.0 0.5277220824
C  C261  1  0.54670000  0.40380000  0.04320000  1.0 0.5277220824
C  C262  1  0.45330000  0.59620000  0.54320000  1.0 0.5277220824
C  C263  1  0.95330000  0.90380000  0.70680000  1.0 0.5277220824
C  C264  1  0.04670000  0.09620000  0.20680000  1.0 0.5277220824
C  C265  1  0.59100000  0.44390000  0.51959000  1.0 -0.1134953235
C  C266  1  0.40900000  0.55610000  0.01959000  1.0 -0.1134953235
C  C267  1  0.09100000  0.05610000  0.73041000  1.0 -0.1134953235
C  C268  1  0.90900000  0.94390000  0.23041000  1.0 -0.1134953235
C  C269  1  0.55610000  0.40900000  0.98041000  1.0 -0.1134953235
C  C270  1  0.44390000  0.59100000  0.48041000  1.0 -0.1134953235
C  C271  1  0.94390000  0.90900000  0.76959000  1.0 -0.1134953235
C  C272  1  0.05610000  0.09100000  0.26959000  1.0 -0.1134953235
C  C273  1  0.62080000  0.42610000  0.54830000  1.0 -0.0100723147
C  C274  1  0.37920000  0.57390000  0.04830000  1.0 -0.0100723147
C  C275  1  0.12080000  0.07390000  0.70170000  1.0 -0.0100723147
C  C276  1  0.87920000  0.92610000  0.20170000  1.0 -0.0100723147
C  C277  1  0.57390000  0.37920000  0.95170000  1.0 -0.0100723147
C  C278  1  0.42610000  0.62080000  0.45170000  1.0 -0.0100723147
C  C279  1  0.92610000  0.87920000  0.79830000  1.0 -0.0100723147
C  C280  1  0.07390000  0.12080000  0.29830000  1.0 -0.0100723147
C  C281  1  0.67790000  0.39630000  0.54678000  1.0 -0.2483448867
C  C282  1  0.32210000  0.60370000  0.04678000  1.0 -0.2483448867
C  C283  1  0.17790000  0.10370000  0.70322000  1.0 -0.2483448867
C  C284  1  0.82210000  0.89630000  0.20322000  1.0 -0.2483448867
C  C285  1  0.60370000  0.32210000  0.95322000  1.0 -0.2483448867
C  C286  1  0.39630000  0.67790000  0.45322000  1.0 -0.2483448867
C  C287  1  0.89630000  0.82210000  0.79678000  1.0 -0.2483448867
C  C288  1  0.10370000  0.17790000  0.29678000  1.0 -0.2483448867
C  C289  1  0.59250000  0.43650000  0.58130000  1.0 0.5811365836
C  C290  1  0.40750000  0.56350000  0.08130000  1.0 0.5811365836
C  C291  1  0.09250000  0.06350000  0.66870000  1.0 0.5811365836
C  C292  1  0.90750000  0.93650000  0.16870000  1.0 0.5811365836
C  C293  1  0.56350000  0.40750000  0.91870000  1.0 0.5811365836
C  C294  1  0.43650000  0.59250000  0.41870000  1.0 0.5811365836
C  C295  1  0.93650000  0.90750000  0.83130000  1.0 0.5811365836
C  C296  1  0.06350000  0.09250000  0.33130000  1.0 0.5811365836
C  C297  1  0.52550000  0.88400000  0.57680000  1.0 0.4602544301
C  C298  1  0.47450000  0.11600000  0.07680000  1.0 0.4602544301
C  C299  1  0.02550000  0.61600000  0.67320000  1.0 0.4602544301
C  C300  1  0.97450000  0.38400000  0.17320000  1.0 0.4602544301
C  C301  1  0.11600000  0.47450000  0.92320000  1.0 0.4602544301
C  C302  1  0.88400000  0.52550000  0.42320000  1.0 0.4602544301
C  C303  1  0.38400000  0.97450000  0.82680000  1.0 0.4602544301
C  C304  1  0.61600000  0.02550000  0.32680000  1.0 0.4602544301
C  C305  1  0.60720000  0.86680000  0.52600000  1.0 0.053457218
C  C306  1  0.39280000  0.13320000  0.02600000  1.0 0.053457218
C  C307  1  0.10720000  0.63320000  0.72400000  1.0 0.053457218
C  C308  1  0.89280000  0.36680000  0.22400000  1.0 0.053457218
C  C309  1  0.13320000  0.39280000  0.97400000  1.0 0.053457218
C  C310  1  0.86680000  0.60720000  0.47400000  1.0 0.053457218
C  C311  1  0.36680000  0.89280000  0.77600000  1.0 0.053457218
C  C312  1  0.63320000  0.10720000  0.27600000  1.0 0.053457218
C  C313  1  0.49480000  0.82040000  0.53430000  1.0 -0.0975073666
C  C314  1  0.50520000  0.17960000  0.03430000  1.0 -0.0975073666
C  C315  1  0.99480000  0.67960000  0.71570000  1.0 -0.0975073666
C  C316  1  0.00520000  0.32040000  0.21570000  1.0 -0.0975073666
C  C317  1  0.17960000  0.50520000  0.96570000  1.0 -0.0975073666
C  C318  1  0.82040000  0.49480000  0.46570000  1.0 -0.0975073666
C  C319  1  0.32040000  0.00520000  0.78430000  1.0 -0.0975073666
C  C320  1  0.67960000  0.99480000  0.28430000  1.0 -0.0975073666
C  C321  1  0.47010000  0.87040000  0.59675000  1.0 -0.1790504704
C  C322  1  0.52990000  0.12960000  0.09675000  1.0 -0.1790504704
C  C323  1  0.97010000  0.62960000  0.65325000  1.0 -0.1790504704
C  C324  1  0.02990000  0.37040000  0.15325000  1.0 -0.1790504704
C  C325  1  0.12960000  0.52990000  0.90325000  1.0 -0.1790504704
C  C326  1  0.87040000  0.47010000  0.40325000  1.0 -0.1790504704
C  C327  1  0.37040000  0.02990000  0.84675000  1.0 -0.1790504704
C  C328  1  0.62960000  0.97010000  0.34675000  1.0 -0.1790504704
N  N1  1  0.54730000  0.86410000  0.54440000  1.0 -0.0549657985
N  N2  1  0.45270000  0.13590000  0.04440000  1.0 -0.0549657985
N  N3  1  0.04730000  0.63590000  0.70560000  1.0 -0.0549657985
N  N4  1  0.95270000  0.36410000  0.20560000  1.0 -0.0549657985
N  N5  1  0.13590000  0.45270000  0.95560000  1.0 -0.0574565018
N  N6  1  0.86410000  0.54730000  0.45560000  1.0 -0.0549657985
N  N7  1  0.36410000  0.95270000  0.79440000  1.0 -0.0549657985
N  N8  1  0.63590000  0.04730000  0.29440000  1.0 -0.0574565018
O  O1  1  0.63770000  0.04190000  0.59199000  1.0 -0.5489055165
O  O2  1  0.36230000  0.95810000  0.09199000  1.0 -0.5410909643
O  O3  1  0.13770000  0.45810000  0.65801000  1.0 -0.5410909643
O  O4  1  0.86230000  0.54190000  0.15801000  1.0 -0.5410909643
O  O5  1  0.95810000  0.36230000  0.90801000  1.0 -0.5410909643
O  O6  1  0.04190000  0.63770000  0.40801000  1.0 -0.5410909643
O  O7  1  0.54190000  0.86230000  0.84199000  1.0 -0.5410909643
O  O8  1  0.45810000  0.13770000  0.34199000  1.0 -0.5410909643
O  O9  1  0.69270000  0.96340000  0.61732000  1.0 -0.5679650013
O  O10  1  0.30730000  0.03660000  0.11732000  1.0 -0.5679650013
O  O11  1  0.19270000  0.53660000  0.63268000  1.0 -0.5679650013
O  O12  1  0.80730000  0.46340000  0.13268000  1.0 -0.5679650013
O  O13  1  0.03660000  0.30730000  0.88268000  1.0 -0.5679650013
O  O14  1  0.96340000  0.69270000  0.38268000  1.0 -0.5679650013
O  O15  1  0.46340000  0.80730000  0.86732000  1.0 -0.5679650013
O  O16  1  0.53660000  0.19270000  0.36732000  1.0 -0.5679650013
O  O17  1  0.00420000  0.46980000  0.44332000  1.0 -0.4796185872
O  O18  1  0.99580000  0.53020000  0.94332000  1.0 -0.4796185872
O  O19  1  0.50420000  0.03020000  0.80668000  1.0 -0.4796185872
O  O20  1  0.49580000  0.96980000  0.30668000  1.0 -0.4796185872
O  O21  1  0.53020000  0.99580000  0.05668000  1.0 -0.4796185872
O  O22  1  0.46980000  0.00420000  0.55668000  1.0 -0.4796185872
O  O23  1  0.96980000  0.49580000  0.69332000  1.0 -0.4796185872
O  O24  1  0.03020000  0.50420000  0.19332000  1.0 -0.4796185872
O  O25  1  0.03080000  0.55270000  0.46774000  1.0 -0.5029286823
O  O26  1  0.96920000  0.44730000  0.96774000  1.0 -0.5029286823
O  O27  1  0.53080000  0.94730000  0.78226000  1.0 -0.5029286823
O  O28  1  0.46920000  0.05270000  0.28226000  1.0 -0.5029286823
O  O29  1  0.44730000  0.96920000  0.03226000  1.0 -0.5029286823
O  O30  1  0.55270000  0.03080000  0.53226000  1.0 -0.5029286823
O  O31  1  0.05270000  0.46920000  0.71774000  1.0 -0.5029286823
O  O32  1  0.94730000  0.53080000  0.21774000  1.0 -0.5029286823
O  O33  1  0.92180000  0.99480000  0.63491000  1.0 -0.5410909643
O  O34  1  0.07820000  0.00520000  0.13491000  1.0 -0.5410909643
O  O35  1  0.42180000  0.50520000  0.61509000  1.0 -0.5410909643
O  O36  1  0.57820000  0.49480000  0.11509000  1.0 -0.5410909643
O  O37  1  0.00520000  0.07820000  0.86509000  1.0 -0.5410909643
O  O38  1  0.99480000  0.92180000  0.36509000  1.0 -0.5410909643
O  O39  1  0.49480000  0.57820000  0.88491000  1.0 -0.5410909643
O  O40  1  0.50520000  0.42180000  0.38491000  1.0 -0.5410909643
O  O41  1  0.96920000  0.06220000  0.60369000  1.0 -0.5679650013
O  O42  1  0.03080000  0.93780000  0.10369000  1.0 -0.5679650013
O  O43  1  0.46920000  0.43780000  0.64631000  1.0 -0.5679650013
O  O44  1  0.53080000  0.56220000  0.14631000  1.0 -0.5679650013
O  O45  1  0.93780000  0.03080000  0.89631000  1.0 -0.5679650013
O  O46  1  0.06220000  0.96920000  0.39631000  1.0 -0.5649228475
O  O47  1  0.56220000  0.53080000  0.85369000  1.0 -0.5679650013
O  O48  1  0.43780000  0.46920000  0.35369000  1.0 -0.5679650013
O  O49  1  0.62050000  0.44560000  0.43198000  1.0 -0.4414605579
O  O50  1  0.37950000  0.55440000  0.93198000  1.0 -0.4414605579
O  O51  1  0.12050000  0.05440000  0.81802000  1.0 -0.4414605579
O  O52  1  0.87950000  0.94560000  0.31802000  1.0 -0.4414605579
O  O53  1  0.55440000  0.37950000  0.06802000  1.0 -0.4414605579
O  O54  1  0.44560000  0.62050000  0.56802000  1.0 -0.4414605579
O  O55  1  0.94560000  0.87950000  0.68198000  1.0 -0.4414605579
O  O56  1  0.05440000  0.12050000  0.18198000  1.0 -0.4414605579
O  O57  1  0.54090000  0.47750000  0.45923000  1.0 -0.5410909643
O  O58  1  0.45910000  0.52250000  0.95923000  1.0 -0.5410909643
O  O59  1  0.04090000  0.02250000  0.79077000  1.0 -0.5410909643
O  O60  1  0.95910000  0.97750000  0.29077000  1.0 -0.5410909643
O  O61  1  0.52250000  0.45910000  0.04077000  1.0 -0.5410909643
O  O62  1  0.47750000  0.54090000  0.54077000  1.0 -0.5410909643
O  O63  1  0.97750000  0.95910000  0.70923000  1.0 -0.5410909643
O  O64  1  0.02250000  0.04090000  0.20923000  1.0 -0.5410909643
O  O65  1  0.07260000  0.54170000  0.59050000  1.0 -0.5679650013
O  O66  1  0.92740000  0.45830000  0.09050000  1.0 -0.5679650013
O  O67  1  0.57260000  0.95830000  0.65950000  1.0 -0.5679650013
O  O68  1  0.42740000  0.04170000  0.15950000  1.0 -0.5679650013
O  O69  1  0.45830000  0.92740000  0.90950000  1.0 -0.5679650013
O  O70  1  0.54170000  0.07260000  0.40950000  1.0 -0.5679650013
O  O71  1  0.04170000  0.42740000  0.84050000  1.0 -0.5679650013
O  O72  1  0.95830000  0.57260000  0.34050000  1.0 -0.5679650013
O  O73  1  0.01800000  0.47240000  0.61981000  1.0 -0.5205709569
O  O74  1  0.98200000  0.52760000  0.11981000  1.0 -0.5205709569
O  O75  1  0.51800000  0.02760000  0.63019000  1.0 -0.5205709569
O  O76  1  0.48200000  0.97240000  0.13019000  1.0 -0.5205709569
O  O77  1  0.52760000  0.98200000  0.88019000  1.0 -0.5205709569
O  O78  1  0.47240000  0.01800000  0.38019000  1.0 -0.5205709569
O  O79  1  0.97240000  0.48200000  0.86981000  1.0 -0.5205709569
O  O80  1  0.02760000  0.51800000  0.36981000  1.0 -0.5205709569
O  O81  1  0.91310000  0.04540000  0.36384000  1.0 -0.5489055165
O  O82  1  0.08690000  0.95460000  0.86384000  1.0 -0.5489055165
O  O83  1  0.41310000  0.45460000  0.88616000  1.0 -0.5489055165
O  O84  1  0.58690000  0.54540000  0.38616000  1.0 -0.5489055165
O  O85  1  0.95460000  0.08690000  0.13616000  1.0 -0.5489055165
O  O86  1  0.04540000  0.91310000  0.63616000  1.0 -0.5489055165
O  O87  1  0.54540000  0.58690000  0.61384000  1.0 -0.5489055165
O  O88  1  0.45460000  0.41310000  0.11384000  1.0 -0.5489055165
O  O89  1  0.97480000  0.08050000  0.40408000  1.0 -0.5679650013
O  O90  1  0.02520000  0.91950000  0.90408000  1.0 -0.5679650013
O  O91  1  0.47480000  0.41950000  0.84592000  1.0 -0.5679650013
O  O92  1  0.52520000  0.58050000  0.34592000  1.0 -0.5679650013
O  O93  1  0.91950000  0.02520000  0.09592000  1.0 -0.5679650013
O  O94  1  0.08050000  0.97480000  0.59592000  1.0 -0.5679650013
O  O95  1  0.58050000  0.52520000  0.65408000  1.0 -0.5679650013
O  O96  1  0.41950000  0.47480000  0.15408000  1.0 -0.5679650013
O  O97  1  0.61700000  0.42040000  0.60757000  1.0 -0.5147899172
O  O98  1  0.38300000  0.57960000  0.10757000  1.0 -0.5147899172
O  O99  1  0.11700000  0.07960000  0.64243000  1.0 -0.5147899172
O  O100  1  0.88300000  0.92040000  0.14243000  1.0 -0.5147899172
O  O101  1  0.57960000  0.38300000  0.89243000  1.0 -0.5147899172
O  O102  1  0.42040000  0.61700000  0.39243000  1.0 -0.5147899172
O  O103  1  0.92040000  0.88300000  0.85757000  1.0 -0.5147899172
O  O104  1  0.07960000  0.11700000  0.35757000  1.0 -0.5147899172
O  O105  1  0.54130000  0.45680000  0.58158000  1.0 -0.4796185872
O  O106  1  0.45870000  0.54320000  0.08158000  1.0 -0.4796185872
O  O107  1  0.04130000  0.04320000  0.66842000  1.0 -0.4796185872
O  O108  1  0.95870000  0.95680000  0.16842000  1.0 -0.4796185872
O  O109  1  0.54320000  0.45870000  0.91842000  1.0 -0.4796185872
O  O110  1  0.45680000  0.54130000  0.41842000  1.0 -0.4796185872
O  O111  1  0.95680000  0.95870000  0.83158000  1.0 -0.4796185872
O  O112  1  0.04320000  0.04130000  0.33158000  1.0 -0.4796185872
O  O113  1  0.65550000  0.15640000  0.40459000  1.0 -0.3749224327
O  O114  1  0.34450000  0.84360000  0.90459000  1.0 -0.3749224327
O  O115  1  0.15550000  0.34360000  0.84541000  1.0 -0.3749224327
O  O116  1  0.84450000  0.65640000  0.34541000  1.0 -0.3752472482
O  O117  1  0.84360000  0.34450000  0.09541000  1.0 -0.3749224327
O  O118  1  0.15640000  0.65550000  0.59541000  1.0 -0.3749224327
O  O119  1  0.65640000  0.84450000  0.65459000  1.0 -0.3749224327
O  O120  1  0.34360000  0.15550000  0.15459000  1.0 -0.3752472482
O  O121  1  0.68370000  0.09990000  0.36898000  1.0 -0.3592151485
O  O122  1  0.31630000  0.90010000  0.86898000  1.0 -0.3592151485
O  O123  1  0.18370000  0.40010000  0.88102000  1.0 -0.3592151485
O  O124  1  0.81630000  0.59990000  0.38102000  1.0 -0.3592151485
O  O125  1  0.90010000  0.31630000  0.13102000  1.0 -0.3592151485
O  O126  1  0.09990000  0.68370000  0.63102000  1.0 -0.3592151485
O  O127  1  0.59990000  0.81630000  0.61898000  1.0 -0.3592151485
O  O128  1  0.40010000  0.18370000  0.11898000  1.0 -0.3592151485
O  O129  1  0.56970000  0.92585000  0.58499000  1.0 -0.6165813587
O  O130  1  0.43030000  0.07415000  0.08499000  1.0 -0.6165813587
O  O131  1  0.06970000  0.57415000  0.66501000  1.0 -0.6165813587
O  O132  1  0.93030000  0.42585000  0.16501000  1.0 -0.6165813587
O  O133  1  0.07415000  0.43030000  0.91501000  1.0 -0.6165813587
O  O134  1  0.92585000  0.56970000  0.41501000  1.0 -0.6165813587
O  O135  1  0.42585000  0.93030000  0.83499000  1.0 -0.6165813587
O  O136  1  0.57415000  0.06970000  0.33499000  1.0 -0.6165813587
O  O137  1  0.79550000  0.19020000  0.55474000  1.0 -0.1905067352
O  O138  1  0.20450000  0.80980000  0.05474000  1.0 -0.1905067352
O  O139  1  0.29550000  0.30980000  0.69526000  1.0 -0.1905067352
O  O140  1  0.70450000  0.69020000  0.19526000  1.0 -0.1905067352
O  O141  1  0.80980000  0.20450000  0.94526000  1.0 -0.1905067352
O  O142  1  0.19020000  0.79550000  0.44526000  1.0 -0.1905067352
O  O143  1  0.69020000  0.70450000  0.80474000  1.0 -0.1905067352
O  O144  1  0.30980000  0.29550000  0.30474000  1.0 -0.1905067352
O  O145  1  0.84700000  0.20620000  0.47455000  1.0 -0.1905067352
O  O146  1  0.15300000  0.79380000  0.97455000  1.0 -0.1905067352
O  O147  1  0.34700000  0.29380000  0.77545000  1.0 -0.1905067352
O  O148  1  0.65300000  0.70620000  0.27545000  1.0 -0.1905067352
O  O149  1  0.79380000  0.15300000  0.02545000  1.0 -0.1905067352
O  O150  1  0.20620000  0.84700000  0.52545000  1.0 -0.1905067352
O  O151  1  0.70620000  0.65300000  0.72455000  1.0 -0.1905067352
O  O152  1  0.29380000  0.34700000  0.22455000  1.0 -0.1905067352
O  O153  1  0.76640000  0.36000000  0.51347000  1.0 -0.1905067352
O  O154  1  0.23360000  0.64000000  0.01347000  1.0 -0.1905067352
O  O155  1  0.26640000  0.14000000  0.73653000  1.0 -0.1905067352
O  O156  1  0.73360000  0.86000000  0.23653000  1.0 -0.1905067352
O  O157  1  0.64000000  0.23360000  0.98653000  1.0 -0.1905067352
O  O158  1  0.36000000  0.76640000  0.48653000  1.0 -0.1905067352
O  O159  1  0.86000000  0.73360000  0.76347000  1.0 -0.1905067352
O  O160  1  0.14000000  0.26640000  0.26347000  1.0 -0.1905067352
O  O161  1  0.91360000  0.34040000  0.53832000  1.0 -0.2008530001
O  O162  1  0.08640000  0.65960000  0.03832000  1.0 -0.2008530001
O  O163  1  0.41360000  0.15960000  0.71168000  1.0 -0.2008530001
O  O164  1  0.58640000  0.84040000  0.21168000  1.0 -0.2008530001
O  O165  1  0.65960000  0.08640000  0.96168000  1.0 -0.2008530001
O  O166  1  0.34040000  0.91360000  0.46168000  1.0 -0.2008530001
O  O167  1  0.84040000  0.58640000  0.78832000  1.0 -0.2008530001
O  O168  1  0.15960000  0.41360000  0.28832000  1.0 -0.2008530001
