# DDEC6 charges by PACMAN v1.1 (https://github.com/mtap-research/PACMAN-charge/)
data_WEHJUQ_ASR_pacman
_symmetry_space_group_name_H-M   'P 1'
_cell_length_a   27.03300000
_cell_length_b   27.03300000
_cell_length_c   44.09600000
_cell_angle_alpha   90.00000000
_cell_angle_beta   90.00000000
_cell_angle_gamma   90.00000000
_symmetry_Int_Tables_number   1
_chemical_formula_structural   Zn16H60(C37O20)3
_chemical_formula_sum   'Zn64 H240 C444 O240'
_cell_volume   32224.61109254
_cell_formula_units_Z   4
loop_
 _symmetry_equiv_pos_site_id
 _symmetry_equiv_pos_as_xyz
  1  'x, y, z'
loop_
 _atom_site_type_symbol
 _atom_site_label
 _atom_site_symmetry_multiplicity
 _atom_site_fract_x
 _atom_site_fract_y
 _atom_site_fract_z
 _atom_site_occupancy
 _atom_site_charge
Zn  Zn1  1  0.26615000  0.40942000  0.83181000  1.0 0.9472121743
Zn  Zn2  1  0.73385000  0.59058000  0.83181000  1.0 0.9472121743
Zn  Zn3  1  0.09058000  0.23385000  0.66819000  1.0 0.9472121743
Zn  Zn4  1  0.90942000  0.76615000  0.66819000  1.0 0.9472121743
Zn  Zn5  1  0.23385000  0.90942000  0.33181000  1.0 0.9472121743
Zn  Zn6  1  0.76615000  0.09058000  0.33181000  1.0 0.9472121743
Zn  Zn7  1  0.59058000  0.26615000  0.16819000  1.0 0.9472121743
Zn  Zn8  1  0.40942000  0.73385000  0.16819000  1.0 0.9472121743
Zn  Zn9  1  0.25239000  0.51212000  0.87784000  1.0 0.9719429627
Zn  Zn10  1  0.74761000  0.48788000  0.87784000  1.0 0.9719429627
Zn  Zn11  1  0.98788000  0.24761000  0.62216000  1.0 0.9719429627
Zn  Zn12  1  0.01212000  0.75239000  0.62216000  1.0 0.9719429627
Zn  Zn13  1  0.24761000  0.01212000  0.37784000  1.0 0.9719429627
Zn  Zn14  1  0.75239000  0.98788000  0.37784000  1.0 0.9719429627
Zn  Zn15  1  0.48788000  0.25239000  0.12216000  1.0 0.9719429627
Zn  Zn16  1  0.51212000  0.74761000  0.12216000  1.0 0.9719429627
Zn  Zn17  1  0.28044000  0.42178000  0.67676000  1.0 0.9629895198
Zn  Zn18  1  0.71956000  0.57822000  0.67676000  1.0 0.9629895198
Zn  Zn19  1  0.07822000  0.21956000  0.82324000  1.0 0.9629895198
Zn  Zn20  1  0.92178000  0.78044000  0.82324000  1.0 0.9629895198
Zn  Zn21  1  0.21956000  0.92178000  0.17676000  1.0 0.9629895198
Zn  Zn22  1  0.78044000  0.07822000  0.17676000  1.0 0.9719429627
Zn  Zn23  1  0.57822000  0.28044000  0.32324000  1.0 0.9629895198
Zn  Zn24  1  0.42178000  0.71956000  0.32324000  1.0 0.9629895198
Zn  Zn25  1  0.27591000  0.52904000  0.63490000  1.0 0.9414079654
Zn  Zn26  1  0.72409000  0.47096000  0.63490000  1.0 0.9414079654
Zn  Zn27  1  0.97096000  0.22409000  0.86510000  1.0 0.9414079654
Zn  Zn28  1  0.02904000  0.77591000  0.86510000  1.0 0.9414079654
Zn  Zn29  1  0.22409000  0.02904000  0.13490000  1.0 0.9414079654
Zn  Zn30  1  0.77591000  0.97096000  0.13490000  1.0 0.9414079654
Zn  Zn31  1  0.47096000  0.27591000  0.36510000  1.0 0.9414079654
Zn  Zn32  1  0.52904000  0.72409000  0.36510000  1.0 0.9414079654
Zn  Zn33  1  0.02799000  0.26563000  0.06681000  1.0 0.9168994524
Zn  Zn34  1  0.97201000  0.73437000  0.06681000  1.0 0.9168994524
Zn  Zn35  1  0.23437000  0.47201000  0.43319000  1.0 0.9168994524
Zn  Zn36  1  0.76563000  0.52799000  0.43319000  1.0 0.9168994524
Zn  Zn37  1  0.47201000  0.76563000  0.56681000  1.0 0.9168994524
Zn  Zn38  1  0.52799000  0.23437000  0.56681000  1.0 0.9168994524
Zn  Zn39  1  0.73437000  0.02799000  0.93319000  1.0 0.9168994524
Zn  Zn40  1  0.26563000  0.97201000  0.93319000  1.0 0.9168994524
Zn  Zn41  1  0.96417000  0.27822000  0.13318000  1.0 0.9414079654
Zn  Zn42  1  0.03583000  0.72178000  0.13318000  1.0 0.9414079654
Zn  Zn43  1  0.22178000  0.53583000  0.36682000  1.0 0.9414079654
Zn  Zn44  1  0.77822000  0.46417000  0.36682000  1.0 0.9414079654
Zn  Zn45  1  0.53583000  0.77822000  0.63318000  1.0 0.9414079654
Zn  Zn46  1  0.46417000  0.22178000  0.63318000  1.0 0.9414079654
Zn  Zn47  1  0.72178000  0.96417000  0.86682000  1.0 0.9414079654
Zn  Zn48  1  0.27822000  0.03583000  0.86682000  1.0 0.9472121743
Zn  Zn49  1  0.49102000  0.23726000  0.86117000  1.0 0.9078630604
Zn  Zn50  1  0.50898000  0.76274000  0.86117000  1.0 0.9078630604
Zn  Zn51  1  0.26274000  0.00898000  0.63883000  1.0 0.9078630604
Zn  Zn52  1  0.73726000  0.99102000  0.63883000  1.0 0.9078630604
Zn  Zn53  1  0.00898000  0.73726000  0.36117000  1.0 0.9078630604
Zn  Zn54  1  0.99102000  0.26274000  0.36117000  1.0 0.9078630604
Zn  Zn55  1  0.76274000  0.49102000  0.13883000  1.0 0.9078630604
Zn  Zn56  1  0.23726000  0.50898000  0.13883000  1.0 0.9078630604
Zn  Zn57  1  0.55488000  0.25575000  0.92519000  1.0 0.9629895198
Zn  Zn58  1  0.44512000  0.74425000  0.92519000  1.0 0.9629895198
Zn  Zn59  1  0.24425000  0.94512000  0.57481000  1.0 0.9629895198
Zn  Zn60  1  0.75575000  0.05488000  0.57481000  1.0 0.9629895198
Zn  Zn61  1  0.94512000  0.75575000  0.42519000  1.0 0.9629895198
Zn  Zn62  1  0.05488000  0.24425000  0.42519000  1.0 0.9629895198
Zn  Zn63  1  0.74425000  0.55488000  0.07481000  1.0 0.9629895198
Zn  Zn64  1  0.25575000  0.44512000  0.07481000  1.0 0.9629895198
H  H1  1  0.24710000  0.70020000  0.72260000  1.0 0.0975750296
H  H2  1  0.75290000  0.29980000  0.72260000  1.0 0.0975750296
H  H3  1  0.79980000  0.25290000  0.77740000  1.0 0.0975750296
H  H4  1  0.20020000  0.74710000  0.77740000  1.0 0.0975750296
H  H5  1  0.25290000  0.20020000  0.22260000  1.0 0.0975750296
H  H6  1  0.74710000  0.79980000  0.22260000  1.0 0.0975750296
H  H7  1  0.29980000  0.24710000  0.27740000  1.0 0.0975750296
H  H8  1  0.70020000  0.75290000  0.27740000  1.0 0.0975750296
H  H9  1  0.30230000  0.70280000  0.73360000  1.0 0.0890368355
H  H10  1  0.69770000  0.29720000  0.73360000  1.0 0.0890368355
H  H11  1  0.79720000  0.19770000  0.76640000  1.0 0.0890368355
H  H12  1  0.20280000  0.80230000  0.76640000  1.0 0.0890368355
H  H13  1  0.19770000  0.20280000  0.23360000  1.0 0.0890368355
H  H14  1  0.80230000  0.79720000  0.23360000  1.0 0.0890368355
H  H15  1  0.29720000  0.30230000  0.26640000  1.0 0.0890368355
H  H16  1  0.70280000  0.69770000  0.26640000  1.0 0.0890368355
H  H17  1  0.27520000  0.62080000  0.71570000  1.0 0.1296775717
H  H18  1  0.72480000  0.37920000  0.71570000  1.0 0.1296775717
H  H19  1  0.87920000  0.22480000  0.78430000  1.0 0.1296775717
H  H20  1  0.12080000  0.77520000  0.78430000  1.0 0.1296775717
H  H21  1  0.22480000  0.12080000  0.21570000  1.0 0.1296775717
H  H22  1  0.77520000  0.87920000  0.21570000  1.0 0.1296775717
H  H23  1  0.37920000  0.27520000  0.28430000  1.0 0.1296775717
H  H24  1  0.62080000  0.72480000  0.28430000  1.0 0.1296775717
H  H25  1  0.27050000  0.49150000  0.75580000  1.0 0.1296775717
H  H26  1  0.72950000  0.50850000  0.75580000  1.0 0.1296775717
H  H27  1  0.00850000  0.22950000  0.74420000  1.0 0.1296775717
H  H28  1  0.99150000  0.77050000  0.74420000  1.0 0.1296775717
H  H29  1  0.22950000  0.99150000  0.25580000  1.0 0.1296775717
H  H30  1  0.77050000  0.00850000  0.25580000  1.0 0.1296775717
H  H31  1  0.50850000  0.27050000  0.24420000  1.0 0.1296775717
H  H32  1  0.49150000  0.72950000  0.24420000  1.0 0.1296775717
H  H33  1  0.25680000  0.61520000  0.80200000  1.0 0.1296775717
H  H34  1  0.74320000  0.38480000  0.80200000  1.0 0.1296775717
H  H35  1  0.88480000  0.24320000  0.69800000  1.0 0.1296775717
H  H36  1  0.11520000  0.75680000  0.69800000  1.0 0.1296775717
H  H37  1  0.24320000  0.11520000  0.30200000  1.0 0.1296775717
H  H38  1  0.75680000  0.88480000  0.30200000  1.0 0.1296775717
H  H39  1  0.38480000  0.25680000  0.19800000  1.0 0.1296775717
H  H40  1  0.61520000  0.74320000  0.19800000  1.0 0.1296775717
H  H41  1  0.29250000  0.74940000  0.78950000  1.0 0.0890368355
H  H42  1  0.70750000  0.25060000  0.78950000  1.0 0.0890368355
H  H43  1  0.75060000  0.20750000  0.71050000  1.0 0.0890368355
H  H44  1  0.24940000  0.79250000  0.71050000  1.0 0.0890368355
H  H45  1  0.20750000  0.24940000  0.28950000  1.0 0.0890368355
H  H46  1  0.79250000  0.75060000  0.28950000  1.0 0.0890368355
H  H47  1  0.25060000  0.29250000  0.21050000  1.0 0.0890368355
H  H48  1  0.74940000  0.70750000  0.21050000  1.0 0.0890368355
H  H49  1  0.32770000  0.77270000  0.76540000  1.0 0.0975750296
H  H50  1  0.67230000  0.22730000  0.76540000  1.0 0.0975750296
H  H51  1  0.72730000  0.17230000  0.73460000  1.0 0.0975750296
H  H52  1  0.27270000  0.82770000  0.73460000  1.0 0.0975750296
H  H53  1  0.17230000  0.27270000  0.26540000  1.0 0.0975750296
H  H54  1  0.82770000  0.72730000  0.26540000  1.0 0.0975750296
H  H55  1  0.22730000  0.32770000  0.23460000  1.0 0.0975750296
H  H56  1  0.77270000  0.67230000  0.23460000  1.0 0.0975750296
H  H57  1  0.26980000  0.89190000  0.82010000  1.0 0.1296775717
H  H58  1  0.73020000  0.10810000  0.82010000  1.0 0.1296775717
H  H59  1  0.60810000  0.23020000  0.67990000  1.0 0.1296775717
H  H60  1  0.39190000  0.76980000  0.67990000  1.0 0.1296775717
H  H61  1  0.23020000  0.39190000  0.32010000  1.0 0.1296775717
H  H62  1  0.76980000  0.60810000  0.32010000  1.0 0.1296775717
H  H63  1  0.10810000  0.26980000  0.17990000  1.0 0.1296775717
H  H64  1  0.89190000  0.73020000  0.17990000  1.0 0.1296775717
H  H65  1  0.34300000  0.85560000  0.89360000  1.0 0.1296775717
H  H66  1  0.65700000  0.14440000  0.89360000  1.0 0.1296775717
H  H67  1  0.64440000  0.15700000  0.60640000  1.0 0.1296775717
H  H68  1  0.35560000  0.84300000  0.60640000  1.0 0.1296775717
H  H69  1  0.15700000  0.35560000  0.39360000  1.0 0.1296775717
H  H70  1  0.84300000  0.64440000  0.39360000  1.0 0.1296775717
H  H71  1  0.14440000  0.34300000  0.10640000  1.0 0.1296775717
H  H72  1  0.85560000  0.65700000  0.10640000  1.0 0.1296775717
H  H73  1  0.35770000  0.77290000  0.81830000  1.0 0.1296775717
H  H74  1  0.64230000  0.22710000  0.81830000  1.0 0.1296775717
H  H75  1  0.72710000  0.14230000  0.68170000  1.0 0.1296775717
H  H76  1  0.27290000  0.85770000  0.68170000  1.0 0.1296775717
H  H77  1  0.14230000  0.27290000  0.31830000  1.0 0.1296775717
H  H78  1  0.85770000  0.72710000  0.31830000  1.0 0.1296775717
H  H79  1  0.22710000  0.35770000  0.18170000  1.0 0.1296775717
H  H80  1  0.77290000  0.64230000  0.18170000  1.0 0.1296775717
H  H81  1  0.51520000  0.44470000  0.96580000  1.0 0.0975750296
H  H82  1  0.48480000  0.55530000  0.96580000  1.0 0.0975750296
H  H83  1  0.05530000  0.98480000  0.53420000  1.0 0.0975750296
H  H84  1  0.94470000  0.01520000  0.53420000  1.0 0.0975750296
H  H85  1  0.98480000  0.94470000  0.46580000  1.0 0.0975750296
H  H86  1  0.01520000  0.05530000  0.46580000  1.0 0.0975750296
H  H87  1  0.55530000  0.51520000  0.03420000  1.0 0.0975750296
H  H88  1  0.44470000  0.48480000  0.03420000  1.0 0.0975750296
H  H89  1  0.47960000  0.42400000  0.99110000  1.0 0.0975750296
H  H90  1  0.52040000  0.57600000  0.99110000  1.0 0.0975750296
H  H91  1  0.07600000  0.02040000  0.50890000  1.0 0.0975750296
H  H92  1  0.92400000  0.97960000  0.50890000  1.0 0.0975750296
H  H93  1  0.02040000  0.92400000  0.49110000  1.0 0.0975750296
H  H94  1  0.97960000  0.07600000  0.49110000  1.0 0.0975750296
H  H95  1  0.57600000  0.47960000  0.00890000  1.0 0.0975750296
H  H96  1  0.42400000  0.52040000  0.00890000  1.0 0.0975750296
H  H97  1  0.48810000  0.38510000  0.94390000  1.0 0.1205081643
H  H98  1  0.51190000  0.61490000  0.94390000  1.0 0.1205081643
H  H99  1  0.11490000  0.01190000  0.55610000  1.0 0.1205081643
H  H100  1  0.88510000  0.98810000  0.55610000  1.0 0.1205081643
H  H101  1  0.01190000  0.88510000  0.44390000  1.0 0.1205081643
H  H102  1  0.98810000  0.11490000  0.44390000  1.0 0.1205081643
H  H103  1  0.61490000  0.48810000  0.05610000  1.0 0.1205081643
H  H104  1  0.38510000  0.51190000  0.05610000  1.0 0.1205081643
H  H105  1  0.39780000  0.35950000  0.87250000  1.0 0.1205081643
H  H106  1  0.60220000  0.64050000  0.87250000  1.0 0.1205081643
H  H107  1  0.14050000  0.10220000  0.62750000  1.0 0.1205081643
H  H108  1  0.85950000  0.89780000  0.62750000  1.0 0.1205081643
H  H109  1  0.10220000  0.85950000  0.37250000  1.0 0.1205081643
H  H110  1  0.89780000  0.14050000  0.37250000  1.0 0.1205081643
H  H111  1  0.64050000  0.39780000  0.12750000  1.0 0.1205081643
H  H112  1  0.35950000  0.60220000  0.12750000  1.0 0.1205081643
H  H113  1  0.37870000  0.47980000  0.92570000  1.0 0.1375339079
H  H114  1  0.62130000  0.52020000  0.92570000  1.0 0.1375339079
H  H115  1  0.02020000  0.12130000  0.57430000  1.0 0.1375339079
H  H116  1  0.97980000  0.87870000  0.57430000  1.0 0.1375339079
H  H117  1  0.12130000  0.97980000  0.42570000  1.0 0.1375339079
H  H118  1  0.87870000  0.02020000  0.42570000  1.0 0.1375339079
H  H119  1  0.52020000  0.37870000  0.07430000  1.0 0.1375339079
H  H120  1  0.47980000  0.62130000  0.07430000  1.0 0.1375339079
H  H121  1  0.05410000  0.50720000  0.93680000  1.0 0.0890368355
H  H122  1  0.94590000  0.49280000  0.93680000  1.0 0.0890368355
H  H123  1  0.99280000  0.44590000  0.56320000  1.0 0.0890368355
H  H124  1  0.00720000  0.55410000  0.56320000  1.0 0.0890368355
H  H125  1  0.44590000  0.00720000  0.43680000  1.0 0.0890368355
H  H126  1  0.55410000  0.99280000  0.43680000  1.0 0.0890368355
H  H127  1  0.49280000  0.05410000  0.06320000  1.0 0.0890368355
H  H128  1  0.50720000  0.94590000  0.06320000  1.0 0.0890368355
H  H129  1  0.06730000  0.46810000  0.96170000  1.0 0.0890368355
H  H130  1  0.93270000  0.53190000  0.96170000  1.0 0.0890368355
H  H131  1  0.03190000  0.43270000  0.53830000  1.0 0.0890368355
H  H132  1  0.96810000  0.56730000  0.53830000  1.0 0.0890368355
H  H133  1  0.43270000  0.96810000  0.46170000  1.0 0.0890368355
H  H134  1  0.56730000  0.03190000  0.46170000  1.0 0.0890368355
H  H135  1  0.53190000  0.06730000  0.03830000  1.0 0.0890368355
H  H136  1  0.46810000  0.93270000  0.03830000  1.0 0.0890368355
H  H137  1  0.00610000  0.36090000  0.90080000  1.0 0.1375339079
H  H138  1  0.99390000  0.63910000  0.90080000  1.0 0.1375339079
H  H139  1  0.13910000  0.49390000  0.59920000  1.0 0.1375339079
H  H140  1  0.86090000  0.50610000  0.59920000  1.0 0.1375339079
H  H141  1  0.49390000  0.86090000  0.40080000  1.0 0.1375339079
H  H142  1  0.50610000  0.13910000  0.40080000  1.0 0.1375339079
H  H143  1  0.63910000  0.00610000  0.09920000  1.0 0.1375339079
H  H144  1  0.36090000  0.99390000  0.09920000  1.0 0.1375339079
H  H145  1  0.13330000  0.34940000  0.85560000  1.0 0.1205081643
H  H146  1  0.86670000  0.65060000  0.85560000  1.0 0.1205081643
H  H147  1  0.15060000  0.36670000  0.64440000  1.0 0.1205081643
H  H148  1  0.84940000  0.63330000  0.64440000  1.0 0.1205081643
H  H149  1  0.36670000  0.84940000  0.35560000  1.0 0.1205081643
H  H150  1  0.63330000  0.15060000  0.35560000  1.0 0.1205081643
H  H151  1  0.65060000  0.13330000  0.14440000  1.0 0.1205081643
H  H152  1  0.34940000  0.86670000  0.14440000  1.0 0.1205081643
H  H153  1  0.11370000  0.46800000  0.91100000  1.0 0.1205081643
H  H154  1  0.88630000  0.53200000  0.91100000  1.0 0.1205081643
H  H155  1  0.03200000  0.38630000  0.58900000  1.0 0.1205081643
H  H156  1  0.96800000  0.61370000  0.58900000  1.0 0.1205081643
H  H157  1  0.38630000  0.96800000  0.41100000  1.0 0.1205081643
H  H158  1  0.61370000  0.03200000  0.41100000  1.0 0.1205081643
H  H159  1  0.53200000  0.11370000  0.08900000  1.0 0.1205081643
H  H160  1  0.46800000  0.88630000  0.08900000  1.0 0.1205081643
H  H161  1  0.97190000  0.43040000  0.97180000  1.0 0.0890368355
H  H162  1  0.02810000  0.56960000  0.97180000  1.0 0.0890368355
H  H163  1  0.06960000  0.52810000  0.52820000  1.0 0.0890368355
H  H164  1  0.93040000  0.47190000  0.52820000  1.0 0.0890368355
H  H165  1  0.52810000  0.93040000  0.47180000  1.0 0.0890368355
H  H166  1  0.47190000  0.06960000  0.47180000  1.0 0.0890368355
H  H167  1  0.56960000  0.97190000  0.02820000  1.0 0.0890368355
H  H168  1  0.43040000  0.02810000  0.02820000  1.0 0.0890368355
H  H169  1  0.00730000  0.44380000  0.99900000  1.0 0.0846992549
H  H170  1  0.99270000  0.55620000  0.99900000  1.0 0.0846992549
H  H171  1  0.05620000  0.49270000  0.50100000  1.0 0.0846992549
H  H172  1  0.94380000  0.50730000  0.50100000  1.0 0.0846992549
H  H173  1  0.49270000  0.94380000  0.49900000  1.0 0.0846992549
H  H174  1  0.50730000  0.05620000  0.49900000  1.0 0.0846992549
H  H175  1  0.55620000  0.00730000  0.00100000  1.0 0.0846992549
H  H176  1  0.44380000  0.99270000  0.00100000  1.0 0.0846992549
H  H177  1  0.97400000  0.39380000  0.02970000  1.0 0.1205081643
H  H178  1  0.02600000  0.60620000  0.02970000  1.0 0.1205081643
H  H179  1  0.10620000  0.52600000  0.47030000  1.0 0.1205081643
H  H180  1  0.89380000  0.47400000  0.47030000  1.0 0.1205081643
H  H181  1  0.52600000  0.89380000  0.52970000  1.0 0.1205081643
H  H182  1  0.47400000  0.10620000  0.52970000  1.0 0.1205081643
H  H183  1  0.60620000  0.97400000  0.97030000  1.0 0.1205081643
H  H184  1  0.39380000  0.02600000  0.97030000  1.0 0.1205081643
H  H185  1  0.86470000  0.50470000  0.03610000  1.0 0.1296775717
H  H186  1  0.13530000  0.49530000  0.03610000  1.0 0.1296775717
H  H187  1  0.99530000  0.63530000  0.46390000  1.0 0.1296775717
H  H188  1  0.00470000  0.36470000  0.46390000  1.0 0.1296775717
H  H189  1  0.63530000  0.00470000  0.53610000  1.0 0.1296775717
H  H190  1  0.36470000  0.99530000  0.53610000  1.0 0.1296775717
H  H191  1  0.49530000  0.86470000  0.96390000  1.0 0.1296775717
H  H192  1  0.50470000  0.13530000  0.96390000  1.0 0.1296775717
H  H193  1  0.87730000  0.39610000  0.09980000  1.0 0.1296775717
H  H194  1  0.12270000  0.60390000  0.09980000  1.0 0.1296775717
H  H195  1  0.10390000  0.62270000  0.40020000  1.0 0.1296775717
H  H196  1  0.89610000  0.37730000  0.40020000  1.0 0.1296775717
H  H197  1  0.62270000  0.89610000  0.59980000  1.0 0.1296775717
H  H198  1  0.37730000  0.10390000  0.59980000  1.0 0.1296775717
H  H199  1  0.60390000  0.87730000  0.90020000  1.0 0.1296775717
H  H200  1  0.39610000  0.12270000  0.90020000  1.0 0.1296775717
H  H201  1  0.47910000  0.42290000  0.50530000  1.0 0.0890368355
H  H202  1  0.52090000  0.57710000  0.50530000  1.0 0.0890368355
H  H203  1  0.07710000  0.02090000  0.99470000  1.0 0.0890368355
H  H204  1  0.92290000  0.97910000  0.99470000  1.0 0.0890368355
H  H205  1  0.02090000  0.92290000  0.00530000  1.0 0.0890368355
H  H206  1  0.97910000  0.07710000  0.00530000  1.0 0.0890368355
H  H207  1  0.57710000  0.47910000  0.49470000  1.0 0.0890368355
H  H208  1  0.42290000  0.52090000  0.49470000  1.0 0.0890368355
H  H209  1  0.51780000  0.43930000  0.53040000  1.0 0.0890368355
H  H210  1  0.48220000  0.56070000  0.53040000  1.0 0.0890368355
H  H211  1  0.06070000  0.98220000  0.96960000  1.0 0.0890368355
H  H212  1  0.93930000  0.01780000  0.96960000  1.0 0.0890368355
H  H213  1  0.98220000  0.93930000  0.03040000  1.0 0.0890368355
H  H214  1  0.01780000  0.06070000  0.03040000  1.0 0.0890368355
H  H215  1  0.56070000  0.51780000  0.46960000  1.0 0.0890368355
H  H216  1  0.43930000  0.48220000  0.46960000  1.0 0.0890368355
H  H217  1  0.47840000  0.37890000  0.55260000  1.0 0.1205081643
H  H218  1  0.52160000  0.62110000  0.55260000  1.0 0.1205081643
H  H219  1  0.12110000  0.02160000  0.94740000  1.0 0.1205081643
H  H220  1  0.87890000  0.97840000  0.94740000  1.0 0.1205081643
H  H221  1  0.02160000  0.87890000  0.05260000  1.0 0.1205081643
H  H222  1  0.97840000  0.12110000  0.05260000  1.0 0.1205081643
H  H223  1  0.62110000  0.47840000  0.44740000  1.0 0.1205081643
H  H224  1  0.37890000  0.52160000  0.44740000  1.0 0.1205081643
H  H225  1  0.39250000  0.35800000  0.62270000  1.0 0.1296775717
H  H226  1  0.60750000  0.64200000  0.62270000  1.0 0.1296775717
H  H227  1  0.14200000  0.10750000  0.87730000  1.0 0.1296775717
H  H228  1  0.85800000  0.89250000  0.87730000  1.0 0.1296775717
H  H229  1  0.10750000  0.85800000  0.12270000  1.0 0.1296775717
H  H230  1  0.89250000  0.14200000  0.12270000  1.0 0.1296775717
H  H231  1  0.64200000  0.39250000  0.37730000  1.0 0.1296775717
H  H232  1  0.35800000  0.60750000  0.37730000  1.0 0.1296775717
H  H233  1  0.38580000  0.48770000  0.58160000  1.0 0.1375339079
H  H234  1  0.61420000  0.51230000  0.58160000  1.0 0.1375339079
H  H235  1  0.01230000  0.11420000  0.91840000  1.0 0.1375339079
H  H236  1  0.98770000  0.88580000  0.91840000  1.0 0.1375339079
H  H237  1  0.11420000  0.98770000  0.08160000  1.0 0.1375339079
H  H238  1  0.88580000  0.01230000  0.08160000  1.0 0.1375339079
H  H239  1  0.51230000  0.38580000  0.41840000  1.0 0.1375339079
H  H240  1  0.48770000  0.61420000  0.41840000  1.0 0.1375339079
C  C1  1  0.26040000  0.76040000  0.75000000  1.0 -0.0078725952
C  C2  1  0.73960000  0.23960000  0.75000000  1.0 -0.0078725952
C  C3  1  0.23960000  0.26040000  0.25000000  1.0 -0.0078725952
C  C4  1  0.76040000  0.73960000  0.25000000  1.0 -0.0078725952
C  C5  1  0.26820000  0.70740000  0.73980000  1.0 -0.0588469497
C  C6  1  0.73180000  0.29260000  0.73980000  1.0 -0.0588469497
C  C7  1  0.79260000  0.23180000  0.76020000  1.0 -0.0588469497
C  C8  1  0.20740000  0.76820000  0.76020000  1.0 -0.0588469497
C  C9  1  0.23180000  0.20740000  0.23980000  1.0 -0.0588469497
C  C10  1  0.76820000  0.79260000  0.23980000  1.0 -0.0588469497
C  C11  1  0.29260000  0.26820000  0.26020000  1.0 -0.0588469497
C  C12  1  0.70740000  0.73180000  0.26020000  1.0 -0.0588469497
C  C13  1  0.26200000  0.63110000  0.75960000  1.0 0.2615480185
C  C14  1  0.73800000  0.36890000  0.75960000  1.0 0.2615480185
C  C15  1  0.86890000  0.23800000  0.74040000  1.0 0.2615480185
C  C16  1  0.13110000  0.76200000  0.74040000  1.0 0.2615480185
C  C17  1  0.23800000  0.13110000  0.25960000  1.0 0.2615480185
C  C18  1  0.76200000  0.86890000  0.25960000  1.0 0.2615480185
C  C19  1  0.36890000  0.26200000  0.24040000  1.0 0.2615480185
C  C20  1  0.63110000  0.73800000  0.24040000  1.0 0.2615480185
C  C21  1  0.26970000  0.60270000  0.73330000  1.0 -0.2585628298
C  C22  1  0.73030000  0.39730000  0.73330000  1.0 -0.2585628298
C  C23  1  0.89730000  0.23030000  0.76670000  1.0 -0.2585628298
C  C24  1  0.10270000  0.76970000  0.76670000  1.0 -0.2585628298
C  C25  1  0.23030000  0.10270000  0.23330000  1.0 -0.2585628298
C  C26  1  0.76970000  0.89730000  0.23330000  1.0 -0.2585628298
C  C27  1  0.39730000  0.26970000  0.26670000  1.0 -0.2585628298
C  C28  1  0.60270000  0.73030000  0.26670000  1.0 -0.2585628298
C  C29  1  0.27040000  0.55450000  0.72980000  1.0 -0.0198667063
C  C30  1  0.72960000  0.44550000  0.72980000  1.0 -0.0198667063
C  C31  1  0.94550000  0.22960000  0.77020000  1.0 -0.0198667063
C  C32  1  0.05450000  0.77040000  0.77020000  1.0 -0.0198667063
C  C33  1  0.22960000  0.05450000  0.22980000  1.0 -0.0198667063
C  C34  1  0.77040000  0.94550000  0.22980000  1.0 -0.0198667063
C  C35  1  0.44550000  0.27040000  0.27020000  1.0 -0.0198667063
C  C36  1  0.55450000  0.72960000  0.27020000  1.0 -0.0198667063
C  C37  1  0.26880000  0.52580000  0.75690000  1.0 -0.1203508287
C  C38  1  0.73120000  0.47420000  0.75690000  1.0 -0.1203508287
C  C39  1  0.97420000  0.23120000  0.74310000  1.0 -0.1203508287
C  C40  1  0.02580000  0.76880000  0.74310000  1.0 -0.1203508287
C  C41  1  0.23120000  0.02580000  0.25690000  1.0 -0.1203508287
C  C42  1  0.76880000  0.97420000  0.25690000  1.0 -0.1203508287
C  C43  1  0.47420000  0.26880000  0.24310000  1.0 -0.1203508287
C  C44  1  0.52580000  0.73120000  0.24310000  1.0 -0.1203508287
C  C45  1  0.26470000  0.54870000  0.78500000  1.0 -0.0812869986
C  C46  1  0.73530000  0.45130000  0.78500000  1.0 -0.0812869986
C  C47  1  0.95130000  0.23530000  0.71500000  1.0 -0.0812869986
C  C48  1  0.04870000  0.76470000  0.71500000  1.0 -0.0812869986
C  C49  1  0.23530000  0.04870000  0.28500000  1.0 -0.0812869986
C  C50  1  0.76470000  0.95130000  0.28500000  1.0 -0.0812869986
C  C51  1  0.45130000  0.26470000  0.21500000  1.0 -0.0812869986
C  C52  1  0.54870000  0.73530000  0.21500000  1.0 -0.0812869986
C  C53  1  0.26090000  0.59970000  0.78330000  1.0 -0.2483231158
C  C54  1  0.73910000  0.40030000  0.78330000  1.0 -0.2483231158
C  C55  1  0.90030000  0.23910000  0.71670000  1.0 -0.2585628298
C  C56  1  0.09970000  0.76090000  0.71670000  1.0 -0.2585628298
C  C57  1  0.23910000  0.09970000  0.28330000  1.0 -0.2585628298
C  C58  1  0.76090000  0.90030000  0.28330000  1.0 -0.2585628298
C  C59  1  0.40030000  0.26090000  0.21670000  1.0 -0.2585628298
C  C60  1  0.59970000  0.73910000  0.21670000  1.0 -0.2585628298
C  C61  1  0.26470000  0.51850000  0.81180000  1.0 0.5864923842
C  C62  1  0.73530000  0.48150000  0.81180000  1.0 0.5864923842
C  C63  1  0.98150000  0.23530000  0.68820000  1.0 0.5864923842
C  C64  1  0.01850000  0.76470000  0.68820000  1.0 0.5864923842
C  C65  1  0.23530000  0.01850000  0.31180000  1.0 0.5864923842
C  C66  1  0.76470000  0.98150000  0.31180000  1.0 0.5864923842
C  C67  1  0.48150000  0.26470000  0.18820000  1.0 0.5864923842
C  C68  1  0.51850000  0.73530000  0.18820000  1.0 0.5864923842
C  C69  1  0.27550000  0.52890000  0.69540000  1.0 0.5620082782
C  C70  1  0.72450000  0.47110000  0.69540000  1.0 0.5620082782
C  C71  1  0.97110000  0.22450000  0.80460000  1.0 0.5620082782
C  C72  1  0.02890000  0.77550000  0.80460000  1.0 0.5620082782
C  C73  1  0.22450000  0.02890000  0.19540000  1.0 0.5620082782
C  C74  1  0.77550000  0.97110000  0.19540000  1.0 0.5620082782
C  C75  1  0.47110000  0.27550000  0.30460000  1.0 0.5620082782
C  C76  1  0.52890000  0.72450000  0.30460000  1.0 0.5620082782
C  C77  1  0.29460000  0.77450000  0.77380000  1.0 -0.1203508287
C  C78  1  0.70540000  0.22550000  0.77380000  1.0 -0.1203508287
C  C79  1  0.72550000  0.20540000  0.72620000  1.0 -0.1203508287
C  C80  1  0.27450000  0.79460000  0.72620000  1.0 -0.1203508287
C  C81  1  0.20540000  0.27450000  0.27380000  1.0 -0.1203508287
C  C82  1  0.79460000  0.72550000  0.27380000  1.0 -0.1203508287
C  C83  1  0.22550000  0.29460000  0.22620000  1.0 -0.1203508287
C  C84  1  0.77450000  0.70540000  0.22620000  1.0 -0.1203508287
C  C85  1  0.31440000  0.83180000  0.81650000  1.0 0.1667359022
C  C86  1  0.68560000  0.16820000  0.81650000  1.0 0.1667359022
C  C87  1  0.66820000  0.18560000  0.68350000  1.0 0.1636414178
C  C88  1  0.33180000  0.81440000  0.68350000  1.0 0.1636414178
C  C89  1  0.18560000  0.33180000  0.31650000  1.0 0.1667359022
C  C90  1  0.81440000  0.66820000  0.31650000  1.0 0.1667359022
C  C91  1  0.16820000  0.31440000  0.18350000  1.0 0.1667359022
C  C92  1  0.83180000  0.68560000  0.18350000  1.0 0.1667359022
C  C93  1  0.29460000  0.87410000  0.82980000  1.0 -0.1684296425
C  C94  1  0.70540000  0.12590000  0.82980000  1.0 -0.1684296425
C  C95  1  0.62590000  0.20540000  0.67020000  1.0 -0.1684296425
C  C96  1  0.37410000  0.79460000  0.67020000  1.0 -0.1684296425
C  C97  1  0.20540000  0.37410000  0.32980000  1.0 -0.1684296425
C  C98  1  0.79460000  0.62590000  0.32980000  1.0 -0.1684296425
C  C99  1  0.12590000  0.29460000  0.17020000  1.0 -0.1684296425
C  C100  1  0.87410000  0.70540000  0.17020000  1.0 -0.1684296425
C  C101  1  0.31150000  0.88820000  0.85600000  1.0 -0.0298108427
C  C102  1  0.68850000  0.11180000  0.85600000  1.0 -0.0298108427
C  C103  1  0.61180000  0.18850000  0.64400000  1.0 -0.0298108427
C  C104  1  0.38820000  0.81150000  0.64400000  1.0 -0.0298108427
C  C105  1  0.18850000  0.38820000  0.35600000  1.0 -0.0298108427
C  C106  1  0.81150000  0.61180000  0.35600000  1.0 -0.0298108427
C  C107  1  0.11180000  0.31150000  0.14400000  1.0 -0.0298108427
C  C108  1  0.88820000  0.68850000  0.14400000  1.0 -0.0298108427
C  C109  1  0.33950000  0.85300000  0.87270000  1.0 -0.1432293706
C  C110  1  0.66050000  0.14700000  0.87270000  1.0 -0.1432293706
C  C111  1  0.64700000  0.16050000  0.62730000  1.0 -0.1481965981
C  C112  1  0.35300000  0.83950000  0.62730000  1.0 -0.1481965981
C  C113  1  0.16050000  0.35300000  0.37270000  1.0 -0.1481965981
C  C114  1  0.83950000  0.64700000  0.37270000  1.0 -0.1481965981
C  C115  1  0.14700000  0.33950000  0.12730000  1.0 -0.1481965981
C  C116  1  0.85300000  0.66050000  0.12730000  1.0 -0.1481965981
C  C117  1  0.36150000  0.81460000  0.85670000  1.0 -0.0588469497
C  C118  1  0.63850000  0.18540000  0.85670000  1.0 -0.0588469497
C  C119  1  0.68540000  0.13850000  0.64330000  1.0 -0.0588469497
C  C120  1  0.31460000  0.86150000  0.64330000  1.0 -0.0588469497
C  C121  1  0.13850000  0.31460000  0.35670000  1.0 -0.0588469497
C  C122  1  0.86150000  0.68540000  0.35670000  1.0 -0.0588469497
C  C123  1  0.18540000  0.36150000  0.14330000  1.0 -0.0588469497
C  C124  1  0.81460000  0.63850000  0.14330000  1.0 -0.0588469497
C  C125  1  0.34640000  0.80100000  0.82820000  1.0 -0.2079334889
C  C126  1  0.65360000  0.19900000  0.82820000  1.0 -0.2079334889
C  C127  1  0.69900000  0.15360000  0.67180000  1.0 -0.2079334889
C  C128  1  0.30100000  0.84640000  0.67180000  1.0 -0.2079334889
C  C129  1  0.15360000  0.30100000  0.32820000  1.0 -0.2079334889
C  C130  1  0.84640000  0.69900000  0.32820000  1.0 -0.2079334889
C  C131  1  0.19900000  0.34640000  0.17180000  1.0 -0.2079334889
C  C132  1  0.80100000  0.65360000  0.17180000  1.0 -0.2079334889
C  C133  1  0.41310000  0.78590000  0.87060000  1.0 0.5804898203
C  C134  1  0.58690000  0.21410000  0.87060000  1.0 0.5804898203
C  C135  1  0.71410000  0.08690000  0.62940000  1.0 0.5804898203
C  C136  1  0.28590000  0.91310000  0.62940000  1.0 0.5804898203
C  C137  1  0.08690000  0.28590000  0.37060000  1.0 0.5804898203
C  C138  1  0.91310000  0.71410000  0.37060000  1.0 0.5804898203
C  C139  1  0.21410000  0.41310000  0.12940000  1.0 0.5804898203
C  C140  1  0.78590000  0.58690000  0.12940000  1.0 0.5804898203
C  C141  1  0.29050000  0.93030000  0.87660000  1.0 0.5689446108
C  C142  1  0.70950000  0.06970000  0.87660000  1.0 0.5689446108
C  C143  1  0.56970000  0.20950000  0.62340000  1.0 0.5689446108
C  C144  1  0.43030000  0.79050000  0.62340000  1.0 0.5689446108
C  C145  1  0.20950000  0.43030000  0.37660000  1.0 0.5689446108
C  C146  1  0.79050000  0.56970000  0.37660000  1.0 0.5689446108
C  C147  1  0.06970000  0.29050000  0.12340000  1.0 0.5689446108
C  C148  1  0.93030000  0.70950000  0.12340000  1.0 0.5689446108
C  C149  1  0.50000000  0.50000000  0.00000000  1.0 0.0516372345
C  C150  1  0.00000000  0.00000000  0.50000000  1.0 0.0516372345
C  C151  1  0.48730000  0.45270000  0.97880000  1.0 -0.1203508287
C  C152  1  0.51270000  0.54730000  0.97880000  1.0 -0.1203508287
C  C153  1  0.04730000  0.01270000  0.52120000  1.0 -0.1203508287
C  C154  1  0.95270000  0.98730000  0.52120000  1.0 -0.1203508287
C  C155  1  0.01270000  0.95270000  0.47880000  1.0 -0.1203508287
C  C156  1  0.98730000  0.04730000  0.47880000  1.0 -0.1203508287
C  C157  1  0.54730000  0.48730000  0.02120000  1.0 -0.1203508287
C  C158  1  0.45270000  0.51270000  0.02120000  1.0 -0.1203508287
C  C159  1  0.43590000  0.43580000  0.94080000  1.0 0.2615480185
C  C160  1  0.56410000  0.56420000  0.94080000  1.0 0.2615480185
C  C161  1  0.06420000  0.06410000  0.55920000  1.0 0.2615480185
C  C162  1  0.93580000  0.93590000  0.55920000  1.0 0.2615480185
C  C163  1  0.06410000  0.93580000  0.44080000  1.0 0.2615480185
C  C164  1  0.93590000  0.06420000  0.44080000  1.0 0.2615480185
C  C165  1  0.56420000  0.43590000  0.05920000  1.0 0.2615480185
C  C166  1  0.43580000  0.56410000  0.05920000  1.0 0.2615480185
C  C167  1  0.46040000  0.39400000  0.93260000  1.0 -0.2483231158
C  C168  1  0.53960000  0.60600000  0.93260000  1.0 -0.2483231158
C  C169  1  0.10600000  0.03960000  0.56740000  1.0 -0.2483231158
C  C170  1  0.89400000  0.96040000  0.56740000  1.0 -0.2483231158
C  C171  1  0.03960000  0.89400000  0.43260000  1.0 -0.2483231158
C  C172  1  0.96040000  0.10600000  0.43260000  1.0 -0.2483231158
C  C173  1  0.60600000  0.46040000  0.06740000  1.0 -0.2483231158
C  C174  1  0.39400000  0.53960000  0.06740000  1.0 -0.2483231158
C  C175  1  0.44710000  0.36460000  0.90910000  1.0 0.0004509103
C  C176  1  0.55290000  0.63540000  0.90910000  1.0 0.0004509103
C  C177  1  0.13540000  0.05290000  0.59090000  1.0 0.0004509103
C  C178  1  0.86460000  0.94710000  0.59090000  1.0 0.0004509103
C  C179  1  0.05290000  0.86460000  0.40910000  1.0 -0.0010028701
C  C180  1  0.94710000  0.13540000  0.40910000  1.0 0.0004509103
C  C181  1  0.63540000  0.44710000  0.09090000  1.0 0.0004509103
C  C182  1  0.36460000  0.55290000  0.09090000  1.0 0.0004509103
C  C183  1  0.40550000  0.37770000  0.88970000  1.0 -0.1481965981
C  C184  1  0.59450000  0.62230000  0.88970000  1.0 -0.1481965981
C  C185  1  0.12230000  0.09450000  0.61030000  1.0 -0.1481965981
C  C186  1  0.87770000  0.90550000  0.61030000  1.0 -0.1481965981
C  C187  1  0.09450000  0.87770000  0.38970000  1.0 -0.1481965981
C  C188  1  0.90550000  0.12230000  0.38970000  1.0 -0.1481965981
C  C189  1  0.62230000  0.40550000  0.11030000  1.0 -0.1481965981
C  C190  1  0.37770000  0.59450000  0.11030000  1.0 -0.1481965981
C  C191  1  0.37850000  0.41750000  0.89800000  1.0 0.0200864984
C  C192  1  0.62150000  0.58250000  0.89800000  1.0 0.0200864984
C  C193  1  0.08250000  0.12150000  0.60200000  1.0 0.0200864984
C  C194  1  0.91750000  0.87850000  0.60200000  1.0 0.0200864984
C  C195  1  0.12150000  0.91750000  0.39800000  1.0 0.0200864984
C  C196  1  0.87850000  0.08250000  0.39800000  1.0 0.0200864984
C  C197  1  0.58250000  0.37850000  0.10200000  1.0 0.0200864984
C  C198  1  0.41750000  0.62150000  0.10200000  1.0 0.0200864984
C  C199  1  0.39480000  0.45000000  0.92230000  1.0 -0.2762518279
C  C200  1  0.60520000  0.55000000  0.92230000  1.0 -0.2762518279
C  C201  1  0.05000000  0.10520000  0.57770000  1.0 -0.2694665435
C  C202  1  0.95000000  0.89480000  0.57770000  1.0 -0.2762518279
C  C203  1  0.10520000  0.95000000  0.42230000  1.0 -0.2762518279
C  C204  1  0.89480000  0.05000000  0.42230000  1.0 -0.2762518279
C  C205  1  0.55000000  0.39480000  0.07770000  1.0 -0.2694665435
C  C206  1  0.45000000  0.60520000  0.07770000  1.0 -0.2694665435
C  C207  1  0.33140000  0.42600000  0.87720000  1.0 0.539525228
C  C208  1  0.66860000  0.57400000  0.87720000  1.0 0.539525228
C  C209  1  0.07400000  0.16860000  0.62280000  1.0 0.539525228
C  C210  1  0.92600000  0.83140000  0.62280000  1.0 0.539525228
C  C211  1  0.16860000  0.92600000  0.37720000  1.0 0.539525228
C  C212  1  0.83140000  0.07400000  0.37720000  1.0 0.539525228
C  C213  1  0.57400000  0.33140000  0.12280000  1.0 0.539525228
C  C214  1  0.42600000  0.66860000  0.12280000  1.0 0.539525228
C  C215  1  0.47470000  0.31670000  0.90050000  1.0 0.5804898203
C  C216  1  0.52530000  0.68330000  0.90050000  1.0 0.5804898203
C  C217  1  0.18330000  0.02530000  0.59950000  1.0 0.5804898203
C  C218  1  0.81670000  0.97470000  0.59950000  1.0 0.5804898203
C  C219  1  0.02530000  0.81670000  0.40050000  1.0 0.5804898203
C  C220  1  0.97470000  0.18330000  0.40050000  1.0 0.5804898203
C  C221  1  0.68330000  0.47470000  0.09950000  1.0 0.5804898203
C  C222  1  0.31670000  0.52530000  0.09950000  1.0 0.5804898203
C  C223  1  0.00000000  0.50000000  0.96870000  1.0 0.0567373333
C  C224  1  0.00000000  0.50000000  0.53130000  1.0 0.0567373333
C  C225  1  0.50000000  0.00000000  0.46870000  1.0 0.0516372345
C  C226  1  0.50000000  0.00000000  0.03130000  1.0 0.0567373333
C  C227  1  0.04090000  0.48030000  0.94890000  1.0 -0.0812869986
C  C228  1  0.95910000  0.51970000  0.94890000  1.0 -0.0812869986
C  C229  1  0.01970000  0.45910000  0.55110000  1.0 -0.0812869986
C  C230  1  0.98030000  0.54090000  0.55110000  1.0 -0.0812869986
C  C231  1  0.45910000  0.98030000  0.44890000  1.0 -0.0812869986
C  C232  1  0.54090000  0.01970000  0.44890000  1.0 -0.0812869986
C  C233  1  0.51970000  0.04090000  0.05110000  1.0 -0.0812869986
C  C234  1  0.48030000  0.95910000  0.05110000  1.0 -0.0812869986
C  C235  1  0.06180000  0.41870000  0.90900000  1.0 0.2142508089
C  C236  1  0.93820000  0.58130000  0.90900000  1.0 0.2142508089
C  C237  1  0.08130000  0.43820000  0.59100000  1.0 0.2142508089
C  C238  1  0.91870000  0.56180000  0.59100000  1.0 0.2142508089
C  C239  1  0.43820000  0.91870000  0.40900000  1.0 0.2142508089
C  C240  1  0.56180000  0.08130000  0.40900000  1.0 0.2142508089
C  C241  1  0.58130000  0.06180000  0.09100000  1.0 0.2142508089
C  C242  1  0.41870000  0.93820000  0.09100000  1.0 0.2142508089
C  C243  1  0.03760000  0.37230000  0.89610000  1.0 -0.2079334889
C  C244  1  0.96240000  0.62770000  0.89610000  1.0 -0.2079334889
C  C245  1  0.12770000  0.46240000  0.60390000  1.0 -0.2079334889
C  C246  1  0.87230000  0.53760000  0.60390000  1.0 -0.2079334889
C  C247  1  0.46240000  0.87230000  0.39610000  1.0 -0.2079334889
C  C248  1  0.53760000  0.12770000  0.39610000  1.0 -0.2079334889
C  C249  1  0.62770000  0.03760000  0.10390000  1.0 -0.2079334889
C  C250  1  0.37230000  0.96240000  0.10390000  1.0 -0.2079334889
C  C251  1  0.07020000  0.35020000  0.87630000  1.0 -0.0399824561
C  C252  1  0.92980000  0.64980000  0.87630000  1.0 -0.0399824561
C  C253  1  0.14980000  0.42980000  0.62370000  1.0 -0.0399824561
C  C254  1  0.85020000  0.57020000  0.62370000  1.0 -0.0399824561
C  C255  1  0.42980000  0.85020000  0.37630000  1.0 -0.0399824561
C  C256  1  0.57020000  0.14980000  0.37630000  1.0 -0.0399824561
C  C257  1  0.64980000  0.07020000  0.12370000  1.0 -0.0399824561
C  C258  1  0.35020000  0.92980000  0.12370000  1.0 -0.0399824561
C  C259  1  0.11430000  0.36760000  0.86920000  1.0 -0.0911166884
C  C260  1  0.88570000  0.63240000  0.86920000  1.0 -0.0911166884
C  C261  1  0.13240000  0.38570000  0.63080000  1.0 -0.0911166884
C  C262  1  0.86760000  0.61430000  0.63080000  1.0 -0.0911166884
C  C263  1  0.38570000  0.86760000  0.36920000  1.0 -0.0911166884
C  C264  1  0.61430000  0.13240000  0.36920000  1.0 -0.0911166884
C  C265  1  0.63240000  0.11430000  0.13080000  1.0 -0.0911166884
C  C266  1  0.36760000  0.88570000  0.13080000  1.0 -0.0911166884
C  C267  1  0.13370000  0.40990000  0.88020000  1.0 -0.0911166884
C  C268  1  0.86630000  0.59010000  0.88020000  1.0 -0.0911166884
C  C269  1  0.09010000  0.36630000  0.61980000  1.0 -0.0911166884
C  C270  1  0.90990000  0.63370000  0.61980000  1.0 -0.0911166884
C  C271  1  0.36630000  0.90990000  0.38020000  1.0 -0.0911166884
C  C272  1  0.63370000  0.09010000  0.38020000  1.0 -0.0911166884
C  C273  1  0.59010000  0.13370000  0.11980000  1.0 -0.0911166884
C  C274  1  0.40990000  0.86630000  0.11980000  1.0 -0.0911166884
C  C275  1  0.10320000  0.43830000  0.90250000  1.0 -0.2285581767
C  C276  1  0.89680000  0.56170000  0.90250000  1.0 -0.2285581767
C  C277  1  0.06170000  0.39680000  0.59750000  1.0 -0.2285581767
C  C278  1  0.93830000  0.60320000  0.59750000  1.0 -0.2285581767
C  C279  1  0.39680000  0.93830000  0.40250000  1.0 -0.2285581767
C  C280  1  0.60320000  0.06170000  0.40250000  1.0 -0.2285581767
C  C281  1  0.56170000  0.10320000  0.09750000  1.0 -0.2285581767
C  C282  1  0.43830000  0.89680000  0.09750000  1.0 -0.2285581767
C  C283  1  0.17900000  0.43460000  0.87370000  1.0 0.5804898203
C  C284  1  0.82100000  0.56540000  0.87370000  1.0 0.5804898203
C  C285  1  0.06540000  0.32100000  0.62630000  1.0 0.5804898203
C  C286  1  0.93460000  0.67900000  0.62630000  1.0 0.5804898203
C  C287  1  0.32100000  0.93460000  0.37370000  1.0 0.5804898203
C  C288  1  0.67900000  0.06540000  0.37370000  1.0 0.5804898203
C  C289  1  0.56540000  0.17900000  0.12630000  1.0 0.5804898203
C  C290  1  0.43460000  0.82100000  0.12630000  1.0 0.5804898203
C  C291  1  0.05060000  0.30190000  0.86430000  1.0 0.607642474
C  C292  1  0.94940000  0.69810000  0.86430000  1.0 0.607642474
C  C293  1  0.19810000  0.44940000  0.63570000  1.0 0.607642474
C  C294  1  0.80190000  0.55060000  0.63570000  1.0 0.607642474
C  C295  1  0.44940000  0.80190000  0.36430000  1.0 0.607642474
C  C296  1  0.55060000  0.19810000  0.36430000  1.0 0.607642474
C  C297  1  0.69810000  0.05060000  0.13570000  1.0 0.607642474
C  C298  1  0.30190000  0.94940000  0.13570000  1.0 0.607642474
C  C299  1  0.98190000  0.45650000  0.98560000  1.0 -0.1024478549
C  C300  1  0.01810000  0.54350000  0.98560000  1.0 -0.1024478549
C  C301  1  0.04350000  0.51810000  0.51440000  1.0 -0.1024478549
C  C302  1  0.95650000  0.48190000  0.51440000  1.0 -0.1024478549
C  C303  1  0.51810000  0.95650000  0.48560000  1.0 -0.1024478549
C  C304  1  0.48190000  0.04350000  0.48560000  1.0 -0.1024478549
C  C305  1  0.54350000  0.98190000  0.01440000  1.0 -0.1024478549
C  C306  1  0.45650000  0.01810000  0.01440000  1.0 -0.1024478549
C  C307  1  0.91970000  0.44950000  0.02900000  1.0 0.2615480185
C  C308  1  0.08030000  0.55050000  0.02900000  1.0 0.2615480185
C  C309  1  0.05050000  0.58030000  0.47100000  1.0 0.2615480185
C  C310  1  0.94950000  0.41970000  0.47100000  1.0 0.2615480185
C  C311  1  0.58030000  0.94950000  0.52900000  1.0 0.2615480185
C  C312  1  0.41970000  0.05050000  0.52900000  1.0 0.2615480185
C  C313  1  0.55050000  0.91970000  0.97100000  1.0 0.2615480185
C  C314  1  0.44950000  0.08030000  0.97100000  1.0 0.2615480185
C  C315  1  0.94690000  0.40700000  0.03980000  1.0 -0.2694665435
C  C316  1  0.05310000  0.59300000  0.03980000  1.0 -0.2694665435
C  C317  1  0.09300000  0.55310000  0.46020000  1.0 -0.2694665435
C  C318  1  0.90700000  0.44690000  0.46020000  1.0 -0.2694665435
C  C319  1  0.55310000  0.90700000  0.53980000  1.0 -0.2694665435
C  C320  1  0.44690000  0.09300000  0.53980000  1.0 -0.2694665435
C  C321  1  0.59300000  0.94690000  0.96020000  1.0 -0.2694665435
C  C322  1  0.40700000  0.05310000  0.96020000  1.0 -0.2694665435
C  C323  1  0.87910000  0.47580000  0.04350000  1.0 -0.2285581767
C  C324  1  0.12090000  0.52420000  0.04350000  1.0 -0.2285581767
C  C325  1  0.02420000  0.62090000  0.45650000  1.0 -0.2285581767
C  C326  1  0.97580000  0.37910000  0.45650000  1.0 -0.2285581767
C  C327  1  0.62090000  0.97580000  0.54350000  1.0 -0.2285581767
C  C328  1  0.37910000  0.02420000  0.54350000  1.0 -0.2285581767
C  C329  1  0.52420000  0.87910000  0.95650000  1.0 -0.2285581767
C  C330  1  0.47580000  0.12090000  0.95650000  1.0 -0.2285581767
C  C331  1  0.86490000  0.45190000  0.06990000  1.0 -0.1291968419
C  C332  1  0.13510000  0.54810000  0.06990000  1.0 -0.1291968419
C  C333  1  0.04810000  0.63510000  0.43010000  1.0 -0.1291968419
C  C334  1  0.95190000  0.36490000  0.43010000  1.0 -0.1291968419
C  C335  1  0.63510000  0.95190000  0.56990000  1.0 -0.1291968419
C  C336  1  0.36490000  0.04810000  0.56990000  1.0 -0.1291968419
C  C337  1  0.54810000  0.86490000  0.93010000  1.0 -0.1291968419
C  C338  1  0.45190000  0.13510000  0.93010000  1.0 -0.1291968419
C  C339  1  0.88920000  0.40910000  0.08170000  1.0 -0.0911166884
C  C340  1  0.11080000  0.59090000  0.08170000  1.0 -0.0911166884
C  C341  1  0.09090000  0.61080000  0.41830000  1.0 -0.0911166884
C  C342  1  0.90910000  0.38920000  0.41830000  1.0 -0.0911166884
C  C343  1  0.61080000  0.90910000  0.58170000  1.0 -0.0911166884
C  C344  1  0.38920000  0.09090000  0.58170000  1.0 -0.0911166884
C  C345  1  0.59090000  0.88920000  0.91830000  1.0 -0.0911166884
C  C346  1  0.40910000  0.11080000  0.91830000  1.0 -0.0911166884
C  C347  1  0.82370000  0.47520000  0.08220000  1.0 0.549787017
C  C348  1  0.17630000  0.52480000  0.08220000  1.0 0.549787017
C  C349  1  0.02480000  0.67630000  0.41780000  1.0 0.549787017
C  C350  1  0.97520000  0.32370000  0.41780000  1.0 0.549787017
C  C351  1  0.67630000  0.97520000  0.58220000  1.0 0.549787017
C  C352  1  0.32370000  0.02480000  0.58220000  1.0 0.549787017
C  C353  1  0.52480000  0.82370000  0.91780000  1.0 0.549787017
C  C354  1  0.47520000  0.17630000  0.91780000  1.0 0.549787017
C  C355  1  0.50000000  0.50000000  0.50000000  1.0 0.0975750296
C  C356  1  0.00000000  0.00000000  0.00000000  1.0 0.107150624
C  C357  1  0.48930000  0.44970000  0.51860000  1.0 -0.1203508287
C  C358  1  0.51070000  0.55030000  0.51860000  1.0 -0.1203508287
C  C359  1  0.05030000  0.01070000  0.98140000  1.0 -0.1203508287
C  C360  1  0.94970000  0.98930000  0.98140000  1.0 -0.1203508287
C  C361  1  0.01070000  0.94970000  0.01860000  1.0 -0.1291968419
C  C362  1  0.98930000  0.05030000  0.01860000  1.0 -0.1203508287
C  C363  1  0.55030000  0.48930000  0.48140000  1.0 -0.1203508287
C  C364  1  0.44970000  0.51070000  0.48140000  1.0 -0.1203508287
C  C365  1  0.43440000  0.43610000  0.56000000  1.0 0.279565873
C  C366  1  0.56560000  0.56390000  0.56000000  1.0 0.279565873
C  C367  1  0.06390000  0.06560000  0.94000000  1.0 0.279565873
C  C368  1  0.93610000  0.93440000  0.94000000  1.0 0.279565873
C  C369  1  0.06560000  0.93610000  0.06000000  1.0 0.279565873
C  C370  1  0.93440000  0.06390000  0.06000000  1.0 0.279565873
C  C371  1  0.56390000  0.43440000  0.44000000  1.0 0.279565873
C  C372  1  0.43610000  0.56560000  0.44000000  1.0 0.279565873
C  C373  1  0.45350000  0.38990000  0.56550000  1.0 -0.2402093438
C  C374  1  0.54650000  0.61010000  0.56550000  1.0 -0.2402093438
C  C375  1  0.11010000  0.04650000  0.93450000  1.0 -0.2402093438
C  C376  1  0.88990000  0.95350000  0.93450000  1.0 -0.2402093438
C  C377  1  0.04650000  0.88990000  0.06550000  1.0 -0.2402093438
C  C378  1  0.95350000  0.11010000  0.06550000  1.0 -0.2402093438
C  C379  1  0.61010000  0.45350000  0.43450000  1.0 -0.2402093438
C  C380  1  0.38990000  0.54650000  0.43450000  1.0 -0.2402093438
C  C381  1  0.43940000  0.35940000  0.58770000  1.0 -0.0298108427
C  C382  1  0.56060000  0.64060000  0.58770000  1.0 -0.0298108427
C  C383  1  0.14060000  0.06060000  0.91230000  1.0 -0.0298108427
C  C384  1  0.85940000  0.93940000  0.91230000  1.0 -0.0298108427
C  C385  1  0.06060000  0.85940000  0.08770000  1.0 -0.0298108427
C  C386  1  0.93940000  0.14060000  0.08770000  1.0 -0.0298108427
C  C387  1  0.64060000  0.43940000  0.41230000  1.0 -0.0298108427
C  C388  1  0.35940000  0.56060000  0.41230000  1.0 -0.0298108427
C  C389  1  0.40300000  0.37850000  0.60700000  1.0 -0.1291968419
C  C390  1  0.59700000  0.62150000  0.60700000  1.0 -0.1291968419
C  C391  1  0.12150000  0.09700000  0.89300000  1.0 -0.1291968419
C  C392  1  0.87850000  0.90300000  0.89300000  1.0 -0.1291968419
C  C393  1  0.09700000  0.87850000  0.10700000  1.0 -0.1291968419
C  C394  1  0.90300000  0.12150000  0.10700000  1.0 -0.1291968419
C  C395  1  0.62150000  0.40300000  0.39300000  1.0 -0.1291968419
C  C396  1  0.37850000  0.59700000  0.39300000  1.0 -0.1291968419
C  C397  1  0.38140000  0.42370000  0.60520000  1.0 -0.0476786272
C  C398  1  0.61860000  0.57630000  0.60520000  1.0 -0.0476786272
C  C399  1  0.07630000  0.11860000  0.89480000  1.0 -0.0476786272
C  C400  1  0.92370000  0.88140000  0.89480000  1.0 -0.0476786272
C  C401  1  0.11860000  0.92370000  0.10520000  1.0 -0.0476786272
C  C402  1  0.88140000  0.07630000  0.10520000  1.0 -0.0476786272
C  C403  1  0.57630000  0.38140000  0.39480000  1.0 -0.0476786272
C  C404  1  0.42370000  0.61860000  0.39480000  1.0 -0.0476786272
C  C405  1  0.39750000  0.45540000  0.58270000  1.0 -0.2285581767
C  C406  1  0.60250000  0.54460000  0.58270000  1.0 -0.2285581767
C  C407  1  0.04460000  0.10250000  0.91730000  1.0 -0.2285581767
C  C408  1  0.95540000  0.89750000  0.91730000  1.0 -0.2285581767
C  C409  1  0.10250000  0.95540000  0.08270000  1.0 -0.2285581767
C  C410  1  0.89750000  0.04460000  0.08270000  1.0 -0.2285581767
C  C411  1  0.54460000  0.39750000  0.41730000  1.0 -0.2285581767
C  C412  1  0.45540000  0.60250000  0.41730000  1.0 -0.2285581767
C  C413  1  0.34310000  0.44640000  0.62540000  1.0 0.5804898203
C  C414  1  0.65690000  0.55360000  0.62540000  1.0 0.5804898203
C  C415  1  0.05360000  0.15690000  0.87460000  1.0 0.5804898203
C  C416  1  0.94640000  0.84310000  0.87460000  1.0 0.5804898203
C  C417  1  0.15690000  0.94640000  0.12540000  1.0 0.5804898203
C  C418  1  0.84310000  0.05360000  0.12540000  1.0 0.5804898203
C  C419  1  0.55360000  0.34310000  0.37460000  1.0 0.5804898203
C  C420  1  0.44640000  0.65690000  0.37460000  1.0 0.5804898203
C  C421  1  0.46040000  0.30690000  0.59120000  1.0 0.5689446108
C  C422  1  0.53960000  0.69310000  0.59120000  1.0 0.5689446108
C  C423  1  0.19310000  0.03960000  0.90880000  1.0 0.5689446108
C  C424  1  0.80690000  0.96040000  0.90880000  1.0 0.5689446108
C  C425  1  0.03960000  0.80690000  0.09120000  1.0 0.5689446108
C  C426  1  0.96040000  0.19310000  0.09120000  1.0 0.5689446108
C  C427  1  0.69310000  0.46040000  0.40880000  1.0 0.5689446108
C  C428  1  0.30690000  0.53960000  0.40880000  1.0 0.5689446108
C  C429  1  0.92720000  0.38630000  0.06900000  1.0 -0.0078725952
C  C430  1  0.07280000  0.61370000  0.06900000  1.0 -0.0078725952
C  C431  1  0.11370000  0.57280000  0.43100000  1.0 -0.0078725952
C  C432  1  0.88630000  0.42720000  0.43100000  1.0 -0.0078725952
C  C433  1  0.57280000  0.88630000  0.56900000  1.0 -0.0078725952
C  C434  1  0.42720000  0.11370000  0.56900000  1.0 -0.0078725952
C  C435  1  0.61370000  0.92720000  0.93100000  1.0 -0.0078725952
C  C436  1  0.38630000  0.07280000  0.93100000  1.0 -0.0078725952
C  C437  1  0.95600000  0.33780000  0.08010000  1.0 0.5689446108
C  C438  1  0.04400000  0.66220000  0.08010000  1.0 0.5689446108
C  C439  1  0.16220000  0.54400000  0.41990000  1.0 0.5689446108
C  C440  1  0.83780000  0.45600000  0.41990000  1.0 0.5689446108
C  C441  1  0.54400000  0.83780000  0.58010000  1.0 0.5620082782
C  C442  1  0.45600000  0.16220000  0.58010000  1.0 0.5620082782
C  C443  1  0.66220000  0.95600000  0.91990000  1.0 0.5689446108
C  C444  1  0.33780000  0.04400000  0.91990000  1.0 0.5620082782
O  O1  1  0.26950000  0.47310000  0.80760000  1.0 -0.5798315421
O  O2  1  0.73050000  0.52690000  0.80760000  1.0 -0.5798315421
O  O3  1  0.02690000  0.23050000  0.69240000  1.0 -0.5798315421
O  O4  1  0.97310000  0.76950000  0.69240000  1.0 -0.5798315421
O  O5  1  0.23050000  0.97310000  0.30760000  1.0 -0.5798315421
O  O6  1  0.76950000  0.02690000  0.30760000  1.0 -0.5798315421
O  O7  1  0.52690000  0.26950000  0.19240000  1.0 -0.5798315421
O  O8  1  0.47310000  0.73050000  0.19240000  1.0 -0.5798315421
O  O9  1  0.25680000  0.53800000  0.83700000  1.0 -0.6003457612
O  O10  1  0.74320000  0.46200000  0.83700000  1.0 -0.6003457612
O  O11  1  0.96200000  0.24320000  0.66300000  1.0 -0.5921548007
O  O12  1  0.03800000  0.75680000  0.66300000  1.0 -0.5921548007
O  O13  1  0.24320000  0.03800000  0.33700000  1.0 -0.5921548007
O  O14  1  0.75680000  0.96200000  0.33700000  1.0 -0.5921548007
O  O15  1  0.46200000  0.25680000  0.16300000  1.0 -0.5921548007
O  O16  1  0.53800000  0.74320000  0.16300000  1.0 -0.5921548007
O  O17  1  0.28200000  0.48320000  0.70080000  1.0 -0.5921548007
O  O18  1  0.71800000  0.51680000  0.70080000  1.0 -0.5921548007
O  O19  1  0.01680000  0.21800000  0.79920000  1.0 -0.5921548007
O  O20  1  0.98320000  0.78200000  0.79920000  1.0 -0.5921548007
O  O21  1  0.21800000  0.98320000  0.20080000  1.0 -0.5921548007
O  O22  1  0.78200000  0.01680000  0.20080000  1.0 -0.5921548007
O  O23  1  0.51680000  0.28200000  0.29920000  1.0 -0.5921548007
O  O24  1  0.48320000  0.71800000  0.29920000  1.0 -0.5921548007
O  O25  1  0.27310000  0.55370000  0.67780000  1.0 -0.4829093568
O  O26  1  0.72690000  0.44630000  0.67780000  1.0 -0.4829093568
O  O27  1  0.94630000  0.22690000  0.82220000  1.0 -0.4878097154
O  O28  1  0.05370000  0.77310000  0.82220000  1.0 -0.4878097154
O  O29  1  0.22690000  0.05370000  0.17780000  1.0 -0.4829093568
O  O30  1  0.77310000  0.94630000  0.17780000  1.0 -0.4829093568
O  O31  1  0.44630000  0.27310000  0.32220000  1.0 -0.4878097154
O  O32  1  0.55370000  0.72690000  0.32220000  1.0 -0.4878097154
O  O33  1  0.25760000  0.67710000  0.76240000  1.0 -0.1592930757
O  O34  1  0.74240000  0.32290000  0.76240000  1.0 -0.1592930757
O  O35  1  0.82290000  0.24240000  0.73760000  1.0 -0.1592930757
O  O36  1  0.17710000  0.75760000  0.73760000  1.0 -0.1592930757
O  O37  1  0.24240000  0.17710000  0.26240000  1.0 -0.1592930757
O  O38  1  0.75760000  0.82290000  0.26240000  1.0 -0.1592930757
O  O39  1  0.32290000  0.25760000  0.23760000  1.0 -0.1592930757
O  O40  1  0.67710000  0.74240000  0.23760000  1.0 -0.1592930757
O  O41  1  0.20520000  0.40550000  0.85610000  1.0 -0.5921548007
O  O42  1  0.79480000  0.59450000  0.85610000  1.0 -0.5921548007
O  O43  1  0.09450000  0.29480000  0.64390000  1.0 -0.5921548007
O  O44  1  0.90550000  0.70520000  0.64390000  1.0 -0.5921548007
O  O45  1  0.29480000  0.90550000  0.35610000  1.0 -0.5921548007
O  O46  1  0.70520000  0.09450000  0.35610000  1.0 -0.5921548007
O  O47  1  0.59450000  0.20520000  0.14390000  1.0 -0.5921548007
O  O48  1  0.40550000  0.79480000  0.14390000  1.0 -0.5921548007
O  O49  1  0.19590000  0.47230000  0.88437000  1.0 -0.540033979
O  O50  1  0.80410000  0.52770000  0.88437000  1.0 -0.540033979
O  O51  1  0.02770000  0.30410000  0.61563000  1.0 -0.540033979
O  O52  1  0.97230000  0.69590000  0.61563000  1.0 -0.540033979
O  O53  1  0.30410000  0.97230000  0.38437000  1.0 -0.540033979
O  O54  1  0.69590000  0.02770000  0.38437000  1.0 -0.540033979
O  O55  1  0.52770000  0.19590000  0.11563000  1.0 -0.540033979
O  O56  1  0.47230000  0.80410000  0.11563000  1.0 -0.540033979
O  O57  1  0.30940000  0.47150000  0.88842000  1.0 -0.7083472811
O  O58  1  0.69060000  0.52850000  0.88842000  1.0 -0.7083472811
O  O59  1  0.02850000  0.19060000  0.61158000  1.0 -0.7083472811
O  O60  1  0.97150000  0.80940000  0.61158000  1.0 -0.7083472811
O  O61  1  0.19060000  0.97150000  0.38842000  1.0 -0.7083472811
O  O62  1  0.80940000  0.02850000  0.38842000  1.0 -0.7083472811
O  O63  1  0.52850000  0.30940000  0.11158000  1.0 -0.7083472811
O  O64  1  0.47150000  0.69060000  0.11158000  1.0 -0.7083472811
O  O65  1  0.31810000  0.40490000  0.85920000  1.0 -0.467874454
O  O66  1  0.68190000  0.59510000  0.85920000  1.0 -0.467874454
O  O67  1  0.09510000  0.18190000  0.64080000  1.0 -0.467874454
O  O68  1  0.90490000  0.81810000  0.64080000  1.0 -0.467874454
O  O69  1  0.18190000  0.90490000  0.35920000  1.0 -0.467874454
O  O70  1  0.81810000  0.09510000  0.35920000  1.0 -0.467874454
O  O71  1  0.59510000  0.31810000  0.14080000  1.0 -0.467874454
O  O72  1  0.40490000  0.68190000  0.14080000  1.0 -0.467874454
O  O73  1  0.44690000  0.46640000  0.96160000  1.0 -0.178989885
O  O74  1  0.55310000  0.53360000  0.96160000  1.0 -0.178989885
O  O75  1  0.03360000  0.05310000  0.53840000  1.0 -0.178989885
O  O76  1  0.96640000  0.94690000  0.53840000  1.0 -0.178989885
O  O77  1  0.05310000  0.96640000  0.46160000  1.0 -0.178989885
O  O78  1  0.94690000  0.03360000  0.46160000  1.0 -0.178989885
O  O79  1  0.53360000  0.44690000  0.03840000  1.0 -0.178989885
O  O80  1  0.46640000  0.55310000  0.03840000  1.0 -0.178989885
O  O81  1  0.50860000  0.31000000  0.91930000  1.0 -0.6003457612
O  O82  1  0.49140000  0.69000000  0.91930000  1.0 -0.6003457612
O  O83  1  0.19000000  0.99140000  0.58070000  1.0 -0.6003457612
O  O84  1  0.81000000  0.00860000  0.58070000  1.0 -0.6003457612
O  O85  1  0.99140000  0.81000000  0.41930000  1.0 -0.6003457612
O  O86  1  0.00860000  0.19000000  0.41930000  1.0 -0.6003457612
O  O87  1  0.69000000  0.50860000  0.08070000  1.0 -0.6003457612
O  O88  1  0.31000000  0.49140000  0.08070000  1.0 -0.6003457612
O  O89  1  0.46180000  0.29710000  0.87730000  1.0 -0.5269898791
O  O90  1  0.53820000  0.70290000  0.87730000  1.0 -0.5269898791
O  O91  1  0.20290000  0.03820000  0.62270000  1.0 -0.5269898791
O  O92  1  0.79710000  0.96180000  0.62270000  1.0 -0.5269898791
O  O93  1  0.03820000  0.79710000  0.37730000  1.0 -0.5269898791
O  O94  1  0.96180000  0.20290000  0.37730000  1.0 -0.5269898791
O  O95  1  0.70290000  0.46180000  0.12270000  1.0 -0.5269898791
O  O96  1  0.29710000  0.53820000  0.12270000  1.0 -0.5269898791
O  O97  1  0.40450000  0.78480000  0.89850000  1.0 -0.570564089
O  O98  1  0.59550000  0.21520000  0.89850000  1.0 -0.570564089
O  O99  1  0.71520000  0.09550000  0.60150000  1.0 -0.570564089
O  O100  1  0.28480000  0.90450000  0.60150000  1.0 -0.570564089
O  O101  1  0.09550000  0.28480000  0.39850000  1.0 -0.570564089
O  O102  1  0.90450000  0.71520000  0.39850000  1.0 -0.570564089
O  O103  1  0.21520000  0.40450000  0.10150000  1.0 -0.570564089
O  O104  1  0.78480000  0.59550000  0.10150000  1.0 -0.570564089
O  O105  1  0.44000000  0.76750000  0.85520000  1.0 -0.4829093568
O  O106  1  0.56000000  0.23250000  0.85520000  1.0 -0.4829093568
O  O107  1  0.73250000  0.06000000  0.64480000  1.0 -0.4829093568
O  O108  1  0.26750000  0.94000000  0.64480000  1.0 -0.4829093568
O  O109  1  0.06000000  0.26750000  0.35520000  1.0 -0.4829093568
O  O110  1  0.94000000  0.73250000  0.35520000  1.0 -0.4829093568
O  O111  1  0.23250000  0.44000000  0.14480000  1.0 -0.4829093568
O  O112  1  0.76750000  0.56000000  0.14480000  1.0 -0.4829093568
O  O113  1  0.81580000  0.46400000  0.11040000  1.0 -0.5537771475
O  O114  1  0.18420000  0.53600000  0.11040000  1.0 -0.5537771475
O  O115  1  0.03600000  0.68420000  0.38960000  1.0 -0.5537771475
O  O116  1  0.96400000  0.31580000  0.38960000  1.0 -0.5556065492
O  O117  1  0.68420000  0.96400000  0.61040000  1.0 -0.5537771475
O  O118  1  0.31580000  0.03600000  0.61040000  1.0 -0.5537771475
O  O119  1  0.53600000  0.81580000  0.88960000  1.0 -0.5537771475
O  O120  1  0.46400000  0.18420000  0.88960000  1.0 -0.5537771475
O  O121  1  0.79580000  0.50500000  0.07030000  1.0 -0.540033979
O  O122  1  0.20420000  0.49500000  0.07030000  1.0 -0.540033979
O  O123  1  0.99500000  0.70420000  0.42970000  1.0 -0.540033979
O  O124  1  0.00500000  0.29580000  0.42970000  1.0 -0.540033979
O  O125  1  0.70420000  0.00500000  0.57030000  1.0 -0.540033979
O  O126  1  0.29580000  0.99500000  0.57030000  1.0 -0.540033979
O  O127  1  0.49500000  0.79580000  0.92970000  1.0 -0.540033979
O  O128  1  0.50500000  0.20420000  0.92970000  1.0 -0.540033979
O  O129  1  0.93910000  0.47500000  0.00300000  1.0 -0.2285581767
O  O130  1  0.06090000  0.52500000  0.00300000  1.0 -0.2285581767
O  O131  1  0.02500000  0.56090000  0.49700000  1.0 -0.2285581767
O  O132  1  0.97500000  0.43910000  0.49700000  1.0 -0.2285581767
O  O133  1  0.56090000  0.97500000  0.50300000  1.0 -0.2285581767
O  O134  1  0.43910000  0.02500000  0.50300000  1.0 -0.2285581767
O  O135  1  0.52500000  0.93910000  0.99700000  1.0 -0.2285581767
O  O136  1  0.47500000  0.06090000  0.99700000  1.0 -0.2285581767
O  O137  1  0.98360000  0.32020000  0.06260000  1.0 -0.5207850304
O  O138  1  0.01640000  0.67980000  0.06260000  1.0 -0.5207850304
O  O139  1  0.17980000  0.51640000  0.43740000  1.0 -0.5207850304
O  O140  1  0.82020000  0.48360000  0.43740000  1.0 -0.5207850304
O  O141  1  0.51640000  0.82020000  0.56260000  1.0 -0.5207850304
O  O142  1  0.48360000  0.17980000  0.56260000  1.0 -0.5207850304
O  O143  1  0.67980000  0.98360000  0.93740000  1.0 -0.5207850304
O  O144  1  0.32020000  0.01640000  0.93740000  1.0 -0.5207850304
O  O145  1  0.94070000  0.32950000  0.10560000  1.0 -0.5537771475
O  O146  1  0.05930000  0.67050000  0.10560000  1.0 -0.5537771475
O  O147  1  0.17050000  0.55930000  0.39440000  1.0 -0.5537771475
O  O148  1  0.82950000  0.44070000  0.39440000  1.0 -0.5537771475
O  O149  1  0.55930000  0.82950000  0.60560000  1.0 -0.5537771475
O  O150  1  0.44070000  0.17050000  0.60560000  1.0 -0.5537771475
O  O151  1  0.67050000  0.94070000  0.89440000  1.0 -0.5537771475
O  O152  1  0.32950000  0.05930000  0.89440000  1.0 -0.5537771475
O  O153  1  0.29360000  0.93160000  0.90290000  1.0 -0.5269898791
O  O154  1  0.70640000  0.06840000  0.90290000  1.0 -0.5269898791
O  O155  1  0.56840000  0.20640000  0.59710000  1.0 -0.5269898791
O  O156  1  0.43160000  0.79360000  0.59710000  1.0 -0.5269898791
O  O157  1  0.20640000  0.43160000  0.40290000  1.0 -0.5269898791
O  O158  1  0.79360000  0.56840000  0.40290000  1.0 -0.5269898791
O  O159  1  0.06840000  0.29360000  0.09710000  1.0 -0.5269898791
O  O160  1  0.93160000  0.70640000  0.09710000  1.0 -0.5269898791
O  O161  1  0.27710000  0.96380000  0.85780000  1.0 -0.6003457612
O  O162  1  0.72290000  0.03620000  0.85780000  1.0 -0.6003457612
O  O163  1  0.53620000  0.22290000  0.64220000  1.0 -0.6003457612
O  O164  1  0.46380000  0.77710000  0.64220000  1.0 -0.6003457612
O  O165  1  0.22290000  0.46380000  0.35780000  1.0 -0.6003457612
O  O166  1  0.77710000  0.53620000  0.35780000  1.0 -0.6003457612
O  O167  1  0.03620000  0.27710000  0.14220000  1.0 -0.6003457612
O  O168  1  0.96380000  0.72290000  0.14220000  1.0 -0.6003457612
O  O169  1  0.49060000  0.29550000  0.57390000  1.0 -0.540033979
O  O170  1  0.50940000  0.70450000  0.57390000  1.0 -0.540033979
O  O171  1  0.20450000  0.00940000  0.92610000  1.0 -0.540033979
O  O172  1  0.79550000  0.99060000  0.92610000  1.0 -0.540033979
O  O173  1  0.00940000  0.79550000  0.07390000  1.0 -0.540033979
O  O174  1  0.99060000  0.20450000  0.07390000  1.0 -0.540033979
O  O175  1  0.70450000  0.49060000  0.42610000  1.0 -0.540033979
O  O176  1  0.29550000  0.50940000  0.42610000  1.0 -0.540033979
O  O177  1  0.44680000  0.28500000  0.61460000  1.0 -0.5798315421
O  O178  1  0.55320000  0.71500000  0.61460000  1.0 -0.5798315421
O  O179  1  0.21500000  0.05320000  0.88540000  1.0 -0.5798315421
O  O180  1  0.78500000  0.94680000  0.88540000  1.0 -0.5798315421
O  O181  1  0.05320000  0.78500000  0.11460000  1.0 -0.5798315421
O  O182  1  0.94680000  0.21500000  0.11460000  1.0 -0.5798315421
O  O183  1  0.71500000  0.44680000  0.38540000  1.0 -0.5798315421
O  O184  1  0.28500000  0.55320000  0.38540000  1.0 -0.5798315421
O  O185  1  0.29010000  0.82000000  0.78790000  1.0 -0.2218606617
O  O186  1  0.70990000  0.18000000  0.78790000  1.0 -0.2218606617
O  O187  1  0.68000000  0.20990000  0.71210000  1.0 -0.2218606617
O  O188  1  0.32000000  0.79010000  0.71210000  1.0 -0.2218606617
O  O189  1  0.20990000  0.32000000  0.28790000  1.0 -0.2218606617
O  O190  1  0.79010000  0.68000000  0.28790000  1.0 -0.2218606617
O  O191  1  0.18000000  0.29010000  0.21210000  1.0 -0.2218606617
O  O192  1  0.82000000  0.70990000  0.21210000  1.0 -0.2218606617
O  O193  1  0.44750000  0.46750000  0.53850000  1.0 -0.1990148142
O  O194  1  0.55250000  0.53250000  0.53850000  1.0 -0.1990148142
O  O195  1  0.03250000  0.05250000  0.96150000  1.0 -0.1990148142
O  O196  1  0.96750000  0.94750000  0.96150000  1.0 -0.1990148142
O  O197  1  0.05250000  0.96750000  0.03850000  1.0 -0.1990148142
O  O198  1  0.94750000  0.03250000  0.03850000  1.0 -0.1990148142
O  O199  1  0.53250000  0.44750000  0.46150000  1.0 -0.1990148142
O  O200  1  0.46750000  0.55250000  0.46150000  1.0 -0.1990148142
O  O201  1  0.32500000  0.48330000  0.61830000  1.0 -0.5207850304
O  O202  1  0.67500000  0.51670000  0.61830000  1.0 -0.5207850304
O  O203  1  0.01670000  0.17500000  0.88170000  1.0 -0.5207850304
O  O204  1  0.98330000  0.82500000  0.88170000  1.0 -0.5207850304
O  O205  1  0.17500000  0.98330000  0.11830000  1.0 -0.5269898791
O  O206  1  0.82500000  0.01670000  0.11830000  1.0 -0.5269898791
O  O207  1  0.51670000  0.32500000  0.38170000  1.0 -0.5207850304
O  O208  1  0.48330000  0.67500000  0.38170000  1.0 -0.5207850304
O  O209  1  0.33240000  0.41660000  0.64700000  1.0 -0.6003457612
O  O210  1  0.66760000  0.58340000  0.64700000  1.0 -0.6003457612
O  O211  1  0.08340000  0.16760000  0.85300000  1.0 -0.6003457612
O  O212  1  0.91660000  0.83240000  0.85300000  1.0 -0.6003457612
O  O213  1  0.16760000  0.91660000  0.14700000  1.0 -0.6003457612
O  O214  1  0.83240000  0.08340000  0.14700000  1.0 -0.6003457612
O  O215  1  0.58340000  0.33240000  0.35300000  1.0 -0.6003457612
O  O216  1  0.41660000  0.66760000  0.35300000  1.0 -0.6003457612
O  O217  1  0.07920000  0.28130000  0.84580000  1.0 -0.5798315421
O  O218  1  0.92080000  0.71870000  0.84580000  1.0 -0.5798315421
O  O219  1  0.21870000  0.42080000  0.65420000  1.0 -0.5798315421
O  O220  1  0.78130000  0.57920000  0.65420000  1.0 -0.5798315421
O  O221  1  0.42080000  0.78130000  0.34580000  1.0 -0.5798315421
O  O222  1  0.57920000  0.21870000  0.34580000  1.0 -0.5798315421
O  O223  1  0.71870000  0.07920000  0.15420000  1.0 -0.5798315421
O  O224  1  0.28130000  0.92080000  0.15420000  1.0 -0.5798315421
O  O225  1  0.00870000  0.28640000  0.87263000  1.0 -0.5798315421
O  O226  1  0.99130000  0.71360000  0.87263000  1.0 -0.5798315421
O  O227  1  0.21360000  0.49130000  0.62737000  1.0 -0.5798315421
O  O228  1  0.78640000  0.50870000  0.62737000  1.0 -0.5798315421
O  O229  1  0.49130000  0.78640000  0.37263000  1.0 -0.5798315421
O  O230  1  0.50870000  0.21360000  0.37263000  1.0 -0.5798315421
O  O231  1  0.71360000  0.00870000  0.12737000  1.0 -0.5798315421
O  O232  1  0.28640000  0.99130000  0.12737000  1.0 -0.5798315421
O  O233  1  0.02590000  0.44230000  0.92934000  1.0 -0.2402093438
O  O234  1  0.97410000  0.55770000  0.92934000  1.0 -0.2402093438
O  O235  1  0.05770000  0.47410000  0.57066000  1.0 -0.2402093438
O  O236  1  0.94230000  0.52590000  0.57066000  1.0 -0.2402093438
O  O237  1  0.47410000  0.94230000  0.42934000  1.0 -0.2483231158
O  O238  1  0.52590000  0.05770000  0.42934000  1.0 -0.2483231158
O  O239  1  0.55770000  0.02590000  0.07066000  1.0 -0.2483231158
O  O240  1  0.44230000  0.97410000  0.07066000  1.0 -0.2483231158
