# DDEC6 charges by PACMAN v1.1 (https://github.com/mtap-research/PACMAN-charge/)
data_WEHJIE_ASR_pacman
_symmetry_space_group_name_H-M   'P 1'
_cell_length_a   18.90200000
_cell_length_b   30.46400000
_cell_length_c   31.00400000
_cell_angle_alpha   90.00000000
_cell_angle_beta   90.00000000
_cell_angle_gamma   90.00000000
_symmetry_Int_Tables_number   1
_chemical_formula_structural   Zn9H40C74O41
_chemical_formula_sum   'Zn36 H160 C296 O164'
_cell_volume   17853.04969011
_cell_formula_units_Z   4
loop_
 _symmetry_equiv_pos_site_id
 _symmetry_equiv_pos_as_xyz
  1  'x, y, z'
loop_
 _atom_site_type_symbol
 _atom_site_label
 _atom_site_symmetry_multiplicity
 _atom_site_fract_x
 _atom_site_fract_y
 _atom_site_fract_z
 _atom_site_occupancy
 _atom_site_charge
Zn  Zn1  1  0.22828000  0.96885000  0.47720000  1.0 0.9705918416
Zn  Zn2  1  0.72828000  0.03115000  0.52280000  1.0 0.9705918416
Zn  Zn3  1  0.72828000  0.53115000  0.97720000  1.0 0.9705918416
Zn  Zn4  1  0.22828000  0.46885000  0.02280000  1.0 0.9705918416
Zn  Zn5  1  0.15056000  0.05412000  0.49339000  1.0 0.9534075145
Zn  Zn6  1  0.65056000  0.94588000  0.50661000  1.0 0.9534075145
Zn  Zn7  1  0.65056000  0.44588000  0.99339000  1.0 0.9534075145
Zn  Zn8  1  0.15056000  0.55412000  0.00661000  1.0 0.9534075145
Zn  Zn9  1  0.75521000  0.99984000  0.03979000  1.0 0.9616677721
Zn  Zn10  1  0.25521000  0.00016000  0.96021000  1.0 0.9616677721
Zn  Zn11  1  0.25521000  0.50016000  0.53979000  1.0 0.9616677721
Zn  Zn12  1  0.75521000  0.49984000  0.46021000  1.0 0.9616677721
Zn  Zn13  1  0.65261000  0.20067000  0.26288000  1.0 1.0226406936
Zn  Zn14  1  0.15261000  0.79933000  0.73712000  1.0 1.0226406936
Zn  Zn15  1  0.15261000  0.29933000  0.76288000  1.0 1.0226406936
Zn  Zn16  1  0.65261000  0.70067000  0.23712000  1.0 1.0226406936
Zn  Zn17  1  0.67488000  0.99612000  0.95532000  1.0 0.9705918416
Zn  Zn18  1  0.17488000  0.00388000  0.04468000  1.0 0.9705918416
Zn  Zn19  1  0.17488000  0.50388000  0.45532000  1.0 0.9705918416
Zn  Zn20  1  0.67488000  0.49612000  0.54468000  1.0 0.9705918416
Zn  Zn21  1  0.74682000  0.20577000  0.35706000  1.0 1.0226406936
Zn  Zn22  1  0.24682000  0.79423000  0.64294000  1.0 1.0226406936
Zn  Zn23  1  0.24682000  0.29423000  0.85706000  1.0 1.0226406936
Zn  Zn24  1  0.74682000  0.70577000  0.14294000  1.0 1.0226406936
Zn  Zn25  1  0.69932000  0.29144000  0.71500000  1.0 0.9824252312
Zn  Zn26  1  0.19932000  0.70856000  0.28500000  1.0 0.9824252312
Zn  Zn27  1  0.19932000  0.20856000  0.21500000  1.0 0.9824252312
Zn  Zn28  1  0.69932000  0.79144000  0.78500000  1.0 0.9824252312
Zn  Zn29  1  0.67130000  0.25594000  0.81955000  1.0 0.9616677721
Zn  Zn30  1  0.17130000  0.74406000  0.18045000  1.0 0.9616677721
Zn  Zn31  1  0.17130000  0.24406000  0.31955000  1.0 0.9616677721
Zn  Zn32  1  0.67130000  0.75594000  0.68045000  1.0 0.9616677721
Zn  Zn33  1  0.66641000  0.29430000  0.32153000  1.0 0.9705918416
Zn  Zn34  1  0.16641000  0.70570000  0.67847000  1.0 0.9705918416
Zn  Zn35  1  0.16641000  0.20570000  0.82153000  1.0 0.9705918416
Zn  Zn36  1  0.66641000  0.79430000  0.17847000  1.0 0.9705918416
H  H1  1  0.57620000  0.00050000  0.12140000  1.0 0.1486961677
H  H2  1  0.07620000  0.99950000  0.87860000  1.0 0.1486961677
H  H3  1  0.07620000  0.49950000  0.62140000  1.0 0.1486961677
H  H4  1  0.57620000  0.50050000  0.37860000  1.0 0.1486961677
H  H5  1  0.36170000  0.99870000  0.12630000  1.0 0.1299950893
H  H6  1  0.86170000  0.00130000  0.87370000  1.0 0.1299950893
H  H7  1  0.86170000  0.50130000  0.62630000  1.0 0.1299950893
H  H8  1  0.36170000  0.49870000  0.37370000  1.0 0.1299950893
H  H9  1  0.46300000  0.01270000  0.01170000  1.0 0.1299950893
H  H10  1  0.96300000  0.98730000  0.98830000  1.0 0.1299950893
H  H11  1  0.96300000  0.48730000  0.51170000  1.0 0.1299950893
H  H12  1  0.46300000  0.51270000  0.48830000  1.0 0.1299950893
H  H13  1  0.37750000  0.97230000  0.18980000  1.0 0.1027001696
H  H14  1  0.87750000  0.02770000  0.81020000  1.0 0.1027001696
H  H15  1  0.87750000  0.52770000  0.68980000  1.0 0.1027001696
H  H16  1  0.37750000  0.47230000  0.31020000  1.0 0.1027001696
H  H17  1  0.39270000  0.02160000  0.20180000  1.0 0.1027001696
H  H18  1  0.89270000  0.97840000  0.79820000  1.0 0.1027001696
H  H19  1  0.89270000  0.47840000  0.70180000  1.0 0.1027001696
H  H20  1  0.39270000  0.52160000  0.29820000  1.0 0.1027001696
H  H21  1  0.33760000  0.95750000  0.26720000  1.0 0.1027001696
H  H22  1  0.83760000  0.04250000  0.73280000  1.0 0.1027001696
H  H23  1  0.83760000  0.54250000  0.76720000  1.0 0.1027001696
H  H24  1  0.33760000  0.45750000  0.23280000  1.0 0.1027001696
H  H25  1  0.38360000  0.97650000  0.30530000  1.0 0.1027001696
H  H26  1  0.88360000  0.02350000  0.69470000  1.0 0.1027001696
H  H27  1  0.88360000  0.52350000  0.80530000  1.0 0.1027001696
H  H28  1  0.38360000  0.47650000  0.19470000  1.0 0.1027001696
H  H29  1  0.53390000  0.01130000  0.24430000  1.0 0.1027001696
H  H30  1  0.03390000  0.98870000  0.75570000  1.0 0.1027001696
H  H31  1  0.03390000  0.48870000  0.74430000  1.0 0.1027001696
H  H32  1  0.53390000  0.51130000  0.25570000  1.0 0.1027001696
H  H33  1  0.47490000  0.04030000  0.26620000  1.0 0.1027001696
H  H34  1  0.97490000  0.95970000  0.73380000  1.0 0.1027001696
H  H35  1  0.97490000  0.45970000  0.76620000  1.0 0.1027001696
H  H36  1  0.47490000  0.54030000  0.23380000  1.0 0.1027001696
H  H37  1  0.56830000  0.97540000  0.37690000  1.0 0.1486961677
H  H38  1  0.06830000  0.02460000  0.62310000  1.0 0.1486961677
H  H39  1  0.06830000  0.52460000  0.87690000  1.0 0.1486961677
H  H40  1  0.56830000  0.47540000  0.12310000  1.0 0.1486961677
H  H41  1  0.69140000  0.08060000  0.39610000  1.0 0.1299950893
H  H42  1  0.19140000  0.91940000  0.60390000  1.0 0.1417449352
H  H43  1  0.19140000  0.41940000  0.89610000  1.0 0.1417449352
H  H44  1  0.69140000  0.58060000  0.10390000  1.0 0.1417449352
H  H45  1  0.57910000  0.07230000  0.28680000  1.0 0.1299950893
H  H46  1  0.07910000  0.92770000  0.71320000  1.0 0.1299950893
H  H47  1  0.07910000  0.42770000  0.78680000  1.0 0.1299950893
H  H48  1  0.57910000  0.57230000  0.21320000  1.0 0.1299950893
H  H49  1  0.27580000  0.09040000  0.25270000  1.0 0.1417449352
H  H50  1  0.77580000  0.90960000  0.74730000  1.0 0.1417449352
H  H51  1  0.77580000  0.40960000  0.75270000  1.0 0.1417449352
H  H52  1  0.27580000  0.59040000  0.24730000  1.0 0.1417449352
H  H53  1  0.17860000  0.10720000  0.36430000  1.0 0.1417449352
H  H54  1  0.67860000  0.89280000  0.63570000  1.0 0.1417449352
H  H55  1  0.67860000  0.39280000  0.86430000  1.0 0.1417449352
H  H56  1  0.17860000  0.60720000  0.13570000  1.0 0.1417449352
H  H57  1  0.29050000  0.99860000  0.34370000  1.0 0.1299950893
H  H58  1  0.79050000  0.00140000  0.65630000  1.0 0.1299950893
H  H59  1  0.79050000  0.50140000  0.84370000  1.0 0.1299950893
H  H60  1  0.29050000  0.49860000  0.15630000  1.0 0.1299950893
H  H61  1  0.43510000  0.00720000  0.51490000  1.0 0.1299950893
H  H62  1  0.93510000  0.99280000  0.48510000  1.0 0.1417449352
H  H63  1  0.93510000  0.49280000  0.01490000  1.0 0.1417449352
H  H64  1  0.43510000  0.50720000  0.98510000  1.0 0.1299950893
H  H65  1  0.55240000  0.11120000  0.55550000  1.0 0.1417449352
H  H66  1  0.05240000  0.88880000  0.44450000  1.0 0.1417449352
H  H67  1  0.05240000  0.38880000  0.05550000  1.0 0.1417449352
H  H68  1  0.55240000  0.61120000  0.94450000  1.0 0.1417449352
H  H69  1  0.34690000  0.12710000  0.53190000  1.0 0.1299950893
H  H70  1  0.84690000  0.87290000  0.46810000  1.0 0.1299950893
H  H71  1  0.84690000  0.37290000  0.03190000  1.0 0.1299950893
H  H72  1  0.34690000  0.62710000  0.96810000  1.0 0.1299950893
H  H73  1  0.36860000  0.19900000  0.56600000  1.0 0.1027001696
H  H74  1  0.86860000  0.80100000  0.43400000  1.0 0.1027001696
H  H75  1  0.86860000  0.30100000  0.06600000  1.0 0.1027001696
H  H76  1  0.36860000  0.69900000  0.93400000  1.0 0.1027001696
H  H77  1  0.39480000  0.19920000  0.51780000  1.0 0.1027001696
H  H78  1  0.89480000  0.80080000  0.48220000  1.0 0.1027001696
H  H79  1  0.89480000  0.30080000  0.01780000  1.0 0.1027001696
H  H80  1  0.39480000  0.69920000  0.98220000  1.0 0.1027001696
H  H81  1  0.35020000  0.28390000  0.56610000  1.0 0.1027001696
H  H82  1  0.85020000  0.71610000  0.43390000  1.0 0.1027001696
H  H83  1  0.85020000  0.21610000  0.06610000  1.0 0.1027001696
H  H84  1  0.35020000  0.78390000  0.93390000  1.0 0.1027001696
H  H85  1  0.41000000  0.31250000  0.54440000  1.0 0.1027001696
H  H86  1  0.91000000  0.68750000  0.45560000  1.0 0.1027001696
H  H87  1  0.91000000  0.18750000  0.04440000  1.0 0.1027001696
H  H88  1  0.41000000  0.81250000  0.95560000  1.0 0.1027001696
H  H89  1  0.54100000  0.22840000  0.53010000  1.0 0.1027001696
H  H90  1  0.04100000  0.77160000  0.46990000  1.0 0.1027001696
H  H91  1  0.04100000  0.27160000  0.03010000  1.0 0.1027001696
H  H92  1  0.54100000  0.72840000  0.96990000  1.0 0.1027001696
H  H93  1  0.49050000  0.24810000  0.49470000  1.0 0.1027001696
H  H94  1  0.99050000  0.75190000  0.50530000  1.0 0.1027001696
H  H95  1  0.99050000  0.25190000  0.99470000  1.0 0.1027001696
H  H96  1  0.49050000  0.74810000  0.00530000  1.0 0.1027001696
H  H97  1  0.60100000  0.36510000  0.53160000  1.0 0.1417449352
H  H98  1  0.10100000  0.63490000  0.46840000  1.0 0.1417449352
H  H99  1  0.10100000  0.13490000  0.03160000  1.0 0.1417449352
H  H100  1  0.60100000  0.86510000  0.96840000  1.0 0.1417449352
H  H101  1  0.73590000  0.35350000  0.43390000  1.0 0.1299950893
H  H102  1  0.23590000  0.64650000  0.56610000  1.0 0.1299950893
H  H103  1  0.23590000  0.14650000  0.93390000  1.0 0.1299950893
H  H104  1  0.73590000  0.85350000  0.06610000  1.0 0.1299950893
H  H105  1  0.61520000  0.24960000  0.47230000  1.0 0.1299950893
H  H106  1  0.11520000  0.75040000  0.52770000  1.0 0.1299950893
H  H107  1  0.11520000  0.25040000  0.97230000  1.0 0.1299950893
H  H108  1  0.61520000  0.74960000  0.02770000  1.0 0.1299950893
H  H109  1  0.52910000  0.85430000  0.23940000  1.0 0.1299950893
H  H110  1  0.02910000  0.14570000  0.76060000  1.0 0.1299950893
H  H111  1  0.02910000  0.64570000  0.73940000  1.0 0.1299950893
H  H112  1  0.52910000  0.35430000  0.26060000  1.0 0.1299950893
H  H113  1  0.43120000  0.73830000  0.25610000  1.0 0.1299950893
H  H114  1  0.93120000  0.26170000  0.74390000  1.0 0.1299950893
H  H115  1  0.93120000  0.76170000  0.75610000  1.0 0.1299950893
H  H116  1  0.43120000  0.23830000  0.24390000  1.0 0.1299950893
H  H117  1  0.31560000  0.84930000  0.22840000  1.0 0.1486961677
H  H118  1  0.81560000  0.15070000  0.77160000  1.0 0.1486961677
H  H119  1  0.81560000  0.65070000  0.72840000  1.0 0.1486961677
H  H120  1  0.31560000  0.34930000  0.27160000  1.0 0.1486961677
H  H121  1  0.47630000  0.92450000  0.27810000  1.0 0.1027001696
H  H122  1  0.97630000  0.07550000  0.72190000  1.0 0.1027001696
H  H123  1  0.97630000  0.57550000  0.77810000  1.0 0.1027001696
H  H124  1  0.47630000  0.42450000  0.22190000  1.0 0.1027001696
H  H125  1  0.51000000  0.93200000  0.23220000  1.0 0.1027001696
H  H126  1  0.01000000  0.06800000  0.76780000  1.0 0.1027001696
H  H127  1  0.01000000  0.56800000  0.73220000  1.0 0.1027001696
H  H128  1  0.51000000  0.43200000  0.26780000  1.0 0.1027001696
H  H129  1  0.32310000  0.35640000  0.52310000  1.0 0.1299950893
H  H130  1  0.82310000  0.64360000  0.47690000  1.0 0.1299950893
H  H131  1  0.82310000  0.14360000  0.02310000  1.0 0.1299950893
H  H132  1  0.32310000  0.85640000  0.97690000  1.0 0.1299950893
H  H133  1  0.18450000  0.37180000  0.42360000  1.0 0.1299950893
H  H134  1  0.68450000  0.62820000  0.57640000  1.0 0.1299950893
H  H135  1  0.68450000  0.12820000  0.92360000  1.0 0.1299950893
H  H136  1  0.18450000  0.87180000  0.07640000  1.0 0.1417449352
H  H137  1  0.28990000  0.25810000  0.43980000  1.0 0.1417449352
H  H138  1  0.78990000  0.74190000  0.56020000  1.0 0.1417449352
H  H139  1  0.78990000  0.24190000  0.93980000  1.0 0.1417449352
H  H140  1  0.28990000  0.75810000  0.06020000  1.0 0.1417449352
H  H141  1  0.44030000  0.26500000  0.79170000  1.0 0.1417449352
H  H142  1  0.94030000  0.73500000  0.20830000  1.0 0.1417449352
H  H143  1  0.94030000  0.23500000  0.29170000  1.0 0.1417449352
H  H144  1  0.44030000  0.76500000  0.70830000  1.0 0.1417449352
H  H145  1  0.31950000  0.26090000  0.68630000  1.0 0.1417449352
H  H146  1  0.81950000  0.73910000  0.31370000  1.0 0.1417449352
H  H147  1  0.81950000  0.23910000  0.18630000  1.0 0.1417449352
H  H148  1  0.31950000  0.76090000  0.81370000  1.0 0.1417449352
H  H149  1  0.53130000  0.24560000  0.67520000  1.0 0.1299950893
H  H150  1  0.03130000  0.75440000  0.32480000  1.0 0.1299950893
H  H151  1  0.03130000  0.25440000  0.17520000  1.0 0.1299950893
H  H152  1  0.53130000  0.74560000  0.82480000  1.0 0.1299950893
H  H153  1  0.50350000  0.22680000  0.60670000  1.0 0.1027001696
H  H154  1  0.00350000  0.77320000  0.39330000  1.0 0.1027001696
H  H155  1  0.00350000  0.27320000  0.10670000  1.0 0.1027001696
H  H156  1  0.50350000  0.72680000  0.89330000  1.0 0.1027001696
H  H157  1  0.49580000  0.27820000  0.60370000  1.0 0.1027001696
H  H158  1  0.99580000  0.72180000  0.39630000  1.0 0.1027001696
H  H159  1  0.99580000  0.22180000  0.10370000  1.0 0.1027001696
H  H160  1  0.49580000  0.77820000  0.89630000  1.0 0.1027001696
C  C1  1  0.59760000  0.00780000  0.03820000  1.0 0.6016519654
C  C2  1  0.09760000  0.99220000  0.96180000  1.0 0.6016519654
C  C3  1  0.09760000  0.49220000  0.53820000  1.0 0.6016519654
C  C4  1  0.59760000  0.50780000  0.46180000  1.0 0.6016519654
C  C5  1  0.23510000  0.41720000  0.48860000  1.0 0.6016519654
C  C6  1  0.73510000  0.58280000  0.51140000  1.0 0.6016519654
C  C7  1  0.73510000  0.08280000  0.98860000  1.0 0.6016519654
C  C8  1  0.23510000  0.91720000  0.01140000  1.0 0.6016519654
C  C9  1  0.33000000  0.01260000  0.04390000  1.0 0.6016519654
C  C10  1  0.83000000  0.98740000  0.95610000  1.0 0.6016519654
C  C11  1  0.83000000  0.48740000  0.54390000  1.0 0.6016519654
C  C12  1  0.33000000  0.51260000  0.45610000  1.0 0.6016519654
C  C13  1  0.53020000  0.00700000  0.06330000  1.0 -0.0178002001
C  C14  1  0.03020000  0.99300000  0.93670000  1.0 -0.0178002001
C  C15  1  0.03020000  0.49300000  0.56330000  1.0 -0.0178002001
C  C16  1  0.53020000  0.50700000  0.43670000  1.0 -0.0178002001
C  C17  1  0.53290000  0.00270000  0.10730000  1.0 -0.1998946102
C  C18  1  0.03290000  0.99730000  0.89270000  1.0 -0.1998946102
C  C19  1  0.03290000  0.49730000  0.60730000  1.0 -0.1998946102
C  C20  1  0.53290000  0.50270000  0.39270000  1.0 -0.1998946102
C  C21  1  0.47010000  0.00150000  0.13020000  1.0 0.2511884083
C  C22  1  0.97010000  0.99850000  0.86980000  1.0 0.2511884083
C  C23  1  0.97010000  0.49850000  0.63020000  1.0 0.2511884083
C  C24  1  0.47010000  0.50150000  0.36980000  1.0 0.2511884083
C  C25  1  0.40290000  0.00290000  0.11040000  1.0 -0.2392850503
C  C26  1  0.90290000  0.99710000  0.88960000  1.0 -0.2392850503
C  C27  1  0.90290000  0.49710000  0.61040000  1.0 -0.2392850503
C  C28  1  0.40290000  0.50290000  0.38960000  1.0 -0.2392850503
C  C29  1  0.40050000  0.01080000  0.06630000  1.0 0.0012667848
C  C30  1  0.90050000  0.98920000  0.93370000  1.0 0.0012667848
C  C31  1  0.90050000  0.48920000  0.56630000  1.0 0.0012667848
C  C32  1  0.40050000  0.51080000  0.43370000  1.0 0.0012667848
C  C33  1  0.46450000  0.01060000  0.04160000  1.0 -0.1109552685
C  C34  1  0.96450000  0.98940000  0.95840000  1.0 -0.1109552685
C  C35  1  0.96450000  0.48940000  0.54160000  1.0 -0.1109552685
C  C36  1  0.46450000  0.51060000  0.45840000  1.0 -0.1109552685
C  C37  1  0.41270000  0.99230000  0.20120000  1.0 -0.0887551654
C  C38  1  0.91270000  0.00770000  0.79880000  1.0 -0.0887551654
C  C39  1  0.91270000  0.50770000  0.70120000  1.0 -0.0887551654
C  C40  1  0.41270000  0.49230000  0.29880000  1.0 -0.0887551654
C  C41  1  0.43560000  0.97800000  0.24740000  1.0 0.0817966197
C  C42  1  0.93560000  0.02200000  0.75260000  1.0 0.0817966197
C  C43  1  0.93560000  0.52200000  0.74740000  1.0 0.0817966197
C  C44  1  0.43560000  0.47800000  0.25260000  1.0 0.0817966197
C  C45  1  0.37120000  0.98010000  0.27520000  1.0 -0.0887551654
C  C46  1  0.87120000  0.01990000  0.72480000  1.0 -0.0887551654
C  C47  1  0.87120000  0.51990000  0.77520000  1.0 -0.0887551654
C  C48  1  0.37120000  0.48010000  0.22480000  1.0 -0.0887551654
C  C49  1  0.49390000  0.01080000  0.26390000  1.0 -0.0887551654
C  C50  1  0.99390000  0.98920000  0.73610000  1.0 -0.0887551654
C  C51  1  0.99390000  0.48920000  0.76390000  1.0 -0.0887551654
C  C52  1  0.49390000  0.51080000  0.23610000  1.0 -0.0887551654
C  C53  1  0.56500000  0.01940000  0.32730000  1.0 0.2695402575
C  C54  1  0.06500000  0.98060000  0.67270000  1.0 0.2695402575
C  C55  1  0.06500000  0.48060000  0.82730000  1.0 0.2695402575
C  C56  1  0.56500000  0.51940000  0.17270000  1.0 0.2695402575
C  C57  1  0.58570000  0.00240000  0.36770000  1.0 -0.211183904
C  C58  1  0.08570000  0.99760000  0.63230000  1.0 -0.211183904
C  C59  1  0.08570000  0.49760000  0.86770000  1.0 -0.211183904
C  C60  1  0.58570000  0.50240000  0.13230000  1.0 -0.211183904
C  C61  1  0.63260000  0.02610000  0.39430000  1.0 -0.0067752208
C  C62  1  0.13260000  0.97390000  0.60570000  1.0 -0.0067752208
C  C63  1  0.13260000  0.47390000  0.89430000  1.0 -0.0067752208
C  C64  1  0.63260000  0.52610000  0.10570000  1.0 -0.0067752208
C  C65  1  0.65910000  0.06520000  0.37930000  1.0 -0.0998753511
C  C66  1  0.15910000  0.93480000  0.62070000  1.0 -0.0998753511
C  C67  1  0.15910000  0.43480000  0.87930000  1.0 -0.0998753511
C  C68  1  0.65910000  0.56520000  0.12070000  1.0 -0.0998753511
C  C69  1  0.63860000  0.08220000  0.33930000  1.0 -0.029838883
C  C70  1  0.13860000  0.91780000  0.66070000  1.0 -0.029838883
C  C71  1  0.13860000  0.41780000  0.83930000  1.0 -0.029838883
C  C72  1  0.63860000  0.58220000  0.16070000  1.0 -0.029838883
C  C73  1  0.59250000  0.06050000  0.31330000  1.0 -0.2191736571
C  C74  1  0.09250000  0.93950000  0.68670000  1.0 -0.2191736571
C  C75  1  0.09250000  0.43950000  0.81330000  1.0 -0.2191736571
C  C76  1  0.59250000  0.56050000  0.18670000  1.0 -0.2191736571
C  C77  1  0.66590000  0.12480000  0.32470000  1.0 0.6016519654
C  C78  1  0.16590000  0.87520000  0.67530000  1.0 0.6016519654
C  C79  1  0.16590000  0.37520000  0.82470000  1.0 0.6016519654
C  C80  1  0.66590000  0.62480000  0.17530000  1.0 0.6016519654
C  C81  1  0.29290000  0.04380000  0.29680000  1.0 0.212593041
C  C82  1  0.79290000  0.95620000  0.70320000  1.0 0.212593041
C  C83  1  0.79290000  0.45620000  0.79680000  1.0 0.212593041
C  C84  1  0.29290000  0.54380000  0.20320000  1.0 0.212593041
C  C85  1  0.26570000  0.08140000  0.28070000  1.0 -0.1733499284
C  C86  1  0.76570000  0.91860000  0.71930000  1.0 -0.1733499284
C  C87  1  0.76570000  0.41860000  0.78070000  1.0 -0.1733499284
C  C88  1  0.26570000  0.58140000  0.21930000  1.0 -0.1733499284
C  C89  1  0.22400000  0.10500000  0.30630000  1.0 -0.0067752208
C  C90  1  0.72400000  0.89500000  0.69370000  1.0 -0.0067752208
C  C91  1  0.72400000  0.39500000  0.80630000  1.0 -0.0067752208
C  C92  1  0.22400000  0.60500000  0.19370000  1.0 -0.0067752208
C  C93  1  0.20780000  0.09040000  0.34670000  1.0 -0.1109552685
C  C94  1  0.70780000  0.90960000  0.65330000  1.0 -0.1109552685
C  C95  1  0.70780000  0.40960000  0.84670000  1.0 -0.1109552685
C  C96  1  0.20780000  0.59040000  0.15330000  1.0 -0.1109552685
C  C97  1  0.23380000  0.05120000  0.36180000  1.0 -0.0067752208
C  C98  1  0.73380000  0.94880000  0.63820000  1.0 -0.0067752208
C  C99  1  0.73380000  0.44880000  0.86180000  1.0 -0.0067752208
C  C100  1  0.23380000  0.55120000  0.13820000  1.0 -0.0067752208
C  C101  1  0.27510000  0.02630000  0.33550000  1.0 -0.1998946102
C  C102  1  0.77510000  0.97370000  0.66450000  1.0 -0.1998946102
C  C103  1  0.77510000  0.47370000  0.83550000  1.0 -0.1998946102
C  C104  1  0.27510000  0.52630000  0.16450000  1.0 -0.1998946102
C  C105  1  0.19820000  0.14970000  0.29150000  1.0 0.6188033108
C  C106  1  0.69820000  0.85030000  0.70850000  1.0 0.6188033108
C  C107  1  0.69820000  0.35030000  0.79150000  1.0 0.6188033108
C  C108  1  0.19820000  0.64970000  0.20850000  1.0 0.6188033108
C  C109  1  0.21480000  0.03480000  0.40710000  1.0 0.6016519654
C  C110  1  0.71480000  0.96520000  0.59290000  1.0 0.6075832048
C  C111  1  0.71480000  0.46520000  0.90710000  1.0 0.6075832048
C  C112  1  0.21480000  0.53480000  0.09290000  1.0 0.6075832048
C  C113  1  0.57140000  0.02710000  0.53160000  1.0 0.592641064
C  C114  1  0.07140000  0.97290000  0.46840000  1.0 0.592641064
C  C115  1  0.07140000  0.47290000  0.03160000  1.0 0.592641064
C  C116  1  0.57140000  0.52710000  0.96840000  1.0 0.592641064
C  C117  1  0.65520000  0.00560000  0.43620000  1.0 0.592641064
C  C118  1  0.15520000  0.99440000  0.56380000  1.0 0.592641064
C  C119  1  0.15520000  0.49440000  0.93620000  1.0 0.592641064
C  C120  1  0.65520000  0.50560000  0.06380000  1.0 0.592641064
C  C121  1  0.30910000  0.04430000  0.50860000  1.0 0.6016519654
C  C122  1  0.80910000  0.95570000  0.49140000  1.0 0.6016519654
C  C123  1  0.80910000  0.45570000  0.00860000  1.0 0.6016519654
C  C124  1  0.30910000  0.54430000  0.99140000  1.0 0.6016519654
C  C125  1  0.37950000  0.06370000  0.52140000  1.0 0.009194233
C  C126  1  0.87950000  0.93630000  0.47860000  1.0 0.009194233
C  C127  1  0.87950000  0.43630000  0.02140000  1.0 0.009194233
C  C128  1  0.37950000  0.56370000  0.97860000  1.0 0.009194233
C  C129  1  0.43880000  0.03670000  0.52200000  1.0 -0.1340206157
C  C130  1  0.93880000  0.96330000  0.47800000  1.0 -0.1340206157
C  C131  1  0.93880000  0.46330000  0.02200000  1.0 -0.1340206157
C  C132  1  0.43880000  0.53670000  0.97800000  1.0 -0.1340206157
C  C133  1  0.50570000  0.05520000  0.53390000  1.0 0.009194233
C  C134  1  0.00570000  0.94480000  0.46610000  1.0 0.009194233
C  C135  1  0.00570000  0.44480000  0.03390000  1.0 0.009194233
C  C136  1  0.50570000  0.55520000  0.96610000  1.0 0.009194233
C  C137  1  0.50960000  0.09940000  0.54630000  1.0 -0.2191736571
C  C138  1  0.00960000  0.90060000  0.45370000  1.0 -0.2191736571
C  C139  1  0.00960000  0.40060000  0.04630000  1.0 -0.2191736571
C  C140  1  0.50960000  0.59940000  0.95370000  1.0 -0.2191736571
C  C141  1  0.45000000  0.12540000  0.54480000  1.0 0.2392063113
C  C142  1  0.95000000  0.87460000  0.45520000  1.0 0.2392063113
C  C143  1  0.95000000  0.37460000  0.04480000  1.0 0.2392063113
C  C144  1  0.45000000  0.62540000  0.95520000  1.0 0.2392063113
C  C145  1  0.38630000  0.10890000  0.53270000  1.0 -0.2494172196
C  C146  1  0.88630000  0.89110000  0.46730000  1.0 -0.2494172196
C  C147  1  0.88630000  0.39110000  0.03270000  1.0 -0.2494172196
C  C148  1  0.38630000  0.60890000  0.96730000  1.0 -0.2494172196
C  C149  1  0.40980000  0.20210000  0.54760000  1.0 -0.0842555932
C  C150  1  0.90980000  0.79790000  0.45240000  1.0 -0.0842555932
C  C151  1  0.90980000  0.29790000  0.04760000  1.0 -0.0842555932
C  C152  1  0.40980000  0.70210000  0.95240000  1.0 -0.0842555932
C  C153  1  0.44420000  0.24620000  0.55460000  1.0 0.063602898
C  C154  1  0.94420000  0.75380000  0.44540000  1.0 0.0653090995
C  C155  1  0.94420000  0.25380000  0.05460000  1.0 0.0653090995
C  C156  1  0.44420000  0.74620000  0.94540000  1.0 0.063602898
C  C157  1  0.38740000  0.28390000  0.54450000  1.0 -0.0645875785
C  C158  1  0.88740000  0.71610000  0.45550000  1.0 -0.0652336071
C  C159  1  0.88740000  0.21610000  0.04450000  1.0 -0.0645875785
C  C160  1  0.38740000  0.78390000  0.95550000  1.0 -0.0652336071
C  C161  1  0.50640000  0.25110000  0.52430000  1.0 -0.0887551654
C  C162  1  0.00640000  0.74890000  0.47570000  1.0 -0.0887551654
C  C163  1  0.00640000  0.24890000  0.02430000  1.0 -0.0887551654
C  C164  1  0.50640000  0.75110000  0.97570000  1.0 -0.0887551654
C  C165  1  0.59570000  0.30660000  0.50450000  1.0 0.2392063113
C  C166  1  0.09570000  0.69340000  0.49550000  1.0 0.2392063113
C  C167  1  0.09570000  0.19340000  0.00450000  1.0 0.2392063113
C  C168  1  0.59570000  0.80660000  0.99550000  1.0 0.2392063113
C  C169  1  0.62050000  0.34810000  0.50970000  1.0 -0.1880025323
C  C170  1  0.12050000  0.65190000  0.49030000  1.0 -0.1880025323
C  C171  1  0.12050000  0.15190000  0.00970000  1.0 -0.1880025323
C  C172  1  0.62050000  0.84810000  0.99030000  1.0 -0.1880025323
C  C173  1  0.67300000  0.36680000  0.48450000  1.0 -0.029838883
C  C174  1  0.17300000  0.63320000  0.51550000  1.0 -0.029838883
C  C175  1  0.17300000  0.13320000  0.98450000  1.0 -0.029838883
C  C176  1  0.67300000  0.86680000  0.01550000  1.0 -0.029838883
C  C177  1  0.70210000  0.34150000  0.45230000  1.0 -0.1109552685
C  C178  1  0.20210000  0.65850000  0.54770000  1.0 -0.1109552685
C  C179  1  0.20210000  0.15850000  0.95230000  1.0 -0.1109552685
C  C180  1  0.70210000  0.84150000  0.04770000  1.0 -0.1109552685
C  C181  1  0.68010000  0.29640000  0.44720000  1.0 0.0225881382
C  C182  1  0.18010000  0.70360000  0.55280000  1.0 0.0225881382
C  C183  1  0.18010000  0.20360000  0.94720000  1.0 0.0225881382
C  C184  1  0.68010000  0.79640000  0.05280000  1.0 0.0225881382
C  C185  1  0.62810000  0.27900000  0.47430000  1.0 -0.2392850503
C  C186  1  0.12810000  0.72100000  0.52570000  1.0 -0.2392850503
C  C187  1  0.12810000  0.22100000  0.97430000  1.0 -0.2392850503
C  C188  1  0.62810000  0.77900000  0.02570000  1.0 -0.2392850503
C  C189  1  0.69710000  0.41260000  0.49000000  1.0 0.592641064
C  C190  1  0.19710000  0.58740000  0.51000000  1.0 0.592641064
C  C191  1  0.19710000  0.08740000  0.99000000  1.0 0.592641064
C  C192  1  0.69710000  0.91260000  0.01000000  1.0 0.592641064
C  C193  1  0.70850000  0.26870000  0.41080000  1.0 0.5539505665
C  C194  1  0.20850000  0.73130000  0.58920000  1.0 0.5539505665
C  C195  1  0.20850000  0.23130000  0.91080000  1.0 0.5539505665
C  C196  1  0.70850000  0.76870000  0.08920000  1.0 0.5539505665
C  C197  1  0.56260000  0.77210000  0.24760000  1.0 0.5802530233
C  C198  1  0.06260000  0.22790000  0.75240000  1.0 0.5802530233
C  C199  1  0.06260000  0.72790000  0.74760000  1.0 0.5802530233
C  C200  1  0.56260000  0.27210000  0.25240000  1.0 0.5802530233
C  C201  1  0.48740000  0.83830000  0.24080000  1.0 -0.2392850503
C  C202  1  0.98740000  0.16170000  0.75920000  1.0 -0.2392850503
C  C203  1  0.98740000  0.66170000  0.74080000  1.0 -0.2392850503
C  C204  1  0.48740000  0.33830000  0.25920000  1.0 -0.2392850503
C  C205  1  0.49020000  0.79400000  0.24690000  1.0 0.009194233
C  C206  1  0.99020000  0.20600000  0.75310000  1.0 0.009194233
C  C207  1  0.99020000  0.70600000  0.74690000  1.0 0.009194233
C  C208  1  0.49020000  0.29400000  0.25310000  1.0 0.009194233
C  C209  1  0.42860000  0.76800000  0.24940000  1.0 -0.1204993989
C  C210  1  0.92860000  0.23200000  0.75060000  1.0 -0.1204993989
C  C211  1  0.92860000  0.73200000  0.74940000  1.0 -0.1204993989
C  C212  1  0.42860000  0.26800000  0.25060000  1.0 -0.1204993989
C  C213  1  0.36230000  0.78870000  0.24160000  1.0 -0.0001818345
C  C214  1  0.86230000  0.21130000  0.75840000  1.0 0.0012667848
C  C215  1  0.86230000  0.71130000  0.74160000  1.0 0.0012667848
C  C216  1  0.36230000  0.28870000  0.25840000  1.0 0.0012667848
C  C217  1  0.29490000  0.76290000  0.23990000  1.0 0.6016519654
C  C218  1  0.79490000  0.23710000  0.76010000  1.0 0.6016519654
C  C219  1  0.79490000  0.73710000  0.73990000  1.0 0.6016519654
C  C220  1  0.29490000  0.26290000  0.26010000  1.0 0.6016519654
C  C221  1  0.35860000  0.83570000  0.23440000  1.0 -0.2494172196
C  C222  1  0.85860000  0.16430000  0.76560000  1.0 -0.2494172196
C  C223  1  0.85860000  0.66430000  0.73440000  1.0 -0.2494172196
C  C224  1  0.35860000  0.33570000  0.26560000  1.0 -0.2494172196
C  C225  1  0.42100000  0.86020000  0.23650000  1.0 0.2695402575
C  C226  1  0.92100000  0.13980000  0.76350000  1.0 0.2695402575
C  C227  1  0.92100000  0.63980000  0.73650000  1.0 0.2695402575
C  C228  1  0.42100000  0.36020000  0.26350000  1.0 0.2695402575
C  C229  1  0.46640000  0.93320000  0.24860000  1.0 -0.0998753511
C  C230  1  0.96640000  0.06680000  0.75140000  1.0 -0.0998753511
C  C231  1  0.96640000  0.56680000  0.74860000  1.0 -0.0998753511
C  C232  1  0.46640000  0.43320000  0.25140000  1.0 -0.0998753511
C  C233  1  0.31000000  0.30220000  0.48640000  1.0 0.2392063113
C  C234  1  0.81000000  0.69780000  0.51360000  1.0 0.2392063113
C  C235  1  0.81000000  0.19780000  0.98640000  1.0 0.2392063113
C  C236  1  0.31000000  0.80220000  0.01360000  1.0 0.2392063113
C  C237  1  0.29870000  0.34460000  0.49980000  1.0 -0.2567919161
C  C238  1  0.79870000  0.65540000  0.50020000  1.0 -0.2567919161
C  C239  1  0.79870000  0.15540000  0.99980000  1.0 -0.2567919161
C  C240  1  0.29870000  0.84460000  0.00020000  1.0 -0.2567919161
C  C241  1  0.24690000  0.37020000  0.47600000  1.0 -0.0067752208
C  C242  1  0.74690000  0.62980000  0.52400000  1.0 -0.0067752208
C  C243  1  0.74690000  0.12980000  0.97600000  1.0 -0.0067752208
C  C244  1  0.24690000  0.87020000  0.02400000  1.0 -0.0067752208
C  C245  1  0.21470000  0.35390000  0.43960000  1.0 -0.0998753511
C  C246  1  0.71470000  0.64610000  0.56040000  1.0 -0.0998753511
C  C247  1  0.71470000  0.14610000  0.93960000  1.0 -0.0998753511
C  C248  1  0.21470000  0.85390000  0.06040000  1.0 -0.0998753511
C  C249  1  0.22740000  0.30930000  0.42590000  1.0 -0.0411058984
C  C250  1  0.72740000  0.69070000  0.57410000  1.0 -0.0411058984
C  C251  1  0.72740000  0.19070000  0.92590000  1.0 -0.0411058984
C  C252  1  0.22740000  0.80930000  0.07410000  1.0 -0.0411058984
C  C253  1  0.27740000  0.28600000  0.44930000  1.0 -0.1880025323
C  C254  1  0.77740000  0.71400000  0.55070000  1.0 -0.1880025323
C  C255  1  0.77740000  0.21400000  0.94930000  1.0 -0.1880025323
C  C256  1  0.27740000  0.78600000  0.05070000  1.0 -0.1880025323
C  C257  1  0.19380000  0.29230000  0.38780000  1.0 0.5404245589
C  C258  1  0.69380000  0.70770000  0.61220000  1.0 0.5404245589
C  C259  1  0.69380000  0.20770000  0.88780000  1.0 0.5404245589
C  C260  1  0.19380000  0.79230000  0.11220000  1.0 0.5404245589
C  C261  1  0.56820000  0.25460000  0.75670000  1.0 0.6016519654
C  C262  1  0.06820000  0.74540000  0.24330000  1.0 0.6016519654
C  C263  1  0.06820000  0.24540000  0.25670000  1.0 0.6016519654
C  C264  1  0.56820000  0.75460000  0.74330000  1.0 0.6016519654
C  C265  1  0.43580000  0.26130000  0.76210000  1.0 -0.1109552685
C  C266  1  0.93580000  0.73870000  0.23790000  1.0 -0.1109552685
C  C267  1  0.93580000  0.23870000  0.26210000  1.0 -0.1109552685
C  C268  1  0.43580000  0.76130000  0.73790000  1.0 -0.1109552685
C  C269  1  0.37020000  0.26130000  0.74330000  1.0 -0.029838883
C  C270  1  0.87020000  0.73870000  0.25670000  1.0 -0.029838883
C  C271  1  0.87020000  0.23870000  0.24330000  1.0 -0.029838883
C  C272  1  0.37020000  0.76130000  0.75670000  1.0 -0.029838883
C  C273  1  0.30650000  0.27120000  0.76930000  1.0 0.6075832048
C  C274  1  0.80650000  0.72880000  0.23070000  1.0 0.6075832048
C  C275  1  0.80650000  0.22880000  0.26930000  1.0 0.6075832048
C  C276  1  0.30650000  0.77120000  0.73070000  1.0 0.6075832048
C  C277  1  0.36380000  0.25880000  0.69930000  1.0 -0.1880025323
C  C278  1  0.86380000  0.74120000  0.30070000  1.0 -0.1880025323
C  C279  1  0.86380000  0.24120000  0.19930000  1.0 -0.1880025323
C  C280  1  0.36380000  0.75880000  0.80070000  1.0 -0.1880025323
C  C281  1  0.42540000  0.25290000  0.67370000  1.0 0.2511884083
C  C282  1  0.92540000  0.74710000  0.32630000  1.0 0.2511884083
C  C283  1  0.92540000  0.24710000  0.17370000  1.0 0.2511884083
C  C284  1  0.42540000  0.75290000  0.82630000  1.0 0.2511884083
C  C285  1  0.49120000  0.25050000  0.69190000  1.0 -0.2392850503
C  C286  1  0.99120000  0.74950000  0.30810000  1.0 -0.2392850503
C  C287  1  0.99120000  0.24950000  0.19190000  1.0 -0.2392850503
C  C288  1  0.49120000  0.75050000  0.80810000  1.0 -0.2392850503
C  C289  1  0.47090000  0.25050000  0.60030000  1.0 -0.0887551654
C  C290  1  0.97090000  0.74950000  0.39970000  1.0 -0.0887551654
C  C291  1  0.97090000  0.24950000  0.10030000  1.0 -0.0887551654
C  C292  1  0.47090000  0.75050000  0.89970000  1.0 -0.0887551654
C  C293  1  0.49550000  0.25560000  0.73660000  1.0 0.0012667848
C  C294  1  0.99550000  0.74440000  0.26340000  1.0 0.0012667848
C  C295  1  0.99550000  0.24440000  0.23660000  1.0 0.0012667848
C  C296  1  0.49550000  0.75560000  0.76340000  1.0 0.0012667848
O  O1  1  0.59070000  0.00567000  0.99736000  1.0 -0.5493548734
O  O2  1  0.09070000  0.99433000  0.00264000  1.0 -0.5493548734
O  O3  1  0.09070000  0.49433000  0.49736000  1.0 -0.5493548734
O  O4  1  0.59070000  0.50567000  0.50264000  1.0 -0.5493548734
O  O5  1  0.65350000  0.00871000  0.05899000  1.0 -0.5307331742
O  O6  1  0.15350000  0.99129000  0.94101000  1.0 -0.5307331742
O  O7  1  0.15350000  0.49129000  0.55899000  1.0 -0.5307331742
O  O8  1  0.65350000  0.50871000  0.44101000  1.0 -0.5307331742
O  O9  1  0.27700000  0.01092000  0.06711000  1.0 -0.5307331742
O  O10  1  0.77700000  0.98908000  0.93289000  1.0 -0.5307331742
O  O11  1  0.77700000  0.48908000  0.56711000  1.0 -0.5307331742
O  O12  1  0.27700000  0.51092000  0.43289000  1.0 -0.5307331742
O  O13  1  0.33300000  0.01273000  0.00175000  1.0 -0.5614051397
O  O14  1  0.83300000  0.98727000  0.99825000  1.0 -0.5614051397
O  O15  1  0.83300000  0.48727000  0.50175000  1.0 -0.5614051397
O  O16  1  0.33300000  0.51273000  0.49825000  1.0 -0.5614051397
O  O17  1  0.19540000  0.43850000  0.46181000  1.0 -0.5614051397
O  O18  1  0.69540000  0.56150000  0.53819000  1.0 -0.5614051397
O  O19  1  0.69540000  0.06150000  0.96181000  1.0 -0.5614051397
O  O20  1  0.19540000  0.93850000  0.03819000  1.0 -0.5614051397
O  O21  1  0.26380000  0.43333000  0.52117000  1.0 -0.5413010972
O  O22  1  0.76380000  0.56667000  0.47883000  1.0 -0.5413010972
O  O23  1  0.76380000  0.06667000  0.02117000  1.0 -0.5413010972
O  O24  1  0.26380000  0.93333000  0.97883000  1.0 -0.5413010972
O  O25  1  0.64500000  0.14078000  0.28905000  1.0 -0.5614051397
O  O26  1  0.14500000  0.85922000  0.71095000  1.0 -0.5614051397
O  O27  1  0.14500000  0.35922000  0.78905000  1.0 -0.5614051397
O  O28  1  0.64500000  0.64078000  0.21095000  1.0 -0.5614051397
O  O29  1  0.71250000  0.14374000  0.34806000  1.0 -0.5493548734
O  O30  1  0.21250000  0.85626000  0.65194000  1.0 -0.5493548734
O  O31  1  0.21250000  0.35626000  0.84806000  1.0 -0.5493548734
O  O32  1  0.71250000  0.64374000  0.15194000  1.0 -0.5493548734
O  O33  1  0.73700000  0.28783000  0.38017000  1.0 -0.5493548734
O  O34  1  0.23700000  0.71217000  0.61983000  1.0 -0.5493548734
O  O35  1  0.23700000  0.21217000  0.88017000  1.0 -0.5493548734
O  O36  1  0.73700000  0.78783000  0.11983000  1.0 -0.5493548734
O  O37  1  0.70770000  0.22880000  0.41485000  1.0 -0.4944928999
O  O38  1  0.20770000  0.77120000  0.58515000  1.0 -0.4944928999
O  O39  1  0.20770000  0.27120000  0.91485000  1.0 -0.4944928999
O  O40  1  0.70770000  0.72880000  0.08515000  1.0 -0.4944928999
O  O41  1  0.61500000  0.79490000  0.23989000  1.0 -0.5614051397
O  O42  1  0.11500000  0.20510000  0.76011000  1.0 -0.5614051397
O  O43  1  0.11500000  0.70510000  0.73989000  1.0 -0.5614051397
O  O44  1  0.61500000  0.29490000  0.26011000  1.0 -0.5614051397
O  O45  1  0.56410000  0.73160000  0.25284000  1.0 -0.5102800196
O  O46  1  0.06410000  0.26840000  0.74716000  1.0 -0.5102800196
O  O47  1  0.06410000  0.76840000  0.75284000  1.0 -0.5102800196
O  O48  1  0.56410000  0.23160000  0.24716000  1.0 -0.5102800196
O  O49  1  0.72880000  0.43270000  0.46132000  1.0 -0.4993293475
O  O50  1  0.22880000  0.56730000  0.53868000  1.0 -0.4993293475
O  O51  1  0.22880000  0.06730000  0.96132000  1.0 -0.4993293475
O  O52  1  0.72880000  0.93270000  0.03868000  1.0 -0.4993293475
O  O53  1  0.67350000  0.43165000  0.52560000  1.0 -0.5901029424
O  O54  1  0.17350000  0.56835000  0.47440000  1.0 -0.5901029424
O  O55  1  0.17350000  0.06835000  0.02560000  1.0 -0.5901029424
O  O56  1  0.67350000  0.93165000  0.97440000  1.0 -0.5901029424
O  O57  1  0.61960000  0.25405000  0.73152000  1.0 -0.5901029424
O  O58  1  0.11960000  0.74595000  0.26848000  1.0 -0.5901029424
O  O59  1  0.11960000  0.24595000  0.23152000  1.0 -0.5901029424
O  O60  1  0.61960000  0.75405000  0.76848000  1.0 -0.5901029424
O  O61  1  0.57240000  0.25232000  0.79768000  1.0 -0.5200944062
O  O62  1  0.07240000  0.74768000  0.20232000  1.0 -0.5200944062
O  O63  1  0.07240000  0.24768000  0.29768000  1.0 -0.5200944062
O  O64  1  0.57240000  0.75232000  0.70232000  1.0 -0.5200944062
O  O65  1  0.24840000  0.27752000  0.74838000  1.0 -0.5691080357
O  O66  1  0.74840000  0.72248000  0.25162000  1.0 -0.5691080357
O  O67  1  0.74840000  0.22248000  0.24838000  1.0 -0.5691080357
O  O68  1  0.24840000  0.77752000  0.75162000  1.0 -0.5691080357
O  O69  1  0.31150000  0.27521000  0.81020000  1.0 -0.5493548734
O  O70  1  0.81150000  0.72479000  0.18980000  1.0 -0.5493548734
O  O71  1  0.81150000  0.22479000  0.31020000  1.0 -0.5493548734
O  O72  1  0.31150000  0.77521000  0.68980000  1.0 -0.5493548734
O  O73  1  0.15870000  0.31560000  0.36190000  1.0 -0.5102800196
O  O74  1  0.65870000  0.68440000  0.63810000  1.0 -0.5102800196
O  O75  1  0.65870000  0.18440000  0.86190000  1.0 -0.5102800196
O  O76  1  0.15870000  0.81560000  0.13810000  1.0 -0.5102800196
O  O77  1  0.19900000  0.25080000  0.38011000  1.0 -0.5493548734
O  O78  1  0.69900000  0.74920000  0.61989000  1.0 -0.5493548734
O  O79  1  0.69900000  0.24920000  0.88011000  1.0 -0.5493548734
O  O80  1  0.19900000  0.75080000  0.11989000  1.0 -0.5493548734
O  O81  1  0.19470000  0.15530000  0.24790000  1.0 -0.6393962021
O  O82  1  0.69470000  0.84470000  0.75210000  1.0 -0.6393962021
O  O83  1  0.69470000  0.34470000  0.74790000  1.0 -0.6393962021
O  O84  1  0.19470000  0.65530000  0.25210000  1.0 -0.6393962021
O  O85  1  0.18590000  0.18004000  0.31773000  1.0 -0.5102800196
O  O86  1  0.68590000  0.81996000  0.68227000  1.0 -0.5102800196
O  O87  1  0.68590000  0.31996000  0.81773000  1.0 -0.5102800196
O  O88  1  0.18590000  0.68004000  0.18227000  1.0 -0.5102800196
O  O89  1  0.24180000  0.99884000  0.41861000  1.0 -0.5493548734
O  O90  1  0.74180000  0.00116000  0.58139000  1.0 -0.5493548734
O  O91  1  0.74180000  0.50116000  0.91861000  1.0 -0.5493548734
O  O92  1  0.24180000  0.49884000  0.08139000  1.0 -0.5493548734
O  O93  1  0.17580000  0.05996000  0.42901000  1.0 -0.5413010972
O  O94  1  0.67580000  0.94004000  0.57099000  1.0 -0.5413010972
O  O95  1  0.67580000  0.44004000  0.92901000  1.0 -0.5413010972
O  O96  1  0.17580000  0.55996000  0.07099000  1.0 -0.5413010972
O  O97  1  0.31060000  0.00395000  0.49959000  1.0 -0.5413010972
O  O98  1  0.81060000  0.99605000  0.50041000  1.0 -0.5413010972
O  O99  1  0.81060000  0.49605000  0.99959000  1.0 -0.5413010972
O  O100  1  0.31060000  0.50395000  0.00041000  1.0 -0.5413010972
O  O101  1  0.25610000  0.06921000  0.50807000  1.0 -0.5493548734
O  O102  1  0.75610000  0.93079000  0.49193000  1.0 -0.5493548734
O  O103  1  0.75610000  0.43079000  0.00807000  1.0 -0.5493548734
O  O104  1  0.25610000  0.56921000  0.99193000  1.0 -0.5493548734
O  O105  1  0.62900000  0.04763000  0.54009000  1.0 -0.5763539191
O  O106  1  0.12900000  0.95237000  0.45991000  1.0 -0.5763539191
O  O107  1  0.12900000  0.45237000  0.04009000  1.0 -0.5763539191
O  O108  1  0.62900000  0.54763000  0.95991000  1.0 -0.5763539191
O  O109  1  0.56480000  0.98683000  0.52206000  1.0 -0.5413010972
O  O110  1  0.06480000  0.01317000  0.47794000  1.0 -0.5413010972
O  O111  1  0.06480000  0.51317000  0.02206000  1.0 -0.5413010972
O  O112  1  0.56480000  0.48683000  0.97794000  1.0 -0.5413010972
O  O113  1  0.68970000  0.03392000  0.46060000  1.0 -0.5901029424
O  O114  1  0.18970000  0.96608000  0.53940000  1.0 -0.5901029424
O  O115  1  0.18970000  0.46608000  0.96060000  1.0 -0.5901029424
O  O116  1  0.68970000  0.53392000  0.03940000  1.0 -0.5901029424
O  O117  1  0.63710000  0.96841000  0.44532000  1.0 -0.484302428
O  O118  1  0.13710000  0.03159000  0.55468000  1.0 -0.484302428
O  O119  1  0.13710000  0.53159000  0.94532000  1.0 -0.484302428
O  O120  1  0.63710000  0.46841000  0.05468000  1.0 -0.484302428
O  O121  1  0.41250000  0.90400000  0.22935000  1.0 -0.1880025323
O  O122  1  0.91250000  0.09600000  0.77065000  1.0 -0.1880025323
O  O123  1  0.91250000  0.59600000  0.72935000  1.0 -0.1880025323
O  O124  1  0.41250000  0.40400000  0.27065000  1.0 -0.1880025323
O  O125  1  0.53830000  0.29397000  0.53049000  1.0 -0.2191736571
O  O126  1  0.03830000  0.70603000  0.46951000  1.0 -0.2191736571
O  O127  1  0.03830000  0.20603000  0.03049000  1.0 -0.2191736571
O  O128  1  0.53830000  0.79397000  0.96951000  1.0 -0.2191736571
O  O129  1  0.35980000  0.27408000  0.50377000  1.0 -0.1880025323
O  O130  1  0.85980000  0.72592000  0.49623000  1.0 -0.1880025323
O  O131  1  0.85980000  0.22592000  0.00377000  1.0 -0.1880025323
O  O132  1  0.35980000  0.77408000  0.99623000  1.0 -0.1880025323
O  O133  1  0.46190000  0.16842000  0.55796000  1.0 -0.2191736571
O  O134  1  0.96190000  0.83158000  0.44204000  1.0 -0.2191736571
O  O135  1  0.96190000  0.33158000  0.05796000  1.0 -0.2191736571
O  O136  1  0.46190000  0.66842000  0.94204000  1.0 -0.2191736571
O  O137  1  0.41180000  0.24883000  0.62909000  1.0 -0.1998946102
O  O138  1  0.91180000  0.75117000  0.37091000  1.0 -0.1998946102
O  O139  1  0.91180000  0.25117000  0.12909000  1.0 -0.1998946102
O  O140  1  0.41180000  0.74883000  0.87091000  1.0 -0.1998946102
O  O141  1  0.34160000  0.02420000  0.26740000  1.0 -0.2312299277
O  O142  1  0.84160000  0.97580000  0.73260000  1.0 -0.2312299277
O  O143  1  0.84160000  0.47580000  0.76740000  1.0 -0.2312299277
O  O144  1  0.34160000  0.52420000  0.23260000  1.0 -0.2312299277
O  O145  1  0.51530000  0.99469000  0.30608000  1.0 -0.1998946102
O  O146  1  0.01530000  0.00531000  0.69392000  1.0 -0.1998946102
O  O147  1  0.01530000  0.50531000  0.80608000  1.0 -0.1998946102
O  O148  1  0.51530000  0.49469000  0.19392000  1.0 -0.1998946102
O  O149  1  0.47870000  0.99132000  0.17421000  1.0 -0.211183904
O  O150  1  0.97870000  0.00868000  0.82579000  1.0 -0.211183904
O  O151  1  0.97870000  0.50868000  0.67421000  1.0 -0.211183904
O  O152  1  0.47870000  0.49132000  0.32579000  1.0 -0.211183904
O  O153  1  0.24960000  0.77292000  0.21183000  1.0 -0.5614051397
O  O154  1  0.74960000  0.22708000  0.78817000  1.0 -0.5614051397
O  O155  1  0.74960000  0.72708000  0.71183000  1.0 -0.5614051397
O  O156  1  0.24960000  0.27292000  0.28817000  1.0 -0.5614051397
O  O157  1  0.28650000  0.73460000  0.26770000  1.0 -0.5307331742
O  O158  1  0.78650000  0.26540000  0.73230000  1.0 -0.5413010972
O  O159  1  0.78650000  0.76540000  0.76770000  1.0 -0.5307331742
O  O160  1  0.28650000  0.23460000  0.23230000  1.0 -0.5307331742
O  O161  1  0.65630000  0.22979000  0.32517000  1.0 -0.9842053916
O  O162  1  0.15630000  0.77021000  0.67483000  1.0 -0.9842053916
O  O163  1  0.15630000  0.27021000  0.82517000  1.0 -0.9842053916
O  O164  1  0.65630000  0.72979000  0.17483000  1.0 -0.9842053916
