# DDEC6 charges by PACMAN v1.1 (https://github.com/mtap-research/PACMAN-charge/)
data_WEHJOK_FSR_pacman
_symmetry_space_group_name_H-M   'P 1'
_cell_length_a   21.88300000
_cell_length_b   21.88300000
_cell_length_c   40.18400000
_cell_angle_alpha   90.00000000
_cell_angle_beta   90.00000000
_cell_angle_gamma   90.00000000
_symmetry_Int_Tables_number   1
_chemical_formula_structural   Zn5H20C42NO26
_chemical_formula_sum   'Zn40 H160 C336 N8 O208'
_cell_volume   19242.73884678
_cell_formula_units_Z   8
loop_
 _symmetry_equiv_pos_site_id
 _symmetry_equiv_pos_as_xyz
  1  'x, y, z'
loop_
 _atom_site_type_symbol
 _atom_site_label
 _atom_site_symmetry_multiplicity
 _atom_site_fract_x
 _atom_site_fract_y
 _atom_site_fract_z
 _atom_site_occupancy
 _atom_site_charge
Zn  Zn1  1  0.18185000  0.01029000  0.28576000  1.0 0.9527561183
Zn  Zn2  1  0.31815000  0.98971000  0.78576000  1.0 0.9527561183
Zn  Zn3  1  0.68185000  0.48971000  0.71424000  1.0 0.9527561183
Zn  Zn4  1  0.81815000  0.51029000  0.21424000  1.0 0.9527561183
Zn  Zn5  1  0.73752000  0.56897000  0.03515000  1.0 0.9373381849
Zn  Zn6  1  0.76248000  0.43103000  0.53515000  1.0 0.9373381849
Zn  Zn7  1  0.23752000  0.93103000  0.96485000  1.0 0.9373381849
Zn  Zn8  1  0.26248000  0.06897000  0.46485000  1.0 0.9373381849
Zn  Zn9  1  0.22033000  0.65677000  0.28975000  1.0 1.1197830315
Zn  Zn10  1  0.27967000  0.34323000  0.78975000  1.0 1.1197830315
Zn  Zn11  1  0.72033000  0.84323000  0.71025000  1.0 1.1197830315
Zn  Zn12  1  0.77967000  0.15677000  0.21025000  1.0 1.1197830315
Zn  Zn13  1  0.80655000  0.48235000  0.97464000  1.0 1.0870834704
Zn  Zn14  1  0.69345000  0.51765000  0.47464000  1.0 1.0870834704
Zn  Zn15  1  0.30655000  0.01765000  0.02536000  1.0 1.0870834704
Zn  Zn16  1  0.19345000  0.98235000  0.52536000  1.0 1.0870834704
Zn  Zn17  1  0.25956000  0.08619000  0.22611000  1.0 1.1197830315
Zn  Zn18  1  0.24044000  0.91381000  0.72611000  1.0 1.1197830315
Zn  Zn19  1  0.75956000  0.41381000  0.77389000  1.0 1.1197830315
Zn  Zn20  1  0.74044000  0.58619000  0.27389000  1.0 1.1197830315
Zn  Zn21  1  0.80925000  0.07237000  0.01046000  1.0 1.0513840433
Zn  Zn22  1  0.69075000  0.92763000  0.51046000  1.0 1.0513840433
Zn  Zn23  1  0.30925000  0.42763000  0.98954000  1.0 1.0513840433
Zn  Zn24  1  0.19075000  0.57237000  0.48954000  1.0 1.0513840433
Zn  Zn25  1  0.37019000  0.53331000  0.03295000  1.0 1.0000019784
Zn  Zn26  1  0.12981000  0.46669000  0.53295000  1.0 1.0000019784
Zn  Zn27  1  0.87019000  0.96669000  0.96705000  1.0 1.0000019784
Zn  Zn28  1  0.62981000  0.03331000  0.46705000  1.0 1.0000019784
Zn  Zn29  1  0.79976000  0.03027000  0.25562000  1.0 1.1140269156
Zn  Zn30  1  0.70024000  0.96973000  0.75562000  1.0 1.1140269156
Zn  Zn31  1  0.29976000  0.46973000  0.74438000  1.0 1.1197830315
Zn  Zn32  1  0.20024000  0.53027000  0.24438000  1.0 1.1197830315
Zn  Zn33  1  0.34440000  0.60437000  0.25554000  1.0 1.20668472
Zn  Zn34  1  0.15560000  0.39563000  0.75554000  1.0 1.20668472
Zn  Zn35  1  0.84440000  0.89563000  0.74446000  1.0 1.20668472
Zn  Zn36  1  0.65560000  0.10437000  0.24446000  1.0 1.20668472
Zn  Zn37  1  0.25083000  0.57701000  0.98849000  1.0 1.1812712367
Zn  Zn38  1  0.24917000  0.42299000  0.48849000  1.0 1.1812712367
Zn  Zn39  1  0.75083000  0.92299000  0.01151000  1.0 1.1812712367
Zn  Zn40  1  0.74917000  0.07701000  0.51151000  1.0 1.1812712367
H  H1  1  0.73740000  0.59180000  0.14720000  1.0 0.1579565567
H  H2  1  0.76260000  0.40820000  0.64720000  1.0 0.1579565567
H  H3  1  0.23740000  0.90820000  0.85280000  1.0 0.1579565567
H  H4  1  0.26260000  0.09180000  0.35280000  1.0 0.1579565567
H  H5  1  0.62820000  0.71400000  0.10330000  1.0 0.1405061135
H  H6  1  0.87180000  0.28600000  0.60330000  1.0 0.1405061135
H  H7  1  0.12820000  0.78600000  0.89670000  1.0 0.1405061135
H  H8  1  0.37180000  0.21400000  0.39670000  1.0 0.1405061135
H  H9  1  0.64930000  0.71040000  0.20360000  1.0 0.1579565567
H  H10  1  0.85070000  0.28960000  0.70360000  1.0 0.1579565567
H  H11  1  0.14930000  0.78960000  0.79640000  1.0 0.1579565567
H  H12  1  0.35070000  0.21040000  0.29640000  1.0 0.1579565567
H  H13  1  0.53560000  0.75130000  0.12370000  1.0 0.1132247723
H  H14  1  0.96440000  0.24870000  0.62370000  1.0 0.1132247723
H  H15  1  0.03560000  0.74870000  0.87630000  1.0 0.1132247723
H  H16  1  0.46440000  0.25130000  0.37630000  1.0 0.1132247723
H  H17  1  0.58350000  0.80130000  0.11320000  1.0 0.1188917261
H  H18  1  0.91650000  0.19870000  0.61320000  1.0 0.1188917261
H  H19  1  0.08350000  0.69870000  0.88680000  1.0 0.1188917261
H  H20  1  0.41650000  0.30130000  0.38680000  1.0 0.1188917261
H  H21  1  0.43930000  0.87910000  0.11910000  1.0 0.1132247723
H  H22  1  0.06070000  0.12090000  0.61910000  1.0 0.1188917261
H  H23  1  0.93930000  0.62090000  0.88090000  1.0 0.1188917261
H  H24  1  0.56070000  0.37910000  0.38090000  1.0 0.1132247723
H  H25  1  0.49120000  0.86280000  0.09340000  1.0 0.1132247723
H  H26  1  0.00880000  0.13720000  0.59340000  1.0 0.1132247723
H  H27  1  0.99120000  0.63720000  0.90660000  1.0 0.1132247723
H  H28  1  0.50880000  0.36280000  0.40660000  1.0 0.1132247723
H  H29  1  0.45530000  0.78070000  0.16750000  1.0 0.1188917261
H  H30  1  0.04470000  0.21930000  0.66750000  1.0 0.1188917261
H  H31  1  0.95530000  0.71930000  0.83250000  1.0 0.1188917261
H  H32  1  0.54470000  0.28070000  0.33250000  1.0 0.1188917261
H  H33  1  0.50580000  0.80940000  0.19050000  1.0 0.1132247723
H  H34  1  0.99420000  0.19060000  0.69050000  1.0 0.1132247723
H  H35  1  0.00580000  0.69060000  0.80950000  1.0 0.1132247723
H  H36  1  0.49420000  0.30940000  0.30950000  1.0 0.1132247723
H  H37  1  0.38810000  0.87780000  0.06910000  1.0 0.1405061135
H  H38  1  0.11190000  0.12220000  0.56910000  1.0 0.1405061135
H  H39  1  0.88810000  0.62220000  0.93090000  1.0 0.1405061135
H  H40  1  0.61190000  0.37780000  0.43090000  1.0 0.1405061135
H  H41  1  0.29490000  0.76480000  0.00830000  1.0 0.1514906019
H  H42  1  0.20510000  0.23520000  0.50830000  1.0 0.1514906019
H  H43  1  0.79490000  0.73520000  0.99170000  1.0 0.1514906019
H  H44  1  0.70510000  0.26480000  0.49170000  1.0 0.1514906019
H  H45  1  0.40700000  0.69760000  0.07820000  1.0 0.1514906019
H  H46  1  0.09300000  0.30240000  0.57820000  1.0 0.1514906019
H  H47  1  0.90700000  0.80240000  0.92180000  1.0 0.1514906019
H  H48  1  0.59300000  0.19760000  0.42180000  1.0 0.1514906019
H  H49  1  0.36850000  0.94240000  0.20320000  1.0 0.1514906019
H  H50  1  0.13150000  0.05760000  0.70320000  1.0 0.1514906019
H  H51  1  0.86850000  0.55760000  0.79680000  1.0 0.1514906019
H  H52  1  0.63150000  0.44240000  0.29680000  1.0 0.1514906019
H  H53  1  0.26410000  0.83840000  0.26330000  1.0 0.1514906019
H  H54  1  0.23590000  0.16160000  0.76330000  1.0 0.1514906019
H  H55  1  0.76410000  0.66160000  0.73670000  1.0 0.1514906019
H  H56  1  0.73590000  0.33840000  0.23670000  1.0 0.1514906019
H  H57  1  0.40630000  0.76570000  0.21540000  1.0 0.1405061135
H  H58  1  0.09370000  0.23430000  0.71540000  1.0 0.1405061135
H  H59  1  0.90630000  0.73430000  0.78460000  1.0 0.1405061135
H  H60  1  0.59370000  0.26570000  0.28460000  1.0 0.1405061135
H  H61  1  0.61100000  0.99010000  0.16730000  1.0 0.1405061135
H  H62  1  0.88900000  0.00990000  0.66730000  1.0 0.1405061135
H  H63  1  0.11100000  0.50990000  0.83270000  1.0 0.1405061135
H  H64  1  0.38900000  0.49010000  0.33270000  1.0 0.1405061135
H  H65  1  0.52220000  0.92670000  0.15540000  1.0 0.1132247723
H  H66  1  0.97780000  0.07330000  0.65540000  1.0 0.1132247723
H  H67  1  0.02220000  0.57330000  0.84460000  1.0 0.1132247723
H  H68  1  0.47780000  0.42670000  0.34460000  1.0 0.1132247723
H  H69  1  0.57900000  0.88730000  0.16630000  1.0 0.1188917261
H  H70  1  0.92100000  0.11270000  0.66630000  1.0 0.1188917261
H  H71  1  0.07900000  0.61270000  0.83370000  1.0 0.1188917261
H  H72  1  0.42100000  0.38730000  0.33370000  1.0 0.1188917261
H  H73  1  0.63770000  0.94990000  0.07050000  1.0 0.1514906019
H  H74  1  0.86230000  0.05010000  0.57050000  1.0 0.1514906019
H  H75  1  0.13770000  0.55010000  0.92950000  1.0 0.1514906019
H  H76  1  0.36230000  0.44990000  0.42950000  1.0 0.1514906019
H  H77  1  0.73100000  0.08330000  0.11300000  1.0 0.1514906019
H  H78  1  0.76900000  0.91670000  0.61300000  1.0 0.1514906019
H  H79  1  0.23100000  0.41670000  0.88700000  1.0 0.1514906019
H  H80  1  0.26900000  0.58330000  0.38700000  1.0 0.1514906019
H  H81  1  0.28550000  0.49630000  0.11960000  1.0 0.1514906019
H  H82  1  0.21450000  0.50370000  0.61960000  1.0 0.1514906019
H  H83  1  0.78550000  0.00370000  0.88040000  1.0 0.1514906019
H  H84  1  0.71450000  0.99630000  0.38040000  1.0 0.1514906019
H  H85  1  0.19920000  0.36540000  0.07190000  1.0 0.1405061135
H  H86  1  0.30080000  0.63460000  0.57190000  1.0 0.1405061135
H  H87  1  0.69920000  0.13460000  0.92810000  1.0 0.1405061135
H  H88  1  0.80080000  0.86540000  0.42810000  1.0 0.1405061135
H  H89  1  0.15280000  0.40280000  0.16660000  1.0 0.1514906019
H  H90  1  0.34720000  0.59720000  0.66666667  1.0 0.1514906019
H  H91  1  0.65280000  0.09720000  0.83340000  1.0 0.1514906019
H  H92  1  0.84720000  0.90280000  0.33340000  1.0 0.1514906019
H  H93  1  0.14780000  0.26580000  0.08970000  1.0 0.1188917261
H  H94  1  0.35220000  0.73420000  0.58970000  1.0 0.1188917261
H  H95  1  0.64780000  0.23420000  0.91030000  1.0 0.1188917261
H  H96  1  0.85220000  0.76580000  0.41030000  1.0 0.1188917261
H  H97  1  0.10630000  0.31910000  0.07620000  1.0 0.1188917261
H  H98  1  0.39370000  0.68090000  0.57620000  1.0 0.1188917261
H  H99  1  0.60630000  0.18090000  0.92380000  1.0 0.1188917261
H  H100  1  0.89370000  0.81910000  0.42380000  1.0 0.1188917261
H  H101  1  0.10440000  0.18690000  0.12610000  1.0 0.1188917261
H  H102  1  0.39560000  0.81310000  0.62610000  1.0 0.1188917261
H  H103  1  0.60440000  0.31310000  0.87390000  1.0 0.1188917261
H  H104  1  0.89560000  0.68690000  0.37390000  1.0 0.1188917261
H  H105  1  0.08740000  0.23870000  0.15160000  1.0 0.1132247723
H  H106  1  0.41260000  0.76130000  0.65160000  1.0 0.1132247723
H  H107  1  0.58740000  0.26130000  0.84840000  1.0 0.1132247723
H  H108  1  0.91260000  0.73870000  0.34840000  1.0 0.1132247723
H  H109  1  0.11080000  0.13840000  0.17860000  1.0 0.1405061135
H  H110  1  0.38920000  0.86160000  0.67860000  1.0 0.1405061135
H  H111  1  0.61080000  0.36160000  0.82140000  1.0 0.1405061135
H  H112  1  0.88920000  0.63840000  0.32140000  1.0 0.1405061135
H  H113  1  0.00700000  0.05180000  0.24540000  1.0 0.1514906019
H  H114  1  0.49300000  0.94820000  0.74540000  1.0 0.1514906019
H  H115  1  0.50700000  0.44820000  0.75460000  1.0 0.1514906019
H  H116  1  0.99300000  0.55180000  0.25460000  1.0 0.1514906019
H  H117  1  0.92770000  0.14490000  0.16970000  1.0 0.1514906019
H  H118  1  0.57230000  0.85510000  0.66970000  1.0 0.1514906019
H  H119  1  0.42770000  0.35510000  0.83030000  1.0 0.1514906019
H  H120  1  0.07230000  0.64490000  0.33030000  1.0 0.1514906019
H  H121  1  0.97270000  0.27440000  0.12380000  1.0 0.1188917261
H  H122  1  0.52730000  0.72560000  0.62380000  1.0 0.1188917261
H  H123  1  0.47270000  0.22560000  0.87620000  1.0 0.1188917261
H  H124  1  0.02730000  0.77440000  0.37620000  1.0 0.1188917261
H  H125  1  0.02130000  0.32400000  0.13410000  1.0 0.1132247723
H  H126  1  0.47870000  0.67600000  0.63410000  1.0 0.1132247723
H  H127  1  0.52130000  0.17600000  0.86590000  1.0 0.1132247723
H  H128  1  0.97870000  0.82400000  0.36590000  1.0 0.1132247723
H  H129  1  0.93960000  0.37630000  0.14460000  1.0 0.1405061135
H  H130  1  0.56040000  0.62370000  0.64460000  1.0 0.1405061135
H  H131  1  0.43960000  0.12370000  0.85540000  1.0 0.1405061135
H  H132  1  0.06040000  0.87630000  0.35540000  1.0 0.1405061135
H  H133  1  0.82650000  0.49670000  0.10490000  1.0 0.1514906019
H  H134  1  0.67350000  0.50330000  0.60490000  1.0 0.1514906019
H  H135  1  0.32650000  0.00330000  0.89510000  1.0 0.1514906019
H  H136  1  0.17350000  0.99670000  0.39510000  1.0 0.1514906019
H  H137  1  0.93120000  0.39290000  0.04570000  1.0 0.1579565567
H  H138  1  0.56880000  0.60710000  0.54570000  1.0 0.1579565567
H  H139  1  0.43120000  0.10710000  0.95430000  1.0 0.1579565567
H  H140  1  0.06880000  0.89290000  0.45430000  1.0 0.1579565567
H  H141  1  0.16170000  0.11640000  0.04180000  1.0 0.1579565567
H  H142  1  0.33830000  0.88360000  0.54180000  1.0 0.1579565567
H  H143  1  0.66170000  0.38360000  0.95820000  1.0 0.1579565567
H  H144  1  0.83830000  0.61640000  0.45820000  1.0 0.1579565567
H  H145  1  0.00010000  0.19330000  0.08100000  1.0 0.1188917261
H  H146  1  0.49990000  0.80670000  0.58100000  1.0 0.1188917261
H  H147  1  0.50010000  0.30670000  0.91900000  1.0 0.1188917261
H  H148  1  0.99990000  0.69330000  0.41900000  1.0 0.1188917261
H  H149  1  0.01930000  0.24710000  0.05710000  1.0 0.1188917261
H  H150  1  0.48070000  0.75290000  0.55710000  1.0 0.1188917261
H  H151  1  0.51930000  0.25290000  0.94290000  1.0 0.1188917261
H  H152  1  0.98070000  0.74710000  0.44290000  1.0 0.1188917261
H  H153  1  0.98100000  0.14470000  0.03560000  1.0 0.1405061135
H  H154  1  0.51900000  0.85530000  0.53560000  1.0 0.1405061135
H  H155  1  0.48100000  0.35530000  0.96440000  1.0 0.1405061135
H  H156  1  0.01900000  0.64470000  0.46440000  1.0 0.1405061135
H  H157  1  0.05420000  0.00340000  0.98760000  1.0 0.1405061135
H  H158  1  0.44580000  0.99660000  0.48760000  1.0 0.1405061135
H  H159  1  0.55420000  0.49660000  0.01240000  1.0 0.1405061135
H  H160  1  0.94580000  0.50340000  0.51240000  1.0 0.1405061135
C  C1  1  0.12260000  0.07310000  0.23076000  1.0 0.6179671203
C  C2  1  0.37740000  0.92690000  0.73076000  1.0 0.6179671203
C  C3  1  0.62260000  0.42690000  0.76924000  1.0 0.6179671203
C  C4  1  0.87740000  0.57310000  0.26924000  1.0 0.6179671203
C  C5  1  0.27280000  0.95490000  0.24283000  1.0 0.6112898703
C  C6  1  0.22720000  0.04510000  0.74283000  1.0 0.6112898703
C  C7  1  0.77280000  0.54510000  0.75717000  1.0 0.6112898703
C  C8  1  0.72720000  0.45490000  0.25717000  1.0 0.6112898703
C  C9  1  0.72350000  0.61840000  0.21030000  1.0 0.5872875269
C  C10  1  0.77650000  0.38160000  0.71030000  1.0 0.5872875269
C  C11  1  0.22350000  0.88160000  0.78970000  1.0 0.5872875269
C  C12  1  0.27650000  0.11840000  0.28970000  1.0 0.5872875269
C  C13  1  0.69810000  0.64760000  0.18033000  1.0 -0.016448801
C  C14  1  0.80190000  0.35240000  0.68033000  1.0 -0.016448801
C  C15  1  0.19810000  0.85240000  0.81967000  1.0 -0.016448801
C  C16  1  0.30190000  0.14760000  0.31967000  1.0 -0.016448801
C  C17  1  0.71010000  0.62420000  0.14899000  1.0 -0.103843521
C  C18  1  0.78990000  0.37580000  0.64899000  1.0 -0.103843521
C  C19  1  0.21010000  0.87580000  0.85101000  1.0 -0.103843521
C  C20  1  0.28990000  0.12420000  0.35101000  1.0 -0.103843521
C  C21  1  0.68430000  0.64610000  0.12112000  1.0 0.0305489469
C  C22  1  0.81570000  0.35390000  0.62112000  1.0 0.0305489469
C  C23  1  0.18430000  0.85390000  0.87888000  1.0 0.0305489469
C  C24  1  0.31570000  0.14610000  0.37888000  1.0 0.0305489469
C  C25  1  0.64480000  0.69760000  0.12261000  1.0 -0.2486881313
C  C26  1  0.85520000  0.30240000  0.62261000  1.0 -0.2486881313
C  C27  1  0.14480000  0.80240000  0.87739000  1.0 -0.2486881313
C  C28  1  0.35520000  0.19760000  0.37739000  1.0 -0.2486881313
C  C29  1  0.63130000  0.72340000  0.15395000  1.0 0.3104158605
C  C30  1  0.86870000  0.27660000  0.65395000  1.0 0.3104158605
C  C31  1  0.13130000  0.77660000  0.84605000  1.0 0.3104158605
C  C32  1  0.36870000  0.22340000  0.34605000  1.0 0.3104158605
C  C33  1  0.65880000  0.69520000  0.18266000  1.0 -0.1802965279
C  C34  1  0.84120000  0.30480000  0.68266000  1.0 -0.1802965279
C  C35  1  0.15880000  0.80480000  0.81734000  1.0 -0.1802965279
C  C36  1  0.34120000  0.19520000  0.31734000  1.0 -0.1802965279
C  C37  1  0.55820000  0.78680000  0.13137000  1.0 -0.0897958617
C  C38  1  0.94180000  0.21320000  0.63137000  1.0 -0.0897958617
C  C39  1  0.05820000  0.71320000  0.86863000  1.0 -0.0897958617
C  C40  1  0.44180000  0.28680000  0.36863000  1.0 -0.0897958617
C  C41  1  0.51400000  0.83660000  0.14197000  1.0 0.0616887763
C  C42  1  0.98600000  0.16340000  0.64197000  1.0 0.0616887763
C  C43  1  0.01400000  0.66340000  0.85803000  1.0 0.0616887763
C  C44  1  0.48600000  0.33660000  0.35803000  1.0 0.0616887763
C  C45  1  0.46930000  0.84850000  0.11290000  1.0 -0.0806435698
C  C46  1  0.03070000  0.15150000  0.61290000  1.0 -0.0806435698
C  C47  1  0.96930000  0.65150000  0.88710000  1.0 -0.0806435698
C  C48  1  0.53070000  0.34850000  0.38710000  1.0 -0.0806435698
C  C49  1  0.47820000  0.81770000  0.17222000  1.0 -0.0696733998
C  C50  1  0.02180000  0.18230000  0.67222000  1.0 -0.0696733998
C  C51  1  0.97820000  0.68230000  0.82778000  1.0 -0.0696733998
C  C52  1  0.52180000  0.31770000  0.32778000  1.0 -0.0696733998
C  C53  1  0.40160000  0.78880000  0.07951000  1.0 0.2525292545
C  C54  1  0.09840000  0.21120000  0.57951000  1.0 0.2525292545
C  C55  1  0.90160000  0.71120000  0.92049000  1.0 0.2525292545
C  C56  1  0.59840000  0.28880000  0.42049000  1.0 0.2525292545
C  C57  1  0.37760000  0.83820000  0.06297000  1.0 -0.2486881313
C  C58  1  0.12240000  0.16180000  0.56297000  1.0 -0.2486881313
C  C59  1  0.87760000  0.66180000  0.93703000  1.0 -0.2486881313
C  C60  1  0.62240000  0.33820000  0.43703000  1.0 -0.2486881313
C  C61  1  0.33640000  0.82740000  0.03625000  1.0 0.0081926502
C  C62  1  0.16360000  0.17260000  0.53625000  1.0 0.0081926502
C  C63  1  0.83640000  0.67260000  0.96375000  1.0 0.0081926502
C  C64  1  0.66360000  0.32740000  0.46375000  1.0 0.0081926502
C  C65  1  0.32220000  0.77070000  0.02570000  1.0 -0.1097841155
C  C66  1  0.17780000  0.22930000  0.52570000  1.0 -0.1097841155
C  C67  1  0.82220000  0.72930000  0.97430000  1.0 -0.1097841155
C  C68  1  0.67780000  0.27070000  0.47430000  1.0 -0.1097841155
C  C69  1  0.34920000  0.72170000  0.04132000  1.0 0.0081926502
C  C70  1  0.15080000  0.27830000  0.54132000  1.0 0.0081926502
C  C71  1  0.84920000  0.77830000  0.95868000  1.0 0.0081926502
C  C72  1  0.65080000  0.22170000  0.45868000  1.0 0.0081926502
C  C73  1  0.38880000  0.73110000  0.06800000  1.0 -0.2107983266
C  C74  1  0.11120000  0.26890000  0.56800000  1.0 -0.2107983266
C  C75  1  0.88880000  0.76890000  0.93200000  1.0 -0.2107983266
C  C76  1  0.61120000  0.23110000  0.43200000  1.0 -0.2107983266
C  C77  1  0.33570000  0.65770000  0.02951000  1.0 0.5987565423
C  C78  1  0.16430000  0.34230000  0.52951000  1.0 0.5987565423
C  C79  1  0.83570000  0.84230000  0.97049000  1.0 0.5987565423
C  C80  1  0.66430000  0.15770000  0.47049000  1.0 0.5987565423
C  C81  1  0.39250000  0.85370000  0.20474000  1.0 0.2262512113
C  C82  1  0.10750000  0.14630000  0.70474000  1.0 0.2262512113
C  C83  1  0.89250000  0.64630000  0.79526000  1.0 0.2262512113
C  C84  1  0.60750000  0.35370000  0.29526000  1.0 0.2262512113
C  C85  1  0.35890000  0.90480000  0.21270000  1.0 -0.1802965279
C  C86  1  0.14110000  0.09520000  0.71270000  1.0 -0.1802965279
C  C87  1  0.85890000  0.59520000  0.78730000  1.0 -0.1802965279
C  C88  1  0.64110000  0.40480000  0.28730000  1.0 -0.1802965279
C  C89  1  0.31050000  0.90000000  0.23497000  1.0 -0.016448801
C  C90  1  0.18950000  0.10000000  0.73497000  1.0 -0.016448801
C  C91  1  0.81050000  0.60000000  0.76503000  1.0 -0.016448801
C  C92  1  0.68950000  0.40000000  0.26503000  1.0 -0.016448801
C  C93  1  0.29730000  0.84290000  0.24902000  1.0 -0.0897958617
C  C94  1  0.20270000  0.15710000  0.74902000  1.0 -0.0897958617
C  C95  1  0.79730000  0.65710000  0.75098000  1.0 -0.0897958617
C  C96  1  0.70270000  0.34290000  0.25098000  1.0 -0.0897958617
C  C97  1  0.33350000  0.79400000  0.24158000  1.0 -0.0397555341
C  C98  1  0.16650000  0.20600000  0.74158000  1.0 -0.0397555341
C  C99  1  0.83350000  0.70600000  0.75842000  1.0 -0.0397555341
C  C100  1  0.66650000  0.29400000  0.25842000  1.0 -0.0397555341
C  C101  1  0.38150000  0.79930000  0.21982000  1.0 -0.2107983266
C  C102  1  0.11850000  0.20070000  0.71982000  1.0 -0.2107983266
C  C103  1  0.88150000  0.70070000  0.78018000  1.0 -0.2107983266
C  C104  1  0.61850000  0.29930000  0.28018000  1.0 -0.2107983266
C  C105  1  0.31940000  0.73350000  0.25550000  1.0 0.5987565423
C  C106  1  0.18060000  0.26650000  0.75550000  1.0 0.5987565423
C  C107  1  0.81940000  0.76650000  0.74450000  1.0 0.5987565423
C  C108  1  0.68060000  0.23350000  0.24450000  1.0 0.5987565423
C  C109  1  0.68790000  0.07770000  0.17630000  1.0 0.5987565423
C  C110  1  0.81210000  0.92230000  0.67630000  1.0 0.5987565423
C  C111  1  0.18790000  0.42230000  0.82370000  1.0 0.5987565423
C  C112  1  0.31210000  0.57770000  0.32370000  1.0 0.5987565423
C  C113  1  0.67390000  0.04050000  0.14493000  1.0 0.0218432241
C  C114  1  0.82610000  0.95950000  0.64493000  1.0 0.0218432241
C  C115  1  0.17390000  0.45950000  0.85507000  1.0 0.0218432241
C  C116  1  0.32610000  0.54050000  0.35507000  1.0 0.0218432241
C  C117  1  0.63170000  0.99600000  0.14738000  1.0 -0.2107983266
C  C118  1  0.86830000  0.00400000  0.64738000  1.0 -0.2107983266
C  C119  1  0.13170000  0.50400000  0.85262000  1.0 -0.2107983266
C  C120  1  0.36830000  0.49600000  0.35262000  1.0 -0.2107983266
C  C121  1  0.61880000  0.95830000  0.11988000  1.0 0.2588244592
C  C122  1  0.88120000  0.04170000  0.61988000  1.0 0.2588244592
C  C123  1  0.11880000  0.54170000  0.88012000  1.0 0.2588244592
C  C124  1  0.38120000  0.45830000  0.38012000  1.0 0.2588244592
C  C125  1  0.54960000  0.89420000  0.14863000  1.0 -0.0806435698
C  C126  1  0.95040000  0.10580000  0.64863000  1.0 -0.0806435698
C  C127  1  0.04960000  0.60580000  0.85137000  1.0 -0.0806435698
C  C128  1  0.45040000  0.39420000  0.35137000  1.0 -0.0806435698
C  C129  1  0.64730000  0.97230000  0.08953000  1.0 -0.1802965279
C  C130  1  0.85270000  0.02770000  0.58953000  1.0 -0.1802965279
C  C131  1  0.14730000  0.52770000  0.91047000  1.0 -0.1802965279
C  C132  1  0.35270000  0.47230000  0.41047000  1.0 -0.1802965279
C  C133  1  0.68890000  0.01860000  0.08787000  1.0 0.0035247173
C  C134  1  0.81110000  0.98140000  0.58787000  1.0 0.0035247173
C  C135  1  0.18890000  0.48140000  0.91213000  1.0 0.0035247173
C  C136  1  0.31110000  0.51860000  0.41213000  1.0 0.0035247173
C  C137  1  0.70240000  0.05210000  0.11460000  1.0 -0.0897958617
C  C138  1  0.79760000  0.94790000  0.61460000  1.0 -0.0897958617
C  C139  1  0.20240000  0.44790000  0.88540000  1.0 -0.0897958617
C  C140  1  0.29760000  0.55210000  0.38540000  1.0 -0.0897958617
C  C141  1  0.72090000  0.02820000  0.05479000  1.0 0.6179671203
C  C142  1  0.77910000  0.97180000  0.55479000  1.0 0.6179671203
C  C143  1  0.22090000  0.47180000  0.94521000  1.0 0.6179671203
C  C144  1  0.27910000  0.52820000  0.44521000  1.0 0.6179671203
C  C145  1  0.89280000  0.07750000  0.22037000  1.0 0.5788101222
C  C146  1  0.60720000  0.92250000  0.72037000  1.0 0.5788101222
C  C147  1  0.39280000  0.42250000  0.77963000  1.0 0.5788101222
C  C148  1  0.10720000  0.57750000  0.27963000  1.0 0.5788101222
C  C149  1  0.22630000  0.49660000  0.17856000  1.0 0.5212540443
C  C150  1  0.27370000  0.50340000  0.67856000  1.0 0.5212540443
C  C151  1  0.72630000  0.00340000  0.82144000  1.0 0.5212540443
C  C152  1  0.77370000  0.99660000  0.32144000  1.0 0.5212540443
C  C153  1  0.21960000  0.45730000  0.14789000  1.0 0.0218432241
C  C154  1  0.28040000  0.54270000  0.64789000  1.0 0.0305489469
C  C155  1  0.71960000  0.04270000  0.85211000  1.0 0.0305489469
C  C156  1  0.78040000  0.95730000  0.35211000  1.0 0.0305489469
C  C157  1  0.25480000  0.46690000  0.11935000  1.0 -0.1097841155
C  C158  1  0.24520000  0.53310000  0.61935000  1.0 -0.1097841155
C  C159  1  0.75480000  0.03310000  0.88065000  1.0 -0.1097841155
C  C160  1  0.74520000  0.96690000  0.38065000  1.0 -0.1097841155
C  C161  1  0.24510000  0.43500000  0.09222000  1.0 0.0035247173
C  C162  1  0.25490000  0.56500000  0.59222000  1.0 0.0035247173
C  C163  1  0.74510000  0.06500000  0.90778000  1.0 0.0035247173
C  C164  1  0.75490000  0.93500000  0.40778000  1.0 0.0035247173
C  C165  1  0.28110000  0.44910000  0.06131000  1.0 0.6112898703
C  C166  1  0.21890000  0.55090000  0.56131000  1.0 0.6112898703
C  C167  1  0.78110000  0.05090000  0.93869000  1.0 0.6112898703
C  C168  1  0.71890000  0.94910000  0.43869000  1.0 0.6112898703
C  C169  1  0.94830000  0.05120000  0.99898000  1.0 0.6112898703
C  C170  1  0.55170000  0.94880000  0.49898000  1.0 0.6112898703
C  C171  1  0.44830000  0.44880000  0.00102000  1.0 0.6112898703
C  C172  1  0.05170000  0.55120000  0.50102000  1.0 0.6112898703
C  C173  1  0.20470000  0.38770000  0.09135000  1.0 -0.226059634
C  C174  1  0.29530000  0.61230000  0.59135000  1.0 -0.226059634
C  C175  1  0.70470000  0.11230000  0.90865000  1.0 -0.226059634
C  C176  1  0.79530000  0.88770000  0.40865000  1.0 -0.226059634
C  C177  1  0.17160000  0.37280000  0.11978000  1.0 0.2668720076
C  C178  1  0.32840000  0.62720000  0.61978000  1.0 0.2668720076
C  C179  1  0.67160000  0.12720000  0.88022000  1.0 0.2668720076
C  C180  1  0.82840000  0.87280000  0.38022000  1.0 0.2668720076
C  C181  1  0.17710000  0.40980000  0.14804000  1.0 -0.2218447586
C  C182  1  0.32290000  0.59020000  0.64804000  1.0 -0.2218447586
C  C183  1  0.67710000  0.09020000  0.85196000  1.0 -0.2218447586
C  C184  1  0.82290000  0.90980000  0.35196000  1.0 -0.2218447586
C  C185  1  0.11460000  0.29320000  0.09532000  1.0 -0.0696733998
C  C186  1  0.38540000  0.70680000  0.59532000  1.0 -0.0696733998
C  C187  1  0.61460000  0.20680000  0.90468000  1.0 -0.0696733998
C  C188  1  0.88540000  0.79320000  0.40468000  1.0 -0.0696733998
C  C189  1  0.05740000  0.25680000  0.10480000  1.0 0.0717629338
C  C190  1  0.44260000  0.74320000  0.60480000  1.0 0.0717629338
C  C191  1  0.55740000  0.24320000  0.89520000  1.0 0.0717629338
C  C192  1  0.94260000  0.75680000  0.39520000  1.0 0.0717629338
C  C193  1  0.07260000  0.21530000  0.13281000  1.0 -0.0806435698
C  C194  1  0.42740000  0.78470000  0.63281000  1.0 -0.0806435698
C  C195  1  0.57260000  0.28470000  0.86719000  1.0 -0.0806435698
C  C196  1  0.92740000  0.71530000  0.36719000  1.0 -0.0806435698
C  C197  1  0.02050000  0.14950000  0.17021000  1.0 0.2525292545
C  C198  1  0.47950000  0.85050000  0.67021000  1.0 0.2525292545
C  C199  1  0.52050000  0.35050000  0.82979000  1.0 0.2525292545
C  C200  1  0.97950000  0.64950000  0.32979000  1.0 0.2525292545
C  C201  1  0.07220000  0.12850000  0.18657000  1.0 -0.2015399141
C  C202  1  0.42780000  0.87150000  0.68657000  1.0 -0.2015399141
C  C203  1  0.57220000  0.37150000  0.81343000  1.0 -0.2015399141
C  C204  1  0.92780000  0.62850000  0.31343000  1.0 -0.2015399141
C  C205  1  0.06640000  0.09380000  0.21385000  1.0 -0.0276983113
C  C206  1  0.43360000  0.90620000  0.71385000  1.0 -0.0276983113
C  C207  1  0.56640000  0.40620000  0.78615000  1.0 -0.0276983113
C  C208  1  0.93360000  0.59380000  0.28615000  1.0 -0.0276983113
C  C209  1  0.00980000  0.07600000  0.22641000  1.0 -0.0897958617
C  C210  1  0.49020000  0.92400000  0.72641000  1.0 -0.0897958617
C  C211  1  0.50980000  0.42400000  0.77359000  1.0 -0.0897958617
C  C212  1  0.99020000  0.57600000  0.27359000  1.0 -0.0897958617
C  C213  1  0.95600000  0.09610000  0.20932000  1.0 0.0035247173
C  C214  1  0.54400000  0.90390000  0.70932000  1.0 0.0035247173
C  C215  1  0.45600000  0.40390000  0.79068000  1.0 0.0035247173
C  C216  1  0.04400000  0.59610000  0.29068000  1.0 0.0035247173
C  C217  1  0.96220000  0.13210000  0.18127000  1.0 -0.2015399141
C  C218  1  0.53780000  0.86790000  0.68127000  1.0 -0.2015399141
C  C219  1  0.46220000  0.36790000  0.81873000  1.0 -0.2015399141
C  C220  1  0.03780000  0.63210000  0.31873000  1.0 -0.2015399141
C  C221  1  0.00710000  0.29830000  0.11595000  1.0 -0.0806435698
C  C222  1  0.49290000  0.70170000  0.61595000  1.0 -0.0806435698
C  C223  1  0.50710000  0.20170000  0.88405000  1.0 -0.0806435698
C  C224  1  0.99290000  0.79830000  0.38405000  1.0 -0.0806435698
C  C225  1  0.94520000  0.37910000  0.09448000  1.0 0.2588244592
C  C226  1  0.55480000  0.62090000  0.59448000  1.0 0.2588244592
C  C227  1  0.44520000  0.12090000  0.90552000  1.0 0.2588244592
C  C228  1  0.05480000  0.87910000  0.40552000  1.0 0.2588244592
C  C229  1  0.92440000  0.39610000  0.12580000  1.0 -0.2015399141
C  C230  1  0.57560000  0.60390000  0.62580000  1.0 -0.2015399141
C  C231  1  0.42440000  0.10390000  0.87420000  1.0 -0.2015399141
C  C232  1  0.07560000  0.89610000  0.37420000  1.0 -0.2015399141
C  C233  1  0.88220000  0.44120000  0.12938000  1.0 0.0035247173
C  C234  1  0.61780000  0.55880000  0.62938000  1.0 0.0035247173
C  C235  1  0.38220000  0.05880000  0.87062000  1.0 0.0035247173
C  C236  1  0.11780000  0.94120000  0.37062000  1.0 0.0035247173
C  C237  1  0.86230000  0.45950000  0.16324000  1.0 0.5675484951
C  C238  1  0.63770000  0.54050000  0.66324000  1.0 0.5675484951
C  C239  1  0.36230000  0.04050000  0.83676000  1.0 0.5675484951
C  C240  1  0.13770000  0.95950000  0.33676000  1.0 0.5675484951
C  C241  1  0.85560000  0.46610000  0.10234000  1.0 -0.0897958617
C  C242  1  0.64440000  0.53390000  0.60234000  1.0 -0.0897958617
C  C243  1  0.35560000  0.03390000  0.89766000  1.0 -0.0897958617
C  C244  1  0.14440000  0.96610000  0.39766000  1.0 -0.0897958617
C  C245  1  0.87190000  0.44560000  0.06971000  1.0 -0.0276983113
C  C246  1  0.62810000  0.55440000  0.56971000  1.0 -0.0276983113
C  C247  1  0.37190000  0.05440000  0.93029000  1.0 -0.0276983113
C  C248  1  0.12810000  0.94560000  0.43029000  1.0 -0.0276983113
C  C249  1  0.91790000  0.40440000  0.06675000  1.0 -0.1534929962
C  C250  1  0.58210000  0.59560000  0.56675000  1.0 -0.1534929962
C  C251  1  0.41790000  0.09560000  0.93325000  1.0 -0.1534929962
C  C252  1  0.08210000  0.90440000  0.43325000  1.0 -0.1534929962
C  C253  1  0.84260000  0.47250000  0.04077000  1.0 0.5987565423
C  C254  1  0.65740000  0.52750000  0.54077000  1.0 0.5987565423
C  C255  1  0.34260000  0.02750000  0.95923000  1.0 0.5987565423
C  C256  1  0.15740000  0.97250000  0.45923000  1.0 0.5987565423
C  C257  1  0.30820000  0.88280000  0.01932000  1.0 0.6179671203
C  C258  1  0.19180000  0.11720000  0.51932000  1.0 0.6179671203
C  C259  1  0.80820000  0.61720000  0.98068000  1.0 0.6179671203
C  C260  1  0.69180000  0.38280000  0.48068000  1.0 0.6179671203
C  C261  1  0.69640000  0.62440000  0.08430000  1.0 0.5385050292
C  C262  1  0.80360000  0.37560000  0.58430000  1.0 0.5385050292
C  C263  1  0.19640000  0.87560000  0.91570000  1.0 0.5385050292
C  C264  1  0.30360000  0.12440000  0.41570000  1.0 0.5385050292
C  C265  1  0.17620000  0.02090000  0.00280000  1.0 0.5987565423
C  C266  1  0.32380000  0.97910000  0.50280000  1.0 0.5987565423
C  C267  1  0.67620000  0.47910000  0.99720000  1.0 0.5987565423
C  C268  1  0.82380000  0.52090000  0.49720000  1.0 0.5987565423
C  C269  1  0.11970000  0.05470000  0.01134000  1.0 -0.0124146768
C  C270  1  0.38030000  0.94530000  0.51134000  1.0 -0.0124146768
C  C271  1  0.61970000  0.44530000  0.98866000  1.0 -0.0124146768
C  C272  1  0.88030000  0.55470000  0.48866000  1.0 -0.0124146768
C  C273  1  0.12390000  0.10530000  0.03306000  1.0 -0.2015399141
C  C274  1  0.37610000  0.89470000  0.53306000  1.0 -0.2015399141
C  C275  1  0.62390000  0.39470000  0.96694000  1.0 -0.2015399141
C  C276  1  0.87610000  0.60530000  0.46694000  1.0 -0.2015399141
C  C277  1  0.07310000  0.13770000  0.04136000  1.0 0.2588244592
C  C278  1  0.42690000  0.86230000  0.54136000  1.0 0.2588244592
C  C279  1  0.57310000  0.36230000  0.95864000  1.0 0.2588244592
C  C280  1  0.92690000  0.63770000  0.45864000  1.0 0.2588244592
C  C281  1  0.03350000  0.21980000  0.07443000  1.0 -0.0696733998
C  C282  1  0.46650000  0.78020000  0.57443000  1.0 -0.0696733998
C  C283  1  0.53350000  0.28020000  0.92557000  1.0 -0.0696733998
C  C284  1  0.96650000  0.71980000  0.42557000  1.0 -0.0696733998
C  C285  1  0.01520000  0.12190000  0.02964000  1.0 -0.2107983266
C  C286  1  0.48480000  0.87810000  0.52964000  1.0 -0.2107983266
C  C287  1  0.51520000  0.37810000  0.97036000  1.0 -0.2107983266
C  C288  1  0.98480000  0.62190000  0.47036000  1.0 -0.2107983266
C  C289  1  0.00940000  0.07140000  0.00897000  1.0 -0.016448801
C  C290  1  0.49060000  0.92860000  0.50897000  1.0 -0.016448801
C  C291  1  0.50940000  0.42860000  0.99103000  1.0 -0.016448801
C  C292  1  0.99060000  0.57140000  0.49103000  1.0 -0.016448801
C  C293  1  0.05920000  0.03810000  0.00063000  1.0 -0.0897958617
C  C294  1  0.44080000  0.96190000  0.50063000  1.0 -0.0897958617
C  C295  1  0.55920000  0.46190000  0.99937000  1.0 -0.0897958617
C  C296  1  0.94080000  0.53810000  0.49937000  1.0 -0.0897958617
C  C297  1  0.27280000  0.65820000  0.91480000  1.0 0.3993217506
C  C298  1  0.22720000  0.34180000  0.41480000  1.0 0.3993217506
C  C299  1  0.77280000  0.84180000  0.08520000  1.0 0.3948088999
C  C300  1  0.72720000  0.15820000  0.58520000  1.0 0.3993217506
C  C301  1  0.29360000  0.72050000  0.93200000  1.0 -0.0696733998
C  C302  1  0.20640000  0.27950000  0.43200000  1.0 -0.0696733998
C  C303  1  0.79360000  0.77950000  0.06800000  1.0 -0.0696733998
C  C304  1  0.70640000  0.22050000  0.56800000  1.0 -0.0696733998
C  C305  1  0.31600000  0.58930000  0.87530000  1.0 0.1324705919
C  C306  1  0.18400000  0.41070000  0.37530000  1.0 0.1324705919
C  C307  1  0.81600000  0.91070000  0.12470000  1.0 0.1405061135
C  C308  1  0.68400000  0.08930000  0.62470000  1.0 0.1324705919
C  C309  1  0.35900000  0.70470000  0.94530000  1.0 0.0035247173
C  C310  1  0.14100000  0.29530000  0.44530000  1.0 0.0035247173
C  C311  1  0.85900000  0.79530000  0.05470000  1.0 0.0035247173
C  C312  1  0.64100000  0.20470000  0.55470000  1.0 0.0035247173
C  C313  1  0.26660000  0.69160000  0.85900000  1.0 -0.2107983266
C  C314  1  0.23340000  0.30840000  0.35900000  1.0 -0.2015399141
C  C315  1  0.76660000  0.80840000  0.14100000  1.0 -0.2015399141
C  C316  1  0.73340000  0.19160000  0.64100000  1.0 -0.2015399141
C  C317  1  0.81120000  0.21690000  0.03150000  1.0 0.3993217506
C  C318  1  0.68880000  0.78310000  0.53150000  1.0 0.3993217506
C  C319  1  0.31120000  0.28310000  0.96850000  1.0 0.3993217506
C  C320  1  0.18880000  0.71690000  0.46850000  1.0 0.3993217506
C  C321  1  0.83840000  0.18920000  0.09220000  1.0 -0.1097841155
C  C322  1  0.66160000  0.81080000  0.59220000  1.0 -0.1097841155
C  C323  1  0.33840000  0.31080000  0.90780000  1.0 -0.116982687
C  C324  1  0.16160000  0.68920000  0.40780000  1.0 -0.1097841155
C  C325  1  0.79650000  0.30460000  0.99850000  1.0 0.0305489469
C  C326  1  0.70350000  0.69540000  0.49850000  1.0 0.0305489469
C  C327  1  0.29650000  0.19540000  0.00150000  1.0 0.0305489469
C  C328  1  0.20350000  0.80460000  0.50150000  1.0 0.0305489469
C  C329  1  0.85570000  0.21790000  0.06110000  1.0 -0.2015399141
C  C330  1  0.64430000  0.78210000  0.56110000  1.0 -0.2015399141
C  C331  1  0.35570000  0.28210000  0.93890000  1.0 -0.1884660027
C  C332  1  0.14430000  0.71790000  0.43890000  1.0 -0.2015399141
C  C333  1  0.71040000  0.24300000  0.03320000  1.0 0.0305489469
C  C334  1  0.78960000  0.75700000  0.53320000  1.0 0.0218432241
C  C335  1  0.21040000  0.25700000  0.96680000  1.0 0.0218432241
C  C336  1  0.28960000  0.74300000  0.46680000  1.0 0.0218432241
N  N1  1  0.27830000  0.64710000  0.88540000  1.0 -0.0614639481
N  N2  1  0.22170000  0.35290000  0.38540000  1.0 -0.0696733998
N  N3  1  0.77830000  0.85290000  0.11460000  1.0 -0.0696733998
N  N4  1  0.72170000  0.14710000  0.61460000  1.0 -0.0696733998
N  N5  1  0.77550000  0.25680000  0.02170000  1.0 -0.0806435698
N  N6  1  0.72450000  0.74320000  0.52170000  1.0 -0.0806435698
N  N7  1  0.27550000  0.24320000  0.97830000  1.0 -0.0806435698
N  N8  1  0.22450000  0.75680000  0.47830000  1.0 -0.0806435698
O  O1  1  0.11762000  0.04197000  0.25753000  1.0 -0.5287098259
O  O2  1  0.38238000  0.95803000  0.75753000  1.0 -0.5287098259
O  O3  1  0.61762000  0.45803000  0.74247000  1.0 -0.5287098259
O  O4  1  0.88238000  0.54197000  0.24247000  1.0 -0.5287098259
O  O5  1  0.17291000  0.09091000  0.21989000  1.0 -0.5384972607
O  O6  1  0.32709000  0.90909000  0.71989000  1.0 -0.5384972607
O  O7  1  0.67291000  0.40909000  0.78011000  1.0 -0.5384972607
O  O8  1  0.82709000  0.59091000  0.28011000  1.0 -0.5384972607
O  O9  1  0.28690000  0.00284000  0.22861000  1.0 -0.5287098259
O  O10  1  0.21310000  0.99716000  0.72861000  1.0 -0.5287098259
O  O11  1  0.78690000  0.49716000  0.77139000  1.0 -0.5287098259
O  O12  1  0.71310000  0.50284000  0.27139000  1.0 -0.5287098259
O  O13  1  0.23146000  0.94806000  0.26440000  1.0 -0.5287098259
O  O14  1  0.26854000  0.05194000  0.76440000  1.0 -0.5287098259
O  O15  1  0.73146000  0.55194000  0.73560000  1.0 -0.5287098259
O  O16  1  0.76854000  0.44806000  0.23560000  1.0 -0.5287098259
O  O17  1  0.76150000  0.58000000  0.20797000  1.0 -0.4897172526
O  O18  1  0.73850000  0.42000000  0.70797000  1.0 -0.4897172526
O  O19  1  0.26150000  0.92000000  0.79203000  1.0 -0.4897172526
O  O20  1  0.23850000  0.08000000  0.29203000  1.0 -0.4897172526
O  O21  1  0.70630000  0.63622000  0.23910000  1.0 -0.5022048935
O  O22  1  0.79370000  0.36378000  0.73910000  1.0 -0.5022048935
O  O23  1  0.20630000  0.86378000  0.76090000  1.0 -0.5022048935
O  O24  1  0.29370000  0.13622000  0.26090000  1.0 -0.5022048935
O  O25  1  0.59563000  0.77056000  0.15898000  1.0 -0.1566222196
O  O26  1  0.90437000  0.22944000  0.65898000  1.0 -0.1566222196
O  O27  1  0.09563000  0.72944000  0.84102000  1.0 -0.1566222196
O  O28  1  0.40437000  0.27056000  0.34102000  1.0 -0.1566222196
O  O29  1  0.43823000  0.86449000  0.18089000  1.0 -0.1802965279
O  O30  1  0.06177000  0.13551000  0.68089000  1.0 -0.1802965279
O  O31  1  0.93823000  0.63551000  0.81911000  1.0 -0.1802965279
O  O32  1  0.56177000  0.36449000  0.31911000  1.0 -0.1802965279
O  O33  1  0.44002000  0.79161000  0.10612000  1.0 -0.1884660027
O  O34  1  0.05998000  0.20839000  0.60612000  1.0 -0.1884660027
O  O35  1  0.94002000  0.70839000  0.89388000  1.0 -0.1884660027
O  O36  1  0.55998000  0.29161000  0.39388000  1.0 -0.1884660027
O  O37  1  0.35481000  0.69043000  0.24793000  1.0 -0.559582453
O  O38  1  0.14519000  0.30957000  0.74793000  1.0 -0.559582453
O  O39  1  0.85481000  0.80957000  0.75207000  1.0 -0.559582453
O  O40  1  0.64519000  0.19043000  0.25207000  1.0 -0.559582453
O  O41  1  0.27459000  0.72941000  0.27553000  1.0 -0.5384972607
O  O42  1  0.22541000  0.27059000  0.77553000  1.0 -0.5384972607
O  O43  1  0.77459000  0.77059000  0.72447000  1.0 -0.5384972607
O  O44  1  0.72541000  0.22941000  0.22447000  1.0 -0.5384972607
O  O45  1  0.37083000  0.61757000  0.04231000  1.0 -0.5287098259
O  O46  1  0.12917000  0.38243000  0.54231000  1.0 -0.5287098259
O  O47  1  0.87083000  0.88243000  0.95769000  1.0 -0.5287098259
O  O48  1  0.62917000  0.11757000  0.45769000  1.0 -0.5287098259
O  O49  1  0.29640000  0.64939000  0.00973000  1.0 -0.4477377419
O  O50  1  0.20360000  0.35061000  0.50973000  1.0 -0.4477377419
O  O51  1  0.79640000  0.85061000  0.99027000  1.0 -0.4477377419
O  O52  1  0.70360000  0.14939000  0.49027000  1.0 -0.4477377419
O  O53  1  0.24867000  0.60413000  0.24815000  1.0 -0.9510796701
O  O54  1  0.25133000  0.39587000  0.74815000  1.0 -0.9510796701
O  O55  1  0.74867000  0.89587000  0.75185000  1.0 -0.9510796701
O  O56  1  0.75133000  0.10413000  0.25185000  1.0 -0.9510796701
O  O57  1  0.65512000  0.06690000  0.20111000  1.0 -0.5495332663
O  O58  1  0.84488000  0.93310000  0.70111000  1.0 -0.5495332663
O  O59  1  0.15512000  0.43310000  0.79889000  1.0 -0.5495332663
O  O60  1  0.34488000  0.56690000  0.29889000  1.0 -0.5495332663
O  O61  1  0.72768000  0.11620000  0.17482000  1.0 -0.5199689415
O  O62  1  0.77232000  0.88380000  0.67482000  1.0 -0.5199689415
O  O63  1  0.22768000  0.38380000  0.82518000  1.0 -0.5199689415
O  O64  1  0.27232000  0.61620000  0.32518000  1.0 -0.5199689415
O  O65  1  0.84895000  0.09530000  0.20226000  1.0 -0.5495332663
O  O66  1  0.65105000  0.90470000  0.70226000  1.0 -0.5495332663
O  O67  1  0.34895000  0.40470000  0.79774000  1.0 -0.5495332663
O  O68  1  0.15105000  0.59530000  0.29774000  1.0 -0.5495332663
O  O69  1  0.88694000  0.04850000  0.24652000  1.0 -0.5384972607
O  O70  1  0.61306000  0.95150000  0.74652000  1.0 -0.5384972607
O  O71  1  0.38694000  0.45150000  0.75348000  1.0 -0.5384972607
O  O72  1  0.11306000  0.54850000  0.25348000  1.0 -0.5384972607
O  O73  1  0.19250000  0.48490000  0.20303000  1.0 -0.5287098259
O  O74  1  0.30750000  0.51510000  0.70303000  1.0 -0.5287098259
O  O75  1  0.69250000  0.01510000  0.79697000  1.0 -0.5287098259
O  O76  1  0.80750000  0.98490000  0.29697000  1.0 -0.5287098259
O  O77  1  0.26650000  0.53470000  0.17796000  1.0 -0.3694537838
O  O78  1  0.23350000  0.46530000  0.67796000  1.0 -0.3694537838
O  O79  1  0.76650000  0.96530000  0.82204000  1.0 -0.3694537838
O  O80  1  0.73350000  0.03470000  0.32204000  1.0 -0.3694537838
O  O81  1  0.94459000  0.00532000  0.98002000  1.0 -0.5199689415
O  O82  1  0.55541000  0.99468000  0.48002000  1.0 -0.5199689415
O  O83  1  0.44459000  0.49468000  0.01998000  1.0 -0.5199689415
O  O84  1  0.05541000  0.50532000  0.51998000  1.0 -0.5199689415
O  O85  1  0.90130000  0.08126000  0.00914000  1.0 -0.5384972607
O  O86  1  0.59870000  0.91874000  0.50914000  1.0 -0.5384972607
O  O87  1  0.40130000  0.41874000  0.99086000  1.0 -0.5384972607
O  O88  1  0.09870000  0.58126000  0.49086000  1.0 -0.5384972607
O  O89  1  0.32188000  0.48844000  0.06525000  1.0 -0.5022048935
O  O90  1  0.17812000  0.51156000  0.56525000  1.0 -0.5022048935
O  O91  1  0.82188000  0.01156000  0.93475000  1.0 -0.5022048935
O  O92  1  0.67812000  0.98844000  0.43475000  1.0 -0.5022048935
O  O93  1  0.27078000  0.42156000  0.03450000  1.0 -0.5071515426
O  O94  1  0.22922000  0.57844000  0.53450000  1.0 -0.5071515426
O  O95  1  0.77078000  0.07844000  0.96550000  1.0 -0.5071515426
O  O96  1  0.72922000  0.92156000  0.46550000  1.0 -0.5071515426
O  O97  1  0.82009000  0.97842000  0.00763000  1.0 -0.9352478271
O  O98  1  0.67991000  0.02158000  0.50763000  1.0 -0.9339890962
O  O99  1  0.32009000  0.52158000  0.99237000  1.0 -0.9339890962
O  O100  1  0.17991000  0.47842000  0.49237000  1.0 -0.9339890962
O  O101  1  0.19600000  0.57450000  0.03133000  1.0 -0.5287098259
O  O102  1  0.30400000  0.42550000  0.53133000  1.0 -0.5287098259
O  O103  1  0.69600000  0.92550000  0.96867000  1.0 -0.5287098259
O  O104  1  0.80400000  0.07450000  0.46867000  1.0 -0.5287098259
O  O105  1  0.70267000  0.99614000  0.03020000  1.0 -0.5384972607
O  O106  1  0.79733000  0.00386000  0.53020000  1.0 -0.5384972607
O  O107  1  0.20267000  0.50386000  0.96980000  1.0 -0.5384972607
O  O108  1  0.29733000  0.49614000  0.46980000  1.0 -0.5384972607
O  O109  1  0.26710000  0.61000000  0.93790000  1.0 -0.5943218355
O  O110  1  0.23290000  0.39000000  0.43790000  1.0 -0.5943218355
O  O111  1  0.76710000  0.89000000  0.06210000  1.0 -0.5943218355
O  O112  1  0.73290000  0.11000000  0.56210000  1.0 -0.5943218355
O  O113  1  0.80340000  0.16463000  0.01360000  1.0 -0.5071515426
O  O114  1  0.69660000  0.83537000  0.51360000  1.0 -0.5071515426
O  O115  1  0.30340000  0.33537000  0.98640000  1.0 -0.5071515426
O  O116  1  0.19660000  0.66463000  0.48640000  1.0 -0.5071515426
O  O117  1  0.29570000  0.11600000  0.18641000  1.0 -0.7121069317
O  O118  1  0.20430000  0.88400000  0.68641000  1.0 -0.7121069317
O  O119  1  0.79570000  0.38400000  0.81359000  1.0 -0.7121069317
O  O120  1  0.70430000  0.61600000  0.31359000  1.0 -0.7121069317
O  O121  1  0.44900000  0.60080000  0.26030000  1.0 -0.0696733998
O  O122  1  0.05100000  0.39920000  0.76030000  1.0 -0.0696733998
O  O123  1  0.94900000  0.89920000  0.73970000  1.0 -0.0696733998
O  O124  1  0.55100000  0.10080000  0.23970000  1.0 -0.0696733998
O  O125  1  0.36110000  0.55800000  0.21617000  1.0 -0.4580044235
O  O126  1  0.13890000  0.44200000  0.71617000  1.0 -0.4580044235
O  O127  1  0.86110000  0.94200000  0.78383000  1.0 -0.4580044235
O  O128  1  0.63890000  0.05800000  0.28383000  1.0 -0.4477377419
O  O129  1  0.77300000  0.96860000  0.22152000  1.0 -0.4477377419
O  O130  1  0.72700000  0.03140000  0.72152000  1.0 -0.433175155
O  O131  1  0.27300000  0.53140000  0.77848000  1.0 -0.433175155
O  O132  1  0.22700000  0.46860000  0.27848000  1.0 -0.433175155
O  O133  1  0.18540000  0.71340000  0.32964000  1.0 -0.0276983113
O  O134  1  0.31460000  0.28660000  0.82964000  1.0 -0.016448801
O  O135  1  0.68540000  0.78660000  0.67036000  1.0 -0.0276983113
O  O136  1  0.81460000  0.21340000  0.17036000  1.0 -0.016448801
O  O137  1  0.14580000  0.70390000  0.25881000  1.0 0.0616887763
O  O138  1  0.35420000  0.29610000  0.75881000  1.0 0.0616887763
O  O139  1  0.64580000  0.79610000  0.74119000  1.0 0.0616887763
O  O140  1  0.85420000  0.20390000  0.24119000  1.0 0.0717629338
O  O141  1  0.76385000  0.06587000  0.05333000  1.0 -0.4837317889
O  O142  1  0.73615000  0.93413000  0.55333000  1.0 -0.4837317889
O  O143  1  0.26385000  0.43413000  0.94667000  1.0 -0.4837317889
O  O144  1  0.23615000  0.56587000  0.44667000  1.0 -0.4837317889
O  O145  1  0.12987000  0.32840000  0.12255000  1.0 -0.1566222196
O  O146  1  0.37013000  0.67160000  0.62255000  1.0 -0.1566222196
O  O147  1  0.62987000  0.17160000  0.87745000  1.0 -0.1566222196
O  O148  1  0.87013000  0.82840000  0.37745000  1.0 -0.1566222196
O  O149  1  0.57983000  0.91041000  0.11944000  1.0 -0.1534929962
O  O150  1  0.92017000  0.08959000  0.61944000  1.0 -0.1534929962
O  O151  1  0.07983000  0.58959000  0.88056000  1.0 -0.1534929962
O  O152  1  0.42017000  0.41041000  0.38056000  1.0 -0.1534929962
O  O153  1  0.02042000  0.18359000  0.14155000  1.0 -0.1566222196
O  O154  1  0.47958000  0.81641000  0.64155000  1.0 -0.1566222196
O  O155  1  0.52042000  0.31641000  0.85845000  1.0 -0.1566222196
O  O156  1  0.97958000  0.68359000  0.35845000  1.0 -0.1566222196
O  O157  1  0.88140000  0.43220000  0.18879000  1.0 -0.5199689415
O  O158  1  0.61860000  0.56780000  0.68879000  1.0 -0.5199689415
O  O159  1  0.38140000  0.06780000  0.81121000  1.0 -0.5199689415
O  O160  1  0.11860000  0.93220000  0.31121000  1.0 -0.5199689415
O  O161  1  0.82882000  0.50437000  0.16622000  1.0 -0.4897172526
O  O162  1  0.67118000  0.49563000  0.66622000  1.0 -0.4897172526
O  O163  1  0.32882000  0.99563000  0.83378000  1.0 -0.4897172526
O  O164  1  0.17118000  0.00437000  0.33378000  1.0 -0.4897172526
O  O165  1  0.85602000  0.45225000  0.01248000  1.0 -0.4897172526
O  O166  1  0.64398000  0.54775000  0.51248000  1.0 -0.4897172526
O  O167  1  0.35602000  0.04775000  0.98752000  1.0 -0.4897172526
O  O168  1  0.14398000  0.95225000  0.48752000  1.0 -0.4837317889
O  O169  1  0.80570000  0.51330000  0.04504000  1.0 -0.5199689415
O  O170  1  0.69430000  0.48670000  0.54504000  1.0 -0.5199689415
O  O171  1  0.30570000  0.98670000  0.95496000  1.0 -0.5199689415
O  O172  1  0.19430000  0.01330000  0.45496000  1.0 -0.5199689415
O  O173  1  0.84040000  0.43270000  0.93892000  1.0 -0.6535200213
O  O174  1  0.65960000  0.56730000  0.43892000  1.0 -0.6535200213
O  O175  1  0.34040000  0.06730000  0.06108000  1.0 -0.6535200213
O  O176  1  0.15960000  0.93270000  0.56108000  1.0 -0.6535200213
O  O177  1  0.32276000  0.93343000  0.03151000  1.0 -0.559582453
O  O178  1  0.17724000  0.06657000  0.53151000  1.0 -0.559582453
O  O179  1  0.82276000  0.56657000  0.96849000  1.0 -0.559582453
O  O180  1  0.67724000  0.43343000  0.46849000  1.0 -0.559582453
O  O181  1  0.27337000  0.87261000  0.99604000  1.0 -0.5022048935
O  O182  1  0.22663000  0.12739000  0.49604000  1.0 -0.5022048935
O  O183  1  0.77337000  0.62739000  0.00396000  1.0 -0.5022048935
O  O184  1  0.72663000  0.37261000  0.50396000  1.0 -0.5022048935
O  O185  1  0.22279000  0.03830000  0.01561000  1.0 -0.5287098259
O  O186  1  0.27721000  0.96170000  0.51561000  1.0 -0.5287098259
O  O187  1  0.72279000  0.46170000  0.98439000  1.0 -0.5287098259
O  O188  1  0.77721000  0.53830000  0.48439000  1.0 -0.5287098259
O  O189  1  0.16957000  0.97599000  0.98394000  1.0 -0.5071515426
O  O190  1  0.33043000  0.02401000  0.48394000  1.0 -0.5071515426
O  O191  1  0.66957000  0.52401000  0.01606000  1.0 -0.5071515426
O  O192  1  0.83043000  0.47599000  0.51606000  1.0 -0.5071515426
O  O193  1  0.73240000  0.58020000  0.08379000  1.0 -0.4430633073
O  O194  1  0.76760000  0.41980000  0.58379000  1.0 -0.4430633073
O  O195  1  0.23240000  0.91980000  0.91621000  1.0 -0.4430633073
O  O196  1  0.26760000  0.08020000  0.41621000  1.0 -0.4430633073
O  O197  1  0.67420000  0.64200000  0.06135000  1.0 -0.3775293861
O  O198  1  0.82580000  0.35800000  0.56135000  1.0 -0.3775293861
O  O199  1  0.17420000  0.85800000  0.93865000  1.0 -0.3775293861
O  O200  1  0.32580000  0.14200000  0.43865000  1.0 -0.3775293861
O  O201  1  0.08507000  0.18427000  0.06293000  1.0 -0.1884660027
O  O202  1  0.41493000  0.81573000  0.56293000  1.0 -0.1884660027
O  O203  1  0.58507000  0.31573000  0.93707000  1.0 -0.1884660027
O  O204  1  0.91493000  0.68427000  0.43707000  1.0 -0.1884660027
O  O205  1  0.98893000  0.33509000  0.08876000  1.0 -0.1701444161
O  O206  1  0.51107000  0.66491000  0.58876000  1.0 -0.1701444161
O  O207  1  0.48893000  0.16491000  0.91124000  1.0 -0.1701444161
O  O208  1  0.01107000  0.83509000  0.41124000  1.0 -0.1701444161
