# DDEC6 charges by PACMAN v1.1 (https://github.com/mtap-research/PACMAN-charge/)
data_WEHPOP_ASR_pacman
_symmetry_space_group_name_H-M   'P 1'
_cell_length_a   12.41000000
_cell_length_b   12.41000000
_cell_length_c   20.02000000
_cell_angle_alpha   76.47770000
_cell_angle_beta   103.52200000
_cell_angle_gamma   114.10400000
_symmetry_Int_Tables_number   1
_chemical_formula_structural   NiH24C30(NO)6
_chemical_formula_sum   'Ni2 H48 C60 N12 O12'
_cell_volume   2702.94177453
_cell_formula_units_Z   2
loop_
 _symmetry_equiv_pos_site_id
 _symmetry_equiv_pos_as_xyz
  1  'x, y, z'
loop_
 _atom_site_type_symbol
 _atom_site_label
 _atom_site_symmetry_multiplicity
 _atom_site_fract_x
 _atom_site_fract_y
 _atom_site_fract_z
 _atom_site_occupancy
 _atom_site_charge
Ni  Ni1  1  0.50000000  0.00000000  0.50000000  1.0 0.8634300715
Ni  Ni2  1  0.00000000  0.50000000  0.00000000  1.0 0.8634300715
H  H1  1  0.17850000  0.77310000  0.44670000  1.0 0.1293611009
H  H2  1  0.77310000  0.17850000  0.05330000  1.0 0.1293611009
H  H3  1  0.82150000  0.22690000  0.55330000  1.0 0.1293611009
H  H4  1  0.22690000  0.82150000  0.94670000  1.0 0.1293611009
H  H5  1  0.08640000  0.68660000  0.35370000  1.0 0.1293611009
H  H6  1  0.68660000  0.08640000  0.14630000  1.0 0.1293611009
H  H7  1  0.91360000  0.31340000  0.64630000  1.0 0.1293611009
H  H8  1  0.31340000  0.91360000  0.85370000  1.0 0.1293611009
H  H9  1  0.27600000  0.96040000  0.22440000  1.0 0.1293611009
H  H10  1  0.96040000  0.27600000  0.27560000  1.0 0.1293611009
H  H11  1  0.72400000  0.03960000  0.77560000  1.0 0.1293611009
H  H12  1  0.03960000  0.72400000  0.72440000  1.0 0.1293611009
H  H13  1  0.38110000  0.05250000  0.33540000  1.0 0.1293611009
H  H14  1  0.05250000  0.38110000  0.16460000  1.0 0.1293611009
H  H15  1  0.61890000  0.94750000  0.66460000  1.0 0.1293611009
H  H16  1  0.94750000  0.61890000  0.83540000  1.0 0.1293611009
H  H17  1  0.87620000  0.50180000  0.18810000  1.0 0.1293611009
H  H18  1  0.50180000  0.87620000  0.31190000  1.0 0.1293611009
H  H19  1  0.12380000  0.49820000  0.81190000  1.0 0.1293611009
H  H20  1  0.49820000  0.12380000  0.68810000  1.0 0.1293611009
H  H21  1  0.99470000  0.60190000  0.28300000  1.0 0.1195162115
H  H22  1  0.60190000  0.99470000  0.21700000  1.0 0.1195162115
H  H23  1  0.00530000  0.39810000  0.71700000  1.0 0.1195162115
H  H24  1  0.39810000  0.00530000  0.78300000  1.0 0.1195162115
H  H25  1  0.22930000  0.84430000  0.14840000  1.0 0.139683208
H  H26  1  0.84430000  0.22930000  0.35160000  1.0 0.139683208
H  H27  1  0.77070000  0.15570000  0.85160000  1.0 0.139683208
H  H28  1  0.15570000  0.77070000  0.64840000  1.0 0.139683208
H  H29  1  0.08920000  0.72380000  0.05460000  1.0 0.1293611009
H  H30  1  0.72380000  0.08920000  0.44540000  1.0 0.1293611009
H  H31  1  0.91080000  0.27620000  0.94540000  1.0 0.1293611009
H  H32  1  0.27620000  0.91080000  0.55460000  1.0 0.1293611009
H  H33  1  0.70920000  0.33960000  0.50750000  1.0 0.1195162115
H  H34  1  0.33960000  0.70920000  0.99250000  1.0 0.1195162115
H  H35  1  0.29080000  0.66040000  0.49250000  1.0 0.1195162115
H  H36  1  0.66040000  0.29080000  0.00750000  1.0 0.1195162115
H  H37  1  0.68500000  0.52260000  0.50650000  1.0 0.139683208
H  H38  1  0.52260000  0.68500000  0.99350000  1.0 0.139683208
H  H39  1  0.31500000  0.47740000  0.49350000  1.0 0.139683208
H  H40  1  0.47740000  0.31500000  0.00650000  1.0 0.139683208
H  H41  1  0.34570000  0.34490000  0.46520000  1.0 0.139683208
H  H42  1  0.34490000  0.34570000  0.03480000  1.0 0.139683208
H  H43  1  0.65430000  0.65510000  0.53480000  1.0 0.139683208
H  H44  1  0.65510000  0.65430000  0.96520000  1.0 0.139683208
H  H45  1  0.37640000  0.18180000  0.44430000  1.0 0.1293611009
H  H46  1  0.18180000  0.37640000  0.05570000  1.0 0.1293611009
H  H47  1  0.62360000  0.81820000  0.55570000  1.0 0.1293611009
H  H48  1  0.81820000  0.62360000  0.94430000  1.0 0.1293611009
C  C1  1  0.19660000  0.81120000  0.40260000  1.0 -0.0586471931
C  C2  1  0.81120000  0.19660000  0.09740000  1.0 -0.0586471931
C  C3  1  0.80340000  0.18880000  0.59740000  1.0 -0.0586471931
C  C4  1  0.18880000  0.80340000  0.90260000  1.0 -0.0586471931
C  C5  1  0.14560000  0.76260000  0.34800000  1.0 -0.1804468298
C  C6  1  0.76260000  0.14560000  0.15200000  1.0 -0.1804468298
C  C7  1  0.85440000  0.23740000  0.65200000  1.0 -0.1804468298
C  C8  1  0.23740000  0.85440000  0.84800000  1.0 -0.1804468298
C  C9  1  0.16970000  0.81130000  0.28230000  1.0 0.0780860446
C  C10  1  0.81130000  0.16970000  0.21770000  1.0 0.0780860446
C  C11  1  0.83030000  0.18870000  0.71770000  1.0 0.0780860446
C  C12  1  0.18870000  0.83030000  0.78230000  1.0 0.0780860446
C  C13  1  0.25660000  0.92340000  0.26840000  1.0 -0.2043438518
C  C14  1  0.92340000  0.25660000  0.23160000  1.0 -0.2043438518
C  C15  1  0.74340000  0.07660000  0.73160000  1.0 -0.2043438518
C  C16  1  0.07660000  0.74340000  0.76840000  1.0 -0.2052083724
C  C17  1  0.31750000  0.97910000  0.33590000  1.0 0.0102906571
C  C18  1  0.97910000  0.31750000  0.16410000  1.0 0.0102906571
C  C19  1  0.68250000  0.02090000  0.66410000  1.0 0.0102906571
C  C20  1  0.02090000  0.68250000  0.83590000  1.0 0.0102906571
C  C21  1  0.94810000  0.56590000  0.18340000  1.0 -0.0779522435
C  C22  1  0.56590000  0.94810000  0.31660000  1.0 -0.0779522435
C  C23  1  0.05190000  0.43410000  0.81660000  1.0 -0.0779522435
C  C24  1  0.43410000  0.05190000  0.68340000  1.0 -0.0779522435
C  C25  1  0.01260000  0.62940000  0.23800000  1.0 -0.1940461808
C  C26  1  0.62940000  0.01260000  0.26200000  1.0 -0.1940461808
C  C27  1  0.98740000  0.37060000  0.76200000  1.0 -0.1940461808
C  C28  1  0.37060000  0.98740000  0.73800000  1.0 -0.1940461808
C  C29  1  0.11830000  0.75150000  0.21890000  1.0 0.109313052
C  C30  1  0.75150000  0.11830000  0.28110000  1.0 0.109313052
C  C31  1  0.88170000  0.24850000  0.78110000  1.0 0.109313052
C  C32  1  0.24850000  0.88170000  0.71890000  1.0 0.109313052
C  C33  1  0.15850000  0.78070000  0.15680000  1.0 -0.2371559554
C  C34  1  0.78070000  0.15850000  0.34320000  1.0 -0.2371559554
C  C35  1  0.84150000  0.21930000  0.84320000  1.0 -0.2371559554
C  C36  1  0.21930000  0.84150000  0.65680000  1.0 -0.2371559554
C  C37  1  0.07810000  0.70110000  0.10090000  1.0 0.0102906571
C  C38  1  0.70110000  0.07810000  0.39910000  1.0 0.0155707187
C  C39  1  0.92190000  0.29890000  0.89910000  1.0 0.0155707187
C  C40  1  0.29890000  0.92190000  0.60090000  1.0 0.0102906571
C  C41  1  0.63590000  0.34810000  0.49220000  1.0 -0.0586471931
C  C42  1  0.34810000  0.63590000  0.00780000  1.0 -0.0586471931
C  C43  1  0.36410000  0.65190000  0.50780000  1.0 -0.0586471931
C  C44  1  0.65190000  0.36410000  0.99220000  1.0 -0.0586471931
C  C45  1  0.61960000  0.45340000  0.49720000  1.0 -0.2205657513
C  C46  1  0.45340000  0.61960000  0.00280000  1.0 -0.2205657513
C  C47  1  0.38040000  0.54660000  0.50280000  1.0 -0.2205657513
C  C48  1  0.54660000  0.38040000  0.99720000  1.0 -0.2205657513
C  C49  1  0.51170000  0.44990000  0.48840000  1.0 0.0859967003
C  C50  1  0.44990000  0.51170000  0.01160000  1.0 0.0859967003
C  C51  1  0.48830000  0.55010000  0.51160000  1.0 0.0859967003
C  C52  1  0.55010000  0.48830000  0.98840000  1.0 0.0859967003
C  C53  1  0.42370000  0.34930000  0.47000000  1.0 -0.2531259322
C  C54  1  0.34930000  0.42370000  0.03000000  1.0 -0.2531259322
C  C55  1  0.57630000  0.65070000  0.53000000  1.0 -0.2531259322
C  C56  1  0.65070000  0.57630000  0.97000000  1.0 -0.2531259322
C  C57  1  0.43840000  0.25080000  0.45730000  1.0 0.0451536336
C  C58  1  0.25080000  0.43840000  0.04270000  1.0 0.0451536336
C  C59  1  0.56160000  0.74920000  0.54270000  1.0 0.0451536336
C  C60  1  0.74920000  0.56160000  0.95730000  1.0 0.0451536336
N  N1  1  0.27820000  0.92180000  0.39080000  1.0 0.2340526878
N  N2  1  0.92180000  0.27820000  0.10920000  1.0 0.2340526878
N  N3  1  0.72180000  0.07820000  0.60920000  1.0 0.2340526878
N  N4  1  0.07820000  0.72180000  0.89080000  1.0 0.2340526878
N  N5  1  0.99430000  0.60070000  0.12200000  1.0 0.264951039
N  N6  1  0.60070000  0.99430000  0.37800000  1.0 0.264951039
N  N7  1  0.00570000  0.39930000  0.87800000  1.0 0.264951039
N  N8  1  0.39930000  0.00570000  0.62200000  1.0 0.264951039
N  N9  1  0.54640000  0.26840000  0.46600000  1.0 0.2089533395
N  N10  1  0.26840000  0.54640000  0.03400000  1.0 0.2089533395
N  N11  1  0.45360000  0.73160000  0.53400000  1.0 0.2089533395
N  N12  1  0.73160000  0.45360000  0.96600000  1.0 0.2089533395
O  O1  1  0.32670000  0.98390000  0.44830000  1.0 -0.5182586723
O  O2  1  0.98390000  0.32670000  0.05170000  1.0 -0.5182586723
O  O3  1  0.67330000  0.01610000  0.55170000  1.0 -0.5182586723
O  O4  1  0.01610000  0.67330000  0.94830000  1.0 -0.5182586723
O  O5  1  0.92910000  0.52630000  0.07410000  1.0 -0.4945246094
O  O6  1  0.52630000  0.92910000  0.42590000  1.0 -0.4953015858
O  O7  1  0.07090000  0.47370000  0.92590000  1.0 -0.4953015858
O  O8  1  0.47370000  0.07090000  0.57410000  1.0 -0.4945246094
O  O9  1  0.57120000  0.17040000  0.45430000  1.0 -0.5467335993
O  O10  1  0.17040000  0.57120000  0.04570000  1.0 -0.5467335993
O  O11  1  0.42880000  0.82960000  0.54570000  1.0 -0.5467335993
O  O12  1  0.82960000  0.42880000  0.95430000  1.0 -0.5467335993
