# DDEC6 charges by PACMAN v1.1 (https://github.com/mtap-research/PACMAN-charge/)
data_WEJZIY_ASR_pacman
_symmetry_space_group_name_H-M   'P 1'
_cell_length_a   16.98080000
_cell_length_b   16.98080000
_cell_length_c   16.98080000
_cell_angle_alpha   106.06900000
_cell_angle_beta   106.06900000
_cell_angle_gamma   116.51400000
_symmetry_Int_Tables_number   1
_chemical_formula_structural   ZnNi2H10(C10O7)2
_chemical_formula_sum   'Zn4 Ni8 H40 C80 O56'
_cell_volume   3725.99758340
_cell_formula_units_Z   4
loop_
 _symmetry_equiv_pos_site_id
 _symmetry_equiv_pos_as_xyz
  1  'x, y, z'
loop_
 _atom_site_type_symbol
 _atom_site_label
 _atom_site_symmetry_multiplicity
 _atom_site_fract_x
 _atom_site_fract_y
 _atom_site_fract_z
 _atom_site_occupancy
 _atom_site_charge
Zn  Zn1  1  0.99002000  0.80358000  0.50000000  1.0 0.9739873517
Zn  Zn2  1  0.30358000  0.49002000  0.50000000  1.0 0.9739873517
Zn  Zn3  1  0.49002000  0.99002000  0.18644000  1.0 0.9739873517
Zn  Zn4  1  0.80358000  0.30358000  0.81356000  1.0 0.9739873517
Ni  Ni1  1  0.91081000  0.53442000  0.86247000  1.0 0.7648330438
Ni  Ni2  1  0.67195000  0.04834000  0.13753000  1.0 0.7648330438
Ni  Ni3  1  0.04834000  0.91081000  0.37639000  1.0 0.7648330438
Ni  Ni4  1  0.53442000  0.67195000  0.62361000  1.0 0.7653763402
Ni  Ni5  1  0.41081000  0.54834000  0.37639000  1.0 0.7648330438
Ni  Ni6  1  0.17195000  0.03442000  0.62361000  1.0 0.7648330438
Ni  Ni7  1  0.54834000  0.17195000  0.13753000  1.0 0.7648330438
Ni  Ni8  1  0.03442000  0.41081000  0.86247000  1.0 0.7648330438
H  H1  1  0.20420000  0.81360000  0.96620000  1.0 0.1379184495
H  H2  1  0.84740000  0.23800000  0.03380000  1.0 0.1379184495
H  H3  1  0.23800000  0.20420000  0.39060000  1.0 0.1379184495
H  H4  1  0.81360000  0.84740000  0.60940000  1.0 0.1379184495
H  H5  1  0.70420000  0.73800000  0.39060000  1.0 0.1379184495
H  H6  1  0.34740000  0.31360000  0.60940000  1.0 0.1379184495
H  H7  1  0.73800000  0.34740000  0.03380000  1.0 0.1379184495
H  H8  1  0.31360000  0.70420000  0.96620000  1.0 0.1379184495
H  H9  1  0.04300000  0.72980000  0.70000000  1.0 0.1295951712
H  H10  1  0.02980000  0.34300000  0.30000000  1.0 0.1295951712
H  H11  1  0.34300000  0.04300000  0.31320000  1.0 0.1295951712
H  H12  1  0.72980000  0.02980000  0.68680000  1.0 0.1295951712
H  H13  1  0.54300000  0.84300000  0.31320000  1.0 0.1295951712
H  H14  1  0.52980000  0.22980000  0.68680000  1.0 0.1295951712
H  H15  1  0.84300000  0.52980000  0.30000000  1.0 0.1295951712
H  H16  1  0.22980000  0.54300000  0.70000000  1.0 0.1295951712
H  H17  1  0.30630000  0.99310000  0.85700000  1.0 0.1379184495
H  H18  1  0.13610000  0.44930000  0.14300000  1.0 0.1379184495
H  H19  1  0.44930000  0.30630000  0.31320000  1.0 0.1379184495
H  H20  1  0.99310000  0.13610000  0.68680000  1.0 0.1379184495
H  H21  1  0.80630000  0.94930000  0.31320000  1.0 0.1379184495
H  H22  1  0.63610000  0.49310000  0.68680000  1.0 0.1379184495
H  H23  1  0.94930000  0.63610000  0.14300000  1.0 0.1379184495
H  H24  1  0.49310000  0.80630000  0.85700000  1.0 0.1379184495
H  H25  1  0.95210000  0.40010000  0.62240000  1.0 0.2979349899
H  H26  1  0.77770000  0.32970000  0.37760000  1.0 0.2979349899
H  H27  1  0.32970000  0.95210000  0.55200000  1.0 0.2979349899
H  H28  1  0.40010000  0.77770000  0.44800000  1.0 0.2979349899
H  H29  1  0.45210000  0.82970000  0.55200000  1.0 0.2979349899
H  H30  1  0.27770000  0.90010000  0.44800000  1.0 0.2979349899
H  H31  1  0.82970000  0.27770000  0.37760000  1.0 0.2979349899
H  H32  1  0.90010000  0.45210000  0.62240000  1.0 0.2979349899
H  H33  1  0.86460000  0.34420000  0.62160000  1.0 0.1635273578
H  H34  1  0.72260000  0.24300000  0.37840000  1.0 0.1635273578
H  H35  1  0.24300000  0.86460000  0.52040000  1.0 0.1635273578
H  H36  1  0.34420000  0.72260000  0.47960000  1.0 0.1635273578
H  H37  1  0.36460000  0.74300000  0.52040000  1.0 0.1635273578
H  H38  1  0.22260000  0.84420000  0.47960000  1.0 0.1635273578
H  H39  1  0.74300000  0.22260000  0.37840000  1.0 0.1635273578
H  H40  1  0.84420000  0.36460000  0.62160000  1.0 0.1635273578
C  C1  1  0.19640000  0.82640000  0.91580000  1.0 -0.0977803829
C  C2  1  0.91060000  0.28060000  0.08420000  1.0 -0.0977803829
C  C3  1  0.28060000  0.19640000  0.37000000  1.0 -0.0977803829
C  C4  1  0.82640000  0.91060000  0.63000000  1.0 -0.0977803829
C  C5  1  0.69640000  0.78060000  0.37000000  1.0 -0.0977803829
C  C6  1  0.41060000  0.32640000  0.63000000  1.0 -0.0977803829
C  C7  1  0.78060000  0.41060000  0.08420000  1.0 -0.0977803829
C  C8  1  0.32640000  0.69640000  0.91580000  1.0 -0.0977803829
C  C9  1  0.11060000  0.75780000  0.83240000  1.0 -0.0308320182
C  C10  1  0.92540000  0.27820000  0.16760000  1.0 -0.0308320182
C  C11  1  0.27820000  0.11060000  0.35280000  1.0 -0.0308320182
C  C12  1  0.75780000  0.92540000  0.64720000  1.0 -0.0308320182
C  C13  1  0.61060000  0.77820000  0.35280000  1.0 -0.0308320182
C  C14  1  0.42540000  0.25780000  0.64720000  1.0 -0.0308320182
C  C15  1  0.77820000  0.42540000  0.16760000  1.0 -0.0308320182
C  C16  1  0.25780000  0.61060000  0.83240000  1.0 -0.0308320182
C  C17  1  0.09970000  0.77630000  0.75660000  1.0 -0.0977803829
C  C18  1  0.01970000  0.34310000  0.24340000  1.0 -0.0977803829
C  C19  1  0.34310000  0.09970000  0.32340000  1.0 -0.0943926764
C  C20  1  0.77630000  0.01970000  0.67660000  1.0 -0.0977803829
C  C21  1  0.59970000  0.84310000  0.32340000  1.0 -0.0977803829
C  C22  1  0.51970000  0.27630000  0.67660000  1.0 -0.0977803829
C  C23  1  0.84310000  0.51970000  0.24340000  1.0 -0.0943926764
C  C24  1  0.27630000  0.59970000  0.75660000  1.0 -0.0977803829
C  C25  1  0.36450000  0.98700000  0.01590000  1.0 0.5859928685
C  C26  1  0.97110000  0.34860000  0.98410000  1.0 0.5859928685
C  C27  1  0.34860000  0.36450000  0.37750000  1.0 0.5859928685
C  C28  1  0.98700000  0.97110000  0.62250000  1.0 0.5859928685
C  C29  1  0.86450000  0.84860000  0.37750000  1.0 0.5859928685
C  C30  1  0.47110000  0.48700000  0.62250000  1.0 0.5859928685
C  C31  1  0.84860000  0.47110000  0.98410000  1.0 0.5859928685
C  C32  1  0.48700000  0.86450000  0.01590000  1.0 0.5859928685
C  C33  1  0.02690000  0.66560000  0.82270000  1.0 0.5469306219
C  C34  1  0.84290000  0.20420000  0.17730000  1.0 0.5469306219
C  C35  1  0.20420000  0.02690000  0.36130000  1.0 0.5469306219
C  C36  1  0.66560000  0.84290000  0.63870000  1.0 0.5469306219
C  C37  1  0.52690000  0.70420000  0.36130000  1.0 0.5469306219
C  C38  1  0.34290000  0.16560000  0.63870000  1.0 0.5469306219
C  C39  1  0.70420000  0.34290000  0.17730000  1.0 0.5469306219
C  C40  1  0.16560000  0.52690000  0.82270000  1.0 0.5469306219
C  C41  1  0.25770000  0.93300000  0.85030000  1.0 -0.0977803829
C  C42  1  0.08270000  0.40740000  0.14970000  1.0 -0.0977803829
C  C43  1  0.40740000  0.25770000  0.32470000  1.0 -0.0977803829
C  C44  1  0.93300000  0.08270000  0.67530000  1.0 -0.0977803829
C  C45  1  0.75770000  0.90740000  0.32470000  1.0 -0.0977803829
C  C46  1  0.58270000  0.43300000  0.67530000  1.0 -0.0977803829
C  C47  1  0.90740000  0.58270000  0.14970000  1.0 -0.0977803829
C  C48  1  0.43300000  0.75770000  0.85030000  1.0 -0.0977803829
C  C49  1  0.15480000  0.88770000  0.68510000  1.0 0.5859928685
C  C50  1  0.20260000  0.46970000  0.31490000  1.0 0.5859928685
C  C51  1  0.46970000  0.15480000  0.26710000  1.0 0.5859928685
C  C52  1  0.88770000  0.20260000  0.73290000  1.0 0.5859928685
C  C53  1  0.65480000  0.96970000  0.26710000  1.0 0.5859928685
C  C54  1  0.70260000  0.38770000  0.73290000  1.0 0.5859928685
C  C55  1  0.96970000  0.70260000  0.31490000  1.0 0.5859928685
C  C56  1  0.38770000  0.65480000  0.68510000  1.0 0.5859928685
C  C57  1  0.27090000  0.91430000  0.92500000  1.0 -0.0308320182
C  C58  1  0.98930000  0.34590000  0.07500000  1.0 -0.0308320182
C  C59  1  0.34590000  0.27090000  0.35660000  1.0 -0.0308320182
C  C60  1  0.91430000  0.98930000  0.64340000  1.0 -0.0308320182
C  C61  1  0.77090000  0.84590000  0.35660000  1.0 -0.0308320182
C  C62  1  0.48930000  0.41430000  0.64340000  1.0 -0.0308320182
C  C63  1  0.84590000  0.48930000  0.07500000  1.0 -0.0308320182
C  C64  1  0.41430000  0.77090000  0.92500000  1.0 -0.0308320182
C  C65  1  0.17400000  0.86490000  0.76570000  1.0 -0.0231712807
C  C66  1  0.09920000  0.40830000  0.23430000  1.0 -0.0231712807
C  C67  1  0.40830000  0.17400000  0.30910000  1.0 -0.0231712807
C  C68  1  0.86490000  0.09920000  0.69090000  1.0 -0.0231712807
C  C69  1  0.67400000  0.90830000  0.30910000  1.0 -0.0231712807
C  C70  1  0.59920000  0.36490000  0.69090000  1.0 -0.0231712807
C  C71  1  0.90830000  0.59920000  0.23430000  1.0 -0.0231712807
C  C72  1  0.36490000  0.67400000  0.76570000  1.0 -0.0231712807
C  C73  1  0.97030000  0.39880000  0.74090000  1.0 -0.0473688715
C  C74  1  0.65790000  0.22940000  0.25910000  1.0 -0.0473688715
C  C75  1  0.22940000  0.97030000  0.57150000  1.0 -0.0473688715
C  C76  1  0.39880000  0.65790000  0.42850000  1.0 -0.0473688715
C  C77  1  0.47030000  0.72940000  0.57150000  1.0 -0.0473688715
C  C78  1  0.15790000  0.89880000  0.42850000  1.0 -0.0473688715
C  C79  1  0.72940000  0.15790000  0.25910000  1.0 -0.0473688715
C  C80  1  0.89880000  0.47030000  0.74090000  1.0 -0.0473688715
O  O1  1  0.92242000  0.42242000  0.81884000  1.0 -0.5226752502
O  O2  1  0.60358000  0.10358000  0.18116000  1.0 -0.5226752502
O  O3  1  0.10358000  0.92242000  0.50000000  1.0 -0.5226752502
O  O4  1  0.42242000  0.60358000  0.50000000  1.0 -0.5226752502
O  O5  1  0.37212000  0.96840000  0.08172000  1.0 -0.5280502331
O  O6  1  0.88668000  0.29040000  0.91828000  1.0 -0.5280502331
O  O7  1  0.29040000  0.37212000  0.40372000  1.0 -0.5280502331
O  O8  1  0.96840000  0.88668000  0.59628000  1.0 -0.5280502331
O  O9  1  0.87212000  0.79040000  0.40372000  1.0 -0.5280502331
O  O10  1  0.38668000  0.46840000  0.59628000  1.0 -0.5280502331
O  O11  1  0.79040000  0.38668000  0.91828000  1.0 -0.5280502331
O  O12  1  0.46840000  0.87212000  0.08172000  1.0 -0.5280502331
O  O13  1  0.09716000  0.81564000  0.60600000  1.0 -0.5226752502
O  O14  1  0.20964000  0.49116000  0.39400000  1.0 -0.5226752502
O  O15  1  0.49116000  0.09716000  0.28152000  1.0 -0.5226752502
O  O16  1  0.81564000  0.20964000  0.71848000  1.0 -0.5226752502
O  O17  1  0.59716000  0.99116000  0.28152000  1.0 -0.5226752502
O  O18  1  0.70964000  0.31564000  0.71848000  1.0 -0.5226752502
O  O19  1  0.99116000  0.70964000  0.39400000  1.0 -0.5226752502
O  O20  1  0.31564000  0.59716000  0.60600000  1.0 -0.5226752502
O  O21  1  0.43037000  0.06411000  0.01846000  1.0 -0.4948502485
O  O22  1  0.04565000  0.41191000  0.98154000  1.0 -0.4948502485
O  O23  1  0.41191000  0.43037000  0.36626000  1.0 -0.4948502485
O  O24  1  0.06411000  0.04565000  0.63374000  1.0 -0.4948502485
O  O25  1  0.93037000  0.91191000  0.36626000  1.0 -0.4948502485
O  O26  1  0.54565000  0.56411000  0.63374000  1.0 -0.4948502485
O  O27  1  0.91191000  0.54565000  0.98154000  1.0 -0.4948502485
O  O28  1  0.56411000  0.93037000  0.01846000  1.0 -0.4948502485
O  O29  1  0.20350000  0.98030000  0.70700000  1.0 -0.5075159264
O  O30  1  0.27330000  0.49650000  0.29300000  1.0 -0.5075159264
O  O31  1  0.49650000  0.20350000  0.22320000  1.0 -0.5075159264
O  O32  1  0.98030000  0.27330000  0.77680000  1.0 -0.5075159264
O  O33  1  0.70350000  0.99650000  0.22320000  1.0 -0.5075159264
O  O34  1  0.77330000  0.48030000  0.77680000  1.0 -0.5075159264
O  O35  1  0.99650000  0.77330000  0.29300000  1.0 -0.5075159264
O  O36  1  0.48030000  0.70350000  0.70700000  1.0 -0.5075159264
O  O37  1  0.02530000  0.66130000  0.89520000  1.0 -0.4663629127
O  O38  1  0.76610000  0.13010000  0.10480000  1.0 -0.4663629127
O  O39  1  0.13010000  0.02530000  0.36400000  1.0 -0.4663629127
O  O40  1  0.66130000  0.76610000  0.63600000  1.0 -0.4663629127
O  O41  1  0.52530000  0.63010000  0.36400000  1.0 -0.4663629127
O  O42  1  0.26610000  0.16130000  0.63600000  1.0 -0.4663629127
O  O43  1  0.63010000  0.26610000  0.10480000  1.0 -0.4663629127
O  O44  1  0.16130000  0.52530000  0.89520000  1.0 -0.4663629127
O  O45  1  0.96320000  0.59600000  0.74340000  1.0 -0.459320825
O  O46  1  0.85260000  0.21980000  0.25660000  1.0 -0.459320825
O  O47  1  0.21980000  0.96320000  0.36720000  1.0 -0.459320825
O  O48  1  0.59600000  0.85260000  0.63280000  1.0 -0.459320825
O  O49  1  0.46320000  0.71980000  0.36720000  1.0 -0.459320825
O  O50  1  0.35260000  0.09600000  0.63280000  1.0 -0.459320825
O  O51  1  0.71980000  0.35260000  0.25660000  1.0 -0.459320825
O  O52  1  0.09600000  0.46320000  0.74340000  1.0 -0.459320825
O  O53  1  0.90870000  0.40870000  0.64240000  1.0 -0.345787954
O  O54  1  0.76630000  0.26630000  0.35760000  1.0 -0.345787954
O  O55  1  0.26630000  0.90870000  0.50000000  1.0 -0.345787954
O  O56  1  0.40870000  0.76630000  0.50000000  1.0 -0.345787954
