# DDEC6 charges by PACMAN v1.1 (https://github.com/mtap-research/PACMAN-charge/)
data_WEMJII_ASR_pacman
_symmetry_space_group_name_H-M   'P 1'
_cell_length_a   9.52760000
_cell_length_b   11.65700000
_cell_length_c   28.68200000
_cell_angle_alpha   90.00000000
_cell_angle_beta   90.00000000
_cell_angle_gamma   90.00000000
_symmetry_Int_Tables_number   1
_chemical_formula_structural   Ca2H21C21(NO2)6
_chemical_formula_sum   'Ca8 H84 C84 N24 O48'
_cell_volume   3185.51565464
_cell_formula_units_Z   4
loop_
 _symmetry_equiv_pos_site_id
 _symmetry_equiv_pos_as_xyz
  1  'x, y, z'
loop_
 _atom_site_type_symbol
 _atom_site_label
 _atom_site_symmetry_multiplicity
 _atom_site_fract_x
 _atom_site_fract_y
 _atom_site_fract_z
 _atom_site_occupancy
 _atom_site_charge
Ca  Ca1  1  0.65856000  0.18746000  0.46385000  1.0 1.3624281758
Ca  Ca2  1  0.84144000  0.68746000  0.53615000  1.0 1.3624281758
Ca  Ca3  1  0.34144000  0.81254000  0.96385000  1.0 1.3624281758
Ca  Ca4  1  0.15856000  0.31254000  0.03615000  1.0 1.3624281758
Ca  Ca5  1  0.34144000  0.81254000  0.53615000  1.0 1.3624281758
Ca  Ca6  1  0.15856000  0.31254000  0.46385000  1.0 1.3624281758
Ca  Ca7  1  0.65856000  0.18746000  0.03615000  1.0 1.3624281758
Ca  Ca8  1  0.84144000  0.68746000  0.96385000  1.0 1.3624281758
H  H1  1  0.50090000  0.05920000  0.63120000  1.0 0.1405559653
H  H2  1  0.99910000  0.55920000  0.36880000  1.0 0.1405559653
H  H3  1  0.49910000  0.94080000  0.13120000  1.0 0.1405559653
H  H4  1  0.00090000  0.44080000  0.86880000  1.0 0.1405559653
H  H5  1  0.49910000  0.94080000  0.36880000  1.0 0.1405559653
H  H6  1  0.00090000  0.44080000  0.63120000  1.0 0.1405559653
H  H7  1  0.50090000  0.05920000  0.86880000  1.0 0.1405559653
H  H8  1  0.99910000  0.55920000  0.13120000  1.0 0.1405559653
H  H9  1  0.36850000  0.08460000  0.59850000  1.0 0.1405559653
H  H10  1  0.13150000  0.58460000  0.40150000  1.0 0.1405559653
H  H11  1  0.63150000  0.91540000  0.09850000  1.0 0.1405559653
H  H12  1  0.86850000  0.41540000  0.90150000  1.0 0.1405559653
H  H13  1  0.63150000  0.91540000  0.40150000  1.0 0.1405559653
H  H14  1  0.86850000  0.41540000  0.59850000  1.0 0.1405559653
H  H15  1  0.36850000  0.08460000  0.90150000  1.0 0.1405559653
H  H16  1  0.13150000  0.58460000  0.09850000  1.0 0.1405559653
H  H17  1  0.35870000  0.28950000  0.56090000  1.0 0.1242140854
H  H18  1  0.14130000  0.78950000  0.43910000  1.0 0.1242140854
H  H19  1  0.64130000  0.71050000  0.06090000  1.0 0.1242140854
H  H20  1  0.85870000  0.21050000  0.93910000  1.0 0.1242140854
H  H21  1  0.64130000  0.71050000  0.43910000  1.0 0.1242140854
H  H22  1  0.85870000  0.21050000  0.56090000  1.0 0.1242140854
H  H23  1  0.35870000  0.28950000  0.93910000  1.0 0.1242140854
H  H24  1  0.14130000  0.78950000  0.06090000  1.0 0.1242140854
H  H25  1  0.65570000  0.23460000  0.65690000  1.0 0.1292862072
H  H26  1  0.84430000  0.73460000  0.34310000  1.0 0.1292862072
H  H27  1  0.34430000  0.76540000  0.15690000  1.0 0.1292862072
H  H28  1  0.15570000  0.26540000  0.84310000  1.0 0.1292862072
H  H29  1  0.34430000  0.76540000  0.34310000  1.0 0.1292862072
H  H30  1  0.15570000  0.26540000  0.65690000  1.0 0.1292862072
H  H31  1  0.65570000  0.23460000  0.84310000  1.0 0.1292862072
H  H32  1  0.84430000  0.73460000  0.15690000  1.0 0.1292862072
H  H33  1  0.64600000  0.44390000  0.64140000  1.0 0.1405559653
H  H34  1  0.85400000  0.94390000  0.35860000  1.0 0.1405559653
H  H35  1  0.35400000  0.55610000  0.14140000  1.0 0.1405559653
H  H36  1  0.14600000  0.05610000  0.85860000  1.0 0.1405559653
H  H37  1  0.35400000  0.55610000  0.35860000  1.0 0.1405559653
H  H38  1  0.14600000  0.05610000  0.64140000  1.0 0.1405559653
H  H39  1  0.64600000  0.44390000  0.85860000  1.0 0.1405559653
H  H40  1  0.85400000  0.94390000  0.14140000  1.0 0.1405559653
H  H41  1  0.36370000  0.49910000  0.55290000  1.0 0.1490470419
H  H42  1  0.13630000  0.99910000  0.44710000  1.0 0.1490470419
H  H43  1  0.63630000  0.50090000  0.05290000  1.0 0.1490470419
H  H44  1  0.86370000  0.00090000  0.94710000  1.0 0.1490470419
H  H45  1  0.63630000  0.50090000  0.44710000  1.0 0.1490470419
H  H46  1  0.86370000  0.00090000  0.55290000  1.0 0.1490470419
H  H47  1  0.36370000  0.49910000  0.94710000  1.0 0.1490470419
H  H48  1  0.13630000  0.99910000  0.05290000  1.0 0.1490470419
H  H49  1  0.40110000  0.55840000  0.60160000  1.0 0.1405559653
H  H50  1  0.09890000  0.05840000  0.39840000  1.0 0.1405559653
H  H51  1  0.59890000  0.44160000  0.10160000  1.0 0.1405559653
H  H52  1  0.90110000  0.94160000  0.89840000  1.0 0.1405559653
H  H53  1  0.59890000  0.44160000  0.39840000  1.0 0.1405559653
H  H54  1  0.90110000  0.94160000  0.60160000  1.0 0.1405559653
H  H55  1  0.40110000  0.55840000  0.89840000  1.0 0.1405559653
H  H56  1  0.09890000  0.05840000  0.10160000  1.0 0.1405559653
H  H57  1  0.97250000  0.29310000  0.35550000  1.0 0.1490470419
H  H58  1  0.52750000  0.79310000  0.64450000  1.0 0.1490470419
H  H59  1  0.02750000  0.70690000  0.85550000  1.0 0.1490470419
H  H60  1  0.47250000  0.20690000  0.14450000  1.0 0.1490470419
H  H61  1  0.02750000  0.70690000  0.64450000  1.0 0.1490470419
H  H62  1  0.47250000  0.20690000  0.35550000  1.0 0.1490470419
H  H63  1  0.97250000  0.29310000  0.14450000  1.0 0.1490470419
H  H64  1  0.52750000  0.79310000  0.85550000  1.0 0.1490470419
H  H65  1  0.85040000  0.37500000  0.33660000  1.0 0.1292862072
H  H66  1  0.64960000  0.87500000  0.66340000  1.0 0.1292862072
H  H67  1  0.14960000  0.62500000  0.83660000  1.0 0.1292862072
H  H68  1  0.35040000  0.12500000  0.16340000  1.0 0.1292862072
H  H69  1  0.14960000  0.62500000  0.66340000  1.0 0.1292862072
H  H70  1  0.35040000  0.12500000  0.33660000  1.0 0.1292862072
H  H71  1  0.85040000  0.37500000  0.16340000  1.0 0.1292862072
H  H72  1  0.64960000  0.87500000  0.83660000  1.0 0.1292862072
H  H73  1  0.82060000  0.38660000  0.25000000  1.0 0.1079813415
H  H74  1  0.67940000  0.88660000  0.75000000  1.0 0.1079813415
H  H75  1  0.17940000  0.61340000  0.75000000  1.0 0.1079813415
H  H76  1  0.32060000  0.11340000  0.25000000  1.0 0.1079813415
H  H77  1  0.05720000  0.12480000  0.29320000  1.0 0.1292862072
H  H78  1  0.44280000  0.62480000  0.70680000  1.0 0.1292862072
H  H79  1  0.94280000  0.87520000  0.79320000  1.0 0.1292862072
H  H80  1  0.55720000  0.37520000  0.20680000  1.0 0.1292862072
H  H81  1  0.94280000  0.87520000  0.70680000  1.0 0.1292862072
H  H82  1  0.55720000  0.37520000  0.29320000  1.0 0.1292862072
H  H83  1  0.05720000  0.12480000  0.20680000  1.0 0.1292862072
H  H84  1  0.44280000  0.62480000  0.79320000  1.0 0.1292862072
C  C1  1  0.54840000  0.04660000  0.56080000  1.0 0.6452643746
C  C2  1  0.95160000  0.54660000  0.43920000  1.0 0.6452643746
C  C3  1  0.45160000  0.95340000  0.06080000  1.0 0.6452643746
C  C4  1  0.04840000  0.45340000  0.93920000  1.0 0.6452643746
C  C5  1  0.45160000  0.95340000  0.43920000  1.0 0.6452643746
C  C6  1  0.04840000  0.45340000  0.56080000  1.0 0.6452643746
C  C7  1  0.54840000  0.04660000  0.93920000  1.0 0.6452643746
C  C8  1  0.95160000  0.54660000  0.06080000  1.0 0.6452643746
C  C9  1  0.47040000  0.09840000  0.60240000  1.0 -0.2920961505
C  C10  1  0.02960000  0.59840000  0.39760000  1.0 -0.2920961505
C  C11  1  0.52960000  0.90160000  0.10240000  1.0 -0.2920961505
C  C12  1  0.97040000  0.40160000  0.89760000  1.0 -0.2920961505
C  C13  1  0.52960000  0.90160000  0.39760000  1.0 -0.2920961505
C  C14  1  0.97040000  0.40160000  0.60240000  1.0 -0.2920961505
C  C15  1  0.47040000  0.09840000  0.89760000  1.0 -0.2920961505
C  C16  1  0.02960000  0.59840000  0.10240000  1.0 -0.2920961505
C  C17  1  0.43170000  0.30210000  0.58290000  1.0 0.0450529033
C  C18  1  0.06830000  0.80210000  0.41710000  1.0 0.044562603
C  C19  1  0.56830000  0.69790000  0.08290000  1.0 0.0450529033
C  C20  1  0.93170000  0.19790000  0.91710000  1.0 0.0450529033
C  C21  1  0.56830000  0.69790000  0.41710000  1.0 0.0450529033
C  C22  1  0.93170000  0.19790000  0.58290000  1.0 0.0450529033
C  C23  1  0.43170000  0.30210000  0.91710000  1.0 0.0450529033
C  C24  1  0.06830000  0.80210000  0.08290000  1.0 0.044562603
C  C25  1  0.59500000  0.27250000  0.63570000  1.0 -0.1260661124
C  C26  1  0.90500000  0.77250000  0.36430000  1.0 -0.1260661124
C  C27  1  0.40500000  0.72750000  0.13570000  1.0 -0.1260661124
C  C28  1  0.09500000  0.22750000  0.86430000  1.0 -0.1260661124
C  C29  1  0.40500000  0.72750000  0.36430000  1.0 -0.1260661124
C  C30  1  0.09500000  0.22750000  0.63570000  1.0 -0.1260661124
C  C31  1  0.59500000  0.27250000  0.86430000  1.0 -0.1260661124
C  C32  1  0.90500000  0.77250000  0.13570000  1.0 -0.1260661124
C  C33  1  0.58970000  0.38640000  0.62720000  1.0 -0.0906829512
C  C34  1  0.91030000  0.88640000  0.37280000  1.0 -0.0906829512
C  C35  1  0.41030000  0.61360000  0.12720000  1.0 -0.0906829512
C  C36  1  0.08970000  0.11360000  0.87280000  1.0 -0.0906829512
C  C37  1  0.41030000  0.61360000  0.37280000  1.0 -0.0906829512
C  C38  1  0.08970000  0.11360000  0.62720000  1.0 -0.0906829512
C  C39  1  0.58970000  0.38640000  0.87280000  1.0 -0.0906829512
C  C40  1  0.91030000  0.88640000  0.12720000  1.0 -0.0906829512
C  C41  1  0.44010000  0.51230000  0.57570000  1.0 -0.2801575487
C  C42  1  0.05990000  0.01230000  0.42430000  1.0 -0.2801575487
C  C43  1  0.55990000  0.48770000  0.07570000  1.0 -0.2801575487
C  C44  1  0.94010000  0.98770000  0.92430000  1.0 -0.2801575487
C  C45  1  0.55990000  0.48770000  0.42430000  1.0 -0.2801575487
C  C46  1  0.94010000  0.98770000  0.57570000  1.0 -0.2801575487
C  C47  1  0.44010000  0.51230000  0.92430000  1.0 -0.2801575487
C  C48  1  0.05990000  0.01230000  0.07570000  1.0 -0.2801575487
C  C49  1  0.55680000  0.58060000  0.55210000  1.0 0.6226604158
C  C50  1  0.94320000  0.08060000  0.44790000  1.0 0.6226604158
C  C51  1  0.44320000  0.41940000  0.05210000  1.0 0.6226604158
C  C52  1  0.05680000  0.91940000  0.94790000  1.0 0.6226604158
C  C53  1  0.44320000  0.41940000  0.44790000  1.0 0.6226604158
C  C54  1  0.05680000  0.91940000  0.55210000  1.0 0.6226604158
C  C55  1  0.55680000  0.58060000  0.94790000  1.0 0.6226604158
C  C56  1  0.94320000  0.08060000  0.05210000  1.0 0.6226604158
C  C57  1  0.77790000  0.21390000  0.35520000  1.0 0.6136613065
C  C58  1  0.72210000  0.71390000  0.64480000  1.0 0.6136613065
C  C59  1  0.22210000  0.78610000  0.85520000  1.0 0.6136613065
C  C60  1  0.27790000  0.28610000  0.14480000  1.0 0.6136613065
C  C61  1  0.22210000  0.78610000  0.64480000  1.0 0.6136613065
C  C62  1  0.27790000  0.28610000  0.35520000  1.0 0.6136613065
C  C63  1  0.77790000  0.21390000  0.14480000  1.0 0.6136613065
C  C64  1  0.72210000  0.71390000  0.85520000  1.0 0.6136613065
C  C65  1  0.88770000  0.29580000  0.33570000  1.0 -0.2920961505
C  C66  1  0.61230000  0.79580000  0.66430000  1.0 -0.2920961505
C  C67  1  0.11230000  0.70420000  0.83570000  1.0 -0.2920961505
C  C68  1  0.38770000  0.20420000  0.16430000  1.0 -0.2920961505
C  C69  1  0.11230000  0.70420000  0.66430000  1.0 -0.2920961505
C  C70  1  0.38770000  0.20420000  0.33570000  1.0 -0.2920961505
C  C71  1  0.88770000  0.29580000  0.16430000  1.0 -0.2920961505
C  C72  1  0.61230000  0.79580000  0.83570000  1.0 -0.2920961505
C  C73  1  0.87910000  0.32060000  0.25000000  1.0 0.0280261772
C  C74  1  0.62090000  0.82060000  0.75000000  1.0 0.0280261772
C  C75  1  0.12090000  0.67940000  0.75000000  1.0 0.0280261772
C  C76  1  0.37910000  0.17940000  0.25000000  1.0 0.0280261772
C  C77  1  0.00920000  0.17710000  0.27340000  1.0 -0.0906829512
C  C78  1  0.49080000  0.67710000  0.72660000  1.0 -0.0906829512
C  C79  1  0.99080000  0.82290000  0.77340000  1.0 -0.0906829512
C  C80  1  0.50920000  0.32290000  0.22660000  1.0 -0.0906829512
C  C81  1  0.99080000  0.82290000  0.72660000  1.0 -0.0906829512
C  C82  1  0.50920000  0.32290000  0.27340000  1.0 -0.0906829512
C  C83  1  0.00920000  0.17710000  0.22660000  1.0 -0.0906829512
C  C84  1  0.49080000  0.67710000  0.77340000  1.0 -0.0906829512
N  N1  1  0.48630000  0.40350000  0.59366000  1.0 0.0810045252
N  N2  1  0.01370000  0.90350000  0.40634000  1.0 0.0810045252
N  N3  1  0.51370000  0.59650000  0.09366000  1.0 0.0810045252
N  N4  1  0.98630000  0.09650000  0.90634000  1.0 0.0810045252
N  N5  1  0.51370000  0.59650000  0.40634000  1.0 0.0810045252
N  N6  1  0.98630000  0.09650000  0.59366000  1.0 0.0810045252
N  N7  1  0.48630000  0.40350000  0.90634000  1.0 0.0810045252
N  N8  1  0.01370000  0.90350000  0.09366000  1.0 0.0810045252
N  N9  1  0.49470000  0.22180000  0.60733000  1.0 0.0596164899
N  N10  1  0.00530000  0.72180000  0.39267000  1.0 0.0596164899
N  N11  1  0.50530000  0.77820000  0.10733000  1.0 0.0596164899
N  N12  1  0.99470000  0.27820000  0.89267000  1.0 0.0596164899
N  N13  1  0.50530000  0.77820000  0.39267000  1.0 0.0596164899
N  N14  1  0.99470000  0.27820000  0.60733000  1.0 0.0596164899
N  N15  1  0.49470000  0.22180000  0.89267000  1.0 0.0596164899
N  N16  1  0.00530000  0.72180000  0.10733000  1.0 0.0596164899
N  N17  1  0.92670000  0.26700000  0.28720000  1.0 0.0810045252
N  N18  1  0.57330000  0.76700000  0.71280000  1.0 0.0810045252
N  N19  1  0.07330000  0.73300000  0.78720000  1.0 0.0810045252
N  N20  1  0.42670000  0.23300000  0.21280000  1.0 0.0810045252
N  N21  1  0.07330000  0.73300000  0.71280000  1.0 0.0810045252
N  N22  1  0.42670000  0.23300000  0.28720000  1.0 0.0810045252
N  N23  1  0.92670000  0.26700000  0.21280000  1.0 0.0810045252
N  N24  1  0.57330000  0.76700000  0.78720000  1.0 0.0810045252
O  O1  1  0.63090000  0.10970000  0.53857000  1.0 -0.6503801172
O  O2  1  0.86910000  0.60970000  0.46143000  1.0 -0.6503801172
O  O3  1  0.36910000  0.89030000  0.03857000  1.0 -0.6503801172
O  O4  1  0.13090000  0.39030000  0.96143000  1.0 -0.6503801172
O  O5  1  0.36910000  0.89030000  0.46143000  1.0 -0.6503801172
O  O6  1  0.13090000  0.39030000  0.53857000  1.0 -0.6503801172
O  O7  1  0.63090000  0.10970000  0.96143000  1.0 -0.6503801172
O  O8  1  0.86910000  0.60970000  0.03857000  1.0 -0.6503801172
O  O9  1  0.52230000  0.94310000  0.55289000  1.0 -0.6154263741
O  O10  1  0.97770000  0.44310000  0.44711000  1.0 -0.6138656009
O  O11  1  0.47770000  0.05690000  0.05289000  1.0 -0.6138656009
O  O12  1  0.02230000  0.55690000  0.94711000  1.0 -0.6138656009
O  O13  1  0.47770000  0.05690000  0.44711000  1.0 -0.6138656009
O  O14  1  0.02230000  0.55690000  0.55289000  1.0 -0.6138656009
O  O15  1  0.52230000  0.94310000  0.94711000  1.0 -0.6154263741
O  O16  1  0.97770000  0.44310000  0.05289000  1.0 -0.6138656009
O  O17  1  0.52520000  0.67940000  0.53815000  1.0 -0.6661391979
O  O18  1  0.97480000  0.17940000  0.46185000  1.0 -0.6661391979
O  O19  1  0.47480000  0.32060000  0.03815000  1.0 -0.6661391979
O  O20  1  0.02520000  0.82060000  0.96185000  1.0 -0.6661391979
O  O21  1  0.47480000  0.32060000  0.46185000  1.0 -0.6661391979
O  O22  1  0.02520000  0.82060000  0.53815000  1.0 -0.6661391979
O  O23  1  0.52520000  0.67940000  0.96185000  1.0 -0.6661391979
O  O24  1  0.97480000  0.17940000  0.03815000  1.0 -0.6661391979
O  O25  1  0.67460000  0.53510000  0.54693000  1.0 -0.6138656009
O  O26  1  0.82540000  0.03510000  0.45307000  1.0 -0.6138656009
O  O27  1  0.32540000  0.46490000  0.04693000  1.0 -0.6138656009
O  O28  1  0.17460000  0.96490000  0.95307000  1.0 -0.6138656009
O  O29  1  0.32540000  0.46490000  0.45307000  1.0 -0.6138656009
O  O30  1  0.17460000  0.96490000  0.54693000  1.0 -0.6138656009
O  O31  1  0.67460000  0.53510000  0.95307000  1.0 -0.6138656009
O  O32  1  0.82540000  0.03510000  0.04693000  1.0 -0.6138656009
O  O33  1  0.72000000  0.24900000  0.39171000  1.0 -0.6634956723
O  O34  1  0.78000000  0.74900000  0.60829000  1.0 -0.6634956723
O  O35  1  0.28000000  0.75100000  0.89171000  1.0 -0.6634956723
O  O36  1  0.22000000  0.25100000  0.10829000  1.0 -0.6634956723
O  O37  1  0.28000000  0.75100000  0.60829000  1.0 -0.6634956723
O  O38  1  0.22000000  0.25100000  0.39171000  1.0 -0.6634956723
O  O39  1  0.72000000  0.24900000  0.10829000  1.0 -0.6634956723
O  O40  1  0.78000000  0.74900000  0.89171000  1.0 -0.6634956723
O  O41  1  0.75290000  0.12330000  0.33495000  1.0 -0.5710463053
O  O42  1  0.74710000  0.62330000  0.66505000  1.0 -0.5710463053
O  O43  1  0.24710000  0.87670000  0.83495000  1.0 -0.5710463053
O  O44  1  0.25290000  0.37670000  0.16505000  1.0 -0.5710463053
O  O45  1  0.24710000  0.87670000  0.66505000  1.0 -0.5710463053
O  O46  1  0.25290000  0.37670000  0.33495000  1.0 -0.5710463053
O  O47  1  0.75290000  0.12330000  0.16505000  1.0 -0.5710463053
O  O48  1  0.74710000  0.62330000  0.83495000  1.0 -0.5710463053
