# DDEC6 charges by PACMAN v1.1 (https://github.com/mtap-research/PACMAN-charge/)
data_WEMYEU_ion_pacman
_symmetry_space_group_name_H-M   'P 1'
_cell_length_a   11.20730000
_cell_length_b   28.64670000
_cell_length_c   21.99600000
_cell_angle_alpha   90.00000000
_cell_angle_beta   117.76400000
_cell_angle_gamma   90.00000000
_symmetry_Int_Tables_number   1
_chemical_formula_structural   Cu3H64C68N8ClO15
_chemical_formula_sum   'Cu12 H256 C272 N32 Cl4 O60'
_cell_volume   6248.85812327
_cell_formula_units_Z   4
loop_
 _symmetry_equiv_pos_site_id
 _symmetry_equiv_pos_as_xyz
  1  'x, y, z'
loop_
 _atom_site_type_symbol
 _atom_site_label
 _atom_site_symmetry_multiplicity
 _atom_site_fract_x
 _atom_site_fract_y
 _atom_site_fract_z
 _atom_site_occupancy
 _atom_site_charge
Cu  Cu1  1  0.50284000  0.74868000  0.70090000  1.0 0.7377743654
Cu  Cu2  1  0.49716000  0.24868000  0.79910000  1.0 0.7377743654
Cu  Cu3  1  0.49716000  0.25132000  0.29910000  1.0 0.7377743654
Cu  Cu4  1  0.50284000  0.75132000  0.20090000  1.0 0.7377743654
Cu  Cu5  1  0.49436000  0.63262000  0.71978000  1.0 0.6810459725
Cu  Cu6  1  0.50564000  0.13262000  0.78022000  1.0 0.6810459725
Cu  Cu7  1  0.50564000  0.36738000  0.28022000  1.0 0.6810459725
Cu  Cu8  1  0.49436000  0.86738000  0.21978000  1.0 0.6810459725
Cu  Cu9  1  0.00000000  0.00000000  0.00000000  1.0 0.8005420796
Cu  Cu10  1  0.00000000  0.50000000  0.50000000  1.0 0.8005420796
Cu  Cu11  1  0.00000000  0.00000000  0.50000000  1.0 0.805797898
Cu  Cu12  1  0.00000000  0.50000000  0.00000000  1.0 0.805797898
H  H1  1  0.79660000  0.06900000  0.96650000  1.0 0.3471309773
H  H2  1  0.20340000  0.56900000  0.53350000  1.0 0.3471309773
H  H3  1  0.20340000  0.93100000  0.03350000  1.0 0.3471309773
H  H4  1  0.79660000  0.43100000  0.46650000  1.0 0.3471309773
H  H5  1  0.71680000  0.02940000  0.95590000  1.0 0.3070013418
H  H6  1  0.28320000  0.52940000  0.54410000  1.0 0.3070013418
H  H7  1  0.28320000  0.97060000  0.04410000  1.0 0.3070013418
H  H8  1  0.71680000  0.47060000  0.45590000  1.0 0.3070013418
H  H9  1  0.68960000  0.90080000  0.97420000  1.0 0.1191294057
H  H10  1  0.31040000  0.40080000  0.52580000  1.0 0.1191294057
H  H11  1  0.31040000  0.09920000  0.02580000  1.0 0.1191294057
H  H12  1  0.68960000  0.59920000  0.47420000  1.0 0.1191294057
H  H13  1  0.60330000  0.76400000  0.94710000  1.0 0.1384153551
H  H14  1  0.39670000  0.26400000  0.55290000  1.0 0.1384153551
H  H15  1  0.39670000  0.23600000  0.05290000  1.0 0.1384153551
H  H16  1  0.60330000  0.73600000  0.44710000  1.0 0.1384153551
H  H17  1  0.94590000  0.80940000  0.95760000  1.0 0.1491926468
H  H18  1  0.05410000  0.30940000  0.54240000  1.0 0.1491926468
H  H19  1  0.05410000  0.19060000  0.04240000  1.0 0.1491926468
H  H20  1  0.94590000  0.69060000  0.45760000  1.0 0.1491926468
H  H21  1  0.42060000  0.84570000  0.91590000  1.0 0.1384153551
H  H22  1  0.57940000  0.34570000  0.58410000  1.0 0.1384153551
H  H23  1  0.57940000  0.15430000  0.08410000  1.0 0.1384153551
H  H24  1  0.42060000  0.65430000  0.41590000  1.0 0.1384153551
H  H25  1  0.47290000  0.81960000  0.98640000  1.0 0.1491926468
H  H26  1  0.52710000  0.31960000  0.51360000  1.0 0.1491926468
H  H27  1  0.52710000  0.18040000  0.01360000  1.0 0.1491926468
H  H28  1  0.47290000  0.68040000  0.48640000  1.0 0.1491926468
H  H29  1  0.49890000  0.87320000  0.98500000  1.0 0.1191294057
H  H30  1  0.50110000  0.37320000  0.51500000  1.0 0.1191294057
H  H31  1  0.50110000  0.12680000  0.01500000  1.0 0.1191294057
H  H32  1  0.49890000  0.62680000  0.48500000  1.0 0.1191294057
H  H33  1  0.78090000  0.66850000  0.93810000  1.0 0.1191294057
H  H34  1  0.21910000  0.16850000  0.56190000  1.0 0.1191294057
H  H35  1  0.21910000  0.33150000  0.06190000  1.0 0.1191294057
H  H36  1  0.78090000  0.83150000  0.43810000  1.0 0.1191294057
H  H37  1  0.67730000  0.69970000  0.94910000  1.0 0.1191294057
H  H38  1  0.32270000  0.19970000  0.55090000  1.0 0.1191294057
H  H39  1  0.32270000  0.30030000  0.05090000  1.0 0.1191294057
H  H40  1  0.67730000  0.80030000  0.44910000  1.0 0.1191294057
H  H41  1  0.35870000  0.15310000  0.43900000  1.0 0.1101713814
H  H42  1  0.64130000  0.65310000  0.06100000  1.0 0.1101713814
H  H43  1  0.64130000  0.84690000  0.56100000  1.0 0.1101713814
H  H44  1  0.35870000  0.34690000  0.93900000  1.0 0.1101713814
H  H45  1  0.37080000  0.10440000  0.40980000  1.0 0.079896501
H  H46  1  0.62920000  0.60440000  0.09020000  1.0 0.079896501
H  H47  1  0.62920000  0.89560000  0.59020000  1.0 0.079896501
H  H48  1  0.37080000  0.39560000  0.90980000  1.0 0.079896501
H  H49  1  0.33820000  0.10710000  0.47170000  1.0 0.0874016174
H  H50  1  0.66180000  0.60710000  0.02830000  1.0 0.0874016174
H  H51  1  0.66180000  0.89290000  0.52830000  1.0 0.0874016174
H  H52  1  0.33820000  0.39290000  0.97170000  1.0 0.0874016174
H  H53  1  0.11470000  0.13040000  0.45310000  1.0 0.079896501
H  H54  1  0.88530000  0.63040000  0.04690000  1.0 0.079896501
H  H55  1  0.88530000  0.86960000  0.54690000  1.0 0.079896501
H  H56  1  0.11470000  0.36960000  0.95310000  1.0 0.079896501
H  H57  1  0.80240000  0.13150000  0.26260000  1.0 0.0874016174
H  H58  1  0.19760000  0.63150000  0.23740000  1.0 0.0874016174
H  H59  1  0.19760000  0.86850000  0.73740000  1.0 0.0874016174
H  H60  1  0.80240000  0.36850000  0.76260000  1.0 0.0874016174
H  H61  1  0.18020000  0.11650000  0.28920000  1.0 0.0874016174
H  H62  1  0.81980000  0.61650000  0.21080000  1.0 0.0874016174
H  H63  1  0.81980000  0.88350000  0.71080000  1.0 0.0874016174
H  H64  1  0.18020000  0.38350000  0.78920000  1.0 0.0874016174
H  H65  1  0.83880000  0.15520000  0.46800000  1.0 0.1384153551
H  H66  1  0.16120000  0.65520000  0.03200000  1.0 0.1384153551
H  H67  1  0.16120000  0.84480000  0.53200000  1.0 0.1384153551
H  H68  1  0.83880000  0.34480000  0.96800000  1.0 0.1384153551
H  H69  1  0.97670000  0.16820000  0.47040000  1.0 0.1101713814
H  H70  1  0.02330000  0.66820000  0.02960000  1.0 0.1101713814
H  H71  1  0.02330000  0.83180000  0.52960000  1.0 0.1101713814
H  H72  1  0.97670000  0.33180000  0.97040000  1.0 0.1101713814
H  H73  1  0.18320000  0.01970000  0.94300000  1.0 0.0988652709
H  H74  1  0.81680000  0.51970000  0.55700000  1.0 0.0988652709
H  H75  1  0.81680000  0.98030000  0.05700000  1.0 0.0988652709
H  H76  1  0.18320000  0.48030000  0.44300000  1.0 0.0988652709
H  H77  1  0.18620000  0.01880000  0.84000000  1.0 0.1283857871
H  H78  1  0.81380000  0.51880000  0.66000000  1.0 0.1283857871
H  H79  1  0.81380000  0.98120000  0.16000000  1.0 0.1283857871
H  H80  1  0.18620000  0.48120000  0.34000000  1.0 0.1283857871
H  H81  1  0.79410000  0.98570000  0.74670000  1.0 0.1191294057
H  H82  1  0.20590000  0.48570000  0.75330000  1.0 0.1191294057
H  H83  1  0.20590000  0.01430000  0.25330000  1.0 0.1191294057
H  H84  1  0.79410000  0.51430000  0.24670000  1.0 0.1191294057
H  H85  1  0.80120000  0.98470000  0.85290000  1.0 0.1101713814
H  H86  1  0.19880000  0.48470000  0.64710000  1.0 0.1101713814
H  H87  1  0.19880000  0.01530000  0.14710000  1.0 0.1101713814
H  H88  1  0.80120000  0.51530000  0.35290000  1.0 0.1101713814
H  H89  1  0.18580000  0.98210000  0.64590000  1.0 0.1101713814
H  H90  1  0.81420000  0.48210000  0.85410000  1.0 0.1101713814
H  H91  1  0.81420000  0.01790000  0.35410000  1.0 0.1101713814
H  H92  1  0.18580000  0.51790000  0.14590000  1.0 0.1101713814
H  H93  1  0.18180000  0.97880000  0.74930000  1.0 0.1191294057
H  H94  1  0.81820000  0.47880000  0.75070000  1.0 0.1191294057
H  H95  1  0.81820000  0.02120000  0.25070000  1.0 0.1191294057
H  H96  1  0.18180000  0.52120000  0.24930000  1.0 0.1191294057
H  H97  1  0.80270000  0.02830000  0.65520000  1.0 0.1283857871
H  H98  1  0.19730000  0.52830000  0.84480000  1.0 0.1283857871
H  H99  1  0.19730000  0.97170000  0.34480000  1.0 0.1283857871
H  H100  1  0.80270000  0.47170000  0.15520000  1.0 0.1283857871
H  H101  1  0.81850000  0.03030000  0.55420000  1.0 0.1101713814
H  H102  1  0.18150000  0.53030000  0.94580000  1.0 0.1101713814
H  H103  1  0.18150000  0.96970000  0.44580000  1.0 0.1101713814
H  H104  1  0.81850000  0.46970000  0.05420000  1.0 0.1101713814
H  H105  1  0.62970000  0.81910000  0.81490000  1.0 0.1101713814
H  H106  1  0.37030000  0.31910000  0.68510000  1.0 0.1101713814
H  H107  1  0.37030000  0.18090000  0.18510000  1.0 0.1101713814
H  H108  1  0.62970000  0.68090000  0.31490000  1.0 0.1101713814
H  H109  1  0.63070000  0.89980000  0.83220000  1.0 0.1283857871
H  H110  1  0.36930000  0.39980000  0.66780000  1.0 0.1283857871
H  H111  1  0.36930000  0.10020000  0.16780000  1.0 0.1283857871
H  H112  1  0.63070000  0.60020000  0.33220000  1.0 0.1283857871
H  H113  1  0.40060000  0.91410000  0.62770000  1.0 0.1384153551
H  H114  1  0.59940000  0.41410000  0.87230000  1.0 0.1384153551
H  H115  1  0.59940000  0.08590000  0.37230000  1.0 0.1384153551
H  H116  1  0.40060000  0.58590000  0.12770000  1.0 0.1384153551
H  H117  1  0.41140000  0.83340000  0.61730000  1.0 0.1101713814
H  H118  1  0.58860000  0.33340000  0.88270000  1.0 0.1101713814
H  H119  1  0.58860000  0.16660000  0.38270000  1.0 0.1101713814
H  H120  1  0.41140000  0.66666667  0.11730000  1.0 0.1101713814
H  H121  1  0.49210000  0.06640000  0.67050000  1.0 0.1101713814
H  H122  1  0.50790000  0.56640000  0.82950000  1.0 0.1101713814
H  H123  1  0.50790000  0.93360000  0.32950000  1.0 0.1101713814
H  H124  1  0.49210000  0.43360000  0.17050000  1.0 0.1101713814
H  H125  1  0.49780000  0.98810000  0.65230000  1.0 0.1384153551
H  H126  1  0.50220000  0.48810000  0.84770000  1.0 0.1384153551
H  H127  1  0.50220000  0.01190000  0.34770000  1.0 0.1384153551
H  H128  1  0.49780000  0.51190000  0.15230000  1.0 0.1384153551
H  H129  1  0.50440000  0.96400000  0.83210000  1.0 0.1384153551
H  H130  1  0.49560000  0.46400000  0.66790000  1.0 0.1384153551
H  H131  1  0.49560000  0.03600000  0.16790000  1.0 0.1384153551
H  H132  1  0.50440000  0.53600000  0.33210000  1.0 0.1384153551
H  H133  1  0.49280000  0.04400000  0.84550000  1.0 0.0988652709
H  H134  1  0.50720000  0.54400000  0.65450000  1.0 0.0988652709
H  H135  1  0.50720000  0.95600000  0.15450000  1.0 0.0988652709
H  H136  1  0.49280000  0.45600000  0.34550000  1.0 0.0988652709
H  H137  1  0.79920000  0.74390000  0.79580000  1.0 0.1101713814
H  H138  1  0.20080000  0.24390000  0.70420000  1.0 0.1101713814
H  H139  1  0.20080000  0.25610000  0.20420000  1.0 0.1101713814
H  H140  1  0.79920000  0.75610000  0.29580000  1.0 0.1101713814
H  H141  1  0.00120000  0.74480000  0.79590000  1.0 0.1384153551
H  H142  1  0.99880000  0.24480000  0.70410000  1.0 0.1384153551
H  H143  1  0.99880000  0.25520000  0.20410000  1.0 0.1384153551
H  H144  1  0.00120000  0.75520000  0.29590000  1.0 0.1384153551
H  H145  1  0.80750000  0.76020000  0.59140000  1.0 0.1283857871
H  H146  1  0.19250000  0.26020000  0.90860000  1.0 0.1283857871
H  H147  1  0.19250000  0.23980000  0.40860000  1.0 0.1283857871
H  H148  1  0.80750000  0.73980000  0.09140000  1.0 0.1283857871
H  H149  1  0.60680000  0.75560000  0.59750000  1.0 0.1101713814
H  H150  1  0.39320000  0.25560000  0.90250000  1.0 0.1101713814
H  H151  1  0.39320000  0.24440000  0.40250000  1.0 0.1101713814
H  H152  1  0.60680000  0.74440000  0.09750000  1.0 0.1101713814
H  H153  1  0.38420000  0.76640000  0.79570000  1.0 0.1191294057
H  H154  1  0.61580000  0.26640000  0.70430000  1.0 0.1191294057
H  H155  1  0.61580000  0.23360000  0.20430000  1.0 0.1191294057
H  H156  1  0.38420000  0.73360000  0.29570000  1.0 0.1191294057
H  H157  1  0.18000000  0.76730000  0.79400000  1.0 0.1283857871
H  H158  1  0.82000000  0.26730000  0.70600000  1.0 0.1283857871
H  H159  1  0.82000000  0.23270000  0.20600000  1.0 0.1283857871
H  H160  1  0.18000000  0.73270000  0.29400000  1.0 0.1283857871
H  H161  1  0.99890000  0.74030000  0.59350000  1.0 0.1283857871
H  H162  1  0.00110000  0.24030000  0.90650000  1.0 0.1283857871
H  H163  1  0.00110000  0.25970000  0.40650000  1.0 0.1283857871
H  H164  1  0.99890000  0.75970000  0.09350000  1.0 0.1283857871
H  H165  1  0.20460000  0.74270000  0.59560000  1.0 0.1191294057
H  H166  1  0.79540000  0.24270000  0.90440000  1.0 0.1191294057
H  H167  1  0.79540000  0.25730000  0.40440000  1.0 0.1191294057
H  H168  1  0.20460000  0.75730000  0.09560000  1.0 0.1191294057
H  H169  1  0.78440000  0.61400000  0.81690000  1.0 0.1191294057
H  H170  1  0.21560000  0.11400000  0.68310000  1.0 0.1191294057
H  H171  1  0.21560000  0.38600000  0.18310000  1.0 0.1191294057
H  H172  1  0.78440000  0.88600000  0.31690000  1.0 0.1191294057
H  H173  1  0.99300000  0.61460000  0.82050000  1.0 0.1384153551
H  H174  1  0.00700000  0.11460000  0.67950000  1.0 0.1384153551
H  H175  1  0.00700000  0.38540000  0.17950000  1.0 0.1384153551
H  H176  1  0.99300000  0.88540000  0.32050000  1.0 0.1384153551
H  H177  1  0.80620000  0.63680000  0.61620000  1.0 0.1283857871
H  H178  1  0.19380000  0.13680000  0.88380000  1.0 0.1283857871
H  H179  1  0.19380000  0.36320000  0.38380000  1.0 0.1283857871
H  H180  1  0.80620000  0.86320000  0.11620000  1.0 0.1283857871
H  H181  1  0.60380000  0.63810000  0.62000000  1.0 0.1191294057
H  H182  1  0.39620000  0.13810000  0.88000000  1.0 0.1191294057
H  H183  1  0.39620000  0.36190000  0.38000000  1.0 0.1191294057
H  H184  1  0.60380000  0.86190000  0.12000000  1.0 0.1191294057
H  H185  1  0.37650000  0.64920000  0.81480000  1.0 0.1191294057
H  H186  1  0.62350000  0.14920000  0.68520000  1.0 0.1191294057
H  H187  1  0.62350000  0.35080000  0.18520000  1.0 0.1191294057
H  H188  1  0.37650000  0.85080000  0.31480000  1.0 0.1191294057
H  H189  1  0.17140000  0.64740000  0.81720000  1.0 0.1384153551
H  H190  1  0.82860000  0.14740000  0.68280000  1.0 0.1384153551
H  H191  1  0.82860000  0.35260000  0.18280000  1.0 0.1384153551
H  H192  1  0.17140000  0.85260000  0.31720000  1.0 0.1384153551
H  H193  1  0.99550000  0.61120000  0.61840000  1.0 0.1283857871
H  H194  1  0.00450000  0.11120000  0.88160000  1.0 0.1283857871
H  H195  1  0.00450000  0.38880000  0.38160000  1.0 0.1283857871
H  H196  1  0.99550000  0.88880000  0.11840000  1.0 0.1283857871
H  H197  1  0.20540000  0.61240000  0.62290000  1.0 0.1101713814
H  H198  1  0.79460000  0.11240000  0.87710000  1.0 0.1101713814
H  H199  1  0.79460000  0.38760000  0.37710000  1.0 0.1101713814
H  H200  1  0.20540000  0.88760000  0.12290000  1.0 0.1101713814
H  H201  1  0.88180000  0.09460000  0.16710000  1.0 0.079896501
H  H202  1  0.11820000  0.59460000  0.33290000  1.0 0.079896501
H  H203  1  0.11820000  0.90540000  0.83290000  1.0 0.079896501
H  H204  1  0.88180000  0.40540000  0.66710000  1.0 0.079896501
H  H205  1  0.01150000  0.12150000  0.17700000  1.0 0.079896501
H  H206  1  0.98850000  0.62150000  0.32300000  1.0 0.079896501
H  H207  1  0.98850000  0.87850000  0.82300000  1.0 0.079896501
H  H208  1  0.01150000  0.37850000  0.67700000  1.0 0.079896501
H  H209  1  0.88180000  0.14930000  0.16500000  1.0 0.0988652709
H  H210  1  0.11820000  0.64930000  0.33500000  1.0 0.0988652709
H  H211  1  0.11820000  0.85070000  0.83500000  1.0 0.0988652709
H  H212  1  0.88180000  0.35070000  0.66500000  1.0 0.0988652709
H  H213  1  0.80180000  0.93960000  0.44500000  1.0 0.3237923465
H  H214  1  0.19820000  0.43960000  0.05500000  1.0 0.3237923465
H  H215  1  0.19820000  0.06040000  0.55500000  1.0 0.3237923465
H  H216  1  0.80180000  0.56040000  0.94500000  1.0 0.3237923465
H  H217  1  0.73000000  0.96880000  0.46650000  1.0 0.3070013418
H  H218  1  0.27000000  0.46880000  0.03350000  1.0 0.3070013418
H  H219  1  0.27000000  0.03120000  0.53350000  1.0 0.3070013418
H  H220  1  0.73000000  0.53120000  0.96650000  1.0 0.3070013418
H  H221  1  0.70680000  0.91370000  0.64830000  1.0 0.079896501
H  H222  1  0.29320000  0.41370000  0.85170000  1.0 0.079896501
H  H223  1  0.29320000  0.08630000  0.35170000  1.0 0.079896501
H  H224  1  0.70680000  0.58630000  0.14830000  1.0 0.079896501
H  H225  1  0.70420000  0.89630000  0.58010000  1.0 0.079896501
H  H226  1  0.29580000  0.39630000  0.91990000  1.0 0.079896501
H  H227  1  0.29580000  0.10370000  0.41990000  1.0 0.079896501
H  H228  1  0.70420000  0.60370000  0.08010000  1.0 0.079896501
H  H229  1  0.68360000  0.86070000  0.62860000  1.0 0.0874016174
H  H230  1  0.31640000  0.36070000  0.87140000  1.0 0.0874016174
H  H231  1  0.31640000  0.13930000  0.37140000  1.0 0.0874016174
H  H232  1  0.68360000  0.63930000  0.12860000  1.0 0.0874016174
H  H233  1  0.88610000  0.87280000  0.57510000  1.0 0.0874016174
H  H234  1  0.11390000  0.37280000  0.92490000  1.0 0.0874016174
H  H235  1  0.11390000  0.12720000  0.42490000  1.0 0.0874016174
H  H236  1  0.88610000  0.62720000  0.07510000  1.0 0.0874016174
H  H237  1  0.25440000  0.87100000  0.73860000  1.0 0.0988652709
H  H238  1  0.74560000  0.37100000  0.76140000  1.0 0.0988652709
H  H239  1  0.74560000  0.12900000  0.26140000  1.0 0.0988652709
H  H240  1  0.25440000  0.62900000  0.23860000  1.0 0.0988652709
H  H241  1  0.92570000  0.88610000  0.76550000  1.0 0.0713553994
H  H242  1  0.07430000  0.38610000  0.73450000  1.0 0.0713553994
H  H243  1  0.07430000  0.11390000  0.23450000  1.0 0.0713553994
H  H244  1  0.92570000  0.61390000  0.26550000  1.0 0.0713553994
H  H245  1  0.20270000  0.85250000  0.86150000  1.0 0.1191294057
H  H246  1  0.79730000  0.35250000  0.63850000  1.0 0.1191294057
H  H247  1  0.79730000  0.14750000  0.13850000  1.0 0.1191294057
H  H248  1  0.20270000  0.64750000  0.36150000  1.0 0.1191294057
H  H249  1  0.24980000  0.90320000  0.85620000  1.0 0.079896501
H  H250  1  0.75020000  0.40320000  0.64380000  1.0 0.079896501
H  H251  1  0.75020000  0.09680000  0.14380000  1.0 0.079896501
H  H252  1  0.24980000  0.59680000  0.35620000  1.0 0.079896501
H  H253  1  0.11170000  0.89530000  0.85660000  1.0 0.0874016174
H  H254  1  0.88830000  0.39530000  0.64340000  1.0 0.0874016174
H  H255  1  0.88830000  0.10470000  0.14340000  1.0 0.0874016174
H  H256  1  0.11170000  0.60470000  0.35660000  1.0 0.0874016174
C  C1  1  0.93130000  0.90140000  0.97460000  1.0 0.5332793824
C  C2  1  0.06870000  0.40140000  0.52540000  1.0 0.5332793824
C  C3  1  0.06870000  0.09860000  0.02540000  1.0 0.5332793824
C  C4  1  0.93130000  0.59860000  0.47460000  1.0 0.5332793824
C  C5  1  0.83470000  0.86100000  0.96590000  1.0 -0.0086659779
C  C6  1  0.16530000  0.36100000  0.53410000  1.0 -0.0086659779
C  C7  1  0.16530000  0.13900000  0.03410000  1.0 -0.0086659779
C  C8  1  0.83470000  0.63900000  0.46590000  1.0 -0.0086659779
C  C9  1  0.71120000  0.87040000  0.96820000  1.0 -0.232017807
C  C10  1  0.28880000  0.37040000  0.53180000  1.0 -0.232017807
C  C11  1  0.28880000  0.12960000  0.03180000  1.0 -0.232017807
C  C12  1  0.71120000  0.62960000  0.46820000  1.0 -0.232017807
C  C13  1  0.62330000  0.83370000  0.96150000  1.0 0.2077097043
C  C14  1  0.37670000  0.33370000  0.53850000  1.0 0.2077097043
C  C15  1  0.37670000  0.16630000  0.03850000  1.0 0.2077097043
C  C16  1  0.62330000  0.66630000  0.46150000  1.0 0.2077097043
C  C17  1  0.66130000  0.78860000  0.95240000  1.0 -0.2676958509
C  C18  1  0.33870000  0.28860000  0.54760000  1.0 -0.2676958509
C  C19  1  0.33870000  0.21140000  0.04760000  1.0 -0.2676958509
C  C20  1  0.66130000  0.71140000  0.45240000  1.0 -0.2676958509
C  C21  1  0.77620000  0.77950000  0.95090000  1.0 0.2450609288
C  C22  1  0.22380000  0.27950000  0.54910000  1.0 0.2448123924
C  C23  1  0.22380000  0.22050000  0.04910000  1.0 0.2448123924
C  C24  1  0.77620000  0.72050000  0.45090000  1.0 0.2450609288
C  C25  1  0.86510000  0.81590000  0.95810000  1.0 -0.2373579063
C  C26  1  0.13490000  0.31590000  0.54190000  1.0 -0.2373579063
C  C27  1  0.13490000  0.18410000  0.04190000  1.0 -0.2373579063
C  C28  1  0.86510000  0.68410000  0.45810000  1.0 -0.2373579063
C  C29  1  0.49200000  0.84400000  0.96230000  1.0 -0.4793664285
C  C30  1  0.50800000  0.34400000  0.53770000  1.0 -0.4793664285
C  C31  1  0.50800000  0.15600000  0.03770000  1.0 -0.4793664285
C  C32  1  0.49200000  0.65600000  0.46230000  1.0 -0.4793664285
C  C33  1  0.72990000  0.69740000  0.92450000  1.0 -0.1905373379
C  C34  1  0.27010000  0.19740000  0.57550000  1.0 -0.1905373379
C  C35  1  0.27010000  0.30260000  0.07550000  1.0 -0.1905373379
C  C36  1  0.72990000  0.80260000  0.42450000  1.0 -0.1905373379
C  C37  1  0.63340000  0.69620000  0.84620000  1.0 0.6147003404
C  C38  1  0.36660000  0.19620000  0.65380000  1.0 0.6147003404
C  C39  1  0.36660000  0.30380000  0.15380000  1.0 0.6147003404
C  C40  1  0.63340000  0.80380000  0.34620000  1.0 0.6147003404
C  C41  1  0.32430000  0.12180000  0.42960000  1.0 -0.2203946132
C  C42  1  0.67570000  0.62180000  0.07040000  1.0 -0.2203946132
C  C43  1  0.67570000  0.87820000  0.57040000  1.0 -0.2203946132
C  C44  1  0.32430000  0.37820000  0.92960000  1.0 -0.2203946132
C  C45  1  0.17030000  0.12290000  0.37830000  1.0 -0.0237275541
C  C46  1  0.82970000  0.62290000  0.12170000  1.0 -0.0237275541
C  C47  1  0.82970000  0.87710000  0.62170000  1.0 -0.0237275541
C  C48  1  0.17030000  0.37710000  0.87830000  1.0 -0.0237275541
C  C49  1  0.08170000  0.12870000  0.40570000  1.0 -0.042037952
C  C50  1  0.91830000  0.62870000  0.09430000  1.0 -0.042037952
C  C51  1  0.91830000  0.87130000  0.59430000  1.0 -0.042037952
C  C52  1  0.08170000  0.37130000  0.90570000  1.0 -0.042037952
C  C53  1  0.94390000  0.13190000  0.36240000  1.0 0.021188457
C  C54  1  0.05610000  0.63190000  0.13760000  1.0 0.021188457
C  C55  1  0.05610000  0.86810000  0.63760000  1.0 0.021188457
C  C56  1  0.94390000  0.36810000  0.86240000  1.0 0.021188457
C  C57  1  0.89460000  0.12940000  0.29160000  1.0 -0.059582922
C  C58  1  0.10540000  0.62940000  0.20840000  1.0 -0.059582922
C  C59  1  0.10540000  0.87060000  0.70840000  1.0 -0.059582922
C  C60  1  0.89460000  0.37060000  0.79160000  1.0 -0.059582922
C  C61  1  0.98310000  0.12360000  0.26420000  1.0 0.0388780737
C  C62  1  0.01690000  0.62360000  0.23580000  1.0 0.0388780737
C  C63  1  0.01690000  0.87640000  0.73580000  1.0 0.0388780737
C  C64  1  0.98310000  0.37640000  0.76420000  1.0 0.0388780737
C  C65  1  0.12090000  0.12030000  0.30760000  1.0 -0.042037952
C  C66  1  0.87910000  0.62030000  0.19240000  1.0 -0.042037952
C  C67  1  0.87910000  0.87970000  0.69240000  1.0 -0.042037952
C  C68  1  0.12090000  0.37970000  0.80760000  1.0 -0.042037952
C  C69  1  0.90800000  0.14420000  0.45670000  1.0 -0.2090400004
C  C70  1  0.09200000  0.64420000  0.04330000  1.0 -0.2203946132
C  C71  1  0.09200000  0.85580000  0.54330000  1.0 -0.2203946132
C  C72  1  0.90800000  0.35580000  0.95670000  1.0 -0.2090400004
C  C73  1  0.97040000  0.10050000  0.49740000  1.0 0.5682901374
C  C74  1  0.02960000  0.60050000  0.00260000  1.0 0.5682901374
C  C75  1  0.02960000  0.89950000  0.50260000  1.0 0.5682901374
C  C76  1  0.97040000  0.39950000  0.99740000  1.0 0.5682901374
C  C77  1  0.10470000  0.01230000  0.90340000  1.0 0.0605346309
C  C78  1  0.89530000  0.51230000  0.59660000  1.0 0.0605346309
C  C79  1  0.89530000  0.98770000  0.09660000  1.0 0.0605346309
C  C80  1  0.10470000  0.48770000  0.40340000  1.0 0.0605346309
C  C81  1  0.10630000  0.01220000  0.84140000  1.0 -0.1804920242
C  C82  1  0.89370000  0.51220000  0.65860000  1.0 -0.1804920242
C  C83  1  0.89370000  0.98780000  0.15860000  1.0 -0.1804920242
C  C84  1  0.10630000  0.48780000  0.34140000  1.0 -0.1804920242
C  C85  1  0.99190000  0.00260000  0.78140000  1.0 0.079896501
C  C86  1  0.00810000  0.50260000  0.71860000  1.0 0.079896501
C  C87  1  0.00810000  0.99740000  0.21860000  1.0 0.079896501
C  C88  1  0.99190000  0.49740000  0.28140000  1.0 0.079896501
C  C89  1  0.87420000  0.99230000  0.78600000  1.0 -0.2676958509
C  C90  1  0.12580000  0.49230000  0.71400000  1.0 -0.2676958509
C  C91  1  0.12580000  0.00770000  0.21400000  1.0 -0.2676958509
C  C92  1  0.87420000  0.50770000  0.28600000  1.0 -0.2676958509
C  C93  1  0.87920000  0.99200000  0.84990000  1.0 0.0388780737
C  C94  1  0.12080000  0.49200000  0.65010000  1.0 0.0388780737
C  C95  1  0.12080000  0.00800000  0.15010000  1.0 0.0388780737
C  C96  1  0.87920000  0.50800000  0.34990000  1.0 0.0388780737
C  C97  1  0.10750000  0.99060000  0.64780000  1.0 0.0293335181
C  C98  1  0.89250000  0.49060000  0.85220000  1.0 0.0293335181
C  C99  1  0.89250000  0.00940000  0.35220000  1.0 0.0293335181
C  C100  1  0.10750000  0.50940000  0.14780000  1.0 0.0293335181
C  C101  1  0.10630000  0.98930000  0.71030000  1.0 -0.2629634955
C  C102  1  0.89370000  0.48930000  0.78970000  1.0 -0.2629634955
C  C103  1  0.89370000  0.01070000  0.28970000  1.0 -0.2629634955
C  C104  1  0.10630000  0.51070000  0.21030000  1.0 -0.2629634955
C  C105  1  0.99390000  0.00330000  0.71490000  1.0 0.0713553994
C  C106  1  0.00610000  0.50330000  0.78510000  1.0 0.0713553994
C  C107  1  0.00610000  0.99670000  0.28510000  1.0 0.0713553994
C  C108  1  0.99390000  0.49670000  0.21490000  1.0 0.0713553994
C  C109  1  0.88120000  0.01870000  0.65440000  1.0 -0.1993681736
C  C110  1  0.11880000  0.51870000  0.84560000  1.0 -0.1993681736
C  C111  1  0.11880000  0.98130000  0.34560000  1.0 -0.1993681736
C  C112  1  0.88120000  0.48130000  0.15440000  1.0 -0.1993681736
C  C113  1  0.89100000  0.01900000  0.59380000  1.0 0.0605346309
C  C114  1  0.10900000  0.51900000  0.90620000  1.0 0.0605346309
C  C115  1  0.10900000  0.98100000  0.40620000  1.0 0.0605346309
C  C116  1  0.89100000  0.48100000  0.09380000  1.0 0.0605346309
C  C117  1  0.58290000  0.83850000  0.77720000  1.0 0.0518879204
C  C118  1  0.41710000  0.33850000  0.72280000  1.0 0.0518879204
C  C119  1  0.41710000  0.16150000  0.22280000  1.0 0.0518879204
C  C120  1  0.58290000  0.66150000  0.27720000  1.0 0.0518879204
C  C121  1  0.58340000  0.88710000  0.78840000  1.0 -0.232017807
C  C122  1  0.41660000  0.38710000  0.71160000  1.0 -0.232017807
C  C123  1  0.41660000  0.11290000  0.21160000  1.0 -0.232017807
C  C124  1  0.58340000  0.61290000  0.28840000  1.0 -0.232017807
C  C125  1  0.50960000  0.91550000  0.73090000  1.0 0.079896501
C  C126  1  0.49040000  0.41550000  0.76910000  1.0 0.079896501
C  C127  1  0.49040000  0.08450000  0.26910000  1.0 0.079896501
C  C128  1  0.50960000  0.58450000  0.23090000  1.0 0.079896501
C  C129  1  0.44670000  0.89570000  0.66666667  1.0 -0.1905373379
C  C130  1  0.55330000  0.39570000  0.83340000  1.0 -0.1993681736
C  C131  1  0.55330000  0.10430000  0.33340000  1.0 -0.1905373379
C  C132  1  0.44670000  0.60430000  0.16660000  1.0 -0.1905373379
C  C133  1  0.45370000  0.84680000  0.66080000  1.0 0.0388780737
C  C134  1  0.54630000  0.34680000  0.83920000  1.0 0.0388780737
C  C135  1  0.54630000  0.15320000  0.33920000  1.0 0.0388780737
C  C136  1  0.45370000  0.65320000  0.16080000  1.0 0.0388780737
C  C137  1  0.49450000  0.04570000  0.70370000  1.0 0.0988652709
C  C138  1  0.50550000  0.54570000  0.79630000  1.0 0.0988652709
C  C139  1  0.50550000  0.95430000  0.29630000  1.0 0.0988652709
C  C140  1  0.49450000  0.45430000  0.20370000  1.0 0.0988652709
C  C141  1  0.49900000  0.99850000  0.69260000  1.0 -0.1905373379
C  C142  1  0.50100000  0.49850000  0.80740000  1.0 -0.1905373379
C  C143  1  0.50100000  0.00150000  0.30740000  1.0 -0.1905373379
C  C144  1  0.49900000  0.50150000  0.19260000  1.0 -0.1905373379
C  C145  1  0.50510000  0.96670000  0.74080000  1.0 0.1191294057
C  C146  1  0.49490000  0.46670000  0.75920000  1.0 0.1191294057
C  C147  1  0.49490000  0.03330000  0.25920000  1.0 0.1191294057
C  C148  1  0.50510000  0.53330000  0.24080000  1.0 0.1191294057
C  C149  1  0.50210000  0.98420000  0.79850000  1.0 -0.1804920242
C  C150  1  0.49790000  0.48420000  0.70150000  1.0 -0.1804920242
C  C151  1  0.49790000  0.01580000  0.20150000  1.0 -0.1804920242
C  C152  1  0.50210000  0.51580000  0.29850000  1.0 -0.1804920242
C  C153  1  0.49570000  0.03260000  0.80660000  1.0 0.0518879204
C  C154  1  0.50430000  0.53260000  0.69340000  1.0 0.0518879204
C  C155  1  0.50430000  0.96740000  0.19340000  1.0 0.0518879204
C  C156  1  0.49570000  0.46740000  0.30660000  1.0 0.0518879204
C  C157  1  0.80040000  0.74670000  0.75390000  1.0 0.0388780737
C  C158  1  0.19960000  0.24670000  0.74610000  1.0 0.0388780737
C  C159  1  0.19960000  0.25330000  0.24610000  1.0 0.0388780737
C  C160  1  0.80040000  0.75330000  0.25390000  1.0 0.0388780737
C  C161  1  0.92270000  0.74770000  0.75440000  1.0 -0.1993681736
C  C162  1  0.07730000  0.24770000  0.74560000  1.0 -0.1993681736
C  C163  1  0.07730000  0.25230000  0.24560000  1.0 -0.1993681736
C  C164  1  0.92270000  0.75230000  0.25440000  1.0 -0.1993681736
C  C165  1  0.93080000  0.75290000  0.69510000  1.0 0.0605346309
C  C166  1  0.06920000  0.25290000  0.80490000  1.0 0.0605346309
C  C167  1  0.06920000  0.24710000  0.30490000  1.0 0.0605346309
C  C168  1  0.93080000  0.74710000  0.19510000  1.0 0.0605346309
C  C169  1  0.80820000  0.75640000  0.63360000  1.0 -0.2866436311
C  C170  1  0.19180000  0.25640000  0.86640000  1.0 -0.2866436311
C  C171  1  0.19180000  0.24360000  0.36640000  1.0 -0.2866436311
C  C172  1  0.80820000  0.74360000  0.13360000  1.0 -0.2866436311
C  C173  1  0.68750000  0.75400000  0.63810000  1.0 0.0605346309
C  C174  1  0.31250000  0.25400000  0.86190000  1.0 0.0605346309
C  C175  1  0.31250000  0.24600000  0.36190000  1.0 0.0605346309
C  C176  1  0.68750000  0.74600000  0.13810000  1.0 0.0605346309
C  C177  1  0.30640000  0.76140000  0.75450000  1.0 0.0293335181
C  C178  1  0.69360000  0.26140000  0.74550000  1.0 0.0293335181
C  C179  1  0.69360000  0.23860000  0.24550000  1.0 0.0293335181
C  C180  1  0.30640000  0.73860000  0.25450000  1.0 0.0293335181
C  C181  1  0.18420000  0.76190000  0.75330000  1.0 -0.232017807
C  C182  1  0.81580000  0.26190000  0.74670000  1.0 -0.232017807
C  C183  1  0.81580000  0.23810000  0.24670000  1.0 -0.232017807
C  C184  1  0.18420000  0.73810000  0.25330000  1.0 -0.232017807
C  C185  1  0.06690000  0.75450000  0.69410000  1.0 0.079896501
C  C186  1  0.93310000  0.25450000  0.80590000  1.0 0.079896501
C  C187  1  0.93310000  0.24550000  0.30590000  1.0 0.079896501
C  C188  1  0.06690000  0.74550000  0.19410000  1.0 0.079896501
C  C189  1  0.07610000  0.74630000  0.63450000  1.0 -0.1905373379
C  C190  1  0.92390000  0.24630000  0.86550000  1.0 -0.1905373379
C  C191  1  0.92390000  0.25370000  0.36550000  1.0 -0.1905373379
C  C192  1  0.07610000  0.75370000  0.13450000  1.0 -0.1905373379
C  C193  1  0.20010000  0.74700000  0.63640000  1.0 0.0988652709
C  C194  1  0.79990000  0.24700000  0.86360000  1.0 0.0988652709
C  C195  1  0.79990000  0.25300000  0.36360000  1.0 0.0988652709
C  C196  1  0.20010000  0.75300000  0.13640000  1.0 0.0988652709
C  C197  1  0.78970000  0.61940000  0.77650000  1.0 0.0988652709
C  C198  1  0.21030000  0.11940000  0.72350000  1.0 0.0988652709
C  C199  1  0.21030000  0.38060000  0.22350000  1.0 0.0988652709
C  C200  1  0.78970000  0.88060000  0.27650000  1.0 0.0988652709
C  C201  1  0.91580000  0.61940000  0.77900000  1.0 -0.1679377226
C  C202  1  0.08420000  0.11940000  0.72100000  1.0 -0.1679377226
C  C203  1  0.08420000  0.38060000  0.22100000  1.0 -0.1679377226
C  C204  1  0.91580000  0.88060000  0.27900000  1.0 -0.1679377226
C  C205  1  0.92590000  0.62650000  0.71880000  1.0 0.1101713814
C  C206  1  0.07410000  0.12650000  0.78120000  1.0 0.1101713814
C  C207  1  0.07410000  0.37350000  0.28120000  1.0 0.1101713814
C  C208  1  0.92590000  0.87350000  0.21880000  1.0 0.1101713814
C  C209  1  0.80490000  0.63290000  0.65780000  1.0 -0.1905373379
C  C210  1  0.19510000  0.13290000  0.84220000  1.0 -0.1905373379
C  C211  1  0.19510000  0.36710000  0.34220000  1.0 -0.1905373379
C  C212  1  0.80490000  0.86710000  0.15780000  1.0 -0.1905373379
C  C213  1  0.68320000  0.63320000  0.66040000  1.0 0.0874016174
C  C214  1  0.31680000  0.13320000  0.83960000  1.0 0.0874016174
C  C215  1  0.31680000  0.36680000  0.33960000  1.0 0.0874016174
C  C216  1  0.68320000  0.86680000  0.16040000  1.0 0.0874016174
C  C217  1  0.29850000  0.64190000  0.77480000  1.0 0.079896501
C  C218  1  0.70150000  0.14190000  0.72520000  1.0 0.079896501
C  C219  1  0.70150000  0.35810000  0.22520000  1.0 0.079896501
C  C220  1  0.29850000  0.85810000  0.27480000  1.0 0.079896501
C  C221  1  0.17560000  0.64030000  0.77700000  1.0 -0.1679377226
C  C222  1  0.82440000  0.14030000  0.72300000  1.0 -0.1679377226
C  C223  1  0.82440000  0.35970000  0.22300000  1.0 -0.1679377226
C  C224  1  0.17560000  0.85970000  0.27700000  1.0 -0.1679377226
C  C225  1  0.05930000  0.62780000  0.71740000  1.0 0.0988652709
C  C226  1  0.94070000  0.12780000  0.78260000  1.0 0.0988652709
C  C227  1  0.94070000  0.37220000  0.28260000  1.0 0.0988652709
C  C228  1  0.05930000  0.87220000  0.21740000  1.0 0.0988652709
C  C229  1  0.07130000  0.61860000  0.65930000  1.0 -0.1679377226
C  C230  1  0.92870000  0.11860000  0.84070000  1.0 -0.1679377226
C  C231  1  0.92870000  0.38140000  0.34070000  1.0 -0.1679377226
C  C232  1  0.07130000  0.88140000  0.15930000  1.0 -0.1679377226
C  C233  1  0.19830000  0.62060000  0.66200000  1.0 0.0988652709
C  C234  1  0.80170000  0.12060000  0.83800000  1.0 0.0988652709
C  C235  1  0.80170000  0.37940000  0.33800000  1.0 0.0988652709
C  C236  1  0.19830000  0.87940000  0.16200000  1.0 0.0988652709
C  C237  1  0.93540000  0.12208000  0.18590000  1.0 -0.1212964126
C  C238  1  0.06460000  0.62208000  0.31410000  1.0 -0.1256296851
C  C239  1  0.06460000  0.87792000  0.81410000  1.0 -0.1256296851
C  C240  1  0.93540000  0.37792000  0.68590000  1.0 -0.1256296851
C  C241  1  0.73000000  0.88845000  0.62710000  1.0 -0.1212964126
C  C242  1  0.27000000  0.38845000  0.87290000  1.0 -0.1212964126
C  C243  1  0.27000000  0.11155000  0.37290000  1.0 -0.1212964126
C  C244  1  0.73000000  0.61155000  0.12710000  1.0 -0.1212964126
C  C245  1  0.88280000  0.88000000  0.66580000  1.0 0.0388780737
C  C246  1  0.11720000  0.38000000  0.83420000  1.0 0.0388780737
C  C247  1  0.11720000  0.12000000  0.33420000  1.0 0.0388780737
C  C248  1  0.88280000  0.62000000  0.16580000  1.0 0.0388780737
C  C249  1  0.94060000  0.87430000  0.62240000  1.0 -0.0800459452
C  C250  1  0.05940000  0.37430000  0.87760000  1.0 -0.0800459452
C  C251  1  0.05940000  0.12570000  0.37760000  1.0 -0.0800459452
C  C252  1  0.94060000  0.62570000  0.12240000  1.0 -0.0800459452
C  C253  1  0.07980000  0.87100000  0.64970000  1.0 0.021188457
C  C254  1  0.92020000  0.37100000  0.85030000  1.0 0.021188457
C  C255  1  0.92020000  0.12900000  0.35030000  1.0 0.021188457
C  C256  1  0.07980000  0.62900000  0.14970000  1.0 0.021188457
C  C257  1  0.16130000  0.87320000  0.72040000  1.0 -0.059582922
C  C258  1  0.83870000  0.37320000  0.77960000  1.0 -0.059582922
C  C259  1  0.83870000  0.12680000  0.27960000  1.0 -0.059582922
C  C260  1  0.16130000  0.62680000  0.22040000  1.0 -0.059582922
C  C261  1  0.10350000  0.87890000  0.76380000  1.0 -0.0086659779
C  C262  1  0.89650000  0.37890000  0.73620000  1.0 -0.0086659779
C  C263  1  0.89650000  0.12110000  0.23620000  1.0 -0.0086659779
C  C264  1  0.10350000  0.62110000  0.26380000  1.0 -0.0086659779
C  C265  1  0.96430000  0.88230000  0.73650000  1.0 -0.042037952
C  C266  1  0.03570000  0.38230000  0.76350000  1.0 -0.042037952
C  C267  1  0.03570000  0.11770000  0.26350000  1.0 -0.042037952
C  C268  1  0.96430000  0.61770000  0.23650000  1.0 -0.042037952
C  C269  1  0.17320000  0.88285000  0.84170000  1.0 -0.2373579063
C  C270  1  0.82680000  0.38285000  0.65830000  1.0 -0.2373579063
C  C271  1  0.82680000  0.11715000  0.15830000  1.0 -0.2373579063
C  C272  1  0.17320000  0.61715000  0.34170000  1.0 -0.2373579063
N  N1  1  0.99210000  0.00190000  0.90820000  1.0 -0.232017807
N  N2  1  0.00790000  0.50190000  0.59180000  1.0 -0.232017807
N  N3  1  0.00790000  0.99810000  0.09180000  1.0 -0.232017807
N  N4  1  0.99210000  0.49810000  0.40820000  1.0 -0.232017807
N  N5  1  0.99960000  0.00370000  0.58990000  1.0 -0.232017807
N  N6  1  0.00040000  0.50370000  0.91010000  1.0 -0.232017807
N  N7  1  0.00040000  0.99630000  0.41010000  1.0 -0.232017807
N  N8  1  0.99960000  0.49630000  0.08990000  1.0 -0.232017807
N  N9  1  0.51870000  0.81910000  0.71520000  1.0 -0.2373579063
N  N10  1  0.48130000  0.31910000  0.78480000  1.0 -0.2373579063
N  N11  1  0.48130000  0.18090000  0.28480000  1.0 -0.2373579063
N  N12  1  0.51870000  0.68090000  0.21520000  1.0 -0.2373579063
N  N13  1  0.49360000  0.06310000  0.75910000  1.0 -0.2373579063
N  N14  1  0.50640000  0.56310000  0.74090000  1.0 -0.2373579063
N  N15  1  0.50640000  0.93690000  0.24090000  1.0 -0.2373579063
N  N16  1  0.49360000  0.43690000  0.25910000  1.0 -0.2373579063
N  N17  1  0.68120000  0.74950000  0.69620000  1.0 -0.1993681736
N  N18  1  0.31880000  0.24950000  0.80380000  1.0 -0.1993681736
N  N19  1  0.31880000  0.25050000  0.30380000  1.0 -0.1993681736
N  N20  1  0.68120000  0.75050000  0.19620000  1.0 -0.1993681736
N  N21  1  0.31620000  0.75360000  0.69530000  1.0 -0.1993681736
N  N22  1  0.68380000  0.25360000  0.80470000  1.0 -0.1993681736
N  N23  1  0.68380000  0.24640000  0.30470000  1.0 -0.1993681736
N  N24  1  0.31620000  0.74640000  0.19530000  1.0 -0.1993681736
N  N25  1  0.67610000  0.62670000  0.71880000  1.0 -0.2090400004
N  N26  1  0.32390000  0.12670000  0.78120000  1.0 -0.2090400004
N  N27  1  0.32390000  0.37330000  0.28120000  1.0 -0.2090400004
N  N28  1  0.67610000  0.87330000  0.21880000  1.0 -0.2090400004
N  N29  1  0.30830000  0.63340000  0.71700000  1.0 -0.1993681736
N  N30  1  0.69170000  0.13340000  0.78300000  1.0 -0.1993681736
N  N31  1  0.69170000  0.36660000  0.28300000  1.0 -0.1993681736
N  N32  1  0.30830000  0.86660000  0.21700000  1.0 -0.1993681736
Cl  Cl1  1  0.30180000  0.71579000  0.95121000  1.0 1.2764519982
Cl  Cl2  1  0.69820000  0.21579000  0.54879000  1.0 1.2764519982
Cl  Cl3  1  0.69820000  0.28421000  0.04879000  1.0 1.2764519982
Cl  Cl4  1  0.30180000  0.78421000  0.45121000  1.0 1.2764519982
O  O1  1  0.89170000  0.94140000  0.97710000  1.0 -0.5380133719
O  O2  1  0.10830000  0.44140000  0.52290000  1.0 -0.5380133719
O  O3  1  0.10830000  0.05860000  0.02290000  1.0 -0.5380133719
O  O4  1  0.89170000  0.55860000  0.47710000  1.0 -0.5380133719
O  O5  1  0.03990000  0.89080000  0.97540000  1.0 -0.5380133719
O  O6  1  0.96010000  0.39080000  0.52460000  1.0 -0.5380133719
O  O7  1  0.96010000  0.10920000  0.02460000  1.0 -0.5380133719
O  O8  1  0.03990000  0.60920000  0.47540000  1.0 -0.5380133719
O  O9  1  0.82210000  0.73630000  0.94320000  1.0 -0.1804920242
O  O10  1  0.17790000  0.23630000  0.55680000  1.0 -0.1804920242
O  O11  1  0.17790000  0.26370000  0.05680000  1.0 -0.1804920242
O  O12  1  0.82210000  0.76370000  0.44320000  1.0 -0.1804920242
O  O13  1  0.60630000  0.73262000  0.81220000  1.0 -0.5454005965
O  O14  1  0.39370000  0.23262000  0.68780000  1.0 -0.5454005965
O  O15  1  0.39370000  0.26738000  0.18780000  1.0 -0.5454005965
O  O16  1  0.60630000  0.76738000  0.31220000  1.0 -0.5454005965
O  O17  1  0.58970000  0.65543000  0.82540000  1.0 -0.5793077715
O  O18  1  0.41030000  0.15543000  0.67460000  1.0 -0.5793077715
O  O19  1  0.41030000  0.34457000  0.17460000  1.0 -0.5793077715
O  O20  1  0.58970000  0.84457000  0.32540000  1.0 -0.5793077715
O  O21  1  0.84990000  0.13790000  0.38470000  1.0 -0.1212964126
O  O22  1  0.15010000  0.63790000  0.11530000  1.0 -0.1212964126
O  O23  1  0.15010000  0.86210000  0.61530000  1.0 -0.1212964126
O  O24  1  0.84990000  0.36210000  0.88470000  1.0 -0.1212964126
O  O25  1  0.91610000  0.06250000  0.47080000  1.0 -0.5199610658
O  O26  1  0.08390000  0.56250000  0.02920000  1.0 -0.5199610658
O  O27  1  0.08390000  0.93750000  0.52920000  1.0 -0.5199610658
O  O28  1  0.91610000  0.43750000  0.97080000  1.0 -0.5199610658
O  O29  1  0.07010000  0.10560000  0.55600000  1.0 -0.5380133719
O  O30  1  0.92990000  0.60560000  0.94400000  1.0 -0.5380133719
O  O31  1  0.92990000  0.89440000  0.44400000  1.0 -0.5380133719
O  O32  1  0.07010000  0.39440000  0.05600000  1.0 -0.5380133719
O  O33  1  0.45910000  0.68696000  0.66130000  1.0 -0.7761797675
O  O34  1  0.54090000  0.18696000  0.83870000  1.0 -0.7761797675
O  O35  1  0.54090000  0.31304000  0.33870000  1.0 -0.7761797675
O  O36  1  0.45910000  0.81304000  0.16130000  1.0 -0.7761797675
O  O37  1  0.78050000  0.04150000  0.95060000  1.0 -0.7131437131
O  O38  1  0.21950000  0.54150000  0.54940000  1.0 -0.7131437131
O  O39  1  0.21950000  0.95850000  0.04940000  1.0 -0.7131437131
O  O40  1  0.78050000  0.45850000  0.45060000  1.0 -0.7131437131
O  O41  1  0.77110000  0.96700000  0.44240000  1.0 -0.7131437131
O  O42  1  0.22890000  0.46700000  0.05760000  1.0 -0.7131437131
O  O43  1  0.22890000  0.03300000  0.55760000  1.0 -0.7131437131
O  O44  1  0.77110000  0.53300000  0.94240000  1.0 -0.7131437131
O  O45  1  0.36400000  0.72200000  0.02640000  1.0 -0.5380133719
O  O46  1  0.22090000  0.75680000  0.91880000  1.0 -0.507391847
O  O47  1  0.40200000  0.70960000  0.92930000  1.0 -0.5017921471
O  O48  1  0.21740000  0.67510000  0.93120000  1.0 -0.5017921471
O  O49  1  0.63600000  0.22200000  0.47360000  1.0 -0.5380133719
O  O50  1  0.77910000  0.25680000  0.58120000  1.0 -0.507391847
O  O51  1  0.59800000  0.20960000  0.57070000  1.0 -0.5017921471
O  O52  1  0.78260000  0.17510000  0.56880000  1.0 -0.5017921471
O  O53  1  0.63600000  0.27800000  0.97360000  1.0 -0.5380133719
O  O54  1  0.77910000  0.24320000  0.08120000  1.0 -0.507391847
O  O55  1  0.59800000  0.29040000  0.07070000  1.0 -0.5017921471
O  O56  1  0.78260000  0.32490000  0.06880000  1.0 -0.5017921471
O  O57  1  0.36400000  0.77800000  0.52640000  1.0 -0.5380133719
O  O58  1  0.22090000  0.74320000  0.41880000  1.0 -0.507391847
O  O59  1  0.40200000  0.79040000  0.42930000  1.0 -0.5017921471
O  O60  1  0.21740000  0.82490000  0.43120000  1.0 -0.5017921471
