# DDEC6 charges by PACMAN v1.1 (https://github.com/mtap-research/PACMAN-charge/)
data_WERCEE_FSR_pacman
_symmetry_space_group_name_H-M   'P 1'
_cell_length_a   20.04580000
_cell_length_b   20.04580000
_cell_length_c   29.61530000
_cell_angle_alpha   90.00000000
_cell_angle_beta   90.00000000
_cell_angle_gamma   93.71120000
_symmetry_Int_Tables_number   1
_chemical_formula_structural   Ga3P2H71C74O19
_chemical_formula_sum   'Ga12 P8 H284 C296 O76'
_cell_volume   11875.48195183
_cell_formula_units_Z   4
loop_
 _symmetry_equiv_pos_site_id
 _symmetry_equiv_pos_as_xyz
  1  'x, y, z'
loop_
 _atom_site_type_symbol
 _atom_site_label
 _atom_site_symmetry_multiplicity
 _atom_site_fract_x
 _atom_site_fract_y
 _atom_site_fract_z
 _atom_site_occupancy
 _atom_site_charge
Ga  Ga1  1  0.00198000  0.39718000  0.75182000  1.0 1.3539123033
Ga  Ga2  1  0.05843000  0.47833000  0.86876000  1.0 0.9944733476
Ga  Ga3  1  0.99812000  0.55498000  0.98814000  1.0 1.2721881662
Ga  Ga4  1  0.99802000  0.60282000  0.25182000  1.0 1.3539123033
Ga  Ga5  1  0.94157000  0.52167000  0.36876000  1.0 0.9958927427
Ga  Ga6  1  0.00188000  0.44502000  0.48814000  1.0 1.2721881662
Ga  Ga7  1  0.60282000  0.99802000  0.74818000  1.0 1.3539123033
Ga  Ga8  1  0.52167000  0.94157000  0.63124000  1.0 1.0058451389
Ga  Ga9  1  0.44502000  0.00188000  0.51186000  1.0 1.2721881662
Ga  Ga10  1  0.39718000  0.00198000  0.24818000  1.0 1.3539123033
Ga  Ga11  1  0.47833000  0.05843000  0.13124000  1.0 0.9958927427
Ga  Ga12  1  0.55498000  0.99812000  0.01186000  1.0 1.2721881662
P  P1  1  0.12175000  0.34513000  0.80939000  1.0 1.4278974627
P  P2  1  0.12835000  0.61223000  0.93313000  1.0 1.4278974627
P  P3  1  0.87825000  0.65487000  0.30939000  1.0 1.4278974627
P  P4  1  0.87165000  0.38777000  0.43313000  1.0 1.4278974627
P  P5  1  0.65487000  0.87825000  0.69061000  1.0 1.4278974627
P  P6  1  0.38777000  0.87165000  0.56687000  1.0 1.4278974627
P  P7  1  0.34513000  0.12175000  0.19061000  1.0 1.4278974627
P  P8  1  0.61223000  0.12835000  0.06687000  1.0 1.4278974627
H  H1  1  0.45230000  0.09170000  0.67320000  1.0 0.1302878182
H  H2  1  0.39880000  0.15580000  0.72650000  1.0 0.1302878182
H  H3  1  0.26710000  0.20790000  0.63100000  1.0 0.1302878182
H  H4  1  0.32060000  0.14380000  0.57770000  1.0 0.1302878182
H  H5  1  0.31090000  0.31430000  0.67600000  1.0 0.1125982264
H  H6  1  0.30600000  0.48140000  0.66800000  1.0 0.1302878182
H  H7  1  0.30010000  0.40530000  0.65130000  1.0 0.1204757669
H  H8  1  0.35560000  0.42920000  0.68780000  1.0 0.1204757669
H  H9  1  0.18650000  0.47770000  0.69110000  1.0 0.1302878182
H  H10  1  0.15790000  0.42490000  0.72800000  1.0 0.1371239953
H  H11  1  0.17200000  0.40080000  0.67750000  1.0 0.1480679278
H  H12  1  0.26820000  0.51100000  0.74130000  1.0 0.1204757669
H  H13  1  0.31320000  0.46020000  0.76720000  1.0 0.1302878182
H  H14  1  0.23420000  0.45700000  0.77530000  1.0 0.1302878182
H  H15  1  0.28910000  0.10990000  0.74600000  1.0 0.1302878182
H  H16  1  0.21770000  0.11850000  0.76860000  1.0 0.1480679278
H  H17  1  0.28400000  0.12680000  0.79870000  1.0 0.1302878182
H  H18  1  0.15950000  0.15450000  0.94110000  1.0 0.1125982264
H  H19  1  0.97080000  0.15200000  0.86570000  1.0 0.1302878182
H  H20  1  0.03690000  0.11430000  0.85500000  1.0 0.1204757669
H  H21  1  0.02500000  0.18400000  0.83090000  1.0 0.1302878182
H  H22  1  0.99470000  0.15210000  0.94770000  1.0 0.1371239953
H  H23  1  0.06610000  0.18070000  0.96600000  1.0 0.1204757669
H  H24  1  0.05980000  0.11220000  0.93810000  1.0 0.1204757669
H  H25  1  0.97540000  0.25600000  0.90840000  1.0 0.1302878182
H  H26  1  0.02760000  0.28660000  0.87180000  1.0 0.1371239953
H  H27  1  0.04570000  0.29050000  0.92440000  1.0 0.1371239953
H  H28  1  0.34870000  0.23530000  0.82320000  1.0 0.1302878182
H  H29  1  0.36110000  0.17050000  0.85270000  1.0 0.1302878182
H  H30  1  0.36290000  0.24250000  0.87620000  1.0 0.1480679278
H  H31  1  0.27900000  0.20160000  0.98790000  1.0 0.1302878182
H  H32  1  0.35310000  0.14870000  0.03500000  1.0 0.1371239953
H  H33  1  0.38590000  0.01590000  0.93550000  1.0 0.1302878182
H  H34  1  0.31190000  0.06890000  0.88850000  1.0 0.1204757669
H  H35  1  0.41970000  0.97030000  0.82280000  1.0 0.1204757669
H  H36  1  0.33680000  0.91320000  0.86620000  1.0 0.1204757669
H  H37  1  0.31380000  0.77080000  0.76930000  1.0 0.1204757669
H  H38  1  0.39670000  0.82770000  0.72590000  1.0 0.1302878182
H  H39  1  0.18960000  0.81000000  0.80520000  1.0 0.1204757669
H  H40  1  0.98640000  0.78640000  0.86870000  1.0 0.1302878182
H  H41  1  0.05010000  0.83170000  0.88570000  1.0 0.1302878182
H  H42  1  0.03510000  0.75830000  0.90600000  1.0 0.1371239953
H  H43  1  0.99830000  0.68870000  0.82250000  1.0 0.1302878182
H  H44  1  0.04440000  0.66080000  0.86140000  1.0 0.1371239953
H  H45  1  0.07030000  0.66370000  0.81030000  1.0 0.1302878182
H  H46  1  0.02340000  0.79320000  0.78760000  1.0 0.1371239953
H  H47  1  0.09670000  0.77330000  0.77380000  1.0 0.1204757669
H  H48  1  0.08730000  0.84090000  0.80120000  1.0 0.1204757669
H  H49  1  0.35400000  0.75380000  0.93770000  1.0 0.1371239953
H  H50  1  0.37010000  0.82090000  0.90940000  1.0 0.1302878182
H  H51  1  0.37770000  0.74970000  0.88620000  1.0 0.1480679278
H  H52  1  0.28730000  0.66350000  0.08110000  1.0 0.1125982264
H  H53  1  0.29060000  0.49260000  0.08160000  1.0 0.1204757669
H  H54  1  0.27710000  0.56470000  0.10170000  1.0 0.1013926958
H  H55  1  0.34100000  0.55560000  0.07040000  1.0 0.1302878182
H  H56  1  0.18410000  0.48610000  0.05720000  1.0 0.1204757669
H  H57  1  0.15380000  0.53820000  0.02310000  1.0 0.1302878182
H  H58  1  0.17180000  0.56020000  0.07380000  1.0 0.1371239953
H  H59  1  0.25570000  0.45890000  0.01280000  1.0 0.1204757669
H  H60  1  0.29610000  0.51090000  0.98030000  1.0 0.1371239953
H  H61  1  0.21610000  0.50410000  0.97890000  1.0 0.1302878182
H  H62  1  0.24840000  0.84660000  0.95620000  1.0 0.1302878182
H  H63  1  0.30380000  0.86380000  0.99410000  1.0 0.1302878182
H  H64  1  0.22620000  0.85780000  0.00740000  1.0 0.1480679278
H  H65  1  0.24070000  0.75730000  0.12450000  1.0 0.1302878182
H  H66  1  0.28210000  0.82890000  0.18190000  1.0 0.1302878182
H  H67  1  0.42250000  0.90990000  0.09600000  1.0 0.1302878182
H  H68  1  0.38100000  0.83840000  0.03870000  1.0 0.1204757669
H  H69  1  0.95340000  0.49480000  0.06770000  1.0 0.1371239953
H  H70  1  0.90160000  0.51760000  0.10490000  1.0 0.1577637215
H  H71  1  0.97680000  0.50460000  0.11900000  1.0 0.1577637215
H  H72  1  0.54770000  0.90830000  0.17320000  1.0 0.1302878182
H  H73  1  0.60120000  0.84420000  0.22650000  1.0 0.1302878182
H  H74  1  0.73290000  0.79210000  0.13100000  1.0 0.1302878182
H  H75  1  0.67940000  0.85620000  0.07770000  1.0 0.1302878182
H  H76  1  0.68910000  0.68570000  0.17600000  1.0 0.1125982264
H  H77  1  0.69400000  0.51860000  0.16800000  1.0 0.1302878182
H  H78  1  0.69990000  0.59470000  0.15130000  1.0 0.1204757669
H  H79  1  0.64440000  0.57080000  0.18780000  1.0 0.1204757669
H  H80  1  0.81350000  0.52230000  0.19110000  1.0 0.1302878182
H  H81  1  0.84210000  0.57510000  0.22800000  1.0 0.1371239953
H  H82  1  0.82800000  0.59920000  0.17750000  1.0 0.1480679278
H  H83  1  0.73180000  0.48900000  0.24130000  1.0 0.1204757669
H  H84  1  0.68680000  0.53980000  0.26720000  1.0 0.1302878182
H  H85  1  0.76580000  0.54300000  0.27530000  1.0 0.1302878182
H  H86  1  0.71090000  0.89010000  0.24600000  1.0 0.1302878182
H  H87  1  0.78230000  0.88150000  0.26860000  1.0 0.1480679278
H  H88  1  0.71600000  0.87320000  0.29870000  1.0 0.1302878182
H  H89  1  0.84050000  0.84550000  0.44110000  1.0 0.1125982264
H  H90  1  0.02920000  0.84800000  0.36570000  1.0 0.1302878182
H  H91  1  0.96310000  0.88570000  0.35500000  1.0 0.1204757669
H  H92  1  0.97500000  0.81600000  0.33090000  1.0 0.1302878182
H  H93  1  0.00530000  0.84790000  0.44770000  1.0 0.1371239953
H  H94  1  0.93390000  0.81930000  0.46600000  1.0 0.1204757669
H  H95  1  0.94020000  0.88780000  0.43810000  1.0 0.1204757669
H  H96  1  0.02460000  0.74400000  0.40840000  1.0 0.1302878182
H  H97  1  0.97240000  0.71340000  0.37180000  1.0 0.1371239953
H  H98  1  0.95430000  0.70950000  0.42440000  1.0 0.1371239953
H  H99  1  0.65130000  0.76470000  0.32320000  1.0 0.1302878182
H  H100  1  0.63890000  0.82950000  0.35270000  1.0 0.1302878182
H  H101  1  0.63710000  0.75750000  0.37620000  1.0 0.1480679278
H  H102  1  0.72100000  0.79840000  0.48790000  1.0 0.1302878182
H  H103  1  0.64690000  0.85130000  0.53500000  1.0 0.1371239953
H  H104  1  0.61410000  0.98410000  0.43550000  1.0 0.1302878182
H  H105  1  0.68810000  0.93110000  0.38850000  1.0 0.1204757669
H  H106  1  0.58030000  0.02970000  0.32280000  1.0 0.1204757669
H  H107  1  0.66320000  0.08680000  0.36620000  1.0 0.1204757669
H  H108  1  0.68620000  0.22920000  0.26930000  1.0 0.1204757669
H  H109  1  0.60330000  0.17230000  0.22590000  1.0 0.1302878182
H  H110  1  0.81040000  0.19000000  0.30520000  1.0 0.1204757669
H  H111  1  0.01360000  0.21360000  0.36870000  1.0 0.1302878182
H  H112  1  0.94990000  0.16830000  0.38570000  1.0 0.1302878182
H  H113  1  0.96490000  0.24170000  0.40600000  1.0 0.1371239953
H  H114  1  0.00170000  0.31130000  0.32250000  1.0 0.1302878182
H  H115  1  0.95560000  0.33920000  0.36140000  1.0 0.1371239953
H  H116  1  0.92970000  0.33630000  0.31030000  1.0 0.1302878182
H  H117  1  0.97660000  0.20680000  0.28760000  1.0 0.1371239953
H  H118  1  0.90330000  0.22670000  0.27380000  1.0 0.1204757669
H  H119  1  0.91270000  0.15910000  0.30120000  1.0 0.1204757669
H  H120  1  0.64600000  0.24620000  0.43770000  1.0 0.1371239953
H  H121  1  0.62990000  0.17910000  0.40940000  1.0 0.1302878182
H  H122  1  0.62230000  0.25030000  0.38620000  1.0 0.1480679278
H  H123  1  0.71270000  0.33650000  0.58110000  1.0 0.1125982264
H  H124  1  0.70940000  0.50740000  0.58160000  1.0 0.1204757669
H  H125  1  0.72290000  0.43530000  0.60170000  1.0 0.1013926958
H  H126  1  0.65900000  0.44440000  0.57040000  1.0 0.1204757669
H  H127  1  0.81590000  0.51390000  0.55720000  1.0 0.1204757669
H  H128  1  0.84620000  0.46180000  0.52310000  1.0 0.1302878182
H  H129  1  0.82820000  0.43980000  0.57380000  1.0 0.1371239953
H  H130  1  0.74430000  0.54110000  0.51280000  1.0 0.1204757669
H  H131  1  0.70390000  0.48910000  0.48030000  1.0 0.1371239953
H  H132  1  0.78390000  0.49590000  0.47890000  1.0 0.1302878182
H  H133  1  0.75160000  0.15340000  0.45620000  1.0 0.1302878182
H  H134  1  0.69620000  0.13620000  0.49410000  1.0 0.1302878182
H  H135  1  0.77380000  0.14220000  0.50740000  1.0 0.1480679278
H  H136  1  0.75930000  0.24270000  0.62450000  1.0 0.1302878182
H  H137  1  0.71790000  0.17110000  0.68190000  1.0 0.1302878182
H  H138  1  0.57750000  0.09010000  0.59600000  1.0 0.1302878182
H  H139  1  0.61900000  0.16160000  0.53870000  1.0 0.1204757669
H  H140  1  0.04660000  0.50520000  0.56770000  1.0 0.1371239953
H  H141  1  0.09840000  0.48240000  0.60490000  1.0 0.1577637215
H  H142  1  0.02320000  0.49540000  0.61900000  1.0 0.1577637215
H  H143  1  0.90830000  0.54770000  0.82680000  1.0 0.1302878182
H  H144  1  0.84420000  0.60120000  0.77350000  1.0 0.1302878182
H  H145  1  0.79210000  0.73290000  0.86900000  1.0 0.1302878182
H  H146  1  0.85620000  0.67940000  0.92230000  1.0 0.1302878182
H  H147  1  0.68570000  0.68910000  0.82400000  1.0 0.1125982264
H  H148  1  0.51860000  0.69400000  0.83200000  1.0 0.1302878182
H  H149  1  0.59470000  0.69990000  0.84870000  1.0 0.1204757669
H  H150  1  0.57080000  0.64440000  0.81220000  1.0 0.1204757669
H  H151  1  0.52230000  0.81350000  0.80890000  1.0 0.1302878182
H  H152  1  0.57510000  0.84210000  0.77200000  1.0 0.1302878182
H  H153  1  0.59920000  0.82800000  0.82250000  1.0 0.1480679278
H  H154  1  0.48900000  0.73180000  0.75870000  1.0 0.1204757669
H  H155  1  0.53980000  0.68680000  0.73280000  1.0 0.1302878182
H  H156  1  0.54300000  0.76580000  0.72470000  1.0 0.1302878182
H  H157  1  0.89010000  0.71090000  0.75400000  1.0 0.1302878182
H  H158  1  0.88150000  0.78230000  0.73140000  1.0 0.1480679278
H  H159  1  0.87320000  0.71600000  0.70130000  1.0 0.1302878182
H  H160  1  0.84550000  0.84050000  0.55890000  1.0 0.1125982264
H  H161  1  0.84800000  0.02920000  0.63430000  1.0 0.1302878182
H  H162  1  0.88570000  0.96310000  0.64500000  1.0 0.1204757669
H  H163  1  0.81600000  0.97500000  0.66910000  1.0 0.1302878182
H  H164  1  0.84790000  0.00530000  0.55230000  1.0 0.1371239953
H  H165  1  0.81930000  0.93390000  0.53400000  1.0 0.1204757669
H  H166  1  0.88780000  0.94020000  0.56190000  1.0 0.1204757669
H  H167  1  0.74400000  0.02460000  0.59160000  1.0 0.1302878182
H  H168  1  0.71340000  0.97240000  0.62820000  1.0 0.1371239953
H  H169  1  0.70950000  0.95430000  0.57560000  1.0 0.1371239953
H  H170  1  0.76470000  0.65130000  0.67680000  1.0 0.1302878182
H  H171  1  0.82950000  0.63890000  0.64730000  1.0 0.1302878182
H  H172  1  0.75750000  0.63710000  0.62380000  1.0 0.1480679278
H  H173  1  0.79840000  0.72100000  0.51210000  1.0 0.1302878182
H  H174  1  0.85130000  0.64690000  0.46500000  1.0 0.1371239953
H  H175  1  0.98410000  0.61410000  0.56450000  1.0 0.1302878182
H  H176  1  0.93110000  0.68810000  0.61150000  1.0 0.1204757669
H  H177  1  0.02970000  0.58030000  0.67720000  1.0 0.1204757669
H  H178  1  0.08680000  0.66320000  0.63380000  1.0 0.1204757669
H  H179  1  0.22920000  0.68620000  0.73070000  1.0 0.1204757669
H  H180  1  0.17230000  0.60330000  0.77410000  1.0 0.1302878182
H  H181  1  0.19000000  0.81040000  0.69480000  1.0 0.1204757669
H  H182  1  0.21360000  0.01360000  0.63130000  1.0 0.1302878182
H  H183  1  0.16830000  0.94990000  0.61430000  1.0 0.1302878182
H  H184  1  0.24170000  0.96490000  0.59400000  1.0 0.1371239953
H  H185  1  0.31130000  0.00170000  0.67750000  1.0 0.1302878182
H  H186  1  0.33920000  0.95560000  0.63860000  1.0 0.1371239953
H  H187  1  0.33630000  0.92970000  0.68970000  1.0 0.1371239953
H  H188  1  0.20680000  0.97660000  0.71240000  1.0 0.1371239953
H  H189  1  0.22670000  0.90330000  0.72620000  1.0 0.1204757669
H  H190  1  0.15910000  0.91270000  0.69880000  1.0 0.1204757669
H  H191  1  0.24620000  0.64600000  0.56230000  1.0 0.1371239953
H  H192  1  0.17910000  0.62990000  0.59060000  1.0 0.1302878182
H  H193  1  0.25030000  0.62230000  0.61380000  1.0 0.1480679278
H  H194  1  0.33650000  0.71270000  0.41890000  1.0 0.1125982264
H  H195  1  0.50740000  0.70940000  0.41840000  1.0 0.1204757669
H  H196  1  0.43530000  0.72290000  0.39830000  1.0 0.1013926958
H  H197  1  0.44440000  0.65900000  0.42960000  1.0 0.1302878182
H  H198  1  0.51390000  0.81590000  0.44280000  1.0 0.1204757669
H  H199  1  0.46180000  0.84620000  0.47690000  1.0 0.1302878182
H  H200  1  0.43980000  0.82820000  0.42620000  1.0 0.1371239953
H  H201  1  0.54110000  0.74430000  0.48720000  1.0 0.1204757669
H  H202  1  0.48910000  0.70390000  0.51970000  1.0 0.1371239953
H  H203  1  0.49590000  0.78390000  0.52110000  1.0 0.1302878182
H  H204  1  0.15340000  0.75160000  0.54380000  1.0 0.1302878182
H  H205  1  0.13620000  0.69620000  0.50590000  1.0 0.1302878182
H  H206  1  0.14220000  0.77380000  0.49260000  1.0 0.1480679278
H  H207  1  0.24270000  0.75930000  0.37550000  1.0 0.1302878182
H  H208  1  0.17110000  0.71790000  0.31810000  1.0 0.1302878182
H  H209  1  0.09010000  0.57750000  0.40400000  1.0 0.1302878182
H  H210  1  0.16160000  0.61900000  0.46130000  1.0 0.1204757669
H  H211  1  0.50520000  0.04660000  0.43230000  1.0 0.1371239953
H  H212  1  0.48240000  0.09840000  0.39510000  1.0 0.1577637215
H  H213  1  0.49540000  0.02320000  0.38100000  1.0 0.1577637215
H  H214  1  0.09170000  0.45230000  0.32680000  1.0 0.1302878182
H  H215  1  0.15580000  0.39880000  0.27350000  1.0 0.1302878182
H  H216  1  0.20790000  0.26710000  0.36900000  1.0 0.1302878182
H  H217  1  0.14380000  0.32060000  0.42230000  1.0 0.1302878182
H  H218  1  0.31430000  0.31090000  0.32400000  1.0 0.1125982264
H  H219  1  0.48140000  0.30600000  0.33200000  1.0 0.1302878182
H  H220  1  0.40530000  0.30010000  0.34870000  1.0 0.1204757669
H  H221  1  0.42920000  0.35560000  0.31220000  1.0 0.1204757669
H  H222  1  0.47770000  0.18650000  0.30890000  1.0 0.1302878182
H  H223  1  0.42490000  0.15790000  0.27200000  1.0 0.1371239953
H  H224  1  0.40080000  0.17200000  0.32250000  1.0 0.1480679278
H  H225  1  0.51100000  0.26820000  0.25870000  1.0 0.1204757669
H  H226  1  0.46020000  0.31320000  0.23280000  1.0 0.1302878182
H  H227  1  0.45700000  0.23420000  0.22470000  1.0 0.1302878182
H  H228  1  0.10990000  0.28910000  0.25400000  1.0 0.1302878182
H  H229  1  0.11850000  0.21770000  0.23140000  1.0 0.1480679278
H  H230  1  0.12680000  0.28400000  0.20130000  1.0 0.1302878182
H  H231  1  0.15450000  0.15950000  0.05890000  1.0 0.1204757669
H  H232  1  0.15200000  0.97080000  0.13430000  1.0 0.1302878182
H  H233  1  0.11430000  0.03690000  0.14500000  1.0 0.1204757669
H  H234  1  0.18400000  0.02500000  0.16910000  1.0 0.1302878182
H  H235  1  0.15210000  0.99470000  0.05230000  1.0 0.1371239953
H  H236  1  0.18070000  0.06610000  0.03400000  1.0 0.1204757669
H  H237  1  0.11220000  0.05980000  0.06190000  1.0 0.1204757669
H  H238  1  0.25600000  0.97540000  0.09160000  1.0 0.1302878182
H  H239  1  0.28660000  0.02760000  0.12820000  1.0 0.1371239953
H  H240  1  0.29050000  0.04570000  0.07560000  1.0 0.1371239953
H  H241  1  0.23530000  0.34870000  0.17680000  1.0 0.1302878182
H  H242  1  0.17050000  0.36110000  0.14730000  1.0 0.1302878182
H  H243  1  0.24250000  0.36290000  0.12380000  1.0 0.1480679278
H  H244  1  0.20160000  0.27900000  0.01210000  1.0 0.1302878182
H  H245  1  0.14870000  0.35310000  0.96500000  1.0 0.1371239953
H  H246  1  0.01590000  0.38590000  0.06450000  1.0 0.1302878182
H  H247  1  0.06890000  0.31190000  0.11150000  1.0 0.1204757669
H  H248  1  0.97030000  0.41970000  0.17720000  1.0 0.1204757669
H  H249  1  0.91320000  0.33680000  0.13380000  1.0 0.1204757669
H  H250  1  0.77080000  0.31380000  0.23070000  1.0 0.1204757669
H  H251  1  0.82770000  0.39670000  0.27410000  1.0 0.1302878182
H  H252  1  0.81000000  0.18960000  0.19480000  1.0 0.1204757669
H  H253  1  0.78640000  0.98640000  0.13130000  1.0 0.1302878182
H  H254  1  0.83170000  0.05010000  0.11430000  1.0 0.1302878182
H  H255  1  0.75830000  0.03510000  0.09400000  1.0 0.1371239953
H  H256  1  0.68870000  0.99830000  0.17750000  1.0 0.1302878182
H  H257  1  0.66080000  0.04440000  0.13860000  1.0 0.1371239953
H  H258  1  0.66370000  0.07030000  0.18970000  1.0 0.1302878182
H  H259  1  0.79320000  0.02340000  0.21240000  1.0 0.1371239953
H  H260  1  0.77330000  0.09670000  0.22620000  1.0 0.1204757669
H  H261  1  0.84090000  0.08730000  0.19880000  1.0 0.1204757669
H  H262  1  0.75380000  0.35400000  0.06230000  1.0 0.1371239953
H  H263  1  0.82090000  0.37010000  0.09060000  1.0 0.1302878182
H  H264  1  0.74970000  0.37770000  0.11380000  1.0 0.1480679278
H  H265  1  0.66350000  0.28730000  0.91890000  1.0 0.1125982264
H  H266  1  0.49260000  0.29060000  0.91840000  1.0 0.1204757669
H  H267  1  0.56470000  0.27710000  0.89830000  1.0 0.1013926958
H  H268  1  0.55560000  0.34100000  0.92960000  1.0 0.1302878182
H  H269  1  0.48610000  0.18410000  0.94280000  1.0 0.1204757669
H  H270  1  0.53820000  0.15380000  0.97690000  1.0 0.1302878182
H  H271  1  0.56020000  0.17180000  0.92620000  1.0 0.1371239953
H  H272  1  0.45890000  0.25570000  0.98720000  1.0 0.1125982264
H  H273  1  0.51090000  0.29610000  0.01970000  1.0 0.1371239953
H  H274  1  0.50410000  0.21610000  0.02110000  1.0 0.1302878182
H  H275  1  0.84660000  0.24840000  0.04380000  1.0 0.1302878182
H  H276  1  0.86380000  0.30380000  0.00590000  1.0 0.1302878182
H  H277  1  0.85780000  0.22620000  0.99260000  1.0 0.1480679278
H  H278  1  0.75730000  0.24070000  0.87550000  1.0 0.1302878182
H  H279  1  0.82890000  0.28210000  0.81810000  1.0 0.1302878182
H  H280  1  0.90990000  0.42250000  0.90400000  1.0 0.1302878182
H  H281  1  0.83840000  0.38100000  0.96130000  1.0 0.1204757669
H  H282  1  0.49480000  0.95340000  0.93230000  1.0 0.1371239953
H  H283  1  0.51760000  0.90160000  0.89510000  1.0 0.1577637215
H  H284  1  0.50460000  0.97680000  0.88100000  1.0 0.1577637215
C  C1  1  0.42260000  0.06800000  0.58770000  1.0 0.579295143
C  C2  1  0.39150000  0.11170000  0.62044000  1.0 -0.0395678448
C  C3  1  0.41473000  0.11527000  0.66465000  1.0 -0.0786605197
C  C4  1  0.38289000  0.15331000  0.69632000  1.0 -0.1431116665
C  C5  1  0.32791000  0.18789000  0.68378000  1.0 0.1013926958
C  C6  1  0.30469000  0.18431000  0.63956000  1.0 -0.1515172328
C  C7  1  0.33643000  0.14617000  0.60789000  1.0 -0.0913557819
C  C8  1  0.26020000  0.41720000  0.71540000  1.0 0.2937752625
C  C9  1  0.29764000  0.23256000  0.71677000  1.0 -0.0194849604
C  C10  1  0.27119000  0.20997000  0.75780000  1.0 0.1125982264
C  C11  1  0.23991000  0.25361000  0.78610000  1.0 -0.0677111581
C  C12  1  0.23511000  0.31989000  0.77337000  1.0 0.2023096775
C  C13  1  0.26153000  0.34247000  0.73234000  1.0 -0.0298142991
C  C14  1  0.29279000  0.29881000  0.70404000  1.0 -0.1742444652
C  C15  1  0.31000000  0.43480000  0.67720000  1.0 -0.4486174817
C  C16  1  0.18740000  0.43140000  0.70170000  1.0 -0.4778270404
C  C17  1  0.26980000  0.46540000  0.75300000  1.0 -0.4486174817
C  C18  1  0.26490000  0.13430000  0.76880000  1.0 -0.4486174817
C  C19  1  0.22106000  0.23424000  0.83381000  1.0 -0.0677111581
C  C20  1  0.26535000  0.20417000  0.86229000  1.0 0.1013926958
C  C21  1  0.24243000  0.17445000  0.90226000  1.0 -0.0111359261
C  C22  1  0.17522000  0.17478000  0.91375000  1.0 -0.1794380799
C  C23  1  0.13094000  0.20484000  0.88527000  1.0 -0.0194849604
C  C24  1  0.15385000  0.23457000  0.84530000  1.0 0.1927269046
C  C25  1  0.05450000  0.19550000  0.89760000  1.0 0.2937752625
C  C26  1  0.01850000  0.15810000  0.85880000  1.0 -0.4438510965
C  C27  1  0.04270000  0.15670000  0.94120000  1.0 -0.4609880651
C  C28  1  0.02290000  0.26330000  0.90090000  1.0 -0.4686700421
C  C29  1  0.34160000  0.21400000  0.85270000  1.0 -0.4438510965
C  C30  1  0.28853000  0.14027000  0.93379000  1.0 0.0888787304
C  C31  1  0.30069000  0.16391000  0.97730000  1.0 -0.1515172328
C  C32  1  0.34471000  0.13249000  0.00525000  1.0 -0.0786605197
C  C33  1  0.37647000  0.07733000  0.98967000  1.0 -0.0298142991
C  C34  1  0.36421000  0.05359000  0.94616000  1.0 -0.0913557819
C  C35  1  0.32019000  0.08501000  0.91821000  1.0 -0.1431116665
C  C36  1  0.42750000  0.04510000  0.01818000  1.0 0.579295143
C  C37  1  0.47430000  0.93710000  0.74572000  1.0 0.579295143
C  C38  1  0.41599000  0.90433000  0.77026000  1.0 -0.0395678448
C  C39  1  0.39816000  0.92976000  0.81192000  1.0 -0.0913557819
C  C40  1  0.34891000  0.89591000  0.83771000  1.0 -0.1515172328
C  C41  1  0.31746000  0.83666000  0.82185000  1.0 0.0848718529
C  C42  1  0.33530000  0.81122000  0.78019000  1.0 -0.1515172328
C  C43  1  0.38454000  0.84508000  0.75439000  1.0 -0.0786605197
C  C44  1  0.07560000  0.75680000  0.84110000  1.0 0.2996389439
C  C45  1  0.26445000  0.79981000  0.85074000  1.0 -0.0111359261
C  C46  1  0.27944000  0.77288000  0.89250000  1.0 0.1013926958
C  C47  1  0.22980000  0.73776000  0.91724000  1.0 -0.0677111581
C  C48  1  0.16517000  0.72955000  0.90022000  1.0 0.1927269046
C  C49  1  0.15017000  0.75647000  0.85846000  1.0 -0.0298142991
C  C50  1  0.19981000  0.79161000  0.83372000  1.0 -0.1794380799
C  C51  1  0.03290000  0.78590000  0.87880000  1.0 -0.4486174817
C  C52  1  0.04440000  0.68620000  0.83310000  1.0 -0.4686700421
C  C53  1  0.07020000  0.79440000  0.79700000  1.0 -0.4686700421
C  C54  1  0.35170000  0.77450000  0.90780000  1.0 -0.4438510965
C  C55  1  0.24146000  0.71824000  0.96545000  1.0 -0.0677111581
C  C56  1  0.26483000  0.76521000  0.99718000  1.0 0.1013926958
C  C57  1  0.28195000  0.74475000  0.04028000  1.0 -0.0111359261
C  C58  1  0.27562000  0.67742000  0.05164000  1.0 -0.1794380799
C  C59  1  0.25225000  0.63045000  0.01991000  1.0 -0.0194849604
C  C60  1  0.23518000  0.65084000  0.97681000  1.0 0.1927269046
C  C61  1  0.25290000  0.55570000  0.03390000  1.0 0.2752580141
C  C62  1  0.29400000  0.54080000  0.07560000  1.0 -0.431904381
C  C63  1  0.18500000  0.53320000  0.04820000  1.0 -0.4686700421
C  C64  1  0.25540000  0.50280000  0.99840000  1.0 -0.4438510965
C  C65  1  0.26040000  0.84020000  0.98790000  1.0 -0.4486174817
C  C66  1  0.30694000  0.79114000  0.07621000  1.0 0.0888787304
C  C67  1  0.27754000  0.78834000  0.11873000  1.0 -0.1431116665
C  C68  1  0.30219000  0.83079000  0.15279000  1.0 -0.0991793311
C  C69  1  0.35614000  0.87614000  0.14433000  1.0 -0.0194849604
C  C70  1  0.38555000  0.87895000  0.10180000  1.0 -0.0913557819
C  C71  1  0.36090000  0.83650000  0.06774000  1.0 -0.1326486374
C  C72  1  0.38120000  0.92500000  0.17940000  1.0 0.5646962022
C  C73  1  0.96860000  0.59120000  0.08590000  1.0 0.6870668029
C  C74  1  0.94850000  0.52130000  0.09510000  1.0 -0.6640635635
C  C75  1  0.57740000  0.93200000  0.08770000  1.0 0.579295143
C  C76  1  0.60850000  0.88830000  0.12044000  1.0 -0.0395678448
C  C77  1  0.58527000  0.88473000  0.16465000  1.0 -0.0786605197
C  C78  1  0.61711000  0.84669000  0.19632000  1.0 -0.1431116665
C  C79  1  0.67209000  0.81211000  0.18378000  1.0 0.1013926958
C  C80  1  0.69531000  0.81569000  0.13956000  1.0 -0.1515172328
C  C81  1  0.66357000  0.85383000  0.10789000  1.0 -0.0913557819
C  C82  1  0.73980000  0.58280000  0.21540000  1.0 0.2937752625
C  C83  1  0.70236000  0.76744000  0.21677000  1.0 -0.0194849604
C  C84  1  0.72881000  0.79003000  0.25780000  1.0 0.1013926958
C  C85  1  0.76009000  0.74639000  0.28610000  1.0 -0.0677111581
C  C86  1  0.76489000  0.68011000  0.27337000  1.0 0.2023096775
C  C87  1  0.73847000  0.65753000  0.23234000  1.0 -0.0298142991
C  C88  1  0.70721000  0.70119000  0.20404000  1.0 -0.1742444652
C  C89  1  0.69000000  0.56520000  0.17720000  1.0 -0.4486174817
C  C90  1  0.81260000  0.56860000  0.20170000  1.0 -0.4778270404
C  C91  1  0.73020000  0.53460000  0.25300000  1.0 -0.4486174817
C  C92  1  0.73510000  0.86570000  0.26880000  1.0 -0.4486174817
C  C93  1  0.77894000  0.76576000  0.33381000  1.0 -0.0677111581
C  C94  1  0.73465000  0.79583000  0.36229000  1.0 0.1013926958
C  C95  1  0.75757000  0.82555000  0.40226000  1.0 -0.0111359261
C  C96  1  0.82478000  0.82522000  0.41375000  1.0 -0.1794380799
C  C97  1  0.86906000  0.79516000  0.38527000  1.0 -0.0194849604
C  C98  1  0.84615000  0.76543000  0.34530000  1.0 0.1927269046
C  C99  1  0.94550000  0.80450000  0.39760000  1.0 0.2937752625
C  C100  1  0.98150000  0.84190000  0.35880000  1.0 -0.4438510965
C  C101  1  0.95730000  0.84330000  0.44120000  1.0 -0.4609880651
C  C102  1  0.97710000  0.73670000  0.40090000  1.0 -0.4686700421
C  C103  1  0.65840000  0.78600000  0.35270000  1.0 -0.4438510965
C  C104  1  0.71147000  0.85973000  0.43379000  1.0 0.0888787304
C  C105  1  0.69931000  0.83609000  0.47730000  1.0 -0.1515172328
C  C106  1  0.65529000  0.86751000  0.50525000  1.0 -0.0786605197
C  C107  1  0.62353000  0.92267000  0.48967000  1.0 -0.0298142991
C  C108  1  0.63579000  0.94641000  0.44616000  1.0 -0.0913557819
C  C109  1  0.67981000  0.91499000  0.41821000  1.0 -0.1431116665
C  C110  1  0.57250000  0.95490000  0.51818000  1.0 0.579295143
C  C111  1  0.52570000  0.06290000  0.24572000  1.0 0.579295143
C  C112  1  0.58401000  0.09567000  0.27026000  1.0 -0.0395678448
C  C113  1  0.60184000  0.07024000  0.31192000  1.0 -0.0913557819
C  C114  1  0.65109000  0.10409000  0.33771000  1.0 -0.1515172328
C  C115  1  0.68254000  0.16334000  0.32185000  1.0 0.0848718529
C  C116  1  0.66470000  0.18878000  0.28019000  1.0 -0.1515172328
C  C117  1  0.61546000  0.15492000  0.25439000  1.0 -0.0786605197
C  C118  1  0.92440000  0.24320000  0.34110000  1.0 0.2996389439
C  C119  1  0.73555000  0.20019000  0.35074000  1.0 -0.0111359261
C  C120  1  0.72056000  0.22712000  0.39250000  1.0 0.1013926958
C  C121  1  0.77020000  0.26224000  0.41724000  1.0 -0.0677111581
C  C122  1  0.83483000  0.27045000  0.40022000  1.0 0.1927269046
C  C123  1  0.84983000  0.24353000  0.35846000  1.0 -0.0298142991
C  C124  1  0.80019000  0.20839000  0.33372000  1.0 -0.1794380799
C  C125  1  0.96710000  0.21410000  0.37880000  1.0 -0.4486174817
C  C126  1  0.95560000  0.31380000  0.33310000  1.0 -0.4686700421
C  C127  1  0.92980000  0.20560000  0.29700000  1.0 -0.4686700421
C  C128  1  0.64830000  0.22550000  0.40780000  1.0 -0.4438510965
C  C129  1  0.75854000  0.28176000  0.46545000  1.0 -0.0677111581
C  C130  1  0.73517000  0.23479000  0.49718000  1.0 0.1013926958
C  C131  1  0.71805000  0.25525000  0.54028000  1.0 -0.0111359261
C  C132  1  0.72438000  0.32258000  0.55164000  1.0 -0.1794380799
C  C133  1  0.74775000  0.36955000  0.51991000  1.0 -0.0194849604
C  C134  1  0.76482000  0.34916000  0.47681000  1.0 0.1927269046
C  C135  1  0.74710000  0.44430000  0.53390000  1.0 0.2752580141
C  C136  1  0.70600000  0.45920000  0.57560000  1.0 -0.431904381
C  C137  1  0.81500000  0.46680000  0.54820000  1.0 -0.4686700421
C  C138  1  0.74460000  0.49720000  0.49840000  1.0 -0.4438510965
C  C139  1  0.73960000  0.15980000  0.48790000  1.0 -0.4486174817
C  C140  1  0.69306000  0.20886000  0.57621000  1.0 0.0888787304
C  C141  1  0.72246000  0.21166000  0.61873000  1.0 -0.1431116665
C  C142  1  0.69781000  0.16921000  0.65279000  1.0 -0.0991793311
C  C143  1  0.64386000  0.12386000  0.64433000  1.0 -0.0194849604
C  C144  1  0.61445000  0.12105000  0.60180000  1.0 -0.0913557819
C  C145  1  0.63910000  0.16350000  0.56774000  1.0 -0.1326486374
C  C146  1  0.61880000  0.07500000  0.67940000  1.0 0.5651119446
C  C147  1  0.03140000  0.40880000  0.58590000  1.0 0.6870668029
C  C148  1  0.05150000  0.47870000  0.59510000  1.0 -0.6640635635
C  C149  1  0.93200000  0.57740000  0.91230000  1.0 0.579295143
C  C150  1  0.88830000  0.60850000  0.87956000  1.0 -0.0395678448
C  C151  1  0.88473000  0.58527000  0.83535000  1.0 -0.0786605197
C  C152  1  0.84669000  0.61711000  0.80368000  1.0 -0.1431116665
C  C153  1  0.81211000  0.67209000  0.81622000  1.0 0.1013926958
C  C154  1  0.81569000  0.69531000  0.86044000  1.0 -0.1515172328
C  C155  1  0.85383000  0.66357000  0.89211000  1.0 -0.0913557819
C  C156  1  0.58280000  0.73980000  0.78460000  1.0 0.2937752625
C  C157  1  0.76744000  0.70236000  0.78323000  1.0 -0.0194849604
C  C158  1  0.79003000  0.72881000  0.74220000  1.0 0.1013926958
C  C159  1  0.74639000  0.76009000  0.71390000  1.0 -0.0677111581
C  C160  1  0.68011000  0.76489000  0.72663000  1.0 0.2023096775
C  C161  1  0.65753000  0.73847000  0.76766000  1.0 -0.0298142991
C  C162  1  0.70119000  0.70721000  0.79596000  1.0 -0.1742444652
C  C163  1  0.56520000  0.69000000  0.82280000  1.0 -0.4486174817
C  C164  1  0.56860000  0.81260000  0.79830000  1.0 -0.4778270404
C  C165  1  0.53460000  0.73020000  0.74700000  1.0 -0.4486174817
C  C166  1  0.86570000  0.73510000  0.73120000  1.0 -0.4486174817
C  C167  1  0.76576000  0.77894000  0.66619000  1.0 -0.0677111581
C  C168  1  0.79583000  0.73465000  0.63771000  1.0 0.1013926958
C  C169  1  0.82555000  0.75757000  0.59774000  1.0 -0.0111359261
C  C170  1  0.82522000  0.82478000  0.58625000  1.0 -0.1794380799
C  C171  1  0.79516000  0.86906000  0.61473000  1.0 -0.0194849604
C  C172  1  0.76543000  0.84615000  0.65470000  1.0 0.1927269046
C  C173  1  0.80450000  0.94550000  0.60240000  1.0 0.2937752625
C  C174  1  0.84190000  0.98150000  0.64120000  1.0 -0.4438510965
C  C175  1  0.84330000  0.95730000  0.55880000  1.0 -0.4609880651
C  C176  1  0.73670000  0.97710000  0.59910000  1.0 -0.4686700421
C  C177  1  0.78600000  0.65840000  0.64730000  1.0 -0.4438510965
C  C178  1  0.85973000  0.71147000  0.56621000  1.0 0.0888787304
C  C179  1  0.83609000  0.69931000  0.52270000  1.0 -0.1515172328
C  C180  1  0.86751000  0.65529000  0.49475000  1.0 -0.0786605197
C  C181  1  0.92267000  0.62353000  0.51033000  1.0 -0.0298142991
C  C182  1  0.94641000  0.63579000  0.55384000  1.0 -0.0913557819
C  C183  1  0.91499000  0.67981000  0.58179000  1.0 -0.1431116665
C  C184  1  0.95490000  0.57250000  0.48182000  1.0 0.579295143
C  C185  1  0.06290000  0.52570000  0.75428000  1.0 0.579295143
C  C186  1  0.09567000  0.58401000  0.72974000  1.0 -0.0395678448
C  C187  1  0.07024000  0.60184000  0.68808000  1.0 -0.0913557819
C  C188  1  0.10409000  0.65109000  0.66229000  1.0 -0.1515172328
C  C189  1  0.16334000  0.68254000  0.67815000  1.0 0.0848718529
C  C190  1  0.18878000  0.66470000  0.71981000  1.0 -0.1551186497
C  C191  1  0.15492000  0.61546000  0.74561000  1.0 -0.0786605197
C  C192  1  0.24320000  0.92440000  0.65890000  1.0 0.2996389439
C  C193  1  0.20019000  0.73555000  0.64926000  1.0 -0.0111359261
C  C194  1  0.22712000  0.72056000  0.60750000  1.0 0.1013926958
C  C195  1  0.26224000  0.77020000  0.58276000  1.0 -0.0642913784
C  C196  1  0.27045000  0.83483000  0.59978000  1.0 0.1927269046
C  C197  1  0.24353000  0.84983000  0.64154000  1.0 -0.0298142991
C  C198  1  0.20839000  0.80019000  0.66628000  1.0 -0.1794380799
C  C199  1  0.21410000  0.96710000  0.62120000  1.0 -0.4486174817
C  C200  1  0.31380000  0.95560000  0.66690000  1.0 -0.4686700421
C  C201  1  0.20560000  0.92980000  0.70300000  1.0 -0.4686700421
C  C202  1  0.22550000  0.64830000  0.59220000  1.0 -0.4438510965
C  C203  1  0.28176000  0.75854000  0.53455000  1.0 -0.0677111581
C  C204  1  0.23479000  0.73517000  0.50282000  1.0 0.1013926958
C  C205  1  0.25525000  0.71805000  0.45972000  1.0 -0.0111359261
C  C206  1  0.32258000  0.72438000  0.44836000  1.0 -0.1794380799
C  C207  1  0.36955000  0.74775000  0.48009000  1.0 -0.0194849604
C  C208  1  0.34916000  0.76482000  0.52319000  1.0 0.1927269046
C  C209  1  0.44430000  0.74710000  0.46610000  1.0 0.2752580141
C  C210  1  0.45920000  0.70600000  0.42440000  1.0 -0.431904381
C  C211  1  0.46680000  0.81500000  0.45180000  1.0 -0.4686700421
C  C212  1  0.49720000  0.74460000  0.50160000  1.0 -0.4438510965
C  C213  1  0.15980000  0.73960000  0.51210000  1.0 -0.4486174817
C  C214  1  0.20886000  0.69306000  0.42379000  1.0 0.0888787304
C  C215  1  0.21166000  0.72246000  0.38127000  1.0 -0.1431116665
C  C216  1  0.16921000  0.69781000  0.34721000  1.0 -0.0991793311
C  C217  1  0.12386000  0.64386000  0.35567000  1.0 -0.0194849604
C  C218  1  0.12105000  0.61445000  0.39820000  1.0 -0.0913557819
C  C219  1  0.16350000  0.63910000  0.43226000  1.0 -0.1326486374
C  C220  1  0.07500000  0.61880000  0.32060000  1.0 0.5646962022
C  C221  1  0.40880000  0.03140000  0.41410000  1.0 0.6870668029
C  C222  1  0.47870000  0.05150000  0.40490000  1.0 -0.6640635635
C  C223  1  0.06800000  0.42260000  0.41230000  1.0 0.579295143
C  C224  1  0.11170000  0.39150000  0.37956000  1.0 -0.0395678448
C  C225  1  0.11527000  0.41473000  0.33535000  1.0 -0.0786605197
C  C226  1  0.15331000  0.38289000  0.30368000  1.0 -0.1431116665
C  C227  1  0.18789000  0.32791000  0.31622000  1.0 0.1013926958
C  C228  1  0.18431000  0.30469000  0.36044000  1.0 -0.1515172328
C  C229  1  0.14617000  0.33643000  0.39211000  1.0 -0.0913557819
C  C230  1  0.41720000  0.26020000  0.28460000  1.0 0.2937752625
C  C231  1  0.23256000  0.29764000  0.28323000  1.0 -0.0194849604
C  C232  1  0.20997000  0.27119000  0.24220000  1.0 0.1125982264
C  C233  1  0.25361000  0.23991000  0.21390000  1.0 -0.0677111581
C  C234  1  0.31989000  0.23511000  0.22663000  1.0 0.2023096775
C  C235  1  0.34247000  0.26153000  0.26766000  1.0 -0.0298142991
C  C236  1  0.29881000  0.29279000  0.29596000  1.0 -0.1742444652
C  C237  1  0.43480000  0.31000000  0.32280000  1.0 -0.4486174817
C  C238  1  0.43140000  0.18740000  0.29830000  1.0 -0.4778270404
C  C239  1  0.46540000  0.26980000  0.24700000  1.0 -0.4486174817
C  C240  1  0.13430000  0.26490000  0.23120000  1.0 -0.4486174817
C  C241  1  0.23424000  0.22106000  0.16619000  1.0 -0.0677111581
C  C242  1  0.20417000  0.26535000  0.13771000  1.0 0.1013926958
C  C243  1  0.17445000  0.24243000  0.09774000  1.0 -0.0111359261
C  C244  1  0.17478000  0.17522000  0.08625000  1.0 -0.1794380799
C  C245  1  0.20484000  0.13094000  0.11473000  1.0 -0.0194849604
C  C246  1  0.23457000  0.15385000  0.15470000  1.0 0.1927269046
C  C247  1  0.19550000  0.05450000  0.10240000  1.0 0.2937752625
C  C248  1  0.15810000  0.01850000  0.14120000  1.0 -0.4438510965
C  C249  1  0.15670000  0.04270000  0.05880000  1.0 -0.4609880651
C  C250  1  0.26330000  0.02290000  0.09910000  1.0 -0.4686700421
C  C251  1  0.21400000  0.34160000  0.14730000  1.0 -0.4438510965
C  C252  1  0.14027000  0.28853000  0.06621000  1.0 0.0888787304
C  C253  1  0.16391000  0.30069000  0.02270000  1.0 -0.1515172328
C  C254  1  0.13249000  0.34471000  0.99475000  1.0 -0.0786605197
C  C255  1  0.07733000  0.37647000  0.01033000  1.0 -0.0298142991
C  C256  1  0.05359000  0.36421000  0.05384000  1.0 -0.0913557819
C  C257  1  0.08501000  0.32019000  0.08179000  1.0 -0.1431116665
C  C258  1  0.04510000  0.42750000  0.98182000  1.0 0.579295143
C  C259  1  0.93710000  0.47430000  0.25428000  1.0 0.579295143
C  C260  1  0.90433000  0.41599000  0.22974000  1.0 -0.0395678448
C  C261  1  0.92976000  0.39816000  0.18808000  1.0 -0.0913557819
C  C262  1  0.89591000  0.34891000  0.16229000  1.0 -0.1515172328
C  C263  1  0.83666000  0.31746000  0.17815000  1.0 0.0848718529
C  C264  1  0.81122000  0.33530000  0.21981000  1.0 -0.1515172328
C  C265  1  0.84508000  0.38454000  0.24561000  1.0 -0.0786605197
C  C266  1  0.75680000  0.07560000  0.15890000  1.0 0.2996389439
C  C267  1  0.79981000  0.26445000  0.14926000  1.0 -0.0111359261
C  C268  1  0.77288000  0.27944000  0.10750000  1.0 0.1013926958
C  C269  1  0.73776000  0.22980000  0.08276000  1.0 -0.0642913784
C  C270  1  0.72955000  0.16517000  0.09978000  1.0 0.1927269046
C  C271  1  0.75647000  0.15017000  0.14154000  1.0 -0.0298142991
C  C272  1  0.79161000  0.19981000  0.16628000  1.0 -0.1794380799
C  C273  1  0.78590000  0.03290000  0.12120000  1.0 -0.4486174817
C  C274  1  0.68620000  0.04440000  0.16690000  1.0 -0.4686700421
C  C275  1  0.79440000  0.07020000  0.20300000  1.0 -0.4686700421
C  C276  1  0.77450000  0.35170000  0.09220000  1.0 -0.4438510965
C  C277  1  0.71824000  0.24146000  0.03455000  1.0 -0.0677111581
C  C278  1  0.76521000  0.26483000  0.00282000  1.0 0.1013926958
C  C279  1  0.74475000  0.28195000  0.95972000  1.0 -0.0111359261
C  C280  1  0.67742000  0.27562000  0.94836000  1.0 -0.1794380799
C  C281  1  0.63045000  0.25225000  0.98009000  1.0 -0.0194849604
C  C282  1  0.65084000  0.23518000  0.02319000  1.0 0.1927269046
C  C283  1  0.55570000  0.25290000  0.96610000  1.0 0.2748182808
C  C284  1  0.54080000  0.29400000  0.92440000  1.0 -0.431904381
C  C285  1  0.53320000  0.18500000  0.95180000  1.0 -0.4686700421
C  C286  1  0.50280000  0.25540000  0.00160000  1.0 -0.4438510965
C  C287  1  0.84020000  0.26040000  0.01210000  1.0 -0.4486174817
C  C288  1  0.79114000  0.30694000  0.92379000  1.0 0.0888787304
C  C289  1  0.78834000  0.27754000  0.88127000  1.0 -0.1431116665
C  C290  1  0.83079000  0.30219000  0.84721000  1.0 -0.0991793311
C  C291  1  0.87614000  0.35614000  0.85567000  1.0 -0.0194849604
C  C292  1  0.87895000  0.38555000  0.89820000  1.0 -0.0913557819
C  C293  1  0.83650000  0.36090000  0.93226000  1.0 -0.1326486374
C  C294  1  0.92500000  0.38120000  0.82060000  1.0 0.5646962022
C  C295  1  0.59120000  0.96860000  0.91410000  1.0 0.6870668029
C  C296  1  0.52130000  0.94850000  0.90490000  1.0 -0.6640635635
O  O1  1  0.40730000  0.07350000  0.54661000  1.0 -0.5336292292
O  O2  1  0.46369000  0.02839000  0.60025000  1.0 -0.5566992665
O  O3  1  0.20125000  0.36005000  0.80005000  1.0 -0.3967658187
O  O4  1  0.11088000  0.26548000  0.81737000  1.0 -0.431904381
O  O5  1  0.08372000  0.35548000  0.76696000  1.0 -0.7686890717
O  O6  1  0.10911000  0.38289000  0.84998000  1.0 -0.744746616
O  O7  1  0.46058000  0.00472000  0.99762000  1.0 -0.5481906141
O  O8  1  0.43524000  0.06416000  0.05804000  1.0 -0.5356701816
O  O9  1  0.50982000  0.97978000  0.76568000  1.0 -0.5136844794
O  O10  1  0.48197000  0.91925000  0.70431000  1.0 -0.5759898479
O  O11  1  0.11952000  0.68976000  0.92411000  1.0 -0.431904381
O  O12  1  0.20553000  0.60863000  0.94563000  1.0 -0.4138489197
O  O13  1  0.08703000  0.59763000  0.97289000  1.0 -0.7686890717
O  O14  1  0.11932000  0.57052000  0.89219000  1.0 -0.7517329161
O  O15  1  0.35595000  0.92015000  0.21852000  1.0 -0.4900360796
O  O16  1  0.42336000  0.96924000  0.17052000  1.0 -0.5231012608
O  O17  1  0.97690000  0.35370000  0.69183000  1.0 -0.5136844794
O  O18  1  0.98100000  0.59840000  0.04580000  1.0 -0.4900360796
O  O19  1  0.97160000  0.63900000  0.11210000  1.0 -0.3611895944
O  O20  1  0.59270000  0.92650000  0.04661000  1.0 -0.5336292292
O  O21  1  0.53631000  0.97161000  0.10025000  1.0 -0.5566992665
O  O22  1  0.79875000  0.63995000  0.30005000  1.0 -0.3967658187
O  O23  1  0.88912000  0.73452000  0.31737000  1.0 -0.431904381
O  O24  1  0.91628000  0.64452000  0.26696000  1.0 -0.7686890717
O  O25  1  0.89089000  0.61711000  0.34998000  1.0 -0.7517329161
O  O26  1  0.53942000  0.99528000  0.49762000  1.0 -0.5481906141
O  O27  1  0.56476000  0.93584000  0.55804000  1.0 -0.5356701816
O  O28  1  0.49018000  0.02022000  0.26568000  1.0 -0.5136844794
O  O29  1  0.51803000  0.08075000  0.20431000  1.0 -0.5759898479
O  O30  1  0.88048000  0.31024000  0.42411000  1.0 -0.431904381
O  O31  1  0.79447000  0.39137000  0.44563000  1.0 -0.4138489197
O  O32  1  0.91297000  0.40237000  0.47289000  1.0 -0.7686890717
O  O33  1  0.88068000  0.42948000  0.39219000  1.0 -0.7517329161
O  O34  1  0.64405000  0.07985000  0.71852000  1.0 -0.4900360796
O  O35  1  0.57664000  0.03076000  0.67052000  1.0 -0.5231012608
O  O36  1  0.02310000  0.64630000  0.19183000  1.0 -0.5136844794
O  O37  1  0.01900000  0.40160000  0.54580000  1.0 -0.4900360796
O  O38  1  0.02840000  0.36100000  0.61210000  1.0 -0.3611895944
O  O39  1  0.92650000  0.59270000  0.95339000  1.0 -0.5336292292
O  O40  1  0.97161000  0.53631000  0.89975000  1.0 -0.5566992665
O  O41  1  0.63995000  0.79875000  0.69995000  1.0 -0.3967658187
O  O42  1  0.73452000  0.88912000  0.68263000  1.0 -0.431904381
O  O43  1  0.64452000  0.91628000  0.73304000  1.0 -0.7686890717
O  O44  1  0.61711000  0.89089000  0.65002000  1.0 -0.7517329161
O  O45  1  0.99528000  0.53942000  0.50238000  1.0 -0.5481906141
O  O46  1  0.93584000  0.56476000  0.44196000  1.0 -0.5356701816
O  O47  1  0.02022000  0.49018000  0.73432000  1.0 -0.5136844794
O  O48  1  0.08075000  0.51803000  0.79569000  1.0 -0.5759898479
O  O49  1  0.31024000  0.88048000  0.57589000  1.0 -0.431904381
O  O50  1  0.39137000  0.79447000  0.55437000  1.0 -0.4138489197
O  O51  1  0.40237000  0.91297000  0.52711000  1.0 -0.7686890717
O  O52  1  0.42948000  0.88068000  0.60781000  1.0 -0.7517329161
O  O53  1  0.07985000  0.64405000  0.28148000  1.0 -0.4900360796
O  O54  1  0.03076000  0.57664000  0.32948000  1.0 -0.5231012608
O  O55  1  0.64630000  0.02310000  0.80817000  1.0 -0.5136844794
O  O56  1  0.40160000  0.01900000  0.45420000  1.0 -0.4900360796
O  O57  1  0.36100000  0.02840000  0.38790000  1.0 -0.3611895944
O  O58  1  0.07350000  0.40730000  0.45339000  1.0 -0.5336292292
O  O59  1  0.02839000  0.46369000  0.39975000  1.0 -0.5566992665
O  O60  1  0.36005000  0.20125000  0.19995000  1.0 -0.3967658187
O  O61  1  0.26548000  0.11088000  0.18263000  1.0 -0.431904381
O  O62  1  0.35548000  0.08372000  0.23304000  1.0 -0.7686890717
O  O63  1  0.38289000  0.10911000  0.15002000  1.0 -0.744746616
O  O64  1  0.00472000  0.46058000  0.00238000  1.0 -0.5481906141
O  O65  1  0.06416000  0.43524000  0.94196000  1.0 -0.5356701816
O  O66  1  0.97978000  0.50982000  0.23432000  1.0 -0.5136844794
O  O67  1  0.91925000  0.48197000  0.29569000  1.0 -0.5759898479
O  O68  1  0.68976000  0.11952000  0.07589000  1.0 -0.431904381
O  O69  1  0.60863000  0.20553000  0.05437000  1.0 -0.4138489197
O  O70  1  0.59763000  0.08703000  0.02711000  1.0 -0.7686890717
O  O71  1  0.57052000  0.11932000  0.10781000  1.0 -0.7517329161
O  O72  1  0.92015000  0.35595000  0.78148000  1.0 -0.4900360796
O  O73  1  0.96924000  0.42336000  0.82948000  1.0 -0.5231012608
O  O74  1  0.35370000  0.97690000  0.30817000  1.0 -0.5136844794
O  O75  1  0.59840000  0.98100000  0.95420000  1.0 -0.4900360796
O  O76  1  0.63900000  0.97160000  0.88790000  1.0 -0.3611895944
