# DDEC6 charges by PACMAN v1.1 (https://github.com/mtap-research/PACMAN-charge/)
data_WERCOO_FSR_pacman
_symmetry_space_group_name_H-M   'P 1'
_cell_length_a   19.89060000
_cell_length_b   19.89060000
_cell_length_c   29.57280000
_cell_angle_alpha   90.00000000
_cell_angle_beta   90.00000000
_cell_angle_gamma   94.40230000
_symmetry_Int_Tables_number   1
_chemical_formula_structural   Zr3P2H71C74O19
_chemical_formula_sum   'Zr12 P8 H284 C296 O76'
_cell_volume   11665.54433734
_cell_formula_units_Z   4
loop_
 _symmetry_equiv_pos_site_id
 _symmetry_equiv_pos_as_xyz
  1  'x, y, z'
loop_
 _atom_site_type_symbol
 _atom_site_label
 _atom_site_symmetry_multiplicity
 _atom_site_fract_x
 _atom_site_fract_y
 _atom_site_fract_z
 _atom_site_occupancy
 _atom_site_charge
Zr  Zr1  1  0.99471000  0.39389000  0.74825000  1.0 2.1899867292
Zr  Zr2  1  0.05109000  0.47365000  0.86687000  1.0 2.1899867292
Zr  Zr3  1  0.99606000  0.55072000  0.98800000  1.0 2.0844378408
Zr  Zr4  1  0.00529000  0.60611000  0.24825000  1.0 2.1899867292
Zr  Zr5  1  0.94891000  0.52635000  0.36687000  1.0 2.1899867292
Zr  Zr6  1  0.00394000  0.44928000  0.48800000  1.0 2.0844378408
Zr  Zr7  1  0.60611000  0.00529000  0.75175000  1.0 2.1899867292
Zr  Zr8  1  0.52635000  0.94891000  0.63313000  1.0 2.1899867292
Zr  Zr9  1  0.44928000  0.00394000  0.51200000  1.0 2.0844378408
Zr  Zr10  1  0.39389000  0.99471000  0.25175000  1.0 2.1899867292
Zr  Zr11  1  0.47365000  0.05109000  0.13313000  1.0 2.1899867292
Zr  Zr12  1  0.55072000  0.99606000  0.01200000  1.0 2.0844378408
P  P1  1  0.11420000  0.33968000  0.80812000  1.0 1.4095458027
P  P2  1  0.12843000  0.60449000  0.93176000  1.0 1.4224801596
P  P3  1  0.88580000  0.66032000  0.30812000  1.0 1.4095458027
P  P4  1  0.87157000  0.39551000  0.43176000  1.0 1.4224801596
P  P5  1  0.66032000  0.88580000  0.69188000  1.0 1.4095458027
P  P6  1  0.39551000  0.87157000  0.56824000  1.0 1.4224801596
P  P7  1  0.33968000  0.11420000  0.19188000  1.0 1.4095458027
P  P8  1  0.60449000  0.12843000  0.06824000  1.0 1.4224801596
H  H1  1  0.45410000  0.09650000  0.67330000  1.0 0.1215004329
H  H2  1  0.40060000  0.16040000  0.72590000  1.0 0.1215004329
H  H3  1  0.27010000  0.21150000  0.63040000  1.0 0.12841196
H  H4  1  0.32370000  0.14750000  0.57780000  1.0 0.12841196
H  H5  1  0.30770000  0.31710000  0.67590000  1.0 0.1106322319
H  H6  1  0.29610000  0.48210000  0.66620000  1.0 0.1215004329
H  H7  1  0.29020000  0.40640000  0.65070000  1.0 0.1008682637
H  H8  1  0.34610000  0.43190000  0.68540000  1.0 0.1008682637
H  H9  1  0.17820000  0.47540000  0.68880000  1.0 0.1215004329
H  H10  1  0.14800000  0.42000000  0.72240000  1.0 0.1106322319
H  H11  1  0.16890000  0.39990000  0.67340000  1.0 0.140004363
H  H12  1  0.26060000  0.51220000  0.74050000  1.0 0.1106322319
H  H13  1  0.31000000  0.46420000  0.76300000  1.0 0.1215004329
H  H14  1  0.23330000  0.45830000  0.77600000  1.0 0.1215004329
H  H15  1  0.24840000  0.12300000  0.79630000  1.0 0.12841196
H  H16  1  0.31300000  0.11740000  0.76660000  1.0 0.1215004329
H  H17  1  0.24120000  0.10740000  0.74450000  1.0 0.140004363
H  H18  1  0.15520000  0.14740000  0.93960000  1.0 0.1106322319
H  H19  1  0.96680000  0.13960000  0.86230000  1.0 0.1106322319
H  H20  1  0.03320000  0.10320000  0.85520000  1.0 0.1106322319
H  H21  1  0.02210000  0.16970000  0.82870000  1.0 0.1215004329
H  H22  1  0.98360000  0.14540000  0.94410000  1.0 0.12841196
H  H23  1  0.05280000  0.17480000  0.96410000  1.0 0.1106322319
H  H24  1  0.04820000  0.10580000  0.93820000  1.0 0.1106322319
H  H25  1  0.96430000  0.24270000  0.90230000  1.0 0.1215004329
H  H26  1  0.01580000  0.27480000  0.86680000  1.0 0.1215004329
H  H27  1  0.03100000  0.28240000  0.91860000  1.0 0.1215004329
H  H28  1  0.34740000  0.23480000  0.82560000  1.0 0.12841196
H  H29  1  0.35800000  0.17000000  0.85400000  1.0 0.1215004329
H  H30  1  0.35950000  0.24030000  0.87790000  1.0 0.140004363
H  H31  1  0.26340000  0.18500000  0.99010000  1.0 0.1215004329
H  H32  1  0.33440000  0.13020000  0.03740000  1.0 0.12841196
H  H33  1  0.39050000  0.01850000  0.93270000  1.0 0.1215004329
H  H34  1  0.31950000  0.07330000  0.88540000  1.0 0.1215004329
H  H35  1  0.42050000  0.97250000  0.82450000  1.0 0.1215004329
H  H36  1  0.33620000  0.91560000  0.86690000  1.0 0.1215004329
H  H37  1  0.31290000  0.77330000  0.77050000  1.0 0.1215004329
H  H38  1  0.39730000  0.83030000  0.72810000  1.0 0.12841196
H  H39  1  0.18680000  0.80940000  0.80650000  1.0 0.1106322319
H  H40  1  0.98350000  0.77990000  0.86620000  1.0 0.1215004329
H  H41  1  0.04580000  0.82880000  0.87990000  1.0 0.1215004329
H  H42  1  0.03200000  0.75940000  0.90470000  1.0 0.12841196
H  H43  1  0.99810000  0.67690000  0.82110000  1.0 0.1215004329
H  H44  1  0.04520000  0.64960000  0.85820000  1.0 0.1215004329
H  H45  1  0.07050000  0.65730000  0.80810000  1.0 0.1215004329
H  H46  1  0.01960000  0.78480000  0.78730000  1.0 0.12841196
H  H47  1  0.09320000  0.76980000  0.77390000  1.0 0.1106322319
H  H48  1  0.08060000  0.83500000  0.80150000  1.0 0.1106322319
H  H49  1  0.37850000  0.80510000  0.88790000  1.0 0.1215004329
H  H50  1  0.36740000  0.73240000  0.90850000  1.0 0.1497292417
H  H51  1  0.35560000  0.79560000  0.93840000  1.0 0.12841196
H  H52  1  0.28920000  0.65600000  0.07920000  1.0 0.1106322319
H  H53  1  0.27400000  0.54820000  0.09670000  1.0 0.1106322319
H  H54  1  0.34310000  0.55690000  0.07100000  1.0 0.1008682637
H  H55  1  0.30310000  0.48590000  0.07340000  1.0 0.1106322319
H  H56  1  0.17610000  0.51110000  0.99580000  1.0 0.1215004329
H  H57  1  0.17100000  0.50840000  0.04870000  1.0 0.12841196
H  H58  1  0.21230000  0.45650000  0.02280000  1.0 0.1215004329
H  H59  1  0.29560000  0.52600000  0.96330000  1.0 0.1215004329
H  H60  1  0.31400000  0.47340000  0.99990000  1.0 0.1106322319
H  H61  1  0.35470000  0.54390000  0.99730000  1.0 0.1106322319
H  H62  1  0.24340000  0.84320000  0.95870000  1.0 0.1215004329
H  H63  1  0.30030000  0.86010000  0.99460000  1.0 0.1215004329
H  H64  1  0.22440000  0.85440000  0.00950000  1.0 0.140004363
H  H65  1  0.23880000  0.74860000  0.12620000  1.0 0.12841196
H  H66  1  0.28100000  0.81840000  0.18410000  1.0 0.12841196
H  H67  1  0.41750000  0.90710000  0.09870000  1.0 0.1106322319
H  H68  1  0.37550000  0.83730000  0.04080000  1.0 0.1106322319
H  H69  1  0.98820000  0.48900000  0.07900000  1.0 0.1008682637
H  H70  1  0.95910000  0.50470000  0.12680000  1.0 0.1497292417
H  H71  1  0.03400000  0.52820000  0.11490000  1.0 0.1703537378
H  H72  1  0.54590000  0.90350000  0.17330000  1.0 0.1215004329
H  H73  1  0.59940000  0.83960000  0.22590000  1.0 0.1215004329
H  H74  1  0.72990000  0.78850000  0.13040000  1.0 0.12841196
H  H75  1  0.67630000  0.85250000  0.07780000  1.0 0.12841196
H  H76  1  0.69230000  0.68290000  0.17590000  1.0 0.1106322319
H  H77  1  0.70390000  0.51790000  0.16620000  1.0 0.1215004329
H  H78  1  0.70980000  0.59360000  0.15070000  1.0 0.1008682637
H  H79  1  0.65390000  0.56810000  0.18540000  1.0 0.1008682637
H  H80  1  0.82180000  0.52460000  0.18880000  1.0 0.1215004329
H  H81  1  0.85200000  0.58000000  0.22240000  1.0 0.1106322319
H  H82  1  0.83110000  0.60010000  0.17340000  1.0 0.140004363
H  H83  1  0.73940000  0.48780000  0.24050000  1.0 0.1106322319
H  H84  1  0.69000000  0.53580000  0.26300000  1.0 0.1215004329
H  H85  1  0.76670000  0.54170000  0.27600000  1.0 0.1215004329
H  H86  1  0.75160000  0.87700000  0.29630000  1.0 0.12841196
H  H87  1  0.68700000  0.88260000  0.26660000  1.0 0.1215004329
H  H88  1  0.75880000  0.89260000  0.24450000  1.0 0.140004363
H  H89  1  0.84480000  0.85260000  0.43960000  1.0 0.1106322319
H  H90  1  0.03320000  0.86040000  0.36230000  1.0 0.1106322319
H  H91  1  0.96680000  0.89680000  0.35520000  1.0 0.1106322319
H  H92  1  0.97790000  0.83030000  0.32870000  1.0 0.1215004329
H  H93  1  0.01640000  0.85460000  0.44410000  1.0 0.12841196
H  H94  1  0.94720000  0.82520000  0.46410000  1.0 0.1106322319
H  H95  1  0.95180000  0.89420000  0.43820000  1.0 0.1106322319
H  H96  1  0.03570000  0.75730000  0.40230000  1.0 0.1215004329
H  H97  1  0.98420000  0.72520000  0.36680000  1.0 0.12841196
H  H98  1  0.96900000  0.71760000  0.41860000  1.0 0.1215004329
H  H99  1  0.65260000  0.76520000  0.32560000  1.0 0.12841196
H  H100  1  0.64200000  0.83000000  0.35400000  1.0 0.1215004329
H  H101  1  0.64050000  0.75970000  0.37790000  1.0 0.140004363
H  H102  1  0.73660000  0.81500000  0.49010000  1.0 0.1215004329
H  H103  1  0.66560000  0.86980000  0.53740000  1.0 0.12841196
H  H104  1  0.60950000  0.98150000  0.43270000  1.0 0.1215004329
H  H105  1  0.68050000  0.92670000  0.38540000  1.0 0.1215004329
H  H106  1  0.57950000  0.02750000  0.32450000  1.0 0.1215004329
H  H107  1  0.66380000  0.08440000  0.36690000  1.0 0.1215004329
H  H108  1  0.68710000  0.22670000  0.27050000  1.0 0.1215004329
H  H109  1  0.60270000  0.16970000  0.22810000  1.0 0.12841196
H  H110  1  0.81320000  0.19060000  0.30650000  1.0 0.1106322319
H  H111  1  0.01650000  0.22010000  0.36620000  1.0 0.1215004329
H  H112  1  0.95420000  0.17120000  0.37990000  1.0 0.1215004329
H  H113  1  0.96800000  0.24060000  0.40470000  1.0 0.12841196
H  H114  1  0.00190000  0.32310000  0.32110000  1.0 0.1215004329
H  H115  1  0.95480000  0.35040000  0.35820000  1.0 0.1215004329
H  H116  1  0.92950000  0.34270000  0.30810000  1.0 0.1215004329
H  H117  1  0.98040000  0.21520000  0.28730000  1.0 0.12841196
H  H118  1  0.90680000  0.23020000  0.27390000  1.0 0.1106322319
H  H119  1  0.91940000  0.16500000  0.30150000  1.0 0.1106322319
H  H120  1  0.62150000  0.19490000  0.38790000  1.0 0.1215004329
H  H121  1  0.63260000  0.26760000  0.40850000  1.0 0.1497292417
H  H122  1  0.64440000  0.20440000  0.43840000  1.0 0.12841196
H  H123  1  0.71080000  0.34400000  0.57920000  1.0 0.1106322319
H  H124  1  0.72600000  0.45180000  0.59670000  1.0 0.1106322319
H  H125  1  0.65690000  0.44310000  0.57100000  1.0 0.1008682637
H  H126  1  0.69690000  0.51410000  0.57340000  1.0 0.1106322319
H  H127  1  0.82390000  0.48890000  0.49580000  1.0 0.1215004329
H  H128  1  0.82900000  0.49160000  0.54870000  1.0 0.12841196
H  H129  1  0.78770000  0.54350000  0.52280000  1.0 0.1215004329
H  H130  1  0.70440000  0.47400000  0.46330000  1.0 0.1215004329
H  H131  1  0.68600000  0.52660000  0.49990000  1.0 0.1106322319
H  H132  1  0.64530000  0.45610000  0.49730000  1.0 0.1106322319
H  H133  1  0.75660000  0.15680000  0.45870000  1.0 0.1215004329
H  H134  1  0.69970000  0.13990000  0.49460000  1.0 0.1215004329
H  H135  1  0.77560000  0.14560000  0.50950000  1.0 0.140004363
H  H136  1  0.76120000  0.25140000  0.62620000  1.0 0.12841196
H  H137  1  0.71900000  0.18160000  0.68410000  1.0 0.12841196
H  H138  1  0.58250000  0.09290000  0.59870000  1.0 0.1106322319
H  H139  1  0.62450000  0.16270000  0.54080000  1.0 0.1106322319
H  H140  1  0.01180000  0.51100000  0.57900000  1.0 0.1008682637
H  H141  1  0.04090000  0.49530000  0.62680000  1.0 0.1497292417
H  H142  1  0.96600000  0.47180000  0.61490000  1.0 0.1703537378
H  H143  1  0.90350000  0.54590000  0.82670000  1.0 0.1215004329
H  H144  1  0.83960000  0.59940000  0.77410000  1.0 0.1215004329
H  H145  1  0.78850000  0.72990000  0.86960000  1.0 0.12841196
H  H146  1  0.85250000  0.67630000  0.92220000  1.0 0.12841196
H  H147  1  0.68290000  0.69230000  0.82410000  1.0 0.1106322319
H  H148  1  0.51790000  0.70390000  0.83380000  1.0 0.1215004329
H  H149  1  0.59360000  0.70980000  0.84930000  1.0 0.1008682637
H  H150  1  0.56810000  0.65390000  0.81460000  1.0 0.1008682637
H  H151  1  0.52460000  0.82180000  0.81120000  1.0 0.1215004329
H  H152  1  0.58000000  0.85200000  0.77760000  1.0 0.1106322319
H  H153  1  0.60010000  0.83110000  0.82660000  1.0 0.140004363
H  H154  1  0.48780000  0.73940000  0.75950000  1.0 0.1106322319
H  H155  1  0.53580000  0.69000000  0.73700000  1.0 0.1215004329
H  H156  1  0.54170000  0.76670000  0.72400000  1.0 0.1215004329
H  H157  1  0.87700000  0.75160000  0.70370000  1.0 0.1215004329
H  H158  1  0.88260000  0.68700000  0.73340000  1.0 0.1215004329
H  H159  1  0.89260000  0.75880000  0.75550000  1.0 0.140004363
H  H160  1  0.85260000  0.84480000  0.56040000  1.0 0.1106322319
H  H161  1  0.86040000  0.03320000  0.63770000  1.0 0.1106322319
H  H162  1  0.89680000  0.96680000  0.64480000  1.0 0.1106322319
H  H163  1  0.83030000  0.97790000  0.67130000  1.0 0.1215004329
H  H164  1  0.85460000  0.01640000  0.55590000  1.0 0.12841196
H  H165  1  0.82520000  0.94720000  0.53590000  1.0 0.1106322319
H  H166  1  0.89420000  0.95180000  0.56180000  1.0 0.1106322319
H  H167  1  0.75730000  0.03570000  0.59770000  1.0 0.1215004329
H  H168  1  0.72520000  0.98420000  0.63320000  1.0 0.1215004329
H  H169  1  0.71760000  0.96900000  0.58140000  1.0 0.1215004329
H  H170  1  0.76520000  0.65260000  0.67440000  1.0 0.12841196
H  H171  1  0.83000000  0.64200000  0.64600000  1.0 0.1215004329
H  H172  1  0.75970000  0.64050000  0.62210000  1.0 0.140004363
H  H173  1  0.81500000  0.73660000  0.50990000  1.0 0.1215004329
H  H174  1  0.86980000  0.66560000  0.46260000  1.0 0.12841196
H  H175  1  0.98150000  0.60950000  0.56730000  1.0 0.1215004329
H  H176  1  0.92670000  0.68050000  0.61460000  1.0 0.1215004329
H  H177  1  0.02750000  0.57950000  0.67550000  1.0 0.1215004329
H  H178  1  0.08440000  0.66380000  0.63310000  1.0 0.1215004329
H  H179  1  0.22670000  0.68710000  0.72950000  1.0 0.1215004329
H  H180  1  0.16970000  0.60270000  0.77190000  1.0 0.12841196
H  H181  1  0.19060000  0.81320000  0.69350000  1.0 0.1106322319
H  H182  1  0.22010000  0.01650000  0.63380000  1.0 0.1215004329
H  H183  1  0.17120000  0.95420000  0.62010000  1.0 0.1215004329
H  H184  1  0.24060000  0.96800000  0.59530000  1.0 0.12841196
H  H185  1  0.32310000  0.00190000  0.67890000  1.0 0.1215004329
H  H186  1  0.35040000  0.95480000  0.64180000  1.0 0.1215004329
H  H187  1  0.34270000  0.92950000  0.69190000  1.0 0.1215004329
H  H188  1  0.21520000  0.98040000  0.71270000  1.0 0.12841196
H  H189  1  0.23020000  0.90680000  0.72610000  1.0 0.1106322319
H  H190  1  0.16500000  0.91940000  0.69850000  1.0 0.1106322319
H  H191  1  0.19490000  0.62150000  0.61210000  1.0 0.1215004329
H  H192  1  0.26760000  0.63260000  0.59150000  1.0 0.1497292417
H  H193  1  0.20440000  0.64440000  0.56160000  1.0 0.12841196
H  H194  1  0.34400000  0.71080000  0.42080000  1.0 0.1106322319
H  H195  1  0.45180000  0.72600000  0.40330000  1.0 0.1106322319
H  H196  1  0.44310000  0.65690000  0.42900000  1.0 0.1008682637
H  H197  1  0.51410000  0.69690000  0.42660000  1.0 0.1106322319
H  H198  1  0.48890000  0.82390000  0.50420000  1.0 0.1215004329
H  H199  1  0.49160000  0.82900000  0.45130000  1.0 0.12841196
H  H200  1  0.54350000  0.78770000  0.47720000  1.0 0.1215004329
H  H201  1  0.47400000  0.70440000  0.53670000  1.0 0.1215004329
H  H202  1  0.52660000  0.68600000  0.50010000  1.0 0.1106322319
H  H203  1  0.45610000  0.64530000  0.50270000  1.0 0.1106322319
H  H204  1  0.15680000  0.75660000  0.54130000  1.0 0.1215004329
H  H205  1  0.13990000  0.69970000  0.50540000  1.0 0.1215004329
H  H206  1  0.14560000  0.77560000  0.49050000  1.0 0.140004363
H  H207  1  0.25140000  0.76120000  0.37380000  1.0 0.12841196
H  H208  1  0.18160000  0.71900000  0.31590000  1.0 0.12841196
H  H209  1  0.09290000  0.58250000  0.40130000  1.0 0.1106322319
H  H210  1  0.16270000  0.62450000  0.45920000  1.0 0.1106322319
H  H211  1  0.51100000  0.01180000  0.42100000  1.0 0.1008682637
H  H212  1  0.49530000  0.04090000  0.37320000  1.0 0.1497292417
H  H213  1  0.47180000  0.96600000  0.38510000  1.0 0.1703537378
H  H214  1  0.09650000  0.45410000  0.32670000  1.0 0.1215004329
H  H215  1  0.16040000  0.40060000  0.27410000  1.0 0.1215004329
H  H216  1  0.21150000  0.27010000  0.36960000  1.0 0.12841196
H  H217  1  0.14750000  0.32370000  0.42220000  1.0 0.12841196
H  H218  1  0.31710000  0.30770000  0.32410000  1.0 0.1106322319
H  H219  1  0.48210000  0.29610000  0.33380000  1.0 0.1215004329
H  H220  1  0.40640000  0.29020000  0.34930000  1.0 0.1008682637
H  H221  1  0.43190000  0.34610000  0.31460000  1.0 0.1008682637
H  H222  1  0.47540000  0.17820000  0.31120000  1.0 0.1215004329
H  H223  1  0.42000000  0.14800000  0.27760000  1.0 0.1106322319
H  H224  1  0.39990000  0.16890000  0.32660000  1.0 0.140004363
H  H225  1  0.51220000  0.26060000  0.25950000  1.0 0.1106322319
H  H226  1  0.46420000  0.31000000  0.23700000  1.0 0.1215004329
H  H227  1  0.45830000  0.23330000  0.22400000  1.0 0.1215004329
H  H228  1  0.12300000  0.24840000  0.20370000  1.0 0.12841196
H  H229  1  0.11740000  0.31300000  0.23340000  1.0 0.1215004329
H  H230  1  0.10740000  0.24120000  0.25550000  1.0 0.140004363
H  H231  1  0.14740000  0.15520000  0.06040000  1.0 0.1106322319
H  H232  1  0.13960000  0.96680000  0.13770000  1.0 0.1106322319
H  H233  1  0.10320000  0.03320000  0.14480000  1.0 0.1106322319
H  H234  1  0.16970000  0.02210000  0.17130000  1.0 0.1215004329
H  H235  1  0.14540000  0.98360000  0.05590000  1.0 0.12841196
H  H236  1  0.17480000  0.05280000  0.03590000  1.0 0.1106322319
H  H237  1  0.10580000  0.04820000  0.06180000  1.0 0.1106322319
H  H238  1  0.24270000  0.96430000  0.09770000  1.0 0.1215004329
H  H239  1  0.27480000  0.01580000  0.13320000  1.0 0.1215004329
H  H240  1  0.28240000  0.03100000  0.08140000  1.0 0.1215004329
H  H241  1  0.23480000  0.34740000  0.17440000  1.0 0.12841196
H  H242  1  0.17000000  0.35800000  0.14600000  1.0 0.1215004329
H  H243  1  0.24030000  0.35950000  0.12210000  1.0 0.140004363
H  H244  1  0.18500000  0.26340000  0.00990000  1.0 0.1215004329
H  H245  1  0.13020000  0.33440000  0.96260000  1.0 0.12841196
H  H246  1  0.01850000  0.39050000  0.06730000  1.0 0.1215004329
H  H247  1  0.07330000  0.31950000  0.11460000  1.0 0.1215004329
H  H248  1  0.97250000  0.42050000  0.17550000  1.0 0.1215004329
H  H249  1  0.91560000  0.33620000  0.13310000  1.0 0.1215004329
H  H250  1  0.77330000  0.31290000  0.22950000  1.0 0.1215004329
H  H251  1  0.83030000  0.39730000  0.27190000  1.0 0.12841196
H  H252  1  0.80940000  0.18680000  0.19350000  1.0 0.1106322319
H  H253  1  0.77990000  0.98350000  0.13380000  1.0 0.1215004329
H  H254  1  0.82880000  0.04580000  0.12010000  1.0 0.1215004329
H  H255  1  0.75940000  0.03200000  0.09530000  1.0 0.12841196
H  H256  1  0.67690000  0.99810000  0.17890000  1.0 0.1215004329
H  H257  1  0.64960000  0.04520000  0.14180000  1.0 0.1215004329
H  H258  1  0.65730000  0.07050000  0.19190000  1.0 0.1215004329
H  H259  1  0.78480000  0.01960000  0.21270000  1.0 0.12841196
H  H260  1  0.76980000  0.09320000  0.22610000  1.0 0.1106322319
H  H261  1  0.83500000  0.08060000  0.19850000  1.0 0.1106322319
H  H262  1  0.80510000  0.37850000  0.11210000  1.0 0.1215004329
H  H263  1  0.73240000  0.36740000  0.09150000  1.0 0.1497292417
H  H264  1  0.79560000  0.35560000  0.06160000  1.0 0.12841196
H  H265  1  0.65600000  0.28920000  0.92080000  1.0 0.1106322319
H  H266  1  0.54820000  0.27400000  0.90330000  1.0 0.1106322319
H  H267  1  0.55690000  0.34310000  0.92900000  1.0 0.1008682637
H  H268  1  0.48590000  0.30310000  0.92660000  1.0 0.1106322319
H  H269  1  0.51110000  0.17610000  0.00420000  1.0 0.1215004329
H  H270  1  0.50840000  0.17100000  0.95130000  1.0 0.12841196
H  H271  1  0.45650000  0.21230000  0.97720000  1.0 0.1215004329
H  H272  1  0.52600000  0.29560000  0.03670000  1.0 0.1215004329
H  H273  1  0.47340000  0.31400000  0.00010000  1.0 0.1106322319
H  H274  1  0.54390000  0.35470000  0.00270000  1.0 0.1106322319
H  H275  1  0.84320000  0.24340000  0.04130000  1.0 0.1215004329
H  H276  1  0.86010000  0.30030000  0.00540000  1.0 0.1215004329
H  H277  1  0.85440000  0.22440000  0.99050000  1.0 0.140004363
H  H278  1  0.74860000  0.23880000  0.87380000  1.0 0.12841196
H  H279  1  0.81840000  0.28100000  0.81590000  1.0 0.12841196
H  H280  1  0.90710000  0.41750000  0.90130000  1.0 0.1106322319
H  H281  1  0.83730000  0.37550000  0.95920000  1.0 0.1106322319
H  H282  1  0.48900000  0.98820000  0.92100000  1.0 0.1008682637
H  H283  1  0.50470000  0.95910000  0.87320000  1.0 0.1497292417
H  H284  1  0.52820000  0.03400000  0.88510000  1.0 0.1703537378
C  C1  1  0.42630000  0.07090000  0.58780000  1.0 0.590529644
C  C2  1  0.39418000  0.11562000  0.62032000  1.0 -0.0395863449
C  C3  1  0.41727000  0.11953000  0.66468000  1.0 -0.0995109522
C  C4  1  0.38516000  0.15784000  0.69620000  1.0 -0.1483472212
C  C5  1  0.32997000  0.19223000  0.68335000  1.0 0.0895116382
C  C6  1  0.30698000  0.18842000  0.63898000  1.0 -0.1575663924
C  C7  1  0.33909000  0.15011000  0.60747000  1.0 -0.0995109522
C  C8  1  0.25120000  0.41840000  0.71540000  1.0 0.2819729122
C  C9  1  0.29664000  0.23436000  0.71575000  1.0 -0.0294695806
C  C10  1  0.27016000  0.21014000  0.75664000  1.0 0.1008682637
C  C11  1  0.23708000  0.25246000  0.78503000  1.0 -0.0796886113
C  C12  1  0.23043000  0.31897000  0.77254000  1.0 0.201209196
C  C13  1  0.25696000  0.34324000  0.73165000  1.0 -0.0395863449
C  C14  1  0.28996000  0.30084000  0.70326000  1.0 -0.1788785894
C  C15  1  0.30060000  0.43640000  0.67560000  1.0 -0.4489743123
C  C16  1  0.17990000  0.42950000  0.69840000  1.0 -0.4770810221
C  C17  1  0.26490000  0.46750000  0.75190000  1.0 -0.4399084294
C  C18  1  0.26800000  0.13180000  0.76710000  1.0 -0.4489743123
C  C19  1  0.21673000  0.23113000  0.83370000  1.0 -0.0796886113
C  C20  1  0.26180000  0.20236000  0.86245000  1.0 0.1008682637
C  C21  1  0.23875000  0.17101000  0.90212000  1.0 -0.0223456238
C  C22  1  0.17063000  0.16841000  0.91306000  1.0 -0.1960841221
C  C23  1  0.12557000  0.19717000  0.88431000  1.0 -0.0294695806
C  C24  1  0.14862000  0.22854000  0.84464000  1.0 0.1906673248
C  C25  1  0.04750000  0.18730000  0.89480000  1.0 0.2819729122
C  C26  1  0.01440000  0.14620000  0.85680000  1.0 -0.4399084294
C  C27  1  0.03160000  0.14980000  0.93950000  1.0 -0.4641082291
C  C28  1  0.01120000  0.25300000  0.89570000  1.0 -0.4910465208
C  C29  1  0.33910000  0.21290000  0.85420000  1.0 -0.4489743123
C  C30  1  0.28439000  0.13461000  0.93302000  1.0 0.0831208962
C  C31  1  0.28891000  0.15169000  0.97857000  1.0 -0.1575663924
C  C32  1  0.33142000  0.11878000  0.00693000  1.0 -0.0796886113
C  C33  1  0.36950000  0.06890000  0.98975000  1.0 -0.0223456238
C  C34  1  0.36508000  0.05192000  0.94420000  1.0 -0.1103318007
C  C35  1  0.32247000  0.08473000  0.91584000  1.0 -0.1483472212
C  C36  1  0.42150000  0.03790000  0.02030000  1.0 0.590529644
C  C37  1  0.47800000  0.94020000  0.74700000  1.0 0.5960789259
C  C38  1  0.41728000  0.90706000  0.77205000  1.0 -0.0294695806
C  C39  1  0.39897000  0.93261000  0.81364000  1.0 -0.0995109522
C  C40  1  0.34842000  0.89848000  0.83907000  1.0 -0.1483472212
C  C41  1  0.31618000  0.83880000  0.82290000  1.0 0.0831208962
C  C42  1  0.33448000  0.81326000  0.78130000  1.0 -0.1575663924
C  C43  1  0.38503000  0.84739000  0.75588000  1.0 -0.0910300801
C  C44  1  0.07270000  0.74910000  0.84140000  1.0 0.2962191935
C  C45  1  0.26186000  0.80072000  0.85176000  1.0 -0.0294695806
C  C46  1  0.27705000  0.77299000  0.89333000  1.0 0.1008682637
C  C47  1  0.22734000  0.73540000  0.91745000  1.0 -0.0910300801
C  C48  1  0.16244000  0.72554000  0.90000000  1.0 0.1906673248
C  C49  1  0.14725000  0.75325000  0.85843000  1.0 -0.0466045
C  C50  1  0.19696000  0.79084000  0.83431000  1.0 -0.1892205466
C  C51  1  0.02940000  0.78240000  0.87630000  1.0 -0.468536179
C  C52  1  0.04390000  0.67630000  0.83130000  1.0 -0.5083317821
C  C53  1  0.06580000  0.78840000  0.79680000  1.0 -0.468536179
C  C54  1  0.35180000  0.77680000  0.90850000  1.0 -0.4489743123
C  C55  1  0.23857000  0.71437000  0.96597000  1.0 -0.0690309404
C  C56  1  0.26084000  0.76104000  0.99870000  1.0 0.0895116382
C  C57  1  0.27980000  0.73920000  0.04114000  1.0 -0.0223456238
C  C58  1  0.27650000  0.67070000  0.05085000  1.0 -0.1892205466
C  C59  1  0.25430000  0.62390000  0.01811000  1.0 -0.0395863449
C  C60  1  0.23526000  0.64586000  0.97568000  1.0 0.1906673248
C  C61  1  0.26140000  0.54920000  0.02680000  1.0 0.2738474544
C  C62  1  0.29900000  0.53360000  0.07120000  1.0 -0.4489743123
C  C63  1  0.19970000  0.50210000  0.02320000  1.0 -0.4910465208
C  C64  1  0.31100000  0.52040000  0.99380000  1.0 -0.4244949882
C  C65  1  0.25690000  0.83690000  0.98950000  1.0 -0.4489743123
C  C66  1  0.30297000  0.78597000  0.07778000  1.0 0.0831208962
C  C67  1  0.27469000  0.78029000  0.12071000  1.0 -0.1483472212
C  C68  1  0.29993000  0.82213000  0.15539000  1.0 -0.0995109522
C  C69  1  0.35345000  0.86965000  0.14713000  1.0 -0.0294695806
C  C70  1  0.38173000  0.87533000  0.10420000  1.0 -0.1103318007
C  C71  1  0.35649000  0.83349000  0.06952000  1.0 -0.1389185403
C  C72  1  0.38080000  0.91760000  0.18190000  1.0 0.5334841843
C  C73  1  0.96660000  0.58800000  0.08540000  1.0 0.6985233511
C  C74  1  0.98910000  0.52130000  0.10320000  1.0 -0.6267936294
C  C75  1  0.57370000  0.92910000  0.08780000  1.0 0.590529644
C  C76  1  0.60582000  0.88438000  0.12032000  1.0 -0.0395863449
C  C77  1  0.58273000  0.88047000  0.16468000  1.0 -0.0995109522
C  C78  1  0.61484000  0.84216000  0.19620000  1.0 -0.1483472212
C  C79  1  0.67003000  0.80777000  0.18335000  1.0 0.0831208962
C  C80  1  0.69302000  0.81158000  0.13898000  1.0 -0.1575663924
C  C81  1  0.66091000  0.84989000  0.10747000  1.0 -0.0995109522
C  C82  1  0.74880000  0.58160000  0.21540000  1.0 0.2819729122
C  C83  1  0.70336000  0.76564000  0.21575000  1.0 -0.0294695806
C  C84  1  0.72984000  0.78986000  0.25664000  1.0 0.1008682637
C  C85  1  0.76292000  0.74754000  0.28503000  1.0 -0.0796886113
C  C86  1  0.76957000  0.68103000  0.27254000  1.0 0.201209196
C  C87  1  0.74304000  0.65676000  0.23165000  1.0 -0.0395863449
C  C88  1  0.71004000  0.69916000  0.20326000  1.0 -0.1788785894
C  C89  1  0.69940000  0.56360000  0.17560000  1.0 -0.4489743123
C  C90  1  0.82010000  0.57050000  0.19840000  1.0 -0.4770810221
C  C91  1  0.73510000  0.53250000  0.25190000  1.0 -0.4399084294
C  C92  1  0.73200000  0.86820000  0.26710000  1.0 -0.4489743123
C  C93  1  0.78327000  0.76887000  0.33370000  1.0 -0.0796886113
C  C94  1  0.73820000  0.79764000  0.36245000  1.0 0.1008682637
C  C95  1  0.76125000  0.82899000  0.40212000  1.0 -0.0223456238
C  C96  1  0.82937000  0.83159000  0.41306000  1.0 -0.1960841221
C  C97  1  0.87443000  0.80283000  0.38431000  1.0 -0.0294695806
C  C98  1  0.85138000  0.77146000  0.34464000  1.0 0.1906673248
C  C99  1  0.95250000  0.81270000  0.39480000  1.0 0.2819729122
C  C100  1  0.98560000  0.85380000  0.35680000  1.0 -0.4399084294
C  C101  1  0.96840000  0.85020000  0.43950000  1.0 -0.4641082291
C  C102  1  0.98880000  0.74700000  0.39570000  1.0 -0.4910465208
C  C103  1  0.66090000  0.78710000  0.35420000  1.0 -0.4489743123
C  C104  1  0.71561000  0.86539000  0.43302000  1.0 0.0831208962
C  C105  1  0.71109000  0.84831000  0.47857000  1.0 -0.1575663924
C  C106  1  0.66858000  0.88122000  0.50693000  1.0 -0.0796886113
C  C107  1  0.63050000  0.93110000  0.48975000  1.0 -0.0223456238
C  C108  1  0.63492000  0.94808000  0.44420000  1.0 -0.1103318007
C  C109  1  0.67753000  0.91527000  0.41584000  1.0 -0.1483472212
C  C110  1  0.57850000  0.96210000  0.52030000  1.0 0.590529644
C  C111  1  0.52200000  0.05980000  0.24700000  1.0 0.5960789259
C  C112  1  0.58272000  0.09294000  0.27205000  1.0 -0.0294695806
C  C113  1  0.60103000  0.06739000  0.31364000  1.0 -0.0995109522
C  C114  1  0.65158000  0.10152000  0.33907000  1.0 -0.1483472212
C  C115  1  0.68382000  0.16120000  0.32290000  1.0 0.0831208962
C  C116  1  0.66552000  0.18674000  0.28130000  1.0 -0.1575663924
C  C117  1  0.61497000  0.15261000  0.25588000  1.0 -0.0910300801
C  C118  1  0.92730000  0.25090000  0.34140000  1.0 0.2962191935
C  C119  1  0.73814000  0.19928000  0.35176000  1.0 -0.0223456238
C  C120  1  0.72295000  0.22701000  0.39333000  1.0 0.1008682637
C  C121  1  0.77266000  0.26460000  0.41745000  1.0 -0.0796886113
C  C122  1  0.83756000  0.27446000  0.40000000  1.0 0.1906673248
C  C123  1  0.85275000  0.24675000  0.35843000  1.0 -0.0466045
C  C124  1  0.80304000  0.20916000  0.33431000  1.0 -0.1892205466
C  C125  1  0.97060000  0.21760000  0.37630000  1.0 -0.468536179
C  C126  1  0.95610000  0.32370000  0.33130000  1.0 -0.5083317821
C  C127  1  0.93420000  0.21160000  0.29680000  1.0 -0.468536179
C  C128  1  0.64820000  0.22320000  0.40850000  1.0 -0.4399084294
C  C129  1  0.76143000  0.28563000  0.46597000  1.0 -0.0690309404
C  C130  1  0.73916000  0.23896000  0.49870000  1.0 0.0895116382
C  C131  1  0.72020000  0.26080000  0.54114000  1.0 -0.0223456238
C  C132  1  0.72350000  0.32930000  0.55085000  1.0 -0.1892205466
C  C133  1  0.74570000  0.37610000  0.51811000  1.0 -0.0395863449
C  C134  1  0.76474000  0.35414000  0.47568000  1.0 0.1906673248
C  C135  1  0.73860000  0.45080000  0.52680000  1.0 0.2738474544
C  C136  1  0.70100000  0.46640000  0.57120000  1.0 -0.4489743123
C  C137  1  0.80030000  0.49790000  0.52320000  1.0 -0.4910465208
C  C138  1  0.68900000  0.47960000  0.49380000  1.0 -0.4244949882
C  C139  1  0.74310000  0.16310000  0.48950000  1.0 -0.4489743123
C  C140  1  0.69703000  0.21403000  0.57778000  1.0 0.0831208962
C  C141  1  0.72531000  0.21971000  0.62071000  1.0 -0.1483472212
C  C142  1  0.70007000  0.17787000  0.65539000  1.0 -0.0995109522
C  C143  1  0.64655000  0.13035000  0.64713000  1.0 -0.0294695806
C  C144  1  0.61827000  0.12467000  0.60420000  1.0 -0.1103318007
C  C145  1  0.64351000  0.16651000  0.56952000  1.0 -0.1389185403
C  C146  1  0.61920000  0.08240000  0.68190000  1.0 0.5334841843
C  C147  1  0.03340000  0.41200000  0.58540000  1.0 0.6985233511
C  C148  1  0.01090000  0.47870000  0.60320000  1.0 -0.6267936294
C  C149  1  0.92910000  0.57370000  0.91220000  1.0 0.590529644
C  C150  1  0.88438000  0.60582000  0.87968000  1.0 -0.0395863449
C  C151  1  0.88047000  0.58273000  0.83532000  1.0 -0.0995109522
C  C152  1  0.84216000  0.61484000  0.80380000  1.0 -0.1483472212
C  C153  1  0.80777000  0.67003000  0.81665000  1.0 0.0895116382
C  C154  1  0.81158000  0.69302000  0.86102000  1.0 -0.1575663924
C  C155  1  0.84989000  0.66091000  0.89253000  1.0 -0.0995109522
C  C156  1  0.58160000  0.74880000  0.78460000  1.0 0.2819729122
C  C157  1  0.76564000  0.70336000  0.78425000  1.0 -0.0294695806
C  C158  1  0.78986000  0.72984000  0.74336000  1.0 0.1008682637
C  C159  1  0.74754000  0.76292000  0.71497000  1.0 -0.0796886113
C  C160  1  0.68103000  0.76957000  0.72746000  1.0 0.201209196
C  C161  1  0.65676000  0.74304000  0.76835000  1.0 -0.0395863449
C  C162  1  0.69916000  0.71004000  0.79674000  1.0 -0.1788785894
C  C163  1  0.56360000  0.69940000  0.82440000  1.0 -0.4489743123
C  C164  1  0.57050000  0.82010000  0.80160000  1.0 -0.4770810221
C  C165  1  0.53250000  0.73510000  0.74810000  1.0 -0.4399084294
C  C166  1  0.86820000  0.73200000  0.73290000  1.0 -0.4489743123
C  C167  1  0.76887000  0.78327000  0.66630000  1.0 -0.0796886113
C  C168  1  0.79764000  0.73820000  0.63755000  1.0 0.1008682637
C  C169  1  0.82899000  0.76125000  0.59788000  1.0 -0.0223456238
C  C170  1  0.83159000  0.82937000  0.58694000  1.0 -0.1960841221
C  C171  1  0.80283000  0.87443000  0.61569000  1.0 -0.0294695806
C  C172  1  0.77146000  0.85138000  0.65536000  1.0 0.1906673248
C  C173  1  0.81270000  0.95250000  0.60520000  1.0 0.2819729122
C  C174  1  0.85380000  0.98560000  0.64320000  1.0 -0.4399084294
C  C175  1  0.85020000  0.96840000  0.56050000  1.0 -0.4641082291
C  C176  1  0.74700000  0.98880000  0.60430000  1.0 -0.4910465208
C  C177  1  0.78710000  0.66090000  0.64580000  1.0 -0.4489743123
C  C178  1  0.86539000  0.71561000  0.56698000  1.0 0.0831208962
C  C179  1  0.84831000  0.71109000  0.52143000  1.0 -0.1575663924
C  C180  1  0.88122000  0.66858000  0.49307000  1.0 -0.0796886113
C  C181  1  0.93110000  0.63050000  0.51025000  1.0 -0.0223456238
C  C182  1  0.94808000  0.63492000  0.55580000  1.0 -0.1103318007
C  C183  1  0.91527000  0.67753000  0.58416000  1.0 -0.1483472212
C  C184  1  0.96210000  0.57850000  0.47970000  1.0 0.590529644
C  C185  1  0.05980000  0.52200000  0.75300000  1.0 0.5960789259
C  C186  1  0.09294000  0.58272000  0.72795000  1.0 -0.0294695806
C  C187  1  0.06739000  0.60103000  0.68636000  1.0 -0.0995109522
C  C188  1  0.10152000  0.65158000  0.66093000  1.0 -0.1483472212
C  C189  1  0.16120000  0.68382000  0.67710000  1.0 0.0831208962
C  C190  1  0.18674000  0.66552000  0.71870000  1.0 -0.1575663924
C  C191  1  0.15261000  0.61497000  0.74412000  1.0 -0.0910300801
C  C192  1  0.25090000  0.92730000  0.65860000  1.0 0.2962191935
C  C193  1  0.19928000  0.73814000  0.64824000  1.0 -0.0223456238
C  C194  1  0.22701000  0.72295000  0.60667000  1.0 0.1008682637
C  C195  1  0.26460000  0.77266000  0.58255000  1.0 -0.0910300801
C  C196  1  0.27446000  0.83756000  0.60000000  1.0 0.1906673248
C  C197  1  0.24675000  0.85275000  0.64157000  1.0 -0.0466045
C  C198  1  0.20916000  0.80304000  0.66569000  1.0 -0.1892205466
C  C199  1  0.21760000  0.97060000  0.62370000  1.0 -0.468536179
C  C200  1  0.32370000  0.95610000  0.66870000  1.0 -0.5083317821
C  C201  1  0.21160000  0.93420000  0.70320000  1.0 -0.468536179
C  C202  1  0.22320000  0.64820000  0.59150000  1.0 -0.4489743123
C  C203  1  0.28563000  0.76143000  0.53403000  1.0 -0.0690309404
C  C204  1  0.23896000  0.73916000  0.50130000  1.0 0.0895116382
C  C205  1  0.26080000  0.72020000  0.45886000  1.0 -0.0223456238
C  C206  1  0.32930000  0.72350000  0.44915000  1.0 -0.1892205466
C  C207  1  0.37610000  0.74570000  0.48189000  1.0 -0.0395863449
C  C208  1  0.35414000  0.76474000  0.52432000  1.0 0.1906673248
C  C209  1  0.45080000  0.73860000  0.47320000  1.0 0.2738474544
C  C210  1  0.46640000  0.70100000  0.42880000  1.0 -0.4489743123
C  C211  1  0.49790000  0.80030000  0.47680000  1.0 -0.4910465208
C  C212  1  0.47960000  0.68900000  0.50620000  1.0 -0.4244949882
C  C213  1  0.16310000  0.74310000  0.51050000  1.0 -0.4489743123
C  C214  1  0.21403000  0.69703000  0.42222000  1.0 0.0831208962
C  C215  1  0.21971000  0.72531000  0.37929000  1.0 -0.1483472212
C  C216  1  0.17787000  0.70007000  0.34461000  1.0 -0.0995109522
C  C217  1  0.13035000  0.64655000  0.35287000  1.0 -0.0294695806
C  C218  1  0.12467000  0.61827000  0.39580000  1.0 -0.1103318007
C  C219  1  0.16651000  0.64351000  0.43048000  1.0 -0.1389185403
C  C220  1  0.08240000  0.61920000  0.31810000  1.0 0.5334841843
C  C221  1  0.41200000  0.03340000  0.41460000  1.0 0.6985233511
C  C222  1  0.47870000  0.01090000  0.39680000  1.0 -0.6267936294
C  C223  1  0.07090000  0.42630000  0.41220000  1.0 0.590529644
C  C224  1  0.11562000  0.39418000  0.37968000  1.0 -0.0395863449
C  C225  1  0.11953000  0.41727000  0.33532000  1.0 -0.0995109522
C  C226  1  0.15784000  0.38516000  0.30380000  1.0 -0.1483472212
C  C227  1  0.19223000  0.32997000  0.31665000  1.0 0.0895116382
C  C228  1  0.18842000  0.30698000  0.36102000  1.0 -0.1575663924
C  C229  1  0.15011000  0.33909000  0.39253000  1.0 -0.0995109522
C  C230  1  0.41840000  0.25120000  0.28460000  1.0 0.2819729122
C  C231  1  0.23436000  0.29664000  0.28425000  1.0 -0.0294695806
C  C232  1  0.21014000  0.27016000  0.24336000  1.0 0.1008682637
C  C233  1  0.25246000  0.23708000  0.21497000  1.0 -0.0796886113
C  C234  1  0.31897000  0.23043000  0.22746000  1.0 0.201209196
C  C235  1  0.34324000  0.25696000  0.26835000  1.0 -0.0395863449
C  C236  1  0.30084000  0.28996000  0.29674000  1.0 -0.1788785894
C  C237  1  0.43640000  0.30060000  0.32440000  1.0 -0.4489743123
C  C238  1  0.42950000  0.17990000  0.30160000  1.0 -0.4770810221
C  C239  1  0.46750000  0.26490000  0.24810000  1.0 -0.4399084294
C  C240  1  0.13180000  0.26800000  0.23290000  1.0 -0.4489743123
C  C241  1  0.23113000  0.21673000  0.16630000  1.0 -0.0796886113
C  C242  1  0.20236000  0.26180000  0.13755000  1.0 0.1008682637
C  C243  1  0.17101000  0.23875000  0.09788000  1.0 -0.0223456238
C  C244  1  0.16841000  0.17063000  0.08694000  1.0 -0.1960841221
C  C245  1  0.19717000  0.12557000  0.11569000  1.0 -0.0294695806
C  C246  1  0.22854000  0.14862000  0.15536000  1.0 0.1906673248
C  C247  1  0.18730000  0.04750000  0.10520000  1.0 0.2819729122
C  C248  1  0.14620000  0.01440000  0.14320000  1.0 -0.4399084294
C  C249  1  0.14980000  0.03160000  0.06050000  1.0 -0.4641082291
C  C250  1  0.25300000  0.01120000  0.10430000  1.0 -0.4910465208
C  C251  1  0.21290000  0.33910000  0.14580000  1.0 -0.4489743123
C  C252  1  0.13461000  0.28439000  0.06698000  1.0 0.0831208962
C  C253  1  0.15169000  0.28891000  0.02143000  1.0 -0.1575663924
C  C254  1  0.11878000  0.33142000  0.99307000  1.0 -0.0796886113
C  C255  1  0.06890000  0.36950000  0.01025000  1.0 -0.0223456238
C  C256  1  0.05192000  0.36508000  0.05580000  1.0 -0.1103318007
C  C257  1  0.08473000  0.32247000  0.08416000  1.0 -0.1483472212
C  C258  1  0.03790000  0.42150000  0.97970000  1.0 0.590529644
C  C259  1  0.94020000  0.47800000  0.25300000  1.0 0.5960789259
C  C260  1  0.90706000  0.41728000  0.22795000  1.0 -0.0294695806
C  C261  1  0.93261000  0.39897000  0.18636000  1.0 -0.0995109522
C  C262  1  0.89848000  0.34842000  0.16093000  1.0 -0.1483472212
C  C263  1  0.83880000  0.31618000  0.17710000  1.0 0.0831208962
C  C264  1  0.81326000  0.33448000  0.21870000  1.0 -0.1575663924
C  C265  1  0.84739000  0.38503000  0.24412000  1.0 -0.0910300801
C  C266  1  0.74910000  0.07270000  0.15860000  1.0 0.2962191935
C  C267  1  0.80072000  0.26186000  0.14824000  1.0 -0.0294695806
C  C268  1  0.77299000  0.27705000  0.10667000  1.0 0.1008682637
C  C269  1  0.73540000  0.22734000  0.08255000  1.0 -0.0796886113
C  C270  1  0.72554000  0.16244000  0.10000000  1.0 0.1906673248
C  C271  1  0.75325000  0.14725000  0.14157000  1.0 -0.0466045
C  C272  1  0.79084000  0.19696000  0.16569000  1.0 -0.1892205466
C  C273  1  0.78240000  0.02940000  0.12370000  1.0 -0.4641082291
C  C274  1  0.67630000  0.04390000  0.16870000  1.0 -0.5083317821
C  C275  1  0.78840000  0.06580000  0.20320000  1.0 -0.468536179
C  C276  1  0.77680000  0.35180000  0.09150000  1.0 -0.4489743123
C  C277  1  0.71437000  0.23857000  0.03403000  1.0 -0.0690309404
C  C278  1  0.76104000  0.26084000  0.00130000  1.0 0.0895116382
C  C279  1  0.73920000  0.27980000  0.95886000  1.0 -0.0223456238
C  C280  1  0.67070000  0.27650000  0.94915000  1.0 -0.1892205466
C  C281  1  0.62390000  0.25430000  0.98189000  1.0 -0.0395863449
C  C282  1  0.64586000  0.23526000  0.02432000  1.0 0.1906673248
C  C283  1  0.54920000  0.26140000  0.97320000  1.0 0.2738474544
C  C284  1  0.53360000  0.29900000  0.92880000  1.0 -0.4489743123
C  C285  1  0.50210000  0.19970000  0.97680000  1.0 -0.4910465208
C  C286  1  0.52040000  0.31100000  0.00620000  1.0 -0.4244949882
C  C287  1  0.83690000  0.25690000  0.01050000  1.0 -0.4489743123
C  C288  1  0.78597000  0.30297000  0.92222000  1.0 0.0831208962
C  C289  1  0.78029000  0.27469000  0.87929000  1.0 -0.1483472212
C  C290  1  0.82213000  0.29993000  0.84461000  1.0 -0.0995109522
C  C291  1  0.86965000  0.35345000  0.85287000  1.0 -0.0294695806
C  C292  1  0.87533000  0.38173000  0.89580000  1.0 -0.1103318007
C  C293  1  0.83349000  0.35649000  0.93048000  1.0 -0.1389185403
C  C294  1  0.91760000  0.38080000  0.81810000  1.0 0.5334841843
C  C295  1  0.58800000  0.96660000  0.91460000  1.0 0.6985233511
C  C296  1  0.52130000  0.98910000  0.89680000  1.0 -0.6267936294
O  O1  1  0.40863000  0.07477000  0.54661000  1.0 -0.6134796207
O  O2  1  0.46709000  0.03091000  0.60090000  1.0 -0.6926748072
O  O3  1  0.19329000  0.35741000  0.79863000  1.0 -0.4101611514
O  O4  1  0.10687000  0.25871000  0.81547000  1.0 -0.4399084294
O  O5  1  0.07401000  0.34899000  0.76542000  1.0 -0.8431511585
O  O6  1  0.10020000  0.37738000  0.84953000  1.0 -0.8479406525
O  O7  1  0.45617000  0.99663000  0.99945000  1.0 -0.6523218517
O  O8  1  0.42662000  0.05572000  0.05987000  1.0 -0.6134796207
O  O9  1  0.51299000  0.98503000  0.76856000  1.0 -0.6205805604
O  O10  1  0.48685000  0.92365000  0.70665000  1.0 -0.6620790724
O  O11  1  0.11729000  0.68311000  0.92312000  1.0 -0.4489743123
O  O12  1  0.20631000  0.60281000  0.94358000  1.0 -0.4345418875
O  O13  1  0.08690000  0.58810000  0.97264000  1.0 -0.860171995
O  O14  1  0.12037000  0.56247000  0.89107000  1.0 -0.8479406525
O  O15  1  0.35310000  0.91070000  0.22172000  1.0 -0.5718766515
O  O16  1  0.42049000  0.96163000  0.17484000  1.0 -0.6022234176
O  O17  1  0.97180000  0.35260000  0.68802000  1.0 -0.9413790469
O  O18  1  0.97540000  0.59740000  0.04471000  1.0 -0.6205805604
O  O19  1  0.96560000  0.63640000  0.11160000  1.0 -0.4019967978
O  O20  1  0.59137000  0.92523000  0.04661000  1.0 -0.6205805604
O  O21  1  0.53291000  0.96909000  0.10090000  1.0 -0.6926748072
O  O22  1  0.80671000  0.64259000  0.29863000  1.0 -0.4101611514
O  O23  1  0.89313000  0.74129000  0.31547000  1.0 -0.4399084294
O  O24  1  0.92599000  0.65101000  0.26542000  1.0 -0.8431511585
O  O25  1  0.89980000  0.62262000  0.34953000  1.0 -0.8479406525
O  O26  1  0.54383000  0.00337000  0.49945000  1.0 -0.6523218517
O  O27  1  0.57338000  0.94428000  0.55987000  1.0 -0.6134796207
O  O28  1  0.48701000  0.01497000  0.26856000  1.0 -0.6205805604
O  O29  1  0.51315000  0.07635000  0.20665000  1.0 -0.6620790724
O  O30  1  0.88271000  0.31689000  0.42312000  1.0 -0.4489743123
O  O31  1  0.79369000  0.39719000  0.44358000  1.0 -0.4399084294
O  O32  1  0.91310000  0.41190000  0.47264000  1.0 -0.860171995
O  O33  1  0.87963000  0.43753000  0.39107000  1.0 -0.8479406525
O  O34  1  0.64690000  0.08930000  0.72172000  1.0 -0.5718766515
O  O35  1  0.57951000  0.03837000  0.67484000  1.0 -0.6022234176
O  O36  1  0.02820000  0.64740000  0.18802000  1.0 -0.9413790469
O  O37  1  0.02460000  0.40260000  0.54471000  1.0 -0.6205805604
O  O38  1  0.03440000  0.36360000  0.61160000  1.0 -0.4019967978
O  O39  1  0.92523000  0.59137000  0.95339000  1.0 -0.6205805604
O  O40  1  0.96909000  0.53291000  0.89910000  1.0 -0.6926748072
O  O41  1  0.64259000  0.80671000  0.70137000  1.0 -0.4101611514
O  O42  1  0.74129000  0.89313000  0.68453000  1.0 -0.4399084294
O  O43  1  0.65101000  0.92599000  0.73458000  1.0 -0.8431511585
O  O44  1  0.62262000  0.89980000  0.65047000  1.0 -0.8479406525
O  O45  1  0.00337000  0.54383000  0.50055000  1.0 -0.6523218517
O  O46  1  0.94428000  0.57338000  0.44013000  1.0 -0.6134796207
O  O47  1  0.01497000  0.48701000  0.73144000  1.0 -0.6205805604
O  O48  1  0.07635000  0.51315000  0.79335000  1.0 -0.6620790724
O  O49  1  0.31689000  0.88271000  0.57688000  1.0 -0.4489743123
O  O50  1  0.39719000  0.79369000  0.55642000  1.0 -0.4345418875
O  O51  1  0.41190000  0.91310000  0.52736000  1.0 -0.860171995
O  O52  1  0.43753000  0.87963000  0.60893000  1.0 -0.8479406525
O  O53  1  0.08930000  0.64690000  0.27828000  1.0 -0.5718766515
O  O54  1  0.03837000  0.57951000  0.32516000  1.0 -0.6022234176
O  O55  1  0.64740000  0.02820000  0.81198000  1.0 -0.9413790469
O  O56  1  0.40260000  0.02460000  0.45529000  1.0 -0.6205805604
O  O57  1  0.36360000  0.03440000  0.38840000  1.0 -0.4019967978
O  O58  1  0.07477000  0.40863000  0.45339000  1.0 -0.6134796207
O  O59  1  0.03091000  0.46709000  0.39910000  1.0 -0.6926748072
O  O60  1  0.35741000  0.19329000  0.20137000  1.0 -0.4101611514
O  O61  1  0.25871000  0.10687000  0.18453000  1.0 -0.4399084294
O  O62  1  0.34899000  0.07401000  0.23458000  1.0 -0.8431511585
O  O63  1  0.37738000  0.10020000  0.15047000  1.0 -0.8479406525
O  O64  1  0.99663000  0.45617000  0.00055000  1.0 -0.6523218517
O  O65  1  0.05572000  0.42662000  0.94013000  1.0 -0.6134796207
O  O66  1  0.98503000  0.51299000  0.23144000  1.0 -0.6205805604
O  O67  1  0.92365000  0.48685000  0.29335000  1.0 -0.6620790724
O  O68  1  0.68311000  0.11729000  0.07688000  1.0 -0.4489743123
O  O69  1  0.60281000  0.20631000  0.05642000  1.0 -0.4399084294
O  O70  1  0.58810000  0.08690000  0.02736000  1.0 -0.860171995
O  O71  1  0.56247000  0.12037000  0.10893000  1.0 -0.8479406525
O  O72  1  0.91070000  0.35310000  0.77828000  1.0 -0.5718766515
O  O73  1  0.96163000  0.42049000  0.82516000  1.0 -0.6022234176
O  O74  1  0.35260000  0.97180000  0.31198000  1.0 -0.9413790469
O  O75  1  0.59740000  0.97540000  0.95529000  1.0 -0.6205805604
O  O76  1  0.63640000  0.96560000  0.88840000  1.0 -0.4019967978
