# DDEC6 charges by PACMAN v1.1 (https://github.com/mtap-research/PACMAN-charge/)
data_WERCUU_FSR_pacman
_symmetry_space_group_name_H-M   'P 1'
_cell_length_a   20.02810000
_cell_length_b   20.02810000
_cell_length_c   29.66200000
_cell_angle_alpha   90.00000000
_cell_angle_beta   90.00000000
_cell_angle_gamma   93.91100000
_symmetry_Int_Tables_number   1
_chemical_formula_structural   Ti3P2H71C74O19
_chemical_formula_sum   'Ti12 P8 H284 C296 O76'
_cell_volume   11870.45509539
_cell_formula_units_Z   4
loop_
 _symmetry_equiv_pos_site_id
 _symmetry_equiv_pos_as_xyz
  1  'x, y, z'
loop_
 _atom_site_type_symbol
 _atom_site_label
 _atom_site_symmetry_multiplicity
 _atom_site_fract_x
 _atom_site_fract_y
 _atom_site_fract_z
 _atom_site_occupancy
 _atom_site_charge
Ti  Ti1  1  0.00084000  0.39458000  0.75243000  1.0 1.959296884
Ti  Ti2  1  0.05821000  0.47777000  0.86812000  1.0 1.8854615707
Ti  Ti3  1  0.99890000  0.55510000  0.98689000  1.0 1.8736525196
Ti  Ti4  1  0.99916000  0.60542000  0.25243000  1.0 1.959296884
Ti  Ti5  1  0.94179000  0.52223000  0.36812000  1.0 1.8854615707
Ti  Ti6  1  0.00110000  0.44490000  0.48689000  1.0 1.8736525196
Ti  Ti7  1  0.60542000  0.99916000  0.74757000  1.0 1.959296884
Ti  Ti8  1  0.52223000  0.94179000  0.63188000  1.0 1.8854615707
Ti  Ti9  1  0.44490000  0.00110000  0.51311000  1.0 1.8736525196
Ti  Ti10  1  0.39458000  0.00084000  0.24757000  1.0 1.959296884
Ti  Ti11  1  0.47777000  0.05821000  0.13188000  1.0 1.8841316718
Ti  Ti12  1  0.55510000  0.99890000  0.01311000  1.0 1.8736525196
P  P1  1  0.12041000  0.34289000  0.81046000  1.0 1.4503704924
P  P2  1  0.12907000  0.61351000  0.93129000  1.0 1.4844096917
P  P3  1  0.87959000  0.65711000  0.31046000  1.0 1.4503704924
P  P4  1  0.87093000  0.38649000  0.43129000  1.0 1.4844096917
P  P5  1  0.65711000  0.87959000  0.68954000  1.0 1.4503704924
P  P6  1  0.38649000  0.87093000  0.56871000  1.0 1.4844096917
P  P7  1  0.34289000  0.12041000  0.18954000  1.0 1.4503704924
P  P8  1  0.61351000  0.12907000  0.06871000  1.0 1.4844096917
H  H1  1  0.45190000  0.08890000  0.67430000  1.0 0.1288290198
H  H2  1  0.39740000  0.14960000  0.72790000  1.0 0.1206867236
H  H3  1  0.27020000  0.20700000  0.63290000  1.0 0.1288290198
H  H4  1  0.32470000  0.14630000  0.57930000  1.0 0.1288290198
H  H5  1  0.31290000  0.31010000  0.67830000  1.0 0.1117492562
H  H6  1  0.29760000  0.47440000  0.67070000  1.0 0.1117492562
H  H7  1  0.28380000  0.40120000  0.65240000  1.0 0.098851826
H  H8  1  0.34530000  0.41870000  0.68400000  1.0 0.098851826
H  H9  1  0.15750000  0.41910000  0.72680000  1.0 0.1288290198
H  H10  1  0.17650000  0.40370000  0.67670000  1.0 0.1398443132
H  H11  1  0.19150000  0.47590000  0.69640000  1.0 0.1206867236
H  H12  1  0.24820000  0.45920000  0.77740000  1.0 0.1288290198
H  H13  1  0.26720000  0.50740000  0.73700000  1.0 0.1117492562
H  H14  1  0.32140000  0.46440000  0.75850000  1.0 0.1206867236
H  H15  1  0.28960000  0.11280000  0.74720000  1.0 0.1206867236
H  H16  1  0.21650000  0.12110000  0.76440000  1.0 0.1508969161
H  H17  1  0.27640000  0.12560000  0.79850000  1.0 0.1206867236
H  H18  1  0.15880000  0.15300000  0.94340000  1.0 0.1117492562
H  H19  1  0.97030000  0.14930000  0.86600000  1.0 0.1206867236
H  H20  1  0.03490000  0.11170000  0.85600000  1.0 0.1206867236
H  H21  1  0.02330000  0.17930000  0.83140000  1.0 0.1288290198
H  H22  1  0.06340000  0.17500000  0.96610000  1.0 0.1117492562
H  H23  1  0.05690000  0.10890000  0.93760000  1.0 0.1117492562
H  H24  1  0.99340000  0.14840000  0.94710000  1.0 0.1288290198
H  H25  1  0.03910000  0.28650000  0.92460000  1.0 0.1288290198
H  H26  1  0.97260000  0.25020000  0.90660000  1.0 0.1288290198
H  H27  1  0.02480000  0.28360000  0.87270000  1.0 0.1288290198
H  H28  1  0.34600000  0.22920000  0.82670000  1.0 0.1288290198
H  H29  1  0.35560000  0.16540000  0.85590000  1.0 0.1206867236
H  H30  1  0.35810000  0.23610000  0.87870000  1.0 0.1398443132
H  H31  1  0.28490000  0.20230000  0.98780000  1.0 0.1288290198
H  H32  1  0.35710000  0.14750000  0.03390000  1.0 0.1288290198
H  H33  1  0.37900000  0.01080000  0.93680000  1.0 0.1206867236
H  H34  1  0.30690000  0.06570000  0.89070000  1.0 0.1206867236
H  H35  1  0.41790000  0.97330000  0.82090000  1.0 0.1288290198
H  H36  1  0.33700000  0.91560000  0.86450000  1.0 0.1206867236
H  H37  1  0.31670000  0.77210000  0.76990000  1.0 0.1288290198
H  H38  1  0.39760000  0.82980000  0.72620000  1.0 0.1398443132
H  H39  1  0.19350000  0.81470000  0.80520000  1.0 0.1117492562
H  H40  1  0.05410000  0.83110000  0.88280000  1.0 0.1288290198
H  H41  1  0.03430000  0.75950000  0.90190000  1.0 0.1288290198
H  H42  1  0.99180000  0.78900000  0.86330000  1.0 0.1117492562
H  H43  1  0.00170000  0.69350000  0.82140000  1.0 0.1288290198
H  H44  1  0.04860000  0.66120000  0.85640000  1.0 0.1288290198
H  H45  1  0.07100000  0.66960000  0.80590000  1.0 0.1288290198
H  H46  1  0.09230000  0.83690000  0.79960000  1.0 0.1206867236
H  H47  1  0.02900000  0.78980000  0.78750000  1.0 0.1288290198
H  H48  1  0.10070000  0.76890000  0.77470000  1.0 0.1117492562
H  H49  1  0.36170000  0.75410000  0.93250000  1.0 0.1398443132
H  H50  1  0.37020000  0.82220000  0.90650000  1.0 0.1206867236
H  H51  1  0.38100000  0.75500000  0.88130000  1.0 0.1398443132
H  H52  1  0.29020000  0.66260000  0.07810000  1.0 0.1117492562
H  H53  1  0.35500000  0.55280000  0.06190000  1.0 0.098851826
H  H54  1  0.30800000  0.48760000  0.06790000  1.0 0.0912212277
H  H55  1  0.29860000  0.54980000  0.09870000  1.0 0.1117492562
H  H56  1  0.16910000  0.56430000  0.06560000  1.0 0.1398443132
H  H57  1  0.18970000  0.49070000  0.05890000  1.0 0.1206867236
H  H58  1  0.16480000  0.53120000  0.01760000  1.0 0.1206867236
H  H59  1  0.33100000  0.52880000  0.99080000  1.0 0.1206867236
H  H60  1  0.25720000  0.51320000  0.97460000  1.0 0.1206867236
H  H61  1  0.28710000  0.46970000  0.01260000  1.0 0.098851826
H  H62  1  0.27860000  0.87180000  0.00770000  1.0 0.1288290198
H  H63  1  0.21300000  0.85220000  0.98050000  1.0 0.1508969161
H  H64  1  0.28260000  0.85540000  0.95610000  1.0 0.1288290198
H  H65  1  0.24030000  0.75110000  0.12350000  1.0 0.1288290198
H  H66  1  0.27680000  0.82420000  0.18040000  1.0 0.1288290198
H  H67  1  0.41550000  0.90990000  0.09690000  1.0 0.1288290198
H  H68  1  0.37900000  0.83680000  0.03990000  1.0 0.1206867236
H  H69  1  0.94930000  0.51790000  0.13210000  1.0 0.1563503164
H  H70  1  0.00190000  0.49710000  0.09660000  1.0 0.1398443132
H  H71  1  0.92590000  0.49590000  0.08360000  1.0 0.1398443132
H  H72  1  0.54810000  0.91110000  0.17430000  1.0 0.1288290198
H  H73  1  0.60260000  0.85040000  0.22790000  1.0 0.1206867236
H  H74  1  0.72980000  0.79300000  0.13290000  1.0 0.1288290198
H  H75  1  0.67530000  0.85370000  0.07930000  1.0 0.1288290198
H  H76  1  0.68710000  0.68990000  0.17830000  1.0 0.1117492562
H  H77  1  0.70240000  0.52560000  0.17070000  1.0 0.1117492562
H  H78  1  0.71620000  0.59880000  0.15240000  1.0 0.098851826
H  H79  1  0.65470000  0.58130000  0.18400000  1.0 0.098851826
H  H80  1  0.84250000  0.58090000  0.22680000  1.0 0.1288290198
H  H81  1  0.82350000  0.59630000  0.17670000  1.0 0.1398443132
H  H82  1  0.80850000  0.52410000  0.19640000  1.0 0.1206867236
H  H83  1  0.75180000  0.54080000  0.27740000  1.0 0.1288290198
H  H84  1  0.73280000  0.49260000  0.23700000  1.0 0.1117492562
H  H85  1  0.67860000  0.53560000  0.25850000  1.0 0.1206867236
H  H86  1  0.71040000  0.88720000  0.24720000  1.0 0.1206867236
H  H87  1  0.78350000  0.87890000  0.26440000  1.0 0.1508969161
H  H88  1  0.72360000  0.87440000  0.29850000  1.0 0.1206867236
H  H89  1  0.84120000  0.84700000  0.44340000  1.0 0.1117492562
H  H90  1  0.02970000  0.85070000  0.36600000  1.0 0.1206867236
H  H91  1  0.96510000  0.88830000  0.35600000  1.0 0.1206867236
H  H92  1  0.97670000  0.82070000  0.33140000  1.0 0.1288290198
H  H93  1  0.93660000  0.82500000  0.46610000  1.0 0.1117492562
H  H94  1  0.94310000  0.89110000  0.43760000  1.0 0.1117492562
H  H95  1  0.00660000  0.85160000  0.44710000  1.0 0.1288290198
H  H96  1  0.96090000  0.71350000  0.42460000  1.0 0.1288290198
H  H97  1  0.02740000  0.74980000  0.40660000  1.0 0.1288290198
H  H98  1  0.97520000  0.71640000  0.37270000  1.0 0.1288290198
H  H99  1  0.65400000  0.77080000  0.32670000  1.0 0.1288290198
H  H100  1  0.64440000  0.83460000  0.35590000  1.0 0.1206867236
H  H101  1  0.64190000  0.76390000  0.37870000  1.0 0.1398443132
H  H102  1  0.71510000  0.79770000  0.48780000  1.0 0.1288290198
H  H103  1  0.64290000  0.85250000  0.53390000  1.0 0.1288290198
H  H104  1  0.62100000  0.98920000  0.43680000  1.0 0.1206867236
H  H105  1  0.69310000  0.93430000  0.39070000  1.0 0.1206867236
H  H106  1  0.58210000  0.02670000  0.32090000  1.0 0.1288290198
H  H107  1  0.66300000  0.08440000  0.36450000  1.0 0.1206867236
H  H108  1  0.68330000  0.22790000  0.26990000  1.0 0.1288290198
H  H109  1  0.60240000  0.17020000  0.22620000  1.0 0.1288290198
H  H110  1  0.80650000  0.18530000  0.30520000  1.0 0.1117492562
H  H111  1  0.94590000  0.16890000  0.38280000  1.0 0.1288290198
H  H112  1  0.96570000  0.24050000  0.40190000  1.0 0.1288290198
H  H113  1  0.00820000  0.21100000  0.36330000  1.0 0.1117492562
H  H114  1  0.99830000  0.30650000  0.32140000  1.0 0.1288290198
H  H115  1  0.95140000  0.33880000  0.35640000  1.0 0.1288290198
H  H116  1  0.92900000  0.33040000  0.30590000  1.0 0.1288290198
H  H117  1  0.90770000  0.16310000  0.29960000  1.0 0.1206867236
H  H118  1  0.97100000  0.21020000  0.28750000  1.0 0.1288290198
H  H119  1  0.89930000  0.23110000  0.27470000  1.0 0.1117492562
H  H120  1  0.63830000  0.24590000  0.43250000  1.0 0.1398443132
H  H121  1  0.62980000  0.17780000  0.40650000  1.0 0.1206867236
H  H122  1  0.61900000  0.24500000  0.38130000  1.0 0.1398443132
H  H123  1  0.70980000  0.33740000  0.57810000  1.0 0.1117492562
H  H124  1  0.64500000  0.44720000  0.56190000  1.0 0.098851826
H  H125  1  0.69200000  0.51240000  0.56790000  1.0 0.0912212277
H  H126  1  0.70140000  0.45020000  0.59870000  1.0 0.1117492562
H  H127  1  0.83090000  0.43570000  0.56560000  1.0 0.1398443132
H  H128  1  0.81030000  0.50930000  0.55890000  1.0 0.1206867236
H  H129  1  0.83520000  0.46880000  0.51760000  1.0 0.1206867236
H  H130  1  0.66900000  0.47120000  0.49080000  1.0 0.1206867236
H  H131  1  0.74280000  0.48680000  0.47460000  1.0 0.1206867236
H  H132  1  0.71290000  0.53030000  0.51260000  1.0 0.098851826
H  H133  1  0.72140000  0.12820000  0.50770000  1.0 0.1288290198
H  H134  1  0.78700000  0.14780000  0.48050000  1.0 0.1508969161
H  H135  1  0.71740000  0.14460000  0.45610000  1.0 0.1288290198
H  H136  1  0.75970000  0.24890000  0.62350000  1.0 0.1288290198
H  H137  1  0.72320000  0.17580000  0.68040000  1.0 0.1288290198
H  H138  1  0.58450000  0.09010000  0.59690000  1.0 0.1288290198
H  H139  1  0.62100000  0.16320000  0.53990000  1.0 0.1206867236
H  H140  1  0.05070000  0.48210000  0.63210000  1.0 0.1563503164
H  H141  1  0.99810000  0.50290000  0.59660000  1.0 0.1398443132
H  H142  1  0.07410000  0.50410000  0.58360000  1.0 0.1398443132
H  H143  1  0.91110000  0.54810000  0.82570000  1.0 0.1288290198
H  H144  1  0.85040000  0.60260000  0.77210000  1.0 0.1206867236
H  H145  1  0.79300000  0.72980000  0.86710000  1.0 0.1288290198
H  H146  1  0.85370000  0.67530000  0.92070000  1.0 0.1288290198
H  H147  1  0.68990000  0.68710000  0.82170000  1.0 0.1117492562
H  H148  1  0.52560000  0.70240000  0.82930000  1.0 0.1117492562
H  H149  1  0.59880000  0.71620000  0.84760000  1.0 0.098851826
H  H150  1  0.58130000  0.65470000  0.81600000  1.0 0.098851826
H  H151  1  0.58090000  0.84250000  0.77320000  1.0 0.1288290198
H  H152  1  0.59630000  0.82350000  0.82330000  1.0 0.1398443132
H  H153  1  0.52410000  0.80850000  0.80360000  1.0 0.1206867236
H  H154  1  0.54080000  0.75180000  0.72260000  1.0 0.1288290198
H  H155  1  0.49260000  0.73280000  0.76300000  1.0 0.1117492562
H  H156  1  0.53560000  0.67860000  0.74150000  1.0 0.1206867236
H  H157  1  0.88720000  0.71040000  0.75280000  1.0 0.1206867236
H  H158  1  0.87890000  0.78350000  0.73560000  1.0 0.1508969161
H  H159  1  0.87440000  0.72360000  0.70150000  1.0 0.1206867236
H  H160  1  0.84700000  0.84120000  0.55660000  1.0 0.1117492562
H  H161  1  0.85070000  0.02970000  0.63400000  1.0 0.1206867236
H  H162  1  0.88830000  0.96510000  0.64400000  1.0 0.1206867236
H  H163  1  0.82070000  0.97670000  0.66860000  1.0 0.1288290198
H  H164  1  0.82500000  0.93660000  0.53390000  1.0 0.1117492562
H  H165  1  0.89110000  0.94310000  0.56240000  1.0 0.1117492562
H  H166  1  0.85160000  0.00660000  0.55290000  1.0 0.1288290198
H  H167  1  0.71350000  0.96090000  0.57540000  1.0 0.1288290198
H  H168  1  0.74980000  0.02740000  0.59340000  1.0 0.1288290198
H  H169  1  0.71640000  0.97520000  0.62730000  1.0 0.1288290198
H  H170  1  0.77080000  0.65400000  0.67330000  1.0 0.1288290198
H  H171  1  0.83460000  0.64440000  0.64410000  1.0 0.1206867236
H  H172  1  0.76390000  0.64190000  0.62130000  1.0 0.1398443132
H  H173  1  0.79770000  0.71510000  0.51220000  1.0 0.1288290198
H  H174  1  0.85250000  0.64290000  0.46610000  1.0 0.1288290198
H  H175  1  0.98920000  0.62100000  0.56320000  1.0 0.1206867236
H  H176  1  0.93430000  0.69310000  0.60930000  1.0 0.1206867236
H  H177  1  0.02670000  0.58210000  0.67910000  1.0 0.1288290198
H  H178  1  0.08440000  0.66300000  0.63550000  1.0 0.1206867236
H  H179  1  0.22790000  0.68330000  0.73010000  1.0 0.1288290198
H  H180  1  0.17020000  0.60240000  0.77380000  1.0 0.1398443132
H  H181  1  0.18530000  0.80650000  0.69480000  1.0 0.1117492562
H  H182  1  0.16890000  0.94590000  0.61720000  1.0 0.1288290198
H  H183  1  0.24050000  0.96570000  0.59810000  1.0 0.1288290198
H  H184  1  0.21100000  0.00820000  0.63670000  1.0 0.1117492562
H  H185  1  0.30650000  0.99830000  0.67860000  1.0 0.1288290198
H  H186  1  0.33880000  0.95140000  0.64360000  1.0 0.1288290198
H  H187  1  0.33040000  0.92900000  0.69410000  1.0 0.1288290198
H  H188  1  0.16310000  0.90770000  0.70040000  1.0 0.1206867236
H  H189  1  0.21020000  0.97100000  0.71250000  1.0 0.1288290198
H  H190  1  0.23110000  0.89930000  0.72530000  1.0 0.1117492562
H  H191  1  0.24590000  0.63830000  0.56750000  1.0 0.1398443132
H  H192  1  0.17780000  0.62980000  0.59350000  1.0 0.1206867236
H  H193  1  0.24500000  0.61900000  0.61870000  1.0 0.1398443132
H  H194  1  0.33740000  0.70980000  0.42190000  1.0 0.1117492562
H  H195  1  0.44720000  0.64500000  0.43810000  1.0 0.098851826
H  H196  1  0.51240000  0.69200000  0.43210000  1.0 0.0912212277
H  H197  1  0.45020000  0.70140000  0.40130000  1.0 0.1117492562
H  H198  1  0.43570000  0.83090000  0.43440000  1.0 0.1398443132
H  H199  1  0.50930000  0.81030000  0.44110000  1.0 0.1206867236
H  H200  1  0.46880000  0.83520000  0.48240000  1.0 0.1206867236
H  H201  1  0.47120000  0.66900000  0.50920000  1.0 0.1206867236
H  H202  1  0.48680000  0.74280000  0.52540000  1.0 0.1206867236
H  H203  1  0.53030000  0.71290000  0.48740000  1.0 0.098851826
H  H204  1  0.12820000  0.72140000  0.49230000  1.0 0.1288290198
H  H205  1  0.14780000  0.78700000  0.51950000  1.0 0.1508969161
H  H206  1  0.14460000  0.71740000  0.54390000  1.0 0.1288290198
H  H207  1  0.24890000  0.75970000  0.37650000  1.0 0.1288290198
H  H208  1  0.17580000  0.72320000  0.31960000  1.0 0.1288290198
H  H209  1  0.09010000  0.58450000  0.40310000  1.0 0.1288290198
H  H210  1  0.16320000  0.62100000  0.46010000  1.0 0.1206867236
H  H211  1  0.48210000  0.05070000  0.36790000  1.0 0.1563503164
H  H212  1  0.50290000  0.99810000  0.40340000  1.0 0.1398443132
H  H213  1  0.50410000  0.07410000  0.41640000  1.0 0.1398443132
H  H214  1  0.08890000  0.45190000  0.32570000  1.0 0.1288290198
H  H215  1  0.14960000  0.39740000  0.27210000  1.0 0.1206867236
H  H216  1  0.20700000  0.27020000  0.36710000  1.0 0.1288290198
H  H217  1  0.14630000  0.32470000  0.42070000  1.0 0.1288290198
H  H218  1  0.31010000  0.31290000  0.32170000  1.0 0.1117492562
H  H219  1  0.47440000  0.29760000  0.32930000  1.0 0.1117492562
H  H220  1  0.40120000  0.28380000  0.34760000  1.0 0.098851826
H  H221  1  0.41870000  0.34530000  0.31600000  1.0 0.098851826
H  H222  1  0.41910000  0.15750000  0.27320000  1.0 0.1288290198
H  H223  1  0.40370000  0.17650000  0.32330000  1.0 0.1398443132
H  H224  1  0.47590000  0.19150000  0.30360000  1.0 0.1206867236
H  H225  1  0.45920000  0.24820000  0.22260000  1.0 0.1288290198
H  H226  1  0.50740000  0.26720000  0.26300000  1.0 0.1117492562
H  H227  1  0.46440000  0.32140000  0.24150000  1.0 0.1206867236
H  H228  1  0.11280000  0.28960000  0.25280000  1.0 0.1206867236
H  H229  1  0.12110000  0.21650000  0.23560000  1.0 0.1508969161
H  H230  1  0.12560000  0.27640000  0.20150000  1.0 0.1206867236
H  H231  1  0.15300000  0.15880000  0.05660000  1.0 0.1117492562
H  H232  1  0.14930000  0.97030000  0.13400000  1.0 0.1206867236
H  H233  1  0.11170000  0.03490000  0.14400000  1.0 0.1206867236
H  H234  1  0.17930000  0.02330000  0.16860000  1.0 0.1288290198
H  H235  1  0.17500000  0.06340000  0.03390000  1.0 0.1117492562
H  H236  1  0.10890000  0.05690000  0.06240000  1.0 0.1117492562
H  H237  1  0.14840000  0.99340000  0.05290000  1.0 0.1288290198
H  H238  1  0.28650000  0.03910000  0.07540000  1.0 0.1288290198
H  H239  1  0.25020000  0.97260000  0.09340000  1.0 0.1288290198
H  H240  1  0.28360000  0.02480000  0.12730000  1.0 0.1288290198
H  H241  1  0.22920000  0.34600000  0.17330000  1.0 0.1288290198
H  H242  1  0.16540000  0.35560000  0.14410000  1.0 0.1288290198
H  H243  1  0.23610000  0.35810000  0.12130000  1.0 0.1398443132
H  H244  1  0.20230000  0.28490000  0.01220000  1.0 0.1288290198
H  H245  1  0.14750000  0.35710000  0.96610000  1.0 0.1288290198
H  H246  1  0.01080000  0.37900000  0.06320000  1.0 0.1206867236
H  H247  1  0.06570000  0.30690000  0.10930000  1.0 0.1206867236
H  H248  1  0.97330000  0.41790000  0.17910000  1.0 0.1288290198
H  H249  1  0.91560000  0.33700000  0.13550000  1.0 0.1206867236
H  H250  1  0.77210000  0.31670000  0.23010000  1.0 0.1288290198
H  H251  1  0.82980000  0.39760000  0.27380000  1.0 0.1398443132
H  H252  1  0.81470000  0.19350000  0.19480000  1.0 0.1117492562
H  H253  1  0.83110000  0.05410000  0.11720000  1.0 0.1288290198
H  H254  1  0.75950000  0.03430000  0.09810000  1.0 0.1288290198
H  H255  1  0.78900000  0.99180000  0.13670000  1.0 0.1117492562
H  H256  1  0.69350000  0.00170000  0.17860000  1.0 0.1288290198
H  H257  1  0.66120000  0.04860000  0.14360000  1.0 0.1288290198
H  H258  1  0.66960000  0.07100000  0.19410000  1.0 0.1288290198
H  H259  1  0.83690000  0.09230000  0.20040000  1.0 0.1206867236
H  H260  1  0.78980000  0.02900000  0.21250000  1.0 0.1288290198
H  H261  1  0.76890000  0.10070000  0.22530000  1.0 0.1117492562
H  H262  1  0.75410000  0.36170000  0.06750000  1.0 0.1398443132
H  H263  1  0.82220000  0.37020000  0.09350000  1.0 0.1206867236
H  H264  1  0.75500000  0.38100000  0.11870000  1.0 0.1398443132
H  H265  1  0.66260000  0.29020000  0.92190000  1.0 0.1117492562
H  H266  1  0.55280000  0.35500000  0.93810000  1.0 0.098851826
H  H267  1  0.48760000  0.30800000  0.93210000  1.0 0.0912212277
H  H268  1  0.54980000  0.29860000  0.90130000  1.0 0.1117492562
H  H269  1  0.56430000  0.16910000  0.93440000  1.0 0.1398443132
H  H270  1  0.49070000  0.18970000  0.94110000  1.0 0.1206867236
H  H271  1  0.53120000  0.16480000  0.98240000  1.0 0.1206867236
H  H272  1  0.52880000  0.33100000  0.00920000  1.0 0.1117492562
H  H273  1  0.51320000  0.25720000  0.02540000  1.0 0.1206867236
H  H274  1  0.46970000  0.28710000  0.98740000  1.0 0.098851826
H  H275  1  0.87180000  0.27860000  0.99230000  1.0 0.1288290198
H  H276  1  0.85220000  0.21300000  0.01950000  1.0 0.1508969161
H  H277  1  0.85540000  0.28260000  0.04390000  1.0 0.1288290198
H  H278  1  0.75110000  0.24030000  0.87650000  1.0 0.1288290198
H  H279  1  0.82420000  0.27680000  0.81960000  1.0 0.1288290198
H  H280  1  0.90990000  0.41550000  0.90310000  1.0 0.1288290198
H  H281  1  0.83680000  0.37900000  0.96010000  1.0 0.1206867236
H  H282  1  0.51790000  0.94930000  0.86790000  1.0 0.1563503164
H  H283  1  0.49710000  0.00190000  0.90340000  1.0 0.1398443132
H  H284  1  0.49590000  0.92590000  0.91640000  1.0 0.1398443132
C  C1  1  0.42480000  0.06900000  0.58890000  1.0 0.6029206085
C  C2  1  0.39370000  0.11150000  0.62150000  1.0 -0.0612590711
C  C3  1  0.41550000  0.11250000  0.66600000  1.0 -0.0811062702
C  C4  1  0.38270000  0.14890000  0.69812000  1.0 -0.1491297085
C  C5  1  0.32830000  0.18430000  0.68570000  1.0 0.0912212277
C  C6  1  0.30660000  0.18340000  0.64120000  1.0 -0.1581976768
C  C7  1  0.33920000  0.14700000  0.60910000  1.0 -0.0811062702
C  C8  1  0.25690000  0.41030000  0.71840000  1.0 0.2597298218
C  C9  1  0.29980000  0.23000000  0.71980000  1.0 -0.0129693303
C  C10  1  0.27200000  0.20860000  0.76060000  1.0 0.0812032371
C  C11  1  0.23880000  0.25260000  0.78740000  1.0 -0.0612590711
C  C12  1  0.23320000  0.31820000  0.77330000  1.0 0.1784488813
C  C13  1  0.26110000  0.33970000  0.73240000  1.0 -0.0284919972
C  C14  1  0.29430000  0.29570000  0.70570000  1.0 -0.1904126596
C  C15  1  0.29990000  0.42770000  0.67770000  1.0 -0.4119616617
C  C16  1  0.18960000  0.42900000  0.70320000  1.0 -0.4799031597
C  C17  1  0.27500000  0.46520000  0.75070000  1.0 -0.4220814256
C  C18  1  0.26280000  0.13560000  0.76830000  1.0 -0.4508064454
C  C19  1  0.21740000  0.23020000  0.83550000  1.0 -0.068689894
C  C20  1  0.26230000  0.20030000  0.86350000  1.0 0.0912212277
C  C21  1  0.24040000  0.17140000  0.90390000  1.0 -0.0129693303
C  C22  1  0.17360000  0.17240000  0.91630000  1.0 -0.1904126596
C  C23  1  0.12870000  0.20230000  0.88830000  1.0 -0.0355840503
C  C24  1  0.15060000  0.23120000  0.84790000  1.0 0.1784488813
C  C25  1  0.05410000  0.19390000  0.89750000  1.0 0.287401231
C  C26  1  0.01720000  0.15480000  0.85910000  1.0 -0.4405850506
C  C27  1  0.04060000  0.15260000  0.94120000  1.0 -0.457749052
C  C28  1  0.01940000  0.25980000  0.90070000  1.0 -0.4799031597
C  C29  1  0.33750000  0.20850000  0.85550000  1.0 -0.4405850506
C  C30  1  0.28880000  0.13940000  0.93460000  1.0 0.0812032371
C  C31  1  0.30380000  0.16400000  0.97760000  1.0 -0.1491297085
C  C32  1  0.34710000  0.13110000  0.00520000  1.0 -0.0811062702
C  C33  1  0.37520000  0.07380000  0.98990000  1.0 -0.0355840503
C  C34  1  0.36020000  0.04920000  0.94700000  1.0 -0.1003391973
C  C35  1  0.31690000  0.08210000  0.91937000  1.0 -0.1491297085
C  C36  1  0.42720000  0.04240000  0.01760000  1.0 0.6098637599
C  C37  1  0.47660000  0.93860000  0.74510000  1.0 0.6098637599
C  C38  1  0.41580000  0.90720000  0.76920000  1.0 -0.0284919972
C  C39  1  0.39760000  0.93300000  0.81070000  1.0 -0.1003391973
C  C40  1  0.34920000  0.89840000  0.83680000  1.0 -0.1491297085
C  C41  1  0.31890000  0.83810000  0.82150000  1.0 0.0812032371
C  C42  1  0.33700000  0.81240000  0.78010000  1.0 -0.1491297085
C  C43  1  0.38540000  0.84700000  0.75396000  1.0 -0.0900898185
C  C44  1  0.07980000  0.75700000  0.84080000  1.0 0.2597298218
C  C45  1  0.26660000  0.79920000  0.85020000  1.0 -0.0129693303
C  C46  1  0.27960000  0.76900000  0.89120000  1.0 0.098851826
C  C47  1  0.22820000  0.73420000  0.91460000  1.0 -0.0811062702
C  C48  1  0.16370000  0.72950000  0.89700000  1.0 0.1784488813
C  C49  1  0.15070000  0.75970000  0.85600000  1.0 -0.0284919972
C  C50  1  0.20210000  0.79450000  0.83260000  1.0 -0.2003656756
C  C51  1  0.03610000  0.78690000  0.87530000  1.0 -0.4271506989
C  C52  1  0.04740000  0.68920000  0.83020000  1.0 -0.4694342222
C  C53  1  0.07500000  0.79120000  0.79680000  1.0 -0.4508064454
C  C54  1  0.35540000  0.77580000  0.90410000  1.0 -0.4405850506
C  C55  1  0.24220000  0.71900000  0.96410000  1.0 -0.0612590711
C  C56  1  0.26690000  0.76550000  0.99580000  1.0 0.0912212277
C  C57  1  0.28490000  0.74430000  0.03850000  1.0 -0.0190250231
C  C58  1  0.27820000  0.67680000  0.04950000  1.0 -0.2003656756
C  C59  1  0.25350000  0.63030000  0.01780000  1.0 -0.0129693303
C  C60  1  0.23550000  0.65130000  0.97510000  1.0 0.1705271769
C  C61  1  0.26270000  0.56110000  0.03550000  1.0 0.2597298218
C  C62  1  0.31030000  0.53550000  0.06900000  1.0 -0.4220814256
C  C63  1  0.18950000  0.53430000  0.04530000  1.0 -0.457749052
C  C64  1  0.28670000  0.51390000  0.00010000  1.0 -0.4119616617
C  C65  1  0.25950000  0.84430000  0.98380000  1.0 -0.4508064454
C  C66  1  0.30590000  0.78670000  0.07610000  1.0 0.0812032371
C  C67  1  0.27540000  0.78300000  0.11810000  1.0 -0.1429453474
C  C68  1  0.29730000  0.82670000  0.15220000  1.0 -0.1003391973
C  C69  1  0.34980000  0.87420000  0.14430000  1.0 -0.0129693303
C  C70  1  0.38040000  0.87800000  0.10220000  1.0 -0.1075488683
C  C71  1  0.35850000  0.83430000  0.06810000  1.0 -0.1339457315
C  C72  1  0.37850000  0.92350000  0.17850000  1.0 0.5621416587
C  C73  1  0.97110000  0.59230000  0.08460000  1.0 0.7056184578
C  C74  1  0.96120000  0.51880000  0.10070000  1.0 -0.6295114737
C  C75  1  0.57520000  0.93100000  0.08890000  1.0 0.6029206085
C  C76  1  0.60630000  0.88850000  0.12150000  1.0 -0.0612590711
C  C77  1  0.58450000  0.88750000  0.16600000  1.0 -0.0811062702
C  C78  1  0.61730000  0.85110000  0.19812000  1.0 -0.1491297085
C  C79  1  0.67170000  0.81570000  0.18570000  1.0 0.0912212277
C  C80  1  0.69340000  0.81660000  0.14120000  1.0 -0.1581976768
C  C81  1  0.66080000  0.85300000  0.10910000  1.0 -0.0811062702
C  C82  1  0.74310000  0.58970000  0.21840000  1.0 0.2597298218
C  C83  1  0.70020000  0.77000000  0.21980000  1.0 -0.0129693303
C  C84  1  0.72800000  0.79140000  0.26060000  1.0 0.0812032371
C  C85  1  0.76120000  0.74740000  0.28740000  1.0 -0.0612590711
C  C86  1  0.76680000  0.68180000  0.27330000  1.0 0.1784488813
C  C87  1  0.73890000  0.66030000  0.23240000  1.0 -0.0284919972
C  C88  1  0.70570000  0.70430000  0.20570000  1.0 -0.1904126596
C  C89  1  0.70010000  0.57230000  0.17770000  1.0 -0.4119616617
C  C90  1  0.81040000  0.57100000  0.20320000  1.0 -0.4799031597
C  C91  1  0.72500000  0.53480000  0.25070000  1.0 -0.4220814256
C  C92  1  0.73720000  0.86440000  0.26830000  1.0 -0.4508064454
C  C93  1  0.78260000  0.76980000  0.33550000  1.0 -0.068689894
C  C94  1  0.73770000  0.79970000  0.36350000  1.0 0.0912212277
C  C95  1  0.75960000  0.82860000  0.40390000  1.0 -0.0129693303
C  C96  1  0.82640000  0.82760000  0.41630000  1.0 -0.1904126596
C  C97  1  0.87130000  0.79770000  0.38830000  1.0 -0.0355840503
C  C98  1  0.84940000  0.76880000  0.34790000  1.0 0.1784488813
C  C99  1  0.94590000  0.80610000  0.39750000  1.0 0.287401231
C  C100  1  0.98280000  0.84520000  0.35910000  1.0 -0.4405850506
C  C101  1  0.95940000  0.84740000  0.44120000  1.0 -0.457749052
C  C102  1  0.98060000  0.74020000  0.40070000  1.0 -0.4799031597
C  C103  1  0.66250000  0.79150000  0.35550000  1.0 -0.4405850506
C  C104  1  0.71120000  0.86060000  0.43460000  1.0 0.0812032371
C  C105  1  0.69620000  0.83600000  0.47760000  1.0 -0.1491297085
C  C106  1  0.65290000  0.86890000  0.50520000  1.0 -0.0811062702
C  C107  1  0.62480000  0.92620000  0.48990000  1.0 -0.0355840503
C  C108  1  0.63980000  0.95080000  0.44700000  1.0 -0.1003391973
C  C109  1  0.68310000  0.91790000  0.41937000  1.0 -0.1491297085
C  C110  1  0.57280000  0.95760000  0.51760000  1.0 0.6098637599
C  C111  1  0.52340000  0.06140000  0.24510000  1.0 0.6098637599
C  C112  1  0.58420000  0.09280000  0.26920000  1.0 -0.0284919972
C  C113  1  0.60240000  0.06700000  0.31070000  1.0 -0.1003391973
C  C114  1  0.65080000  0.10160000  0.33680000  1.0 -0.1491297085
C  C115  1  0.68110000  0.16190000  0.32150000  1.0 0.0812032371
C  C116  1  0.66300000  0.18760000  0.28010000  1.0 -0.1491297085
C  C117  1  0.61460000  0.15300000  0.25396000  1.0 -0.0900898185
C  C118  1  0.92020000  0.24300000  0.34080000  1.0 0.2597298218
C  C119  1  0.73340000  0.20080000  0.35020000  1.0 -0.0190250231
C  C120  1  0.72040000  0.23100000  0.39120000  1.0 0.098851826
C  C121  1  0.77180000  0.26580000  0.41460000  1.0 -0.0811062702
C  C122  1  0.83630000  0.27050000  0.39700000  1.0 0.1784488813
C  C123  1  0.84930000  0.24030000  0.35600000  1.0 -0.0284919972
C  C124  1  0.79790000  0.20550000  0.33260000  1.0 -0.2003656756
C  C125  1  0.96390000  0.21310000  0.37530000  1.0 -0.4271506989
C  C126  1  0.95260000  0.31080000  0.33020000  1.0 -0.4694342222
C  C127  1  0.92500000  0.20880000  0.29680000  1.0 -0.4508064454
C  C128  1  0.64460000  0.22420000  0.40410000  1.0 -0.4405850506
C  C129  1  0.75780000  0.28100000  0.46410000  1.0 -0.0612590711
C  C130  1  0.73310000  0.23450000  0.49580000  1.0 0.0912212277
C  C131  1  0.71510000  0.25570000  0.53850000  1.0 -0.0190250231
C  C132  1  0.72180000  0.32320000  0.54950000  1.0 -0.2003656756
C  C133  1  0.74650000  0.36970000  0.51780000  1.0 -0.0190250231
C  C134  1  0.76450000  0.34870000  0.47510000  1.0 0.1705271769
C  C135  1  0.73730000  0.43890000  0.53550000  1.0 0.2597298218
C  C136  1  0.68970000  0.46450000  0.56900000  1.0 -0.4220814256
C  C137  1  0.81050000  0.46570000  0.54530000  1.0 -0.457749052
C  C138  1  0.71330000  0.48610000  0.50010000  1.0 -0.4119616617
C  C139  1  0.74050000  0.15570000  0.48380000  1.0 -0.4508064454
C  C140  1  0.69410000  0.21330000  0.57610000  1.0 0.0812032371
C  C141  1  0.72460000  0.21700000  0.61810000  1.0 -0.1429453474
C  C142  1  0.70270000  0.17330000  0.65220000  1.0 -0.1003391973
C  C143  1  0.65020000  0.12580000  0.64430000  1.0 -0.0129693303
C  C144  1  0.61960000  0.12200000  0.60220000  1.0 -0.1075488683
C  C145  1  0.64150000  0.16570000  0.56810000  1.0 -0.1339457315
C  C146  1  0.62150000  0.07650000  0.67850000  1.0 0.5621416587
C  C147  1  0.02890000  0.40770000  0.58460000  1.0 0.7056184578
C  C148  1  0.03880000  0.48120000  0.60070000  1.0 -0.6295114737
C  C149  1  0.93100000  0.57520000  0.91110000  1.0 0.6029206085
C  C150  1  0.88850000  0.60630000  0.87850000  1.0 -0.0612590711
C  C151  1  0.88750000  0.58450000  0.83400000  1.0 -0.0811062702
C  C152  1  0.85110000  0.61730000  0.80188000  1.0 -0.1491297085
C  C153  1  0.81570000  0.67170000  0.81430000  1.0 0.0912212277
C  C154  1  0.81660000  0.69340000  0.85880000  1.0 -0.1581976768
C  C155  1  0.85300000  0.66080000  0.89090000  1.0 -0.0811062702
C  C156  1  0.58970000  0.74310000  0.78160000  1.0 0.2597298218
C  C157  1  0.77000000  0.70020000  0.78020000  1.0 -0.0129693303
C  C158  1  0.79140000  0.72800000  0.73940000  1.0 0.0812032371
C  C159  1  0.74740000  0.76120000  0.71260000  1.0 -0.0612590711
C  C160  1  0.68180000  0.76680000  0.72670000  1.0 0.1784488813
C  C161  1  0.66030000  0.73890000  0.76760000  1.0 -0.0284919972
C  C162  1  0.70430000  0.70570000  0.79430000  1.0 -0.1904126596
C  C163  1  0.57230000  0.70010000  0.82230000  1.0 -0.4119616617
C  C164  1  0.57100000  0.81040000  0.79680000  1.0 -0.4799031597
C  C165  1  0.53480000  0.72500000  0.74930000  1.0 -0.4220814256
C  C166  1  0.86440000  0.73720000  0.73170000  1.0 -0.4508064454
C  C167  1  0.76980000  0.78260000  0.66450000  1.0 -0.068689894
C  C168  1  0.79970000  0.73770000  0.63650000  1.0 0.0912212277
C  C169  1  0.82860000  0.75960000  0.59610000  1.0 -0.0129693303
C  C170  1  0.82760000  0.82640000  0.58370000  1.0 -0.1904126596
C  C171  1  0.79770000  0.87130000  0.61170000  1.0 -0.0355840503
C  C172  1  0.76880000  0.84940000  0.65210000  1.0 0.1784488813
C  C173  1  0.80610000  0.94590000  0.60250000  1.0 0.287401231
C  C174  1  0.84520000  0.98280000  0.64090000  1.0 -0.4405850506
C  C175  1  0.84740000  0.95940000  0.55880000  1.0 -0.457749052
C  C176  1  0.74020000  0.98060000  0.59930000  1.0 -0.4799031597
C  C177  1  0.79150000  0.66250000  0.64450000  1.0 -0.4405850506
C  C178  1  0.86060000  0.71120000  0.56540000  1.0 0.0812032371
C  C179  1  0.83600000  0.69620000  0.52240000  1.0 -0.1491297085
C  C180  1  0.86890000  0.65290000  0.49480000  1.0 -0.0811062702
C  C181  1  0.92620000  0.62480000  0.51010000  1.0 -0.0355840503
C  C182  1  0.95080000  0.63980000  0.55300000  1.0 -0.1003391973
C  C183  1  0.91790000  0.68310000  0.58063000  1.0 -0.1491297085
C  C184  1  0.95760000  0.57280000  0.48240000  1.0 0.6098637599
C  C185  1  0.06140000  0.52340000  0.75490000  1.0 0.6098637599
C  C186  1  0.09280000  0.58420000  0.73080000  1.0 -0.0284919972
C  C187  1  0.06700000  0.60240000  0.68930000  1.0 -0.1003391973
C  C188  1  0.10160000  0.65080000  0.66320000  1.0 -0.1491297085
C  C189  1  0.16190000  0.68110000  0.67850000  1.0 0.0812032371
C  C190  1  0.18760000  0.66300000  0.71990000  1.0 -0.1491297085
C  C191  1  0.15300000  0.61460000  0.74604000  1.0 -0.0900898185
C  C192  1  0.24300000  0.92020000  0.65920000  1.0 0.2597298218
C  C193  1  0.20080000  0.73340000  0.64980000  1.0 -0.0129693303
C  C194  1  0.23100000  0.72040000  0.60880000  1.0 0.098851826
C  C195  1  0.26580000  0.77180000  0.58540000  1.0 -0.0811062702
C  C196  1  0.27050000  0.83630000  0.60300000  1.0 0.1784488813
C  C197  1  0.24030000  0.84930000  0.64400000  1.0 -0.0284919972
C  C198  1  0.20550000  0.79790000  0.66740000  1.0 -0.2003656756
C  C199  1  0.21310000  0.96390000  0.62470000  1.0 -0.4271506989
C  C200  1  0.31080000  0.95260000  0.66980000  1.0 -0.4694342222
C  C201  1  0.20880000  0.92500000  0.70320000  1.0 -0.4508064454
C  C202  1  0.22420000  0.64460000  0.59590000  1.0 -0.4405850506
C  C203  1  0.28100000  0.75780000  0.53590000  1.0 -0.0612590711
C  C204  1  0.23450000  0.73310000  0.50420000  1.0 0.0912212277
C  C205  1  0.25570000  0.71510000  0.46150000  1.0 -0.0190250231
C  C206  1  0.32320000  0.72180000  0.45050000  1.0 -0.1904126596
C  C207  1  0.36970000  0.74650000  0.48220000  1.0 -0.0190250231
C  C208  1  0.34870000  0.76450000  0.52490000  1.0 0.1705271769
C  C209  1  0.43890000  0.73730000  0.46450000  1.0 0.2597298218
C  C210  1  0.46450000  0.68970000  0.43100000  1.0 -0.4220814256
C  C211  1  0.46570000  0.81050000  0.45470000  1.0 -0.457749052
C  C212  1  0.48610000  0.71330000  0.49990000  1.0 -0.4119616617
C  C213  1  0.15570000  0.74050000  0.51620000  1.0 -0.4508064454
C  C214  1  0.21330000  0.69410000  0.42390000  1.0 0.0812032371
C  C215  1  0.21700000  0.72460000  0.38190000  1.0 -0.1429453474
C  C216  1  0.17330000  0.70270000  0.34780000  1.0 -0.1003391973
C  C217  1  0.12580000  0.65020000  0.35570000  1.0 -0.0129693303
C  C218  1  0.12200000  0.61960000  0.39780000  1.0 -0.1075488683
C  C219  1  0.16570000  0.64150000  0.43190000  1.0 -0.1339457315
C  C220  1  0.07650000  0.62150000  0.32150000  1.0 0.5621416587
C  C221  1  0.40770000  0.02890000  0.41540000  1.0 0.7056184578
C  C222  1  0.48120000  0.03880000  0.39930000  1.0 -0.6295114737
C  C223  1  0.06900000  0.42480000  0.41110000  1.0 0.6029206085
C  C224  1  0.11150000  0.39370000  0.37850000  1.0 -0.0612590711
C  C225  1  0.11250000  0.41550000  0.33400000  1.0 -0.0811062702
C  C226  1  0.14890000  0.38270000  0.30188000  1.0 -0.1491297085
C  C227  1  0.18430000  0.32830000  0.31430000  1.0 0.0912212277
C  C228  1  0.18340000  0.30660000  0.35880000  1.0 -0.1581976768
C  C229  1  0.14700000  0.33920000  0.39090000  1.0 -0.0811062702
C  C230  1  0.41030000  0.25690000  0.28160000  1.0 0.2597298218
C  C231  1  0.23000000  0.29980000  0.28020000  1.0 -0.0129693303
C  C232  1  0.20860000  0.27200000  0.23940000  1.0 0.0812032371
C  C233  1  0.25260000  0.23880000  0.21260000  1.0 -0.0612590711
C  C234  1  0.31820000  0.23320000  0.22670000  1.0 0.1784488813
C  C235  1  0.33970000  0.26110000  0.26760000  1.0 -0.0284919972
C  C236  1  0.29570000  0.29430000  0.29430000  1.0 -0.1904126596
C  C237  1  0.42770000  0.29990000  0.32230000  1.0 -0.4119616617
C  C238  1  0.42900000  0.18960000  0.29680000  1.0 -0.4799031597
C  C239  1  0.46520000  0.27500000  0.24930000  1.0 -0.4220814256
C  C240  1  0.13560000  0.26280000  0.23170000  1.0 -0.4508064454
C  C241  1  0.23020000  0.21740000  0.16450000  1.0 -0.068689894
C  C242  1  0.20030000  0.26230000  0.13650000  1.0 0.0912212277
C  C243  1  0.17140000  0.24040000  0.09610000  1.0 -0.0129693303
C  C244  1  0.17240000  0.17360000  0.08370000  1.0 -0.1904126596
C  C245  1  0.20230000  0.12870000  0.11170000  1.0 -0.0355840503
C  C246  1  0.23120000  0.15060000  0.15210000  1.0 0.1784488813
C  C247  1  0.19390000  0.05410000  0.10250000  1.0 0.287401231
C  C248  1  0.15480000  0.01720000  0.14090000  1.0 -0.4405850506
C  C249  1  0.15260000  0.04060000  0.05880000  1.0 -0.457749052
C  C250  1  0.25980000  0.01940000  0.09930000  1.0 -0.4799031597
C  C251  1  0.20850000  0.33750000  0.14450000  1.0 -0.4508064454
C  C252  1  0.13940000  0.28880000  0.06540000  1.0 0.0812032371
C  C253  1  0.16400000  0.30380000  0.02240000  1.0 -0.1491297085
C  C254  1  0.13110000  0.34710000  0.99480000  1.0 -0.0811062702
C  C255  1  0.07380000  0.37520000  0.01010000  1.0 -0.0355840503
C  C256  1  0.04920000  0.36020000  0.05300000  1.0 -0.1003391973
C  C257  1  0.08210000  0.31690000  0.08063000  1.0 -0.1491297085
C  C258  1  0.04240000  0.42720000  0.98240000  1.0 0.6098637599
C  C259  1  0.93860000  0.47660000  0.25490000  1.0 0.6098637599
C  C260  1  0.90720000  0.41580000  0.23080000  1.0 -0.0284919972
C  C261  1  0.93300000  0.39760000  0.18930000  1.0 -0.1003391973
C  C262  1  0.89840000  0.34920000  0.16320000  1.0 -0.1491297085
C  C263  1  0.83810000  0.31890000  0.17850000  1.0 0.0812032371
C  C264  1  0.81240000  0.33700000  0.21990000  1.0 -0.1491297085
C  C265  1  0.84700000  0.38540000  0.24604000  1.0 -0.0900898185
C  C266  1  0.75700000  0.07980000  0.15920000  1.0 0.2597298218
C  C267  1  0.79920000  0.26660000  0.14980000  1.0 -0.0129693303
C  C268  1  0.76900000  0.27960000  0.10880000  1.0 0.098851826
C  C269  1  0.73420000  0.22820000  0.08540000  1.0 -0.0811062702
C  C270  1  0.72950000  0.16370000  0.10300000  1.0 0.1784488813
C  C271  1  0.75970000  0.15070000  0.14400000  1.0 -0.0284919972
C  C272  1  0.79450000  0.20210000  0.16740000  1.0 -0.2003656756
C  C273  1  0.78690000  0.03610000  0.12470000  1.0 -0.4271506989
C  C274  1  0.68920000  0.04740000  0.16980000  1.0 -0.4694342222
C  C275  1  0.79120000  0.07500000  0.20320000  1.0 -0.4508064454
C  C276  1  0.77580000  0.35540000  0.09590000  1.0 -0.4405850506
C  C277  1  0.71900000  0.24220000  0.03590000  1.0 -0.0612590711
C  C278  1  0.76550000  0.26690000  0.00420000  1.0 0.0912212277
C  C279  1  0.74430000  0.28490000  0.96150000  1.0 -0.0190250231
C  C280  1  0.67680000  0.27820000  0.95050000  1.0 -0.1904126596
C  C281  1  0.63030000  0.25350000  0.98220000  1.0 -0.0190250231
C  C282  1  0.65130000  0.23550000  0.02490000  1.0 0.1705271769
C  C283  1  0.56110000  0.26270000  0.96450000  1.0 0.2597298218
C  C284  1  0.53550000  0.31030000  0.93100000  1.0 -0.4220814256
C  C285  1  0.53430000  0.18950000  0.95470000  1.0 -0.457749052
C  C286  1  0.51390000  0.28670000  0.99990000  1.0 -0.4119616617
C  C287  1  0.84430000  0.25950000  0.01620000  1.0 -0.4508064454
C  C288  1  0.78670000  0.30590000  0.92390000  1.0 0.0812032371
C  C289  1  0.78300000  0.27540000  0.88190000  1.0 -0.1429453474
C  C290  1  0.82670000  0.29730000  0.84780000  1.0 -0.1003391973
C  C291  1  0.87420000  0.34980000  0.85570000  1.0 -0.0129693303
C  C292  1  0.87800000  0.38040000  0.89780000  1.0 -0.1075488683
C  C293  1  0.83430000  0.35850000  0.93190000  1.0 -0.1339457315
C  C294  1  0.92350000  0.37850000  0.82150000  1.0 0.5621416587
C  C295  1  0.59230000  0.97110000  0.91540000  1.0 0.7056184578
C  C296  1  0.51880000  0.96120000  0.89930000  1.0 -0.6295114737
O  O1  1  0.40570000  0.07010000  0.54740000  1.0 -0.6295114737
O  O2  1  0.46580000  0.02940000  0.60210000  1.0 -0.6448924523
O  O3  1  0.19610000  0.35570000  0.80130000  1.0 -0.4220814256
O  O4  1  0.11070000  0.26350000  0.81744000  1.0 -0.4508064454
O  O5  1  0.07940000  0.35340000  0.76660000  1.0 -0.8489705504
O  O6  1  0.10780000  0.38180000  0.85092000  1.0 -0.8302904201
O  O7  1  0.46330000  0.00370000  0.99870000  1.0 -0.6017528555
O  O8  1  0.43180000  0.06260000  0.05913000  1.0 -0.6698901039
O  O9  1  0.51200000  0.98240000  0.76469000  1.0 -0.5849528294
O  O10  1  0.48450000  0.92290000  0.70487000  1.0 -0.6295114737
O  O11  1  0.11770000  0.69110000  0.92250000  1.0 -0.4508064454
O  O12  1  0.20720000  0.60960000  0.94080000  1.0 -0.4508064454
O  O13  1  0.08470000  0.59750000  0.97210000  1.0 -0.8767613303
O  O14  1  0.11990000  0.56790000  0.88995000  1.0 -0.8629349949
O  O15  1  0.35080000  0.91580000  0.21800000  1.0 -0.6017528555
O  O16  1  0.42110000  0.96670000  0.16960000  1.0 -0.6055619698
O  O17  1  0.97700000  0.35240000  0.69204000  1.0 -0.8629349949
O  O18  1  0.98710000  0.60370000  0.04380000  1.0 -0.6295114737
O  O19  1  0.97320000  0.64260000  0.10900000  1.0 -0.3492213023
O  O20  1  0.59430000  0.92990000  0.04740000  1.0 -0.6295114737
O  O21  1  0.53420000  0.97060000  0.10210000  1.0 -0.6455290895
O  O22  1  0.80390000  0.64430000  0.30130000  1.0 -0.4271506989
O  O23  1  0.88930000  0.73650000  0.31744000  1.0 -0.4508064454
O  O24  1  0.92060000  0.64660000  0.26660000  1.0 -0.8489705504
O  O25  1  0.89220000  0.61820000  0.35092000  1.0 -0.8302904201
O  O26  1  0.53670000  0.99630000  0.49870000  1.0 -0.6017528555
O  O27  1  0.56820000  0.93740000  0.55913000  1.0 -0.6698901039
O  O28  1  0.48800000  0.01760000  0.26469000  1.0 -0.5849528294
O  O29  1  0.51550000  0.07710000  0.20487000  1.0 -0.6295114737
O  O30  1  0.88230000  0.30890000  0.42250000  1.0 -0.4508064454
O  O31  1  0.79280000  0.39040000  0.44080000  1.0 -0.4508064454
O  O32  1  0.91530000  0.40250000  0.47210000  1.0 -0.8767613303
O  O33  1  0.88010000  0.43210000  0.38995000  1.0 -0.8629349949
O  O34  1  0.64920000  0.08420000  0.71800000  1.0 -0.6017528555
O  O35  1  0.57890000  0.03330000  0.66960000  1.0 -0.6017528555
O  O36  1  0.02300000  0.64760000  0.19204000  1.0 -0.8489705504
O  O37  1  0.01290000  0.39630000  0.54380000  1.0 -0.6295114737
O  O38  1  0.02680000  0.35740000  0.60900000  1.0 -0.3492213023
O  O39  1  0.92990000  0.59430000  0.95260000  1.0 -0.6295114737
O  O40  1  0.97060000  0.53420000  0.89790000  1.0 -0.6455290895
O  O41  1  0.64430000  0.80390000  0.69870000  1.0 -0.4271506989
O  O42  1  0.73650000  0.88930000  0.68256000  1.0 -0.4508064454
O  O43  1  0.64660000  0.92060000  0.73340000  1.0 -0.8489705504
O  O44  1  0.61820000  0.89220000  0.64908000  1.0 -0.8302904201
O  O45  1  0.99630000  0.53670000  0.50130000  1.0 -0.6017528555
O  O46  1  0.93740000  0.56820000  0.44087000  1.0 -0.6698901039
O  O47  1  0.01760000  0.48800000  0.73531000  1.0 -0.5849528294
O  O48  1  0.07710000  0.51550000  0.79513000  1.0 -0.6295114737
O  O49  1  0.30890000  0.88230000  0.57750000  1.0 -0.4508064454
O  O50  1  0.39040000  0.79280000  0.55920000  1.0 -0.4508064454
O  O51  1  0.40250000  0.91530000  0.52790000  1.0 -0.8767613303
O  O52  1  0.43210000  0.88010000  0.61005000  1.0 -0.8629349949
O  O53  1  0.08420000  0.64920000  0.28200000  1.0 -0.6017528555
O  O54  1  0.03330000  0.57890000  0.33040000  1.0 -0.6055619698
O  O55  1  0.64760000  0.02300000  0.80796000  1.0 -0.8489705504
O  O56  1  0.39630000  0.01290000  0.45620000  1.0 -0.6295114737
O  O57  1  0.35740000  0.02680000  0.39100000  1.0 -0.3492213023
O  O58  1  0.07010000  0.40570000  0.45260000  1.0 -0.6295114737
O  O59  1  0.02940000  0.46580000  0.39790000  1.0 -0.6448924523
O  O60  1  0.35570000  0.19610000  0.19870000  1.0 -0.4271506989
O  O61  1  0.26350000  0.11070000  0.18256000  1.0 -0.4508064454
O  O62  1  0.35340000  0.07940000  0.23340000  1.0 -0.8489705504
O  O63  1  0.38180000  0.10780000  0.14908000  1.0 -0.8302904201
O  O64  1  0.00370000  0.46330000  0.00130000  1.0 -0.6055619698
O  O65  1  0.06260000  0.43180000  0.94087000  1.0 -0.6698901039
O  O66  1  0.98240000  0.51200000  0.23531000  1.0 -0.5849528294
O  O67  1  0.92290000  0.48450000  0.29513000  1.0 -0.6295114737
O  O68  1  0.69110000  0.11770000  0.07750000  1.0 -0.4508064454
O  O69  1  0.60960000  0.20720000  0.05920000  1.0 -0.4508064454
O  O70  1  0.59750000  0.08470000  0.02790000  1.0 -0.8767613303
O  O71  1  0.56790000  0.11990000  0.11005000  1.0 -0.8629349949
O  O72  1  0.91580000  0.35080000  0.78200000  1.0 -0.6017528555
O  O73  1  0.96670000  0.42110000  0.83040000  1.0 -0.6017528555
O  O74  1  0.35240000  0.97700000  0.30796000  1.0 -0.8629349949
O  O75  1  0.60370000  0.98710000  0.95620000  1.0 -0.6295114737
O  O76  1  0.64260000  0.97320000  0.89100000  1.0 -0.3492213023
