# DDEC6 charges by PACMAN v1.1 (https://github.com/mtap-research/PACMAN-charge/)
data_WESGOU_ASR_pacman
_symmetry_space_group_name_H-M   'P 1'
_cell_length_a   10.09540000
_cell_length_b   11.14270000
_cell_length_c   13.72060000
_cell_angle_alpha   74.07000000
_cell_angle_beta   72.80200000
_cell_angle_gamma   79.71100000
_symmetry_Int_Tables_number   1
_chemical_formula_structural   PrH12(C7O3)3
_chemical_formula_sum   'Pr2 H24 C42 O18'
_cell_volume   1409.79807366
_cell_formula_units_Z   2
loop_
 _symmetry_equiv_pos_site_id
 _symmetry_equiv_pos_as_xyz
  1  'x, y, z'
loop_
 _atom_site_type_symbol
 _atom_site_label
 _atom_site_symmetry_multiplicity
 _atom_site_fract_x
 _atom_site_fract_y
 _atom_site_fract_z
 _atom_site_occupancy
 _atom_site_charge
Pr  Pr1  1  0.49063000  0.44607000  0.65940000  1.0 2.0821308743
Pr  Pr2  1  0.50937000  0.55393000  0.34060000  1.0 2.0821308743
H  H1  1  0.15797000  0.23134000  0.79970000  1.0 0.2190153848
H  H2  1  0.75828000  0.16792000  0.66748000  1.0 0.13441437
H  H3  1  0.84964000  0.22394000  0.71430000  1.0 0.1202991892
H  H4  1  0.89164000  0.96938000  0.90999000  1.0 0.1071118391
H  H5  1  0.85483000  0.03500000  0.00403000  1.0 0.1004228941
H  H6  1  0.12788000  0.01769000  0.54212000  1.0 0.2190153848
H  H7  1  0.02607000  0.70799000  0.94774000  1.0 0.2482935589
H  H8  1  0.22223000  0.01069000  0.72771000  1.0 0.1071118391
H  H9  1  0.33126000  0.95151000  0.79473000  1.0 0.1202991892
H  H10  1  0.41300000  0.08500000  0.64800000  1.0 0.1374729972
H  H11  1  0.70000000  0.90300000  0.05500000  1.0 0.1202991892
H  H12  1  0.96800000  0.65300000  0.36300000  1.0 0.1374729972
H  H13  1  0.84203000  0.76866000  0.20030000  1.0 0.2190153848
H  H14  1  0.24172000  0.83208000  0.33252000  1.0 0.13441437
H  H15  1  0.15036000  0.77606000  0.28570000  1.0 0.1202991892
H  H16  1  0.10836000  0.03062000  0.09001000  1.0 0.1004228941
H  H17  1  0.14517000  0.96500000  0.99597000  1.0 0.1004228941
H  H18  1  0.87212000  0.98231000  0.45788000  1.0 0.2190153848
H  H19  1  0.97393000  0.29201000  0.05226000  1.0 0.2482935589
H  H20  1  0.77777000  0.98931000  0.27229000  1.0 0.1071118391
H  H21  1  0.66874000  0.04849000  0.20527000  1.0 0.1202991892
H  H22  1  0.58700000  0.91500000  0.35200000  1.0 0.1374729972
H  H23  1  0.30000000  0.09700000  0.94500000  1.0 0.1202991892
H  H24  1  0.03200000  0.34700000  0.63700000  1.0 0.1374729972
C  C1  1  0.50210000  0.11030000  0.92000000  1.0 -0.0907675058
C  C2  1  0.62030000  0.94670000  0.02990000  1.0 -0.2658692945
C  C3  1  0.08100000  0.18630000  0.83190000  1.0 -0.3443984587
C  C4  1  0.75850000  0.52750000  0.42100000  1.0 0.6434405696
C  C5  1  0.55510000  0.25130000  0.49150000  1.0 0.6628465008
C  C6  1  0.53060000  0.12030000  0.49300000  1.0 -0.0988813985
C  C7  1  0.41920000  0.93250000  0.59420000  1.0 0.2091965925
C  C8  1  0.45160000  0.05160000  0.58570000  1.0 -0.2508702625
C  C9  1  0.88400000  0.51090000  0.46200000  1.0 -0.0907675058
C  C10  1  0.98330000  0.59270000  0.41310000  1.0 -0.1987158407
C  C11  1  0.90070000  0.41790000  0.54910000  1.0 0.2262702834
C  C12  1  0.83720000  0.21570000  0.64910000  1.0 -0.0270112289
C  C13  1  0.49220000  0.22820000  0.83570000  1.0 0.5908500206
C  C14  1  0.62460000  0.05600000  0.95030000  1.0 0.2190153848
C  C15  1  0.86880000  0.04980000  0.92880000  1.0 -0.0507836688
C  C16  1  0.98270000  0.12880000  0.87300000  1.0 0.0114417084
C  C17  1  0.95840000  0.14130000  0.60230000  1.0 -0.0090839436
C  C18  1  0.05320000  0.07220000  0.56860000  1.0 -0.3110097397
C  C19  1  0.08500000  0.76530000  0.90020000  1.0 -0.3676657725
C  C20  1  0.26980000  0.93280000  0.75950000  1.0 -0.0008386034
C  C21  1  0.16300000  0.84100000  0.83750000  1.0 0.0358068801
C  C22  1  0.49790000  0.88970000  0.08000000  1.0 -0.0907675058
C  C23  1  0.37970000  0.05330000  0.97010000  1.0 -0.2658692945
C  C24  1  0.91900000  0.81370000  0.16810000  1.0 -0.3443984587
C  C25  1  0.24150000  0.47250000  0.57900000  1.0 0.6434405696
C  C26  1  0.44490000  0.74870000  0.50850000  1.0 0.6628465008
C  C27  1  0.46940000  0.87970000  0.50700000  1.0 -0.0988813985
C  C28  1  0.58080000  0.06750000  0.40580000  1.0 0.2091965925
C  C29  1  0.54840000  0.94840000  0.41430000  1.0 -0.2508702625
C  C30  1  0.11600000  0.48910000  0.53800000  1.0 -0.0907675058
C  C31  1  0.01670000  0.40730000  0.58690000  1.0 -0.1987158407
C  C32  1  0.09930000  0.58210000  0.45090000  1.0 0.2262702834
C  C33  1  0.16280000  0.78430000  0.35090000  1.0 -0.0270112289
C  C34  1  0.50780000  0.77180000  0.16430000  1.0 0.5908500206
C  C35  1  0.37540000  0.94400000  0.04970000  1.0 0.2190153848
C  C36  1  0.13120000  0.95020000  0.07120000  1.0 -0.0507836688
C  C37  1  0.01730000  0.87120000  0.12700000  1.0 0.0114417084
C  C38  1  0.04160000  0.85870000  0.39770000  1.0 -0.0090839436
C  C39  1  0.94680000  0.92780000  0.43140000  1.0 -0.3110097397
C  C40  1  0.91500000  0.23470000  0.09980000  1.0 -0.3676657725
C  C41  1  0.73020000  0.06720000  0.24050000  1.0 -0.0008386034
C  C42  1  0.83700000  0.15900000  0.16250000  1.0 0.0358068801
O  O1  1  0.63970000  0.52010000  0.48613000  1.0 -0.7317895044
O  O2  1  0.57810000  0.32940000  0.40440000  1.0 -0.6457397092
O  O3  1  0.54340000  0.27130000  0.57920000  1.0 -0.6457397092
O  O4  1  0.77150000  0.55190000  0.32389000  1.0 -0.5782122363
O  O5  1  0.38620000  0.25520000  0.80240000  1.0 -0.5987145055
O  O6  1  0.58720000  0.30030000  0.80200000  1.0 -0.6407010604
O  O7  1  0.74420000  0.11330000  0.90010000  1.0 -0.1745744098
O  O8  1  0.79930000  0.33720000  0.59280000  1.0 -0.2136557151
O  O9  1  0.34130000  0.86690000  0.68690000  1.0 -0.1121885118
O  O10  1  0.36030000  0.47990000  0.51387000  1.0 -0.7317895044
O  O11  1  0.42190000  0.67060000  0.59560000  1.0 -0.6457397092
O  O12  1  0.45660000  0.72870000  0.42080000  1.0 -0.6457397092
O  O13  1  0.22850000  0.44810000  0.67611000  1.0 -0.5782122363
O  O14  1  0.61380000  0.74480000  0.19760000  1.0 -0.5987145055
O  O15  1  0.41280000  0.69970000  0.19800000  1.0 -0.6407010604
O  O16  1  0.25580000  0.88670000  0.09990000  1.0 -0.1763835896
O  O17  1  0.20070000  0.66280000  0.40720000  1.0 -0.2136557151
O  O18  1  0.65870000  0.13310000  0.31310000  1.0 -0.1121885118
