# DDEC6 charges by PACMAN v1.1 (https://github.com/mtap-research/PACMAN-charge/)
data_WESGEK_ASR_pacman
_symmetry_space_group_name_H-M   'P 1'
_cell_length_a   10.08760000
_cell_length_b   11.24840000
_cell_length_c   13.81600000
_cell_angle_alpha   74.40000000
_cell_angle_beta   72.85300000
_cell_angle_gamma   80.08000000
_symmetry_Int_Tables_number   1
_chemical_formula_structural   LaH12(C7O3)3
_chemical_formula_sum   'La2 H24 C42 O18'
_cell_volume   1435.44486832
_cell_formula_units_Z   2
loop_
 _symmetry_equiv_pos_site_id
 _symmetry_equiv_pos_as_xyz
  1  'x, y, z'
loop_
 _atom_site_type_symbol
 _atom_site_label
 _atom_site_symmetry_multiplicity
 _atom_site_fract_x
 _atom_site_fract_y
 _atom_site_fract_z
 _atom_site_occupancy
 _atom_site_charge
La  La1  1  0.00677000  0.55396000  0.33981000  1.0 1.8638696751
La  La2  1  0.99323000  0.44604000  0.66019000  1.0 1.8638696751
H  H1  1  0.19962000  0.91450000  0.04979000  1.0 0.1209688962
H  H2  1  0.52194000  0.34807000  0.64808000  1.0 0.1375402889
H  H3  1  0.64657000  0.96155000  0.99306000  1.0 0.1001549276
H  H4  1  0.60866000  0.02682000  0.08664000  1.0 0.1001549276
H  H5  1  0.34336000  0.76647000  0.19900000  1.0 0.2207149298
H  H6  1  0.91269000  0.08635000  0.64276000  1.0 0.1343213698
H  H7  1  0.34587000  0.22745000  0.71664000  1.0 0.1209688962
H  H8  1  0.25249000  0.17337000  0.66994000  1.0 0.1375402889
H  H9  1  0.70507000  0.00730000  0.72027000  1.0 0.1115651584
H  H10  1  0.80940000  0.95696000  0.79130000  1.0 0.1209688962
H  H11  1  0.51045000  0.71747000  0.94366000  1.0 0.2411486686
H  H12  1  0.62346000  0.04202000  0.52794000  1.0 0.2207149298
H  H13  1  0.80038000  0.08550000  0.95021000  1.0 0.1209688962
H  H14  1  0.47806000  0.65193000  0.35192000  1.0 0.1375402889
H  H15  1  0.35343000  0.03845000  0.00694000  1.0 0.1001549276
H  H16  1  0.39134000  0.97318000  0.91336000  1.0 0.1001549276
H  H17  1  0.65664000  0.23353000  0.80100000  1.0 0.2207149298
H  H18  1  0.08731000  0.91365000  0.35724000  1.0 0.1343213698
H  H19  1  0.65413000  0.77255000  0.28336000  1.0 0.1209688962
H  H20  1  0.74751000  0.82663000  0.33006000  1.0 0.1375402889
H  H21  1  0.29493000  0.99270000  0.27973000  1.0 0.1115651584
H  H22  1  0.19060000  0.04304000  0.20870000  1.0 0.1209688962
H  H23  1  0.48955000  0.28253000  0.05634000  1.0 0.2411486686
H  H24  1  0.37654000  0.95798000  0.47206000  1.0 0.2207149298
C  C1  1  0.99770000  0.89000000  0.07830000  1.0 -0.0834240274
C  C2  1  0.00820000  0.77170000  0.16150000  1.0 0.5765701613
C  C3  1  0.11880000  0.94910000  0.02920000  1.0 -0.2575315306
C  C4  1  0.74020000  0.47170000  0.58010000  1.0 0.6223737082
C  C5  1  0.87540000  0.94360000  0.04860000  1.0 0.2207149298
C  C6  1  0.61580000  0.48910000  0.53830000  1.0 -0.0987135017
C  C7  1  0.94510000  0.74990000  0.50920000  1.0 0.6402377566
C  C8  1  0.39710000  0.42090000  0.55030000  1.0 0.2411486686
C  C9  1  0.51340000  0.40910000  0.58900000  1.0 -0.2191412369
C  C10  1  0.63230000  0.94730000  0.06770000  1.0 -0.0476212868
C  C11  1  0.51930000  0.86690000  0.12350000  1.0 0.0117194025
C  C12  1  0.42070000  0.81060000  0.16580000  1.0 -0.3424952397
C  C13  1  0.91610000  0.93370000  0.59280000  1.0 0.2035894772
C  C14  1  0.96960000  0.88020000  0.50710000  1.0 -0.0909806633
C  C15  1  0.94740000  0.05140000  0.58530000  1.0 -0.2575315306
C  C16  1  0.33120000  0.22130000  0.65190000  1.0 -0.0359506825
C  C17  1  0.45040000  0.15400000  0.60040000  1.0 -0.0157814663
C  C18  1  0.75410000  0.93330000  0.75400000  1.0 0.0117194025
C  C19  1  0.57100000  0.77050000  0.89360000  1.0 -0.321603685
C  C20  1  0.64830000  0.83780000  0.83010000  1.0 0.0420340846
C  C21  1  0.54780000  0.09100000  0.55960000  1.0 -0.321603685
C  C22  1  0.00230000  0.11000000  0.92170000  1.0 -0.0834240274
C  C23  1  0.99180000  0.22830000  0.83850000  1.0 0.5765701613
C  C24  1  0.88120000  0.05090000  0.97080000  1.0 -0.2575315306
C  C25  1  0.25980000  0.52830000  0.41990000  1.0 0.6223737082
C  C26  1  0.12460000  0.05640000  0.95140000  1.0 0.2207149298
C  C27  1  0.38420000  0.51090000  0.46170000  1.0 -0.0987135017
C  C28  1  0.05490000  0.25010000  0.49080000  1.0 0.6402377566
C  C29  1  0.60290000  0.57910000  0.44970000  1.0 0.2344272217
C  C30  1  0.48660000  0.59090000  0.41100000  1.0 -0.2191412369
C  C31  1  0.36770000  0.05270000  0.93230000  1.0 -0.0476212868
C  C32  1  0.48070000  0.13310000  0.87650000  1.0 0.0117194025
C  C33  1  0.57930000  0.18940000  0.83420000  1.0 -0.3424952397
C  C34  1  0.08390000  0.06630000  0.40720000  1.0 0.2035894772
C  C35  1  0.03040000  0.11980000  0.49290000  1.0 -0.0909806633
C  C36  1  0.05260000  0.94860000  0.41470000  1.0 -0.2575315306
C  C37  1  0.66880000  0.77870000  0.34810000  1.0 -0.0359506825
C  C38  1  0.54960000  0.84600000  0.39960000  1.0 -0.0157814663
C  C39  1  0.24590000  0.06670000  0.24600000  1.0 0.0117194025
C  C40  1  0.42900000  0.22950000  0.10640000  1.0 -0.321603685
C  C41  1  0.35170000  0.16220000  0.16990000  1.0 0.0420340846
C  C42  1  0.45220000  0.90900000  0.44040000  1.0 -0.321603685
O  O1  1  0.85870000  0.47870000  0.51600000  1.0 -0.6552278915
O  O2  1  0.72620000  0.44690000  0.67690000  1.0 -0.55030965
O  O3  1  0.95610000  0.73030000  0.42140000  1.0 -0.6094331363
O  O4  1  0.11280000  0.74630000  0.19590000  1.0 -0.5753464618
O  O5  1  0.75650000  0.88490000  0.09690000  1.0 -0.1765681872
O  O6  1  0.91530000  0.69900000  0.19120000  1.0 -0.6023079673
O  O7  1  0.92520000  0.67250000  0.59500000  1.0 -0.6094331363
O  O8  1  0.29370000  0.34340000  0.59670000  1.0 -0.2053312281
O  O9  1  0.83440000  0.86950000  0.68460000  1.0 -0.121346421
O  O10  1  0.14130000  0.52130000  0.48400000  1.0 -0.654620103
O  O11  1  0.27380000  0.55310000  0.32310000  1.0 -0.55030965
O  O12  1  0.04390000  0.26970000  0.57860000  1.0 -0.6094331363
O  O13  1  0.88720000  0.25370000  0.80410000  1.0 -0.5753464618
O  O14  1  0.24350000  0.11510000  0.90310000  1.0 -0.1765681872
O  O15  1  0.08470000  0.30100000  0.80880000  1.0 -0.6023079673
O  O16  1  0.07480000  0.32750000  0.40500000  1.0 -0.6094331363
O  O17  1  0.70630000  0.65660000  0.40330000  1.0 -0.2053312281
O  O18  1  0.16560000  0.13050000  0.31540000  1.0 -0.121346421
