# DDEC6 charges by PACMAN v1.1 (https://github.com/mtap-research/PACMAN-charge/)
data_WESYAV_FSR_pacman
_symmetry_space_group_name_H-M   'P 1'
_cell_length_a   6.78750000
_cell_length_b   10.56150000
_cell_length_c   14.21180000
_cell_angle_alpha   90.00000000
_cell_angle_beta   97.56700000
_cell_angle_gamma   90.00000000
_symmetry_Int_Tables_number   1
_chemical_formula_structural   CuH5C6N4O
_chemical_formula_sum   'Cu4 H20 C24 N16 O4'
_cell_volume   1009.91759183
_cell_formula_units_Z   4
loop_
 _symmetry_equiv_pos_site_id
 _symmetry_equiv_pos_as_xyz
  1  'x, y, z'
loop_
 _atom_site_type_symbol
 _atom_site_label
 _atom_site_symmetry_multiplicity
 _atom_site_fract_x
 _atom_site_fract_y
 _atom_site_fract_z
 _atom_site_occupancy
 _atom_site_charge
Cu  Cu1  1  0.50000000  0.50000000  0.50000000  1.0 0.6936950363
Cu  Cu2  1  0.50000000  0.00000000  0.00000000  1.0 0.6936950363
Cu  Cu3  1  0.00000000  0.50000000  0.50000000  1.0 0.6838072218
Cu  Cu4  1  0.00000000  0.00000000  0.00000000  1.0 0.6838072218
H  H1  1  0.25440000  0.32160000  0.51270000  1.0 0.3523358904
H  H2  1  0.74560000  0.82160000  0.98730000  1.0 0.3523358904
H  H3  1  0.74560000  0.67840000  0.48730000  1.0 0.3523358904
H  H4  1  0.25440000  0.17840000  0.01270000  1.0 0.3523358904
H  H5  1  0.56300000  0.73150000  0.66830000  1.0 0.1010377459
H  H6  1  0.43700000  0.23150000  0.83170000  1.0 0.1010377459
H  H7  1  0.43700000  0.26850000  0.33170000  1.0 0.1010377459
H  H8  1  0.56300000  0.76850000  0.16830000  1.0 0.1010377459
H  H9  1  0.57820000  0.85830000  0.82240000  1.0 0.1112020739
H  H10  1  0.42180000  0.35830000  0.67760000  1.0 0.1112020739
H  H11  1  0.42180000  0.14170000  0.17760000  1.0 0.1112020739
H  H12  1  0.57820000  0.64170000  0.32240000  1.0 0.1112020739
H  H13  1  0.90750000  0.63880000  0.68210000  1.0 0.1112020739
H  H14  1  0.09250000  0.13880000  0.81790000  1.0 0.1112020739
H  H15  1  0.09250000  0.36120000  0.31790000  1.0 0.1112020739
H  H16  1  0.90750000  0.86120000  0.18210000  1.0 0.1112020739
H  H17  1  0.91600000  0.78070000  0.83160000  1.0 0.1010377459
H  H18  1  0.08400000  0.28070000  0.66840000  1.0 0.1010377459
H  H19  1  0.08400000  0.21930000  0.16840000  1.0 0.1010377459
H  H20  1  0.91600000  0.71930000  0.33160000  1.0 0.1010377459
C  C1  1  0.42880000  0.71350000  0.67250000  1.0 -0.0007803772
C  C2  1  0.57120000  0.21350000  0.82750000  1.0 -0.0007803772
C  C3  1  0.57120000  0.28650000  0.32750000  1.0 -0.0007803772
C  C4  1  0.42880000  0.78650000  0.17250000  1.0 -0.0007803772
C  C5  1  0.33970000  0.76590000  0.74880000  1.0 0.0287857546
C  C6  1  0.66030000  0.26590000  0.75120000  1.0 0.0287857546
C  C7  1  0.66030000  0.23410000  0.25120000  1.0 0.0287857546
C  C8  1  0.33970000  0.73410000  0.24880000  1.0 0.0287857546
C  C9  1  0.44190000  0.84250000  0.82220000  1.0 -0.0144451497
C  C10  1  0.55810000  0.34250000  0.67780000  1.0 -0.0144451497
C  C11  1  0.55810000  0.15750000  0.17780000  1.0 -0.0144451497
C  C12  1  0.44190000  0.65750000  0.32220000  1.0 -0.0144451497
C  C13  1  0.04200000  0.65900000  0.68070000  1.0 -0.0007803772
C  C14  1  0.95800000  0.15900000  0.81930000  1.0 -0.0007803772
C  C15  1  0.95800000  0.34100000  0.31930000  1.0 -0.0007803772
C  C16  1  0.04200000  0.84100000  0.18070000  1.0 -0.0007803772
C  C17  1  0.14200000  0.73880000  0.75300000  1.0 0.0287857546
C  C18  1  0.85800000  0.23880000  0.74700000  1.0 0.0287857546
C  C19  1  0.85800000  0.26120000  0.24700000  1.0 0.0287857546
C  C20  1  0.14200000  0.76120000  0.25300000  1.0 0.0287857546
C  C21  1  0.05100000  0.79660000  0.82770000  1.0 0.0007219148
C  C22  1  0.94900000  0.29660000  0.67230000  1.0 0.0007219148
C  C23  1  0.94900000  0.20340000  0.17230000  1.0 -0.0007803772
C  C24  1  0.05100000  0.70340000  0.32770000  1.0 0.0007219148
N  N1  1  0.33010000  0.64070000  0.60757000  1.0 -0.1963063501
N  N2  1  0.66990000  0.14070000  0.89243000  1.0 -0.1963063501
N  N3  1  0.66990000  0.35930000  0.39243000  1.0 -0.1963063501
N  N4  1  0.33010000  0.85930000  0.10757000  1.0 -0.1963063501
N  N5  1  0.13400000  0.61340000  0.61263000  1.0 -0.1315518081
N  N6  1  0.86600000  0.11340000  0.88737000  1.0 -0.1315518081
N  N7  1  0.86600000  0.38660000  0.38737000  1.0 -0.1315518081
N  N8  1  0.13400000  0.88660000  0.11263000  1.0 -0.1315518081
N  N9  1  0.35020000  0.89160000  0.88927000  1.0 -0.1368272885
N  N10  1  0.64980000  0.39160000  0.61073000  1.0 -0.1368272885
N  N11  1  0.64980000  0.10840000  0.11073000  1.0 -0.1368272885
N  N12  1  0.35020000  0.60840000  0.38927000  1.0 -0.1368272885
N  N13  1  0.15090000  0.87090000  0.89096000  1.0 -0.1912722908
N  N14  1  0.84910000  0.37090000  0.60904000  1.0 -0.1912722908
N  N15  1  0.84910000  0.12910000  0.10904000  1.0 -0.1912722908
N  N16  1  0.15090000  0.62910000  0.39096000  1.0 -0.1912722908
O  O1  1  0.25250000  0.41023000  0.50637000  1.0 -0.8515208684
O  O2  1  0.74750000  0.91023000  0.99363000  1.0 -0.8515208684
O  O3  1  0.74750000  0.58977000  0.49363000  1.0 -0.8515208684
O  O4  1  0.25250000  0.08977000  0.00637000  1.0 -0.8515208684
