# DDEC6 charges by PACMAN v1.1 (https://github.com/mtap-research/PACMAN-charge/)
data_WETDUX_FSR_pacman
_symmetry_space_group_name_H-M   'P 1'
_cell_length_a   13.77090000
_cell_length_b   14.61300000
_cell_length_c   14.72600000
_cell_angle_alpha   90.00000000
_cell_angle_beta   111.25500000
_cell_angle_gamma   90.00000000
_symmetry_Int_Tables_number   1
_chemical_formula_structural   Zn2H15C23N5O11
_chemical_formula_sum   'Zn8 H60 C92 N20 O44'
_cell_volume   2761.79439664
_cell_formula_units_Z   4
loop_
 _symmetry_equiv_pos_site_id
 _symmetry_equiv_pos_as_xyz
  1  'x, y, z'
loop_
 _atom_site_type_symbol
 _atom_site_label
 _atom_site_symmetry_multiplicity
 _atom_site_fract_x
 _atom_site_fract_y
 _atom_site_fract_z
 _atom_site_occupancy
 _atom_site_charge
Zn  Zn1  1  0.16326000  0.64379000  0.51935000  1.0 0.7893961321
Zn  Zn2  1  0.21543000  0.98643000  0.86253000  1.0 0.8692942213
Zn  Zn3  1  0.33674000  0.14379000  0.48065000  1.0 0.7893961321
Zn  Zn4  1  0.28457000  0.48643000  0.13747000  1.0 0.8692942213
Zn  Zn5  1  0.83674000  0.35621000  0.48065000  1.0 0.7893961321
Zn  Zn6  1  0.78457000  0.01357000  0.13747000  1.0 0.8692942213
Zn  Zn7  1  0.66326000  0.85621000  0.51935000  1.0 0.7893961321
Zn  Zn8  1  0.71543000  0.51357000  0.86253000  1.0 0.8692942213
H  H1  1  0.08870000  0.47140000  0.36650000  1.0 0.1117870989
H  H2  1  0.01520000  0.44870000  0.20230000  1.0 0.1117870989
H  H3  1  0.98920000  0.71110000  0.15930000  1.0 0.123802061
H  H4  1  0.99750000  0.84890000  0.22720000  1.0 0.1474671762
H  H5  1  0.10510000  0.98420000  0.48210000  1.0 0.1313441794
H  H6  1  0.17230000  0.96660000  0.64100000  1.0 0.1313441794
H  H7  1  0.31590000  0.80310000  0.85800000  1.0 0.1313441794
H  H8  1  0.30240000  0.68660000  0.74930000  1.0 0.1474671762
H  H9  1  0.18800000  0.28940000  0.62800000  1.0 0.1117870989
H  H10  1  0.24960000  0.51180000  0.79970000  1.0 0.123802061
H  H11  1  0.26840000  0.26150000  0.91570000  1.0 0.1313441794
H  H12  1  0.36400000  0.63500000  0.54200000  1.0 0.3431204434
H  H13  1  0.31600000  0.63900000  0.44500000  1.0 0.3431204434
H  H14  1  0.02300000  0.67800000  0.59800000  1.0 0.3548631023
H  H15  1  0.96400000  0.63400000  0.51300000  1.0 0.3649870705
H  H16  1  0.41130000  0.97140000  0.63350000  1.0 0.1117870989
H  H17  1  0.48480000  0.94870000  0.79770000  1.0 0.1117870989
H  H18  1  0.51080000  0.21110000  0.84070000  1.0 0.123802061
H  H19  1  0.50250000  0.34890000  0.77280000  1.0 0.1474671762
H  H20  1  0.39490000  0.48420000  0.51790000  1.0 0.1313441794
H  H21  1  0.32770000  0.46660000  0.35900000  1.0 0.1313441794
H  H22  1  0.18410000  0.30310000  0.14200000  1.0 0.1313441794
H  H23  1  0.19760000  0.18660000  0.25070000  1.0 0.1474671762
H  H24  1  0.31200000  0.78940000  0.37200000  1.0 0.1117870989
H  H25  1  0.25040000  0.01180000  0.20030000  1.0 0.123802061
H  H26  1  0.23160000  0.76150000  0.08430000  1.0 0.1313441794
H  H27  1  0.13600000  0.13500000  0.45800000  1.0 0.3431204434
H  H28  1  0.18400000  0.13900000  0.55500000  1.0 0.3431204434
H  H29  1  0.47700000  0.17800000  0.40200000  1.0 0.3548631023
H  H30  1  0.53600000  0.13400000  0.48700000  1.0 0.3649870705
H  H31  1  0.91130000  0.52860000  0.63350000  1.0 0.1117870989
H  H32  1  0.98480000  0.55130000  0.79770000  1.0 0.1117870989
H  H33  1  0.01080000  0.28890000  0.84070000  1.0 0.123802061
H  H34  1  0.00250000  0.15110000  0.77280000  1.0 0.1474671762
H  H35  1  0.89490000  0.01580000  0.51790000  1.0 0.1313441794
H  H36  1  0.82770000  0.03340000  0.35900000  1.0 0.1313441794
H  H37  1  0.68410000  0.19690000  0.14200000  1.0 0.1313441794
H  H38  1  0.69760000  0.31340000  0.25070000  1.0 0.1474671762
H  H39  1  0.81200000  0.71060000  0.37200000  1.0 0.1117870989
H  H40  1  0.75040000  0.48820000  0.20030000  1.0 0.123802061
H  H41  1  0.73160000  0.73850000  0.08430000  1.0 0.1313441794
H  H42  1  0.63600000  0.36500000  0.45800000  1.0 0.3431204434
H  H43  1  0.68400000  0.36100000  0.55500000  1.0 0.3431204434
H  H44  1  0.97700000  0.32200000  0.40200000  1.0 0.3548631023
H  H45  1  0.03600000  0.36600000  0.48700000  1.0 0.3649870705
H  H46  1  0.58870000  0.02860000  0.36650000  1.0 0.1117870989
H  H47  1  0.51520000  0.05130000  0.20230000  1.0 0.1117870989
H  H48  1  0.48920000  0.78890000  0.15930000  1.0 0.123802061
H  H49  1  0.49750000  0.65110000  0.22720000  1.0 0.1474671762
H  H50  1  0.60510000  0.51580000  0.48210000  1.0 0.1313441794
H  H51  1  0.67230000  0.53340000  0.64100000  1.0 0.1313441794
H  H52  1  0.81590000  0.69690000  0.85800000  1.0 0.1313441794
H  H53  1  0.80240000  0.81340000  0.74930000  1.0 0.1474671762
H  H54  1  0.68800000  0.21060000  0.62800000  1.0 0.1117870989
H  H55  1  0.74960000  0.98820000  0.79970000  1.0 0.123802061
H  H56  1  0.76840000  0.23850000  0.91570000  1.0 0.1313441794
H  H57  1  0.86400000  0.86500000  0.54200000  1.0 0.3431204434
H  H58  1  0.81600000  0.86100000  0.44500000  1.0 0.3431204434
H  H59  1  0.52300000  0.82200000  0.59800000  1.0 0.3548631023
H  H60  1  0.46400000  0.86600000  0.51300000  1.0 0.3649870705
C  C1  1  0.06880000  0.52190000  0.32560000  1.0 0.0112897559
C  C2  1  0.02510000  0.50820000  0.22620000  1.0 0.0043335817
C  C3  1  0.00940000  0.66100000  0.20100000  1.0 -0.015286511
C  C4  1  0.05240000  0.67520000  0.30110000  1.0 0.1381815623
C  C5  1  0.06790000  0.76970000  0.34620000  1.0 0.1919861834
C  C6  1  0.03090000  0.84990000  0.29450000  1.0 -0.1730408717
C  C7  1  0.04520000  0.93140000  0.34590000  1.0 0.0702282738
C  C8  1  0.09600000  0.93040000  0.44630000  1.0 -0.1770587389
C  C9  1  0.13280000  0.84810000  0.49240000  1.0 0.1965810906
C  C10  1  0.18790000  0.83870000  0.59960000  1.0 0.1381815623
C  C11  1  0.19730000  0.90880000  0.66450000  1.0 0.0112897559
C  C12  1  0.28170000  0.81360000  0.79170000  1.0 0.0332782145
C  C13  1  0.27290000  0.74320000  0.72610000  1.0 0.0556337859
C  C14  1  0.00290000  0.02140000  0.29350000  1.0 0.5584396373
C  C15  1  0.22110000  0.15670000  0.76240000  1.0 0.5495008778
C  C16  1  0.22910000  0.25960000  0.77080000  1.0 -0.0487997208
C  C17  1  0.20770000  0.31550000  0.68970000  1.0 -0.1458033521
C  C18  1  0.21560000  0.41020000  0.69970000  1.0 -0.0436599266
C  C19  1  0.24350000  0.44860000  0.79230000  1.0 -0.1145167046
C  C20  1  0.26210000  0.39350000  0.87350000  1.0 -0.0320052591
C  C21  1  0.25520000  0.29890000  0.86140000  1.0 -0.1164055143
C  C22  1  0.19240000  0.47080000  0.61190000  1.0 0.5584396373
C  C23  1  0.28140000  0.43450000  0.97070000  1.0 0.5345839511
C  C24  1  0.43120000  0.02190000  0.67440000  1.0 0.0112897559
C  C25  1  0.47490000  0.00820000  0.77380000  1.0 0.0043335817
C  C26  1  0.49060000  0.16100000  0.79900000  1.0 -0.015286511
C  C27  1  0.44760000  0.17520000  0.69890000  1.0 0.1381815623
C  C28  1  0.43210000  0.26970000  0.65380000  1.0 0.1919861834
C  C29  1  0.46910000  0.34990000  0.70550000  1.0 -0.1730408717
C  C30  1  0.45480000  0.43140000  0.65410000  1.0 0.0702282738
C  C31  1  0.40400000  0.43040000  0.55370000  1.0 -0.1770587389
C  C32  1  0.36720000  0.34810000  0.50760000  1.0 0.1965810906
C  C33  1  0.31210000  0.33870000  0.40040000  1.0 0.1381815623
C  C34  1  0.30270000  0.40880000  0.33550000  1.0 0.0112897559
C  C35  1  0.21830000  0.31360000  0.20830000  1.0 0.0332782145
C  C36  1  0.22710000  0.24320000  0.27390000  1.0 0.0556337859
C  C37  1  0.49710000  0.52140000  0.70650000  1.0 0.5584396373
C  C38  1  0.27890000  0.65670000  0.23760000  1.0 0.5495008778
C  C39  1  0.27090000  0.75960000  0.22920000  1.0 -0.0487997208
C  C40  1  0.29230000  0.81550000  0.31030000  1.0 -0.1458033521
C  C41  1  0.28440000  0.91020000  0.30030000  1.0 -0.0436599266
C  C42  1  0.25650000  0.94860000  0.20770000  1.0 -0.1145167046
C  C43  1  0.23790000  0.89350000  0.12650000  1.0 -0.0320052591
C  C44  1  0.24480000  0.79890000  0.13860000  1.0 -0.1164055143
C  C45  1  0.30760000  0.97080000  0.38810000  1.0 0.5584396373
C  C46  1  0.21860000  0.93450000  0.02930000  1.0 0.5345839511
C  C47  1  0.93120000  0.47810000  0.67440000  1.0 0.0112897559
C  C48  1  0.97490000  0.49180000  0.77380000  1.0 0.0112897559
C  C49  1  0.99060000  0.33900000  0.79900000  1.0 -0.0145582224
C  C50  1  0.94760000  0.32480000  0.69890000  1.0 0.1381815623
C  C51  1  0.93210000  0.23030000  0.65380000  1.0 0.1919861834
C  C52  1  0.96910000  0.15010000  0.70550000  1.0 -0.1730408717
C  C53  1  0.95480000  0.06860000  0.65410000  1.0 0.0702282738
C  C54  1  0.90400000  0.06960000  0.55370000  1.0 -0.1770587389
C  C55  1  0.86720000  0.15190000  0.50760000  1.0 0.1965810906
C  C56  1  0.81210000  0.16130000  0.40040000  1.0 0.1381815623
C  C57  1  0.80270000  0.09120000  0.33550000  1.0 0.0112897559
C  C58  1  0.71830000  0.18640000  0.20830000  1.0 0.0332782145
C  C59  1  0.72710000  0.25680000  0.27390000  1.0 0.0556337859
C  C60  1  0.99710000  0.97860000  0.70650000  1.0 0.5584396373
C  C61  1  0.77890000  0.84330000  0.23760000  1.0 0.5495008778
C  C62  1  0.77090000  0.74040000  0.22920000  1.0 -0.0487997208
C  C63  1  0.79230000  0.68450000  0.31030000  1.0 -0.1458033521
C  C64  1  0.78440000  0.58980000  0.30030000  1.0 -0.0436599266
C  C65  1  0.75650000  0.55140000  0.20770000  1.0 -0.1145167046
C  C66  1  0.73790000  0.60650000  0.12650000  1.0 -0.0320052591
C  C67  1  0.74480000  0.70110000  0.13860000  1.0 -0.1164055143
C  C68  1  0.80760000  0.52920000  0.38810000  1.0 0.5584396373
C  C69  1  0.71860000  0.56550000  0.02930000  1.0 0.5345839511
C  C70  1  0.56880000  0.97810000  0.32560000  1.0 0.0112897559
C  C71  1  0.52510000  0.99180000  0.22620000  1.0 0.0043335817
C  C72  1  0.50940000  0.83900000  0.20100000  1.0 -0.015286511
C  C73  1  0.55240000  0.82480000  0.30110000  1.0 0.1381815623
C  C74  1  0.56790000  0.73030000  0.34620000  1.0 0.1919861834
C  C75  1  0.53090000  0.65010000  0.29450000  1.0 -0.1730408717
C  C76  1  0.54520000  0.56860000  0.34590000  1.0 0.0702282738
C  C77  1  0.59600000  0.56960000  0.44630000  1.0 -0.1770587389
C  C78  1  0.63280000  0.65190000  0.49240000  1.0 0.1965810906
C  C79  1  0.68790000  0.66130000  0.59960000  1.0 0.1381815623
C  C80  1  0.69730000  0.59120000  0.66450000  1.0 0.0112897559
C  C81  1  0.78170000  0.68640000  0.79170000  1.0 0.0332782145
C  C82  1  0.77290000  0.75680000  0.72610000  1.0 0.0556337859
C  C83  1  0.50290000  0.47860000  0.29350000  1.0 0.5584396373
C  C84  1  0.72110000  0.34330000  0.76240000  1.0 0.5495008778
C  C85  1  0.72910000  0.24040000  0.77080000  1.0 -0.0487997208
C  C86  1  0.70770000  0.18450000  0.68970000  1.0 -0.1458033521
C  C87  1  0.71560000  0.08980000  0.69970000  1.0 -0.0436599266
C  C88  1  0.74350000  0.05140000  0.79230000  1.0 -0.1145167046
C  C89  1  0.76210000  0.10650000  0.87350000  1.0 -0.0320052591
C  C90  1  0.75520000  0.20110000  0.86140000  1.0 -0.1164055143
C  C91  1  0.69240000  0.02920000  0.61190000  1.0 0.5584396373
C  C92  1  0.78140000  0.06550000  0.97070000  1.0 0.5345839511
N  N1  1  0.08350000  0.60590000  0.36470000  1.0 -0.2228324015
N  N2  1  0.99670000  0.57720000  0.16390000  1.0 -0.1039800022
N  N3  1  0.11790000  0.76990000  0.44240000  1.0 -0.2805137385
N  N4  1  0.22350000  0.75460000  0.63110000  1.0 -0.2110695366
N  N5  1  0.24190000  0.89590000  0.76130000  1.0 -0.186203276
N  N6  1  0.41650000  0.10590000  0.63530000  1.0 -0.2228324015
N  N7  1  0.50330000  0.07720000  0.83610000  1.0 -0.1039800022
N  N8  1  0.38210000  0.26990000  0.55760000  1.0 -0.2805137385
N  N9  1  0.27650000  0.25460000  0.36890000  1.0 -0.2110695366
N  N10  1  0.25810000  0.39590000  0.23870000  1.0 -0.186203276
N  N11  1  0.91650000  0.39410000  0.63530000  1.0 -0.2228324015
N  N12  1  0.00330000  0.42280000  0.83610000  1.0 -0.1039800022
N  N13  1  0.88210000  0.23010000  0.55760000  1.0 -0.2805137385
N  N14  1  0.77650000  0.24540000  0.36890000  1.0 -0.2110695366
N  N15  1  0.75810000  0.10410000  0.23870000  1.0 -0.186203276
N  N16  1  0.58350000  0.89410000  0.36470000  1.0 -0.2228324015
N  N17  1  0.49670000  0.92280000  0.16390000  1.0 -0.1039800022
N  N18  1  0.61790000  0.73010000  0.44240000  1.0 -0.2805137385
N  N19  1  0.72350000  0.74540000  0.63110000  1.0 -0.2110695366
N  N20  1  0.74190000  0.60410000  0.76130000  1.0 -0.186203276
O  O1  1  0.94510000  0.01490000  0.20490000  1.0 -0.549000735
O  O2  1  0.02800000  0.09340000  0.34150000  1.0 -0.5608292271
O  O3  1  0.23930000  0.11470000  0.84200000  1.0 -0.526925077
O  O4  1  0.19630000  0.11900000  0.68190000  1.0 -0.549000735
O  O5  1  0.15180000  0.43760000  0.52900000  1.0 -0.5608292271
O  O6  1  0.21760000  0.55430000  0.62820000  1.0 -0.5400742639
O  O7  1  0.29130000  0.51870000  0.98300000  1.0 -0.5173615862
O  O8  1  0.28360000  0.38190000  0.04040000  1.0 -0.549000735
O  O9  1  0.30560000  0.64800000  0.49760000  1.0 -0.6796137888
O  O10  1  0.02230000  0.65820000  0.54430000  1.0 -0.6657276898
O  O11  1  0.38970000  0.97840000  0.95220000  1.0 0.0480046683
O  O12  1  0.55490000  0.51490000  0.79510000  1.0 -0.549000735
O  O13  1  0.47200000  0.59340000  0.65850000  1.0 -0.5608292271
O  O14  1  0.26070000  0.61470000  0.15800000  1.0 -0.526925077
O  O15  1  0.30370000  0.61900000  0.31810000  1.0 -0.549000735
O  O16  1  0.34820000  0.93760000  0.47100000  1.0 -0.5608292271
O  O17  1  0.28240000  0.05430000  0.37180000  1.0 -0.5400742639
O  O18  1  0.20870000  0.01870000  0.01700000  1.0 -0.5173615862
O  O19  1  0.21640000  0.88190000  0.95960000  1.0 -0.549000735
O  O20  1  0.19440000  0.14800000  0.50240000  1.0 -0.6796137888
O  O21  1  0.47770000  0.15820000  0.45570000  1.0 -0.6657276898
O  O22  1  0.11030000  0.47840000  0.04780000  1.0 0.0480046683
O  O23  1  0.05490000  0.98510000  0.79510000  1.0 -0.549000735
O  O24  1  0.97200000  0.90660000  0.65850000  1.0 -0.5608292271
O  O25  1  0.76070000  0.88530000  0.15800000  1.0 -0.526925077
O  O26  1  0.80370000  0.88100000  0.31810000  1.0 -0.549000735
O  O27  1  0.84820000  0.56240000  0.47100000  1.0 -0.5608292271
O  O28  1  0.78240000  0.44570000  0.37180000  1.0 -0.5400742639
O  O29  1  0.70870000  0.48130000  0.01700000  1.0 -0.5173615862
O  O30  1  0.71640000  0.61810000  0.95960000  1.0 -0.549000735
O  O31  1  0.69440000  0.35200000  0.50240000  1.0 -0.6796137888
O  O32  1  0.97770000  0.34180000  0.45570000  1.0 -0.6635263909
O  O33  1  0.61030000  0.02160000  0.04780000  1.0 0.0480046683
O  O34  1  0.44510000  0.48510000  0.20490000  1.0 -0.549000735
O  O35  1  0.52800000  0.40660000  0.34150000  1.0 -0.5608292271
O  O36  1  0.73930000  0.38530000  0.84200000  1.0 -0.526925077
O  O37  1  0.69630000  0.38100000  0.68190000  1.0 -0.549000735
O  O38  1  0.65180000  0.06240000  0.52900000  1.0 -0.5608292271
O  O39  1  0.71760000  0.94570000  0.62820000  1.0 -0.5400742639
O  O40  1  0.79130000  0.98130000  0.98300000  1.0 -0.5173615862
O  O41  1  0.78360000  0.11810000  0.04040000  1.0 -0.549000735
O  O42  1  0.80560000  0.85200000  0.49760000  1.0 -0.6796137888
O  O43  1  0.52230000  0.84180000  0.54430000  1.0 -0.6657276898
O  O44  1  0.88970000  0.52160000  0.95220000  1.0 0.0442316223
