# DDEC6 charges by PACMAN v1.1 (https://github.com/mtap-research/PACMAN-charge/)
data_WETPES_ASR_pacman
_symmetry_space_group_name_H-M   'P 1'
_cell_length_a   18.25120000
_cell_length_b   18.25120000
_cell_length_c   34.28020000
_cell_angle_alpha   90.00000000
_cell_angle_beta   90.00000000
_cell_angle_gamma   120.00000000
_symmetry_Int_Tables_number   1
_chemical_formula_structural   CuH11C19O4
_chemical_formula_sum   'Cu12 H132 C228 O48'
_cell_volume   9889.10133414
_cell_formula_units_Z   12
loop_
 _symmetry_equiv_pos_site_id
 _symmetry_equiv_pos_as_xyz
  1  'x, y, z'
loop_
 _atom_site_type_symbol
 _atom_site_label
 _atom_site_symmetry_multiplicity
 _atom_site_fract_x
 _atom_site_fract_y
 _atom_site_fract_z
 _atom_site_occupancy
 _atom_site_charge
Cu  Cu1  1  0.52529000  0.47471000  0.96903000  1.0 0.8744372097
Cu  Cu2  1  0.05057000  0.52529000  0.46903000  1.0 0.8744372097
Cu  Cu3  1  0.52529000  0.05057000  0.96903000  1.0 0.8744372097
Cu  Cu4  1  0.47471000  0.52529000  0.46903000  1.0 0.8744372097
Cu  Cu5  1  0.94943000  0.47471000  0.96903000  1.0 0.8744372097
Cu  Cu6  1  0.47471000  0.94943000  0.46903000  1.0 0.8744372097
Cu  Cu7  1  0.52529000  0.47471000  0.53097000  1.0 0.8744372097
Cu  Cu8  1  0.05057000  0.52529000  0.03097000  1.0 0.8744372097
Cu  Cu9  1  0.52529000  0.05057000  0.53097000  1.0 0.8744372097
Cu  Cu10  1  0.47471000  0.52529000  0.03097000  1.0 0.8744372097
Cu  Cu11  1  0.94943000  0.47471000  0.53097000  1.0 0.8744372097
Cu  Cu12  1  0.47471000  0.94943000  0.03097000  1.0 0.8744372097
H  H1  1  0.53920000  0.76960000  0.99160000  1.0 0.143335559
H  H2  1  0.76960000  0.53920000  0.49160000  1.0 0.143335559
H  H3  1  0.23040000  0.76960000  0.99160000  1.0 0.143335559
H  H4  1  0.46080000  0.23040000  0.49160000  1.0 0.143335559
H  H5  1  0.23040000  0.46080000  0.99160000  1.0 0.143335559
H  H6  1  0.76960000  0.23040000  0.49160000  1.0 0.143335559
H  H7  1  0.23040000  0.46080000  0.50840000  1.0 0.143335559
H  H8  1  0.76960000  0.23040000  0.00840000  1.0 0.143335559
H  H9  1  0.53920000  0.76960000  0.50840000  1.0 0.143335559
H  H10  1  0.76960000  0.53920000  0.00840000  1.0 0.143335559
H  H11  1  0.23040000  0.76960000  0.50840000  1.0 0.143335559
H  H12  1  0.46080000  0.23040000  0.00840000  1.0 0.143335559
H  H13  1  0.62410000  0.70440000  0.89890000  1.0 0.1278866646
H  H14  1  0.91970000  0.62410000  0.39890000  1.0 0.1278866646
H  H15  1  0.29560000  0.91970000  0.89890000  1.0 0.1278866646
H  H16  1  0.37590000  0.29560000  0.39890000  1.0 0.1278866646
H  H17  1  0.08030000  0.37590000  0.89890000  1.0 0.1278866646
H  H18  1  0.70440000  0.08030000  0.39890000  1.0 0.1278866646
H  H19  1  0.29560000  0.37590000  0.60110000  1.0 0.1278866646
H  H20  1  0.91970000  0.29560000  0.10110000  1.0 0.1278866646
H  H21  1  0.62410000  0.91970000  0.60110000  1.0 0.1278866646
H  H22  1  0.70440000  0.62410000  0.10110000  1.0 0.1278866646
H  H23  1  0.08030000  0.70440000  0.60110000  1.0 0.1278866646
H  H24  1  0.37590000  0.08030000  0.10110000  1.0 0.1278866646
H  H25  1  0.37590000  0.29560000  0.10110000  1.0 0.1278866646
H  H26  1  0.08030000  0.37590000  0.60110000  1.0 0.1278866646
H  H27  1  0.70440000  0.08030000  0.10110000  1.0 0.1278866646
H  H28  1  0.62410000  0.70440000  0.60110000  1.0 0.1278866646
H  H29  1  0.91970000  0.62410000  0.10110000  1.0 0.1278866646
H  H30  1  0.29560000  0.91970000  0.60110000  1.0 0.1278866646
H  H31  1  0.70440000  0.62410000  0.39890000  1.0 0.1278866646
H  H32  1  0.08030000  0.70440000  0.89890000  1.0 0.1278866646
H  H33  1  0.37590000  0.08030000  0.39890000  1.0 0.1278866646
H  H34  1  0.29560000  0.37590000  0.89890000  1.0 0.1278866646
H  H35  1  0.91970000  0.29560000  0.39890000  1.0 0.1278866646
H  H36  1  0.62410000  0.91970000  0.89890000  1.0 0.1278866646
H  H37  1  0.73670000  0.78350000  0.85410000  1.0 0.0974419598
H  H38  1  0.95320000  0.73670000  0.35410000  1.0 0.0974419598
H  H39  1  0.21650000  0.95320000  0.85410000  1.0 0.0974419598
H  H40  1  0.26330000  0.21650000  0.35410000  1.0 0.0974419598
H  H41  1  0.04680000  0.26330000  0.85410000  1.0 0.0974419598
H  H42  1  0.78350000  0.04680000  0.35410000  1.0 0.0974419598
H  H43  1  0.21650000  0.26330000  0.64590000  1.0 0.0974419598
H  H44  1  0.95320000  0.21650000  0.14590000  1.0 0.0974419598
H  H45  1  0.73670000  0.95320000  0.64590000  1.0 0.0974419598
H  H46  1  0.78350000  0.73670000  0.14590000  1.0 0.0974419598
H  H47  1  0.04680000  0.78350000  0.64590000  1.0 0.0974419598
H  H48  1  0.26330000  0.04680000  0.14590000  1.0 0.0974419598
H  H49  1  0.26330000  0.21650000  0.14590000  1.0 0.0974419598
H  H50  1  0.04680000  0.26330000  0.64590000  1.0 0.0974419598
H  H51  1  0.78350000  0.04680000  0.14590000  1.0 0.0974419598
H  H52  1  0.73670000  0.78350000  0.64590000  1.0 0.0974419598
H  H53  1  0.95320000  0.73670000  0.14590000  1.0 0.0974419598
H  H54  1  0.21650000  0.95320000  0.64590000  1.0 0.0974419598
H  H55  1  0.78350000  0.73670000  0.35410000  1.0 0.0974419598
H  H56  1  0.04680000  0.78350000  0.85410000  1.0 0.0974419598
H  H57  1  0.26330000  0.04680000  0.35410000  1.0 0.0974419598
H  H58  1  0.21650000  0.26330000  0.85410000  1.0 0.0974419598
H  H59  1  0.95320000  0.21650000  0.35410000  1.0 0.0974419598
H  H60  1  0.73670000  0.95320000  0.85410000  1.0 0.0974419598
H  H61  1  0.76960000  0.79990000  0.78780000  1.0 0.0974419598
H  H62  1  0.96970000  0.76960000  0.28780000  1.0 0.0974419598
H  H63  1  0.20010000  0.96970000  0.78780000  1.0 0.0974419598
H  H64  1  0.23040000  0.20010000  0.28780000  1.0 0.0974419598
H  H65  1  0.03030000  0.23040000  0.78780000  1.0 0.0974419598
H  H66  1  0.79990000  0.03030000  0.28780000  1.0 0.0974419598
H  H67  1  0.20010000  0.23040000  0.71220000  1.0 0.0974419598
H  H68  1  0.96970000  0.20010000  0.21220000  1.0 0.0974419598
H  H69  1  0.76960000  0.96970000  0.71220000  1.0 0.0974419598
H  H70  1  0.79990000  0.76960000  0.21220000  1.0 0.0974419598
H  H71  1  0.03030000  0.79990000  0.71220000  1.0 0.0974419598
H  H72  1  0.23040000  0.03030000  0.21220000  1.0 0.0974419598
H  H73  1  0.23040000  0.20010000  0.21220000  1.0 0.0974419598
H  H74  1  0.03030000  0.23040000  0.71220000  1.0 0.0974419598
H  H75  1  0.79990000  0.03030000  0.21220000  1.0 0.0974419598
H  H76  1  0.76960000  0.79990000  0.71220000  1.0 0.0974419598
H  H77  1  0.96970000  0.76960000  0.21220000  1.0 0.0974419598
H  H78  1  0.20010000  0.96970000  0.71220000  1.0 0.0974419598
H  H79  1  0.79990000  0.76960000  0.28780000  1.0 0.0974419598
H  H80  1  0.03030000  0.79990000  0.78780000  1.0 0.0974419598
H  H81  1  0.23040000  0.03030000  0.28780000  1.0 0.0974419598
H  H82  1  0.20010000  0.23040000  0.78780000  1.0 0.0974419598
H  H83  1  0.96970000  0.20010000  0.28780000  1.0 0.0974419598
H  H84  1  0.76960000  0.96970000  0.78780000  1.0 0.0974419598
H  H85  1  0.56670000  0.86530000  0.83250000  1.0 0.0949002417
H  H86  1  0.70140000  0.56670000  0.33250000  1.0 0.0949002417
H  H87  1  0.13470000  0.70140000  0.83250000  1.0 0.0974419598
H  H88  1  0.43330000  0.13470000  0.33250000  1.0 0.0949002417
H  H89  1  0.29860000  0.43330000  0.83250000  1.0 0.0949002417
H  H90  1  0.86530000  0.29860000  0.33250000  1.0 0.0949002417
H  H91  1  0.13470000  0.43330000  0.66750000  1.0 0.0949002417
H  H92  1  0.70140000  0.13470000  0.16750000  1.0 0.0949002417
H  H93  1  0.56670000  0.70140000  0.66750000  1.0 0.0949002417
H  H94  1  0.86530000  0.56670000  0.16750000  1.0 0.0949002417
H  H95  1  0.29860000  0.86530000  0.66750000  1.0 0.0949002417
H  H96  1  0.43330000  0.29860000  0.16750000  1.0 0.0949002417
H  H97  1  0.43330000  0.13470000  0.16750000  1.0 0.0949002417
H  H98  1  0.29860000  0.43330000  0.66750000  1.0 0.0949002417
H  H99  1  0.86530000  0.29860000  0.16750000  1.0 0.0949002417
H  H100  1  0.56670000  0.86530000  0.66750000  1.0 0.0949002417
H  H101  1  0.70140000  0.56670000  0.16750000  1.0 0.0949002417
H  H102  1  0.13470000  0.70140000  0.66750000  1.0 0.0949002417
H  H103  1  0.86530000  0.56670000  0.33250000  1.0 0.0949002417
H  H104  1  0.29860000  0.86530000  0.83250000  1.0 0.0949002417
H  H105  1  0.43330000  0.29860000  0.33250000  1.0 0.0949002417
H  H106  1  0.13470000  0.43330000  0.83250000  1.0 0.0949002417
H  H107  1  0.70140000  0.13470000  0.33250000  1.0 0.0949002417
H  H108  1  0.56670000  0.70140000  0.83250000  1.0 0.0949002417
H  H109  1  0.53040000  0.69040000  0.75000000  1.0 0.1129426971
H  H110  1  0.84000000  0.53040000  0.25000000  1.0 0.1129426971
H  H111  1  0.30960000  0.84000000  0.75000000  1.0 0.1129426971
H  H112  1  0.46960000  0.30960000  0.25000000  1.0 0.1129426971
H  H113  1  0.16000000  0.46960000  0.75000000  1.0 0.1129426971
H  H114  1  0.69040000  0.16000000  0.25000000  1.0 0.1129426971
H  H115  1  0.30960000  0.46960000  0.75000000  1.0 0.1129426971
H  H116  1  0.84000000  0.30960000  0.25000000  1.0 0.1129426971
H  H117  1  0.53040000  0.84000000  0.75000000  1.0 0.1129426971
H  H118  1  0.69040000  0.53040000  0.25000000  1.0 0.1129426971
H  H119  1  0.16000000  0.69040000  0.75000000  1.0 0.1129426971
H  H120  1  0.46960000  0.16000000  0.25000000  1.0 0.1129426971
H  H121  1  0.60430000  0.66820000  0.75000000  1.0 0.1129426971
H  H122  1  0.93610000  0.60430000  0.25000000  1.0 0.1129426971
H  H123  1  0.33180000  0.93610000  0.75000000  1.0 0.1129426971
H  H124  1  0.39570000  0.33180000  0.25000000  1.0 0.1129426971
H  H125  1  0.06390000  0.39570000  0.75000000  1.0 0.1129426971
H  H126  1  0.66820000  0.06390000  0.25000000  1.0 0.1129426971
H  H127  1  0.33180000  0.39570000  0.75000000  1.0 0.1129426971
H  H128  1  0.93610000  0.33180000  0.25000000  1.0 0.1129426971
H  H129  1  0.60430000  0.93610000  0.75000000  1.0 0.1129426971
H  H130  1  0.66820000  0.60430000  0.25000000  1.0 0.1129426971
H  H131  1  0.06390000  0.66820000  0.75000000  1.0 0.1129426971
H  H132  1  0.39570000  0.06390000  0.25000000  1.0 0.1129426971
C  C1  1  0.55150000  0.63910000  0.96718000  1.0 0.5798033295
C  C2  1  0.91240000  0.55150000  0.46718000  1.0 0.5798033295
C  C3  1  0.36090000  0.91240000  0.96718000  1.0 0.5798033295
C  C4  1  0.44850000  0.36090000  0.46718000  1.0 0.5798033295
C  C5  1  0.08760000  0.44850000  0.96718000  1.0 0.5798033295
C  C6  1  0.63910000  0.08760000  0.46718000  1.0 0.5798033295
C  C7  1  0.36090000  0.44850000  0.53282000  1.0 0.5798033295
C  C8  1  0.91240000  0.36090000  0.03282000  1.0 0.5798033295
C  C9  1  0.55150000  0.91240000  0.53282000  1.0 0.5798033295
C  C10  1  0.63910000  0.55150000  0.03282000  1.0 0.5798033295
C  C11  1  0.08760000  0.63910000  0.53282000  1.0 0.5798033295
C  C12  1  0.44850000  0.08760000  0.03282000  1.0 0.5798033295
C  C13  1  0.44850000  0.36090000  0.03282000  1.0 0.5798033295
C  C14  1  0.08760000  0.44850000  0.53282000  1.0 0.5798033295
C  C15  1  0.63910000  0.08760000  0.03282000  1.0 0.5798033295
C  C16  1  0.55150000  0.63910000  0.53282000  1.0 0.5798033295
C  C17  1  0.91240000  0.55150000  0.03282000  1.0 0.5798033295
C  C18  1  0.36090000  0.91240000  0.53282000  1.0 0.5798033295
C  C19  1  0.63910000  0.55150000  0.46718000  1.0 0.5798033295
C  C20  1  0.08760000  0.63910000  0.96718000  1.0 0.5798033295
C  C21  1  0.44850000  0.08760000  0.46718000  1.0 0.5798033295
C  C22  1  0.36090000  0.44850000  0.96718000  1.0 0.5798033295
C  C23  1  0.91240000  0.36090000  0.46718000  1.0 0.5798033295
C  C24  1  0.55150000  0.91240000  0.96718000  1.0 0.5798033295
C  C25  1  0.56060000  0.78030000  0.96635000  1.0 -0.1073539596
C  C26  1  0.78030000  0.56060000  0.46635000  1.0 -0.1073539596
C  C27  1  0.21970000  0.78030000  0.96635000  1.0 -0.1073539596
C  C28  1  0.43940000  0.21970000  0.46635000  1.0 -0.1073539596
C  C29  1  0.21970000  0.43940000  0.96635000  1.0 -0.1073539596
C  C30  1  0.78030000  0.21970000  0.46635000  1.0 -0.1073539596
C  C31  1  0.21970000  0.43940000  0.53365000  1.0 -0.1073539596
C  C32  1  0.78030000  0.21970000  0.03365000  1.0 -0.1073539596
C  C33  1  0.56060000  0.78030000  0.53365000  1.0 -0.1073539596
C  C34  1  0.78030000  0.56060000  0.03365000  1.0 -0.1073539596
C  C35  1  0.21970000  0.78030000  0.53365000  1.0 -0.1073539596
C  C36  1  0.43940000  0.21970000  0.03365000  1.0 -0.1073539596
C  C37  1  0.57540000  0.72130000  0.94869000  1.0 -0.0269486604
C  C38  1  0.85410000  0.57540000  0.44869000  1.0 -0.0269486604
C  C39  1  0.27870000  0.85410000  0.94869000  1.0 -0.0269486604
C  C40  1  0.42460000  0.27870000  0.44869000  1.0 -0.0269486604
C  C41  1  0.14590000  0.42460000  0.94869000  1.0 -0.0269486604
C  C42  1  0.72130000  0.14590000  0.44869000  1.0 -0.0269486604
C  C43  1  0.27870000  0.42460000  0.55131000  1.0 -0.0269486604
C  C44  1  0.85410000  0.27870000  0.05131000  1.0 -0.0269486604
C  C45  1  0.57540000  0.85410000  0.55131000  1.0 -0.0269486604
C  C46  1  0.72130000  0.57540000  0.05131000  1.0 -0.0269486604
C  C47  1  0.14590000  0.72130000  0.55131000  1.0 -0.0269486604
C  C48  1  0.42460000  0.14590000  0.05131000  1.0 -0.0269486604
C  C49  1  0.42460000  0.27870000  0.05131000  1.0 -0.0269486604
C  C50  1  0.14590000  0.42460000  0.55131000  1.0 -0.0269486604
C  C51  1  0.72130000  0.14590000  0.05131000  1.0 -0.0269486604
C  C52  1  0.57540000  0.72130000  0.55131000  1.0 -0.0269486604
C  C53  1  0.85410000  0.57540000  0.05131000  1.0 -0.0269486604
C  C54  1  0.27870000  0.85410000  0.55131000  1.0 -0.0269486604
C  C55  1  0.72130000  0.57540000  0.44869000  1.0 -0.0269486604
C  C56  1  0.14590000  0.72130000  0.94869000  1.0 -0.0269486604
C  C57  1  0.42460000  0.14590000  0.44869000  1.0 -0.0269486604
C  C58  1  0.27870000  0.42460000  0.94869000  1.0 -0.0269486604
C  C59  1  0.85410000  0.27870000  0.44869000  1.0 -0.0269486604
C  C60  1  0.57540000  0.85410000  0.94869000  1.0 -0.0269486604
C  C61  1  0.61050000  0.74140000  0.91132000  1.0 -0.1428729725
C  C62  1  0.86910000  0.61050000  0.41132000  1.0 -0.1428729725
C  C63  1  0.25860000  0.86910000  0.91132000  1.0 -0.1428729725
C  C64  1  0.38950000  0.25860000  0.41132000  1.0 -0.1428729725
C  C65  1  0.13090000  0.38950000  0.91132000  1.0 -0.1428729725
C  C66  1  0.74140000  0.13090000  0.41132000  1.0 -0.1428729725
C  C67  1  0.25860000  0.38950000  0.58868000  1.0 -0.1428729725
C  C68  1  0.86910000  0.25860000  0.08868000  1.0 -0.1428729725
C  C69  1  0.61050000  0.86910000  0.58868000  1.0 -0.1428729725
C  C70  1  0.74140000  0.61050000  0.08868000  1.0 -0.1428729725
C  C71  1  0.13090000  0.74140000  0.58868000  1.0 -0.1428729725
C  C72  1  0.38950000  0.13090000  0.08868000  1.0 -0.1428729725
C  C73  1  0.38950000  0.25860000  0.08868000  1.0 -0.1428729725
C  C74  1  0.13090000  0.38950000  0.58868000  1.0 -0.1428729725
C  C75  1  0.74140000  0.13090000  0.08868000  1.0 -0.1428729725
C  C76  1  0.61050000  0.74140000  0.58868000  1.0 -0.1428729725
C  C77  1  0.86910000  0.61050000  0.08868000  1.0 -0.1428729725
C  C78  1  0.25860000  0.86910000  0.58868000  1.0 -0.1428729725
C  C79  1  0.74140000  0.61050000  0.41132000  1.0 -0.1428729725
C  C80  1  0.13090000  0.74140000  0.91132000  1.0 -0.1428729725
C  C81  1  0.38950000  0.13090000  0.41132000  1.0 -0.1428729725
C  C82  1  0.25860000  0.38950000  0.91132000  1.0 -0.1428729725
C  C83  1  0.86910000  0.25860000  0.41132000  1.0 -0.1428729725
C  C84  1  0.61050000  0.86910000  0.91132000  1.0 -0.1428729725
C  C85  1  0.62520000  0.81260000  0.89250000  1.0 0.0734366184
C  C86  1  0.81260000  0.62520000  0.39250000  1.0 0.0734366184
C  C87  1  0.18740000  0.81260000  0.89250000  1.0 0.0734366184
C  C88  1  0.37480000  0.18740000  0.39250000  1.0 0.0734366184
C  C89  1  0.18740000  0.37480000  0.89250000  1.0 0.0734366184
C  C90  1  0.81260000  0.18740000  0.39250000  1.0 0.0734366184
C  C91  1  0.18740000  0.37480000  0.60750000  1.0 0.0734366184
C  C92  1  0.81260000  0.18740000  0.10750000  1.0 0.0734366184
C  C93  1  0.62520000  0.81260000  0.60750000  1.0 0.0734366184
C  C94  1  0.81260000  0.62520000  0.10750000  1.0 0.0734366184
C  C95  1  0.18740000  0.81260000  0.60750000  1.0 0.0734366184
C  C96  1  0.37480000  0.18740000  0.10750000  1.0 0.0734366184
C  C97  1  0.65420000  0.82710000  0.84892000  1.0 0.0412045204
C  C98  1  0.82710000  0.65420000  0.34892000  1.0 0.0412045204
C  C99  1  0.17290000  0.82710000  0.84892000  1.0 0.0412045204
C  C100  1  0.34580000  0.17290000  0.34892000  1.0 0.0412045204
C  C101  1  0.17290000  0.34580000  0.84892000  1.0 0.0412045204
C  C102  1  0.82710000  0.17290000  0.34892000  1.0 0.0412045204
C  C103  1  0.17290000  0.34580000  0.65108000  1.0 0.0412045204
C  C104  1  0.82710000  0.17290000  0.15108000  1.0 0.0412045204
C  C105  1  0.65420000  0.82710000  0.65108000  1.0 0.0412045204
C  C106  1  0.82710000  0.65420000  0.15108000  1.0 0.0412045204
C  C107  1  0.17290000  0.82710000  0.65108000  1.0 0.0412045204
C  C108  1  0.34580000  0.17290000  0.15108000  1.0 0.0412045204
C  C109  1  0.71000000  0.80560000  0.83630000  1.0 -0.1009233395
C  C110  1  0.90440000  0.71000000  0.33630000  1.0 -0.1009233395
C  C111  1  0.19440000  0.90440000  0.83630000  1.0 -0.1009233395
C  C112  1  0.29000000  0.19440000  0.33630000  1.0 -0.1009233395
C  C113  1  0.09560000  0.29000000  0.83630000  1.0 -0.1009233395
C  C114  1  0.80560000  0.09560000  0.33630000  1.0 -0.1009233395
C  C115  1  0.19440000  0.29000000  0.66370000  1.0 -0.1009233395
C  C116  1  0.90440000  0.19440000  0.16370000  1.0 -0.1009233395
C  C117  1  0.71000000  0.90440000  0.66370000  1.0 -0.1009233395
C  C118  1  0.80560000  0.71000000  0.16370000  1.0 -0.1009233395
C  C119  1  0.09560000  0.80560000  0.66370000  1.0 -0.1009233395
C  C120  1  0.29000000  0.09560000  0.16370000  1.0 -0.1009233395
C  C121  1  0.29000000  0.19440000  0.16370000  1.0 -0.1009233395
C  C122  1  0.09560000  0.29000000  0.66370000  1.0 -0.1009233395
C  C123  1  0.80560000  0.09560000  0.16370000  1.0 -0.1009233395
C  C124  1  0.71000000  0.80560000  0.66370000  1.0 -0.1009233395
C  C125  1  0.90440000  0.71000000  0.16370000  1.0 -0.1009233395
C  C126  1  0.19440000  0.90440000  0.66370000  1.0 -0.1009233395
C  C127  1  0.80560000  0.71000000  0.33630000  1.0 -0.1009233395
C  C128  1  0.09560000  0.80560000  0.83630000  1.0 -0.1009233395
C  C129  1  0.29000000  0.09560000  0.33630000  1.0 -0.1009233395
C  C130  1  0.19440000  0.29000000  0.83630000  1.0 -0.1009233395
C  C131  1  0.90440000  0.19440000  0.33630000  1.0 -0.1009233395
C  C132  1  0.71000000  0.90440000  0.83630000  1.0 -0.1009233395
C  C133  1  0.73080000  0.81450000  0.79720000  1.0 -0.1009233395
C  C134  1  0.91630000  0.73080000  0.29720000  1.0 -0.1009233395
C  C135  1  0.18550000  0.91630000  0.79720000  1.0 -0.1009233395
C  C136  1  0.26920000  0.18550000  0.29720000  1.0 -0.1009233395
C  C137  1  0.08370000  0.26920000  0.79720000  1.0 -0.1009233395
C  C138  1  0.81450000  0.08370000  0.29720000  1.0 -0.1009233395
C  C139  1  0.18550000  0.26920000  0.70280000  1.0 -0.1009233395
C  C140  1  0.91630000  0.18550000  0.20280000  1.0 -0.1009233395
C  C141  1  0.73080000  0.91630000  0.70280000  1.0 -0.1009233395
C  C142  1  0.81450000  0.73080000  0.20280000  1.0 -0.1009233395
C  C143  1  0.08370000  0.81450000  0.70280000  1.0 -0.1009233395
C  C144  1  0.26920000  0.08370000  0.20280000  1.0 -0.1009233395
C  C145  1  0.26920000  0.18550000  0.20280000  1.0 -0.1009233395
C  C146  1  0.08370000  0.26920000  0.70280000  1.0 -0.1009233395
C  C147  1  0.81450000  0.08370000  0.20280000  1.0 -0.1009233395
C  C148  1  0.73080000  0.81450000  0.70280000  1.0 -0.1009233395
C  C149  1  0.91630000  0.73080000  0.20280000  1.0 -0.1009233395
C  C150  1  0.18550000  0.91630000  0.70280000  1.0 -0.1009233395
C  C151  1  0.81450000  0.73080000  0.29720000  1.0 -0.1009233395
C  C152  1  0.08370000  0.81450000  0.79720000  1.0 -0.1009233395
C  C153  1  0.26920000  0.08370000  0.29720000  1.0 -0.1009233395
C  C154  1  0.18550000  0.26920000  0.79720000  1.0 -0.1009233395
C  C155  1  0.91630000  0.18550000  0.29720000  1.0 -0.1009233395
C  C156  1  0.73080000  0.91630000  0.79720000  1.0 -0.1009233395
C  C157  1  0.61200000  0.85330000  0.82340000  1.0 -0.1073539596
C  C158  1  0.75870000  0.61200000  0.32340000  1.0 -0.1073539596
C  C159  1  0.14670000  0.75870000  0.82340000  1.0 -0.1073539596
C  C160  1  0.38800000  0.14670000  0.32340000  1.0 -0.1073539596
C  C161  1  0.24130000  0.38800000  0.82340000  1.0 -0.1073539596
C  C162  1  0.85330000  0.24130000  0.32340000  1.0 -0.1073539596
C  C163  1  0.14670000  0.38800000  0.67660000  1.0 -0.1073539596
C  C164  1  0.75870000  0.14670000  0.17660000  1.0 -0.1073539596
C  C165  1  0.61200000  0.75870000  0.67660000  1.0 -0.1073539596
C  C166  1  0.85330000  0.61200000  0.17660000  1.0 -0.1073539596
C  C167  1  0.24130000  0.85330000  0.67660000  1.0 -0.1073539596
C  C168  1  0.38800000  0.24130000  0.17660000  1.0 -0.1073539596
C  C169  1  0.38800000  0.14670000  0.17660000  1.0 -0.1073539596
C  C170  1  0.24130000  0.38800000  0.67660000  1.0 -0.1073539596
C  C171  1  0.85330000  0.24130000  0.17660000  1.0 -0.1073539596
C  C172  1  0.61200000  0.85330000  0.67660000  1.0 -0.1073539596
C  C173  1  0.75870000  0.61200000  0.17660000  1.0 -0.1073539596
C  C174  1  0.14670000  0.75870000  0.67660000  1.0 -0.1073539596
C  C175  1  0.85330000  0.61200000  0.32340000  1.0 -0.1073539596
C  C176  1  0.24130000  0.85330000  0.82340000  1.0 -0.1073539596
C  C177  1  0.38800000  0.24130000  0.32340000  1.0 -0.1073539596
C  C178  1  0.14670000  0.38800000  0.82340000  1.0 -0.1073539596
C  C179  1  0.75870000  0.14670000  0.32340000  1.0 -0.1073539596
C  C180  1  0.61200000  0.75870000  0.82340000  1.0 -0.1073539596
C  C181  1  0.63570000  0.77750000  0.78370000  1.0 0.0412045204
C  C182  1  0.85820000  0.63570000  0.28370000  1.0 0.0412045204
C  C183  1  0.22250000  0.85820000  0.78370000  1.0 0.0412045204
C  C184  1  0.36430000  0.22250000  0.28370000  1.0 0.0412045204
C  C185  1  0.14180000  0.36430000  0.78370000  1.0 0.0412045204
C  C186  1  0.77750000  0.14180000  0.28370000  1.0 0.0412045204
C  C187  1  0.22250000  0.36430000  0.71630000  1.0 0.0412045204
C  C188  1  0.85820000  0.22250000  0.21630000  1.0 0.0412045204
C  C189  1  0.63570000  0.85820000  0.71630000  1.0 0.0412045204
C  C190  1  0.77750000  0.63570000  0.21630000  1.0 0.0412045204
C  C191  1  0.14180000  0.77750000  0.71630000  1.0 0.0412045204
C  C192  1  0.36430000  0.14180000  0.21630000  1.0 0.0412045204
C  C193  1  0.36430000  0.22250000  0.21630000  1.0 0.0412045204
C  C194  1  0.14180000  0.36430000  0.71630000  1.0 0.0412045204
C  C195  1  0.77750000  0.14180000  0.21630000  1.0 0.0412045204
C  C196  1  0.63570000  0.77750000  0.71630000  1.0 0.0412045204
C  C197  1  0.85820000  0.63570000  0.21630000  1.0 0.0412045204
C  C198  1  0.22250000  0.85820000  0.71630000  1.0 0.0412045204
C  C199  1  0.77750000  0.63570000  0.28370000  1.0 0.0412045204
C  C200  1  0.14180000  0.77750000  0.78370000  1.0 0.0412045204
C  C201  1  0.36430000  0.14180000  0.28370000  1.0 0.0412045204
C  C202  1  0.22250000  0.36430000  0.78370000  1.0 0.0412045204
C  C203  1  0.85820000  0.22250000  0.28370000  1.0 0.0412045204
C  C204  1  0.63570000  0.85820000  0.78370000  1.0 0.0412045204
C  C205  1  0.69240000  0.84620000  0.77132000  1.0 -0.0087694587
C  C206  1  0.84620000  0.69240000  0.27132000  1.0 -0.0087694587
C  C207  1  0.15380000  0.84620000  0.77132000  1.0 -0.0087694587
C  C208  1  0.30760000  0.15380000  0.27132000  1.0 -0.0087694587
C  C209  1  0.15380000  0.30760000  0.77132000  1.0 -0.0087694587
C  C210  1  0.84620000  0.15380000  0.27132000  1.0 -0.0087694587
C  C211  1  0.15380000  0.30760000  0.72868000  1.0 -0.0087694587
C  C212  1  0.84620000  0.15380000  0.22868000  1.0 -0.0087694587
C  C213  1  0.69240000  0.84620000  0.72868000  1.0 -0.0087694587
C  C214  1  0.84620000  0.69240000  0.22868000  1.0 -0.0087694587
C  C215  1  0.15380000  0.84620000  0.72868000  1.0 -0.0087694587
C  C216  1  0.30760000  0.15380000  0.22868000  1.0 -0.0087694587
C  C217  1  0.59120000  0.71360000  0.75000000  1.0 -0.287567425
C  C218  1  0.87760000  0.59120000  0.25000000  1.0 -0.287567425
C  C219  1  0.28640000  0.87760000  0.75000000  1.0 -0.287567425
C  C220  1  0.40880000  0.28640000  0.25000000  1.0 -0.287567425
C  C221  1  0.12240000  0.40880000  0.75000000  1.0 -0.287567425
C  C222  1  0.71360000  0.12240000  0.25000000  1.0 -0.287567425
C  C223  1  0.28640000  0.40880000  0.75000000  1.0 -0.287567425
C  C224  1  0.87760000  0.28640000  0.25000000  1.0 -0.287567425
C  C225  1  0.59120000  0.87760000  0.75000000  1.0 -0.287567425
C  C226  1  0.71360000  0.59120000  0.25000000  1.0 -0.287567425
C  C227  1  0.12240000  0.71360000  0.75000000  1.0 -0.287567425
C  C228  1  0.40880000  0.12240000  0.25000000  1.0 -0.287567425
O  O1  1  0.56267000  0.58650000  0.94869000  1.0 -0.5022896263
O  O2  1  0.97617000  0.56267000  0.44869000  1.0 -0.5022896263
O  O3  1  0.41350000  0.97617000  0.94869000  1.0 -0.5022896263
O  O4  1  0.43733000  0.41350000  0.44869000  1.0 -0.5022896263
O  O5  1  0.02383000  0.43733000  0.94869000  1.0 -0.5022896263
O  O6  1  0.58650000  0.02383000  0.44869000  1.0 -0.5022896263
O  O7  1  0.41350000  0.43733000  0.55131000  1.0 -0.5022896263
O  O8  1  0.97617000  0.41350000  0.05131000  1.0 -0.5022896263
O  O9  1  0.56267000  0.97617000  0.55131000  1.0 -0.5022896263
O  O10  1  0.58650000  0.56267000  0.05131000  1.0 -0.5022896263
O  O11  1  0.02383000  0.58650000  0.55131000  1.0 -0.5022896263
O  O12  1  0.43733000  0.02383000  0.05131000  1.0 -0.5022896263
O  O13  1  0.43733000  0.41350000  0.05131000  1.0 -0.5022896263
O  O14  1  0.02383000  0.43733000  0.55131000  1.0 -0.5022896263
O  O15  1  0.58650000  0.02383000  0.05131000  1.0 -0.5022896263
O  O16  1  0.56267000  0.58650000  0.55131000  1.0 -0.5022896263
O  O17  1  0.97617000  0.56267000  0.05131000  1.0 -0.5022896263
O  O18  1  0.41350000  0.97617000  0.55131000  1.0 -0.5022896263
O  O19  1  0.58650000  0.56267000  0.44869000  1.0 -0.5022896263
O  O20  1  0.02383000  0.58650000  0.94869000  1.0 -0.5022896263
O  O21  1  0.43733000  0.02383000  0.44869000  1.0 -0.5022896263
O  O22  1  0.41350000  0.43733000  0.94869000  1.0 -0.5022896263
O  O23  1  0.97617000  0.41350000  0.44869000  1.0 -0.5022896263
O  O24  1  0.56267000  0.97617000  0.94869000  1.0 -0.5022896263
O  O25  1  0.51966000  0.62920000  0.00140000  1.0 -0.5347769119
O  O26  1  0.89046000  0.51966000  0.50140000  1.0 -0.5347769119
O  O27  1  0.37080000  0.89046000  0.00140000  1.0 -0.5347769119
O  O28  1  0.48034000  0.37080000  0.50140000  1.0 -0.5347769119
O  O29  1  0.10954000  0.48034000  0.00140000  1.0 -0.5347769119
O  O30  1  0.62920000  0.10954000  0.50140000  1.0 -0.5347769119
O  O31  1  0.37080000  0.48034000  0.49860000  1.0 -0.5347769119
O  O32  1  0.89046000  0.37080000  0.99860000  1.0 -0.5347769119
O  O33  1  0.51966000  0.89046000  0.49860000  1.0 -0.5347769119
O  O34  1  0.62920000  0.51966000  0.99860000  1.0 -0.5347769119
O  O35  1  0.10954000  0.62920000  0.49860000  1.0 -0.5347769119
O  O36  1  0.48034000  0.10954000  0.99860000  1.0 -0.5347769119
O  O37  1  0.48034000  0.37080000  0.99860000  1.0 -0.5347769119
O  O38  1  0.10954000  0.48034000  0.49860000  1.0 -0.5347769119
O  O39  1  0.62920000  0.10954000  0.99860000  1.0 -0.5347769119
O  O40  1  0.51966000  0.62920000  0.49860000  1.0 -0.5347769119
O  O41  1  0.89046000  0.51966000  0.99860000  1.0 -0.5347769119
O  O42  1  0.37080000  0.89046000  0.49860000  1.0 -0.5347769119
O  O43  1  0.62920000  0.51966000  0.50140000  1.0 -0.5347769119
O  O44  1  0.10954000  0.62920000  0.00140000  1.0 -0.5347769119
O  O45  1  0.48034000  0.10954000  0.50140000  1.0 -0.5347769119
O  O46  1  0.37080000  0.48034000  0.00140000  1.0 -0.5347769119
O  O47  1  0.89046000  0.37080000  0.50140000  1.0 -0.5347769119
O  O48  1  0.51966000  0.89046000  0.00140000  1.0 -0.5347769119
