# DDEC6 charges by PACMAN v1.1 (https://github.com/mtap-research/PACMAN-charge/)
data_WEVQIX_FSR_pacman
_symmetry_space_group_name_H-M   'P 1'
_cell_length_a   14.59500000
_cell_length_b   14.59500000
_cell_length_c   15.26700000
_cell_angle_alpha   90.00000000
_cell_angle_beta   90.00000000
_cell_angle_gamma   120.00000000
_symmetry_Int_Tables_number   1
_chemical_formula_structural   Y2Cu3H24(C4O5)6
_chemical_formula_sum   'Y4 Cu6 H48 C48 O60'
_cell_volume   2816.38832891
_cell_formula_units_Z   2
loop_
 _symmetry_equiv_pos_site_id
 _symmetry_equiv_pos_as_xyz
  1  'x, y, z'
loop_
 _atom_site_type_symbol
 _atom_site_label
 _atom_site_symmetry_multiplicity
 _atom_site_fract_x
 _atom_site_fract_y
 _atom_site_fract_z
 _atom_site_occupancy
 _atom_site_charge
Y  Y1  1  0.66666667  0.33333333  0.75000000  1.0 1.6357112558
Y  Y2  1  0.33333333  0.66666667  0.75000000  1.0 1.6357112558
Y  Y3  1  0.66666667  0.33333333  0.25000000  1.0 1.6357112558
Y  Y4  1  0.33333333  0.66666667  0.25000000  1.0 1.6357112558
Cu  Cu1  1  0.50000000  0.00000000  0.00000000  1.0 0.856552306
Cu  Cu2  1  0.00000000  0.50000000  0.00000000  1.0 0.8517488421
Cu  Cu3  1  0.50000000  0.50000000  0.00000000  1.0 0.8517488421
Cu  Cu4  1  0.50000000  0.00000000  0.50000000  1.0 0.856552306
Cu  Cu5  1  0.50000000  0.50000000  0.50000000  1.0 0.8517488421
Cu  Cu6  1  0.00000000  0.50000000  0.50000000  1.0 0.8517488421
H  H1  1  0.20350000  0.36580000  0.16040000  1.0 0.1382718316
H  H2  1  0.63420000  0.83770000  0.16040000  1.0 0.1382718316
H  H3  1  0.16230000  0.79650000  0.16040000  1.0 0.1382718316
H  H4  1  0.36580000  0.16230000  0.16040000  1.0 0.1382718316
H  H5  1  0.83770000  0.20350000  0.16040000  1.0 0.1382718316
H  H6  1  0.16230000  0.36580000  0.66040000  1.0 0.1382718316
H  H7  1  0.20350000  0.83770000  0.66040000  1.0 0.1382718316
H  H8  1  0.36580000  0.20350000  0.66040000  1.0 0.1382718316
H  H9  1  0.83770000  0.63420000  0.66040000  1.0 0.1382718316
H  H10  1  0.79650000  0.16230000  0.66040000  1.0 0.1382718316
H  H11  1  0.20350000  0.36580000  0.83960000  1.0 0.1382718316
H  H12  1  0.36580000  0.20350000  0.33960000  1.0 0.1382718316
H  H13  1  0.79650000  0.63420000  0.83960000  1.0 0.1382718316
H  H14  1  0.36580000  0.16230000  0.83960000  1.0 0.1382718316
H  H15  1  0.83770000  0.20350000  0.83960000  1.0 0.1382718316
H  H16  1  0.63420000  0.83770000  0.83960000  1.0 0.1382718316
H  H17  1  0.16230000  0.79650000  0.83960000  1.0 0.1382718316
H  H18  1  0.83770000  0.63420000  0.33960000  1.0 0.1382718316
H  H19  1  0.79650000  0.16230000  0.33960000  1.0 0.1382718316
H  H20  1  0.63420000  0.79650000  0.33960000  1.0 0.1382718316
H  H21  1  0.16230000  0.36580000  0.33960000  1.0 0.1382718316
H  H22  1  0.20350000  0.83770000  0.33960000  1.0 0.1382718316
H  H23  1  0.79650000  0.63420000  0.16040000  1.0 0.1382718316
H  H24  1  0.63420000  0.79650000  0.66040000  1.0 0.1382718316
H  H25  1  0.28320000  0.37050000  0.23200000  1.0 0.1211839052
H  H26  1  0.62950000  0.91270000  0.23200000  1.0 0.1211839052
H  H27  1  0.08730000  0.71680000  0.23200000  1.0 0.1211839052
H  H28  1  0.37050000  0.08730000  0.23200000  1.0 0.1211839052
H  H29  1  0.91270000  0.28320000  0.23200000  1.0 0.1211839052
H  H30  1  0.08730000  0.37050000  0.73200000  1.0 0.1211839052
H  H31  1  0.28320000  0.91270000  0.73200000  1.0 0.1211839052
H  H32  1  0.37050000  0.28320000  0.73200000  1.0 0.1211839052
H  H33  1  0.91270000  0.62950000  0.73200000  1.0 0.1211839052
H  H34  1  0.71680000  0.08730000  0.73200000  1.0 0.1211839052
H  H35  1  0.28320000  0.37050000  0.76800000  1.0 0.1211839052
H  H36  1  0.37050000  0.28320000  0.26800000  1.0 0.1211839052
H  H37  1  0.71680000  0.62950000  0.76800000  1.0 0.1211839052
H  H38  1  0.37050000  0.08730000  0.76800000  1.0 0.1211839052
H  H39  1  0.91270000  0.28320000  0.76800000  1.0 0.1211839052
H  H40  1  0.62950000  0.91270000  0.76800000  1.0 0.1211839052
H  H41  1  0.08730000  0.71680000  0.76800000  1.0 0.1211839052
H  H42  1  0.91270000  0.62950000  0.26800000  1.0 0.1211839052
H  H43  1  0.71680000  0.08730000  0.26800000  1.0 0.1211839052
H  H44  1  0.62950000  0.71680000  0.26800000  1.0 0.1211839052
H  H45  1  0.08730000  0.37050000  0.26800000  1.0 0.1211839052
H  H46  1  0.28320000  0.91270000  0.26800000  1.0 0.1211839052
H  H47  1  0.71680000  0.62950000  0.23200000  1.0 0.1211839052
H  H48  1  0.62950000  0.71680000  0.73200000  1.0 0.1211839052
C  C1  1  0.86890000  0.51370000  0.63890000  1.0 0.6283103259
C  C2  1  0.48630000  0.35520000  0.63890000  1.0 0.6283103259
C  C3  1  0.64480000  0.13110000  0.63890000  1.0 0.6283103259
C  C4  1  0.51370000  0.64480000  0.63890000  1.0 0.6283103259
C  C5  1  0.35520000  0.86890000  0.63890000  1.0 0.6283103259
C  C6  1  0.64480000  0.51370000  0.13890000  1.0 0.6283103259
C  C7  1  0.86890000  0.35520000  0.13890000  1.0 0.6283103259
C  C8  1  0.51370000  0.86890000  0.13890000  1.0 0.6283103259
C  C9  1  0.35520000  0.48630000  0.13890000  1.0 0.6283103259
C  C10  1  0.13110000  0.64480000  0.13890000  1.0 0.6283103259
C  C11  1  0.86890000  0.51370000  0.36110000  1.0 0.6283103259
C  C12  1  0.51370000  0.86890000  0.86110000  1.0 0.6283103259
C  C13  1  0.13110000  0.48630000  0.36110000  1.0 0.6283103259
C  C14  1  0.51370000  0.64480000  0.36110000  1.0 0.6283103259
C  C15  1  0.35520000  0.86890000  0.36110000  1.0 0.6283103259
C  C16  1  0.48630000  0.35520000  0.36110000  1.0 0.6283103259
C  C17  1  0.64480000  0.13110000  0.36110000  1.0 0.6283103259
C  C18  1  0.35520000  0.48630000  0.86110000  1.0 0.6283103259
C  C19  1  0.13110000  0.64480000  0.86110000  1.0 0.6283103259
C  C20  1  0.48630000  0.13110000  0.86110000  1.0 0.6283103259
C  C21  1  0.64480000  0.51370000  0.86110000  1.0 0.6283103259
C  C22  1  0.86890000  0.35520000  0.86110000  1.0 0.6283103259
C  C23  1  0.13110000  0.48630000  0.63890000  1.0 0.6283103259
C  C24  1  0.48630000  0.13110000  0.13890000  1.0 0.6283103259
C  C25  1  0.14950000  0.41300000  0.30360000  1.0 -0.1681361295
C  C26  1  0.58700000  0.73650000  0.30360000  1.0 -0.1681361295
C  C27  1  0.26350000  0.85050000  0.30360000  1.0 -0.1681361295
C  C28  1  0.41300000  0.26350000  0.30360000  1.0 -0.1681361295
C  C29  1  0.73650000  0.14950000  0.30360000  1.0 -0.1681361295
C  C30  1  0.26350000  0.41300000  0.80360000  1.0 -0.1681361295
C  C31  1  0.14950000  0.73650000  0.80360000  1.0 -0.1681361295
C  C32  1  0.41300000  0.14950000  0.80360000  1.0 -0.1681361295
C  C33  1  0.73650000  0.58700000  0.80360000  1.0 -0.1681361295
C  C34  1  0.85050000  0.26350000  0.80360000  1.0 -0.1681361295
C  C35  1  0.14950000  0.41300000  0.69640000  1.0 -0.1681361295
C  C36  1  0.41300000  0.14950000  0.19640000  1.0 -0.1681361295
C  C37  1  0.85050000  0.58700000  0.69640000  1.0 -0.1681361295
C  C38  1  0.41300000  0.26350000  0.69640000  1.0 -0.1681361295
C  C39  1  0.73650000  0.14950000  0.69640000  1.0 -0.1681361295
C  C40  1  0.58700000  0.73650000  0.69640000  1.0 -0.1681361295
C  C41  1  0.26350000  0.85050000  0.69640000  1.0 -0.1681361295
C  C42  1  0.73650000  0.58700000  0.19640000  1.0 -0.1681361295
C  C43  1  0.85050000  0.26350000  0.19640000  1.0 -0.1681361295
C  C44  1  0.58700000  0.85050000  0.19640000  1.0 -0.1681361295
C  C45  1  0.26350000  0.41300000  0.19640000  1.0 -0.1681361295
C  C46  1  0.14950000  0.73650000  0.19640000  1.0 -0.1681361295
C  C47  1  0.85050000  0.58700000  0.30360000  1.0 -0.1681361295
C  C48  1  0.58700000  0.85050000  0.80360000  1.0 -0.1681361295
O  O1  1  0.80400000  0.41630000  0.64505000  1.0 -0.5741199869
O  O2  1  0.58370000  0.38770000  0.64505000  1.0 -0.5741199869
O  O3  1  0.61230000  0.19600000  0.64505000  1.0 -0.5741199869
O  O4  1  0.41630000  0.61230000  0.64505000  1.0 -0.5741199869
O  O5  1  0.38770000  0.80400000  0.64505000  1.0 -0.5741199869
O  O6  1  0.61230000  0.41630000  0.14505000  1.0 -0.5741199869
O  O7  1  0.80400000  0.38770000  0.14505000  1.0 -0.5741199869
O  O8  1  0.41630000  0.80400000  0.14505000  1.0 -0.5741199869
O  O9  1  0.38770000  0.58370000  0.14505000  1.0 -0.5741199869
O  O10  1  0.19600000  0.61230000  0.14505000  1.0 -0.5741199869
O  O11  1  0.80400000  0.41630000  0.35495000  1.0 -0.5741199869
O  O12  1  0.41630000  0.80400000  0.85495000  1.0 -0.5741199869
O  O13  1  0.19600000  0.58370000  0.35495000  1.0 -0.5741199869
O  O14  1  0.41630000  0.61230000  0.35495000  1.0 -0.5741199869
O  O15  1  0.38770000  0.80400000  0.35495000  1.0 -0.5741199869
O  O16  1  0.58370000  0.38770000  0.35495000  1.0 -0.5741199869
O  O17  1  0.61230000  0.19600000  0.35495000  1.0 -0.5741199869
O  O18  1  0.38770000  0.58370000  0.85495000  1.0 -0.5741199869
O  O19  1  0.19600000  0.61230000  0.85495000  1.0 -0.5741199869
O  O20  1  0.58370000  0.19600000  0.85495000  1.0 -0.5741199869
O  O21  1  0.61230000  0.41630000  0.85495000  1.0 -0.5741199869
O  O22  1  0.80400000  0.38770000  0.85495000  1.0 -0.5741199869
O  O23  1  0.19600000  0.58370000  0.64505000  1.0 -0.5741199869
O  O24  1  0.58370000  0.19600000  0.14505000  1.0 -0.5741199869
O  O25  1  0.94640000  0.55690000  0.58950000  1.0 -0.5473979233
O  O26  1  0.44310000  0.38950000  0.58950000  1.0 -0.5473979233
O  O27  1  0.61050000  0.05360000  0.58950000  1.0 -0.5473979233
O  O28  1  0.55690000  0.61050000  0.58950000  1.0 -0.5473979233
O  O29  1  0.38950000  0.94640000  0.58950000  1.0 -0.5473979233
O  O30  1  0.61050000  0.55690000  0.08950000  1.0 -0.5473979233
O  O31  1  0.94640000  0.38950000  0.08950000  1.0 -0.5473979233
O  O32  1  0.55690000  0.94640000  0.08950000  1.0 -0.5473979233
O  O33  1  0.38950000  0.44310000  0.08950000  1.0 -0.5473979233
O  O34  1  0.05360000  0.61050000  0.08950000  1.0 -0.5473979233
O  O35  1  0.94640000  0.55690000  0.41050000  1.0 -0.5473979233
O  O36  1  0.55690000  0.94640000  0.91050000  1.0 -0.5473979233
O  O37  1  0.05360000  0.44310000  0.41050000  1.0 -0.5473979233
O  O38  1  0.55690000  0.61050000  0.41050000  1.0 -0.5473979233
O  O39  1  0.38950000  0.94640000  0.41050000  1.0 -0.5473979233
O  O40  1  0.44310000  0.38950000  0.41050000  1.0 -0.5473979233
O  O41  1  0.61050000  0.05360000  0.41050000  1.0 -0.5473979233
O  O42  1  0.38950000  0.44310000  0.91050000  1.0 -0.5473979233
O  O43  1  0.05360000  0.61050000  0.91050000  1.0 -0.5473979233
O  O44  1  0.44310000  0.05360000  0.91050000  1.0 -0.5473979233
O  O45  1  0.61050000  0.55690000  0.91050000  1.0 -0.5473979233
O  O46  1  0.94640000  0.38950000  0.91050000  1.0 -0.5473979233
O  O47  1  0.05360000  0.44310000  0.58950000  1.0 -0.5473979233
O  O48  1  0.44310000  0.05360000  0.08950000  1.0 -0.5473979233
O  O49  1  0.23620000  0.47240000  0.25000000  1.0 -0.1681361295
O  O50  1  0.52760000  0.76380000  0.25000000  1.0 -0.1681361295
O  O51  1  0.23620000  0.76380000  0.25000000  1.0 -0.1681361295
O  O52  1  0.47240000  0.23620000  0.25000000  1.0 -0.1681361295
O  O53  1  0.76380000  0.23620000  0.25000000  1.0 -0.1681361295
O  O54  1  0.23620000  0.47240000  0.75000000  1.0 -0.1681361295
O  O55  1  0.23620000  0.76380000  0.75000000  1.0 -0.1681361295
O  O56  1  0.47240000  0.23620000  0.75000000  1.0 -0.1681361295
O  O57  1  0.76380000  0.52760000  0.75000000  1.0 -0.1681361295
O  O58  1  0.76380000  0.23620000  0.75000000  1.0 -0.1681361295
O  O59  1  0.52760000  0.76380000  0.75000000  1.0 -0.1681361295
O  O60  1  0.76380000  0.52760000  0.25000000  1.0 -0.1681361295
