# DDEC6 charges by PACMAN v1.1 (https://github.com/mtap-research/PACMAN-charge/)
data_WEVQUJ_FSR_pacman
_symmetry_space_group_name_H-M   'P 1'
_cell_length_a   14.87200000
_cell_length_b   14.87200000
_cell_length_c   15.01900000
_cell_angle_alpha   90.00000000
_cell_angle_beta   90.00000000
_cell_angle_gamma   120.00000000
_symmetry_Int_Tables_number   1
_chemical_formula_structural   Eu2Cu3H24(C4O5)6
_chemical_formula_sum   'Eu4 Cu6 H48 C48 O60'
_cell_volume   2876.80485190
_cell_formula_units_Z   2
loop_
 _symmetry_equiv_pos_site_id
 _symmetry_equiv_pos_as_xyz
  1  'x, y, z'
loop_
 _atom_site_type_symbol
 _atom_site_label
 _atom_site_symmetry_multiplicity
 _atom_site_fract_x
 _atom_site_fract_y
 _atom_site_fract_z
 _atom_site_occupancy
 _atom_site_charge
Eu  Eu1  1  0.66666667  0.33333333  0.75000000  1.0 1.9527022805
Eu  Eu2  1  0.33333333  0.66666667  0.75000000  1.0 1.9527022805
Eu  Eu3  1  0.66666667  0.33333333  0.25000000  1.0 1.9527022805
Eu  Eu4  1  0.33333333  0.66666667  0.25000000  1.0 1.9527022805
Cu  Cu1  1  0.50000000  0.00000000  0.00000000  1.0 0.9130687382
Cu  Cu2  1  0.00000000  0.50000000  0.00000000  1.0 0.9130687382
Cu  Cu3  1  0.50000000  0.50000000  0.00000000  1.0 0.9130687382
Cu  Cu4  1  0.50000000  0.00000000  0.50000000  1.0 0.9130687382
Cu  Cu5  1  0.50000000  0.50000000  0.50000000  1.0 0.9130687382
Cu  Cu6  1  0.00000000  0.50000000  0.50000000  1.0 0.9130687382
H  H1  1  0.20780000  0.36590000  0.16110000  1.0 0.1394419637
H  H2  1  0.63410000  0.84190000  0.16110000  1.0 0.1394419637
H  H3  1  0.15810000  0.79220000  0.16110000  1.0 0.1394419637
H  H4  1  0.36590000  0.15810000  0.16110000  1.0 0.1394419637
H  H5  1  0.84190000  0.20780000  0.16110000  1.0 0.1394419637
H  H6  1  0.15810000  0.36590000  0.66110000  1.0 0.1394419637
H  H7  1  0.20780000  0.84190000  0.66110000  1.0 0.1394419637
H  H8  1  0.36590000  0.20780000  0.66110000  1.0 0.1394419637
H  H9  1  0.84190000  0.63410000  0.66110000  1.0 0.1394419637
H  H10  1  0.79220000  0.15810000  0.66110000  1.0 0.1394419637
H  H11  1  0.20780000  0.36590000  0.83890000  1.0 0.1394419637
H  H12  1  0.36590000  0.20780000  0.33890000  1.0 0.1394419637
H  H13  1  0.79220000  0.63410000  0.83890000  1.0 0.1394419637
H  H14  1  0.36590000  0.15810000  0.83890000  1.0 0.1394419637
H  H15  1  0.84190000  0.20780000  0.83890000  1.0 0.1394419637
H  H16  1  0.63410000  0.84190000  0.83890000  1.0 0.1394419637
H  H17  1  0.15810000  0.79220000  0.83890000  1.0 0.1394419637
H  H18  1  0.84190000  0.63410000  0.33890000  1.0 0.1394419637
H  H19  1  0.79220000  0.15810000  0.33890000  1.0 0.1394419637
H  H20  1  0.63410000  0.79220000  0.33890000  1.0 0.1394419637
H  H21  1  0.15810000  0.36590000  0.33890000  1.0 0.1394419637
H  H22  1  0.20780000  0.84190000  0.33890000  1.0 0.1394419637
H  H23  1  0.79220000  0.63410000  0.16110000  1.0 0.1394419637
H  H24  1  0.63410000  0.79220000  0.66110000  1.0 0.1394419637
H  H25  1  0.28560000  0.37400000  0.23580000  1.0 0.1245208753
H  H26  1  0.62600000  0.91160000  0.23580000  1.0 0.1245208753
H  H27  1  0.08840000  0.71440000  0.23580000  1.0 0.1245208753
H  H28  1  0.37400000  0.08840000  0.23580000  1.0 0.1245208753
H  H29  1  0.91160000  0.28560000  0.23580000  1.0 0.1245208753
H  H30  1  0.08840000  0.37400000  0.73580000  1.0 0.1245208753
H  H31  1  0.28560000  0.91160000  0.73580000  1.0 0.1245208753
H  H32  1  0.37400000  0.28560000  0.73580000  1.0 0.1245208753
H  H33  1  0.91160000  0.62600000  0.73580000  1.0 0.1245208753
H  H34  1  0.71440000  0.08840000  0.73580000  1.0 0.1245208753
H  H35  1  0.28560000  0.37400000  0.76420000  1.0 0.1245208753
H  H36  1  0.37400000  0.28560000  0.26420000  1.0 0.1245208753
H  H37  1  0.71440000  0.62600000  0.76420000  1.0 0.1245208753
H  H38  1  0.37400000  0.08840000  0.76420000  1.0 0.1245208753
H  H39  1  0.91160000  0.28560000  0.76420000  1.0 0.1245208753
H  H40  1  0.62600000  0.91160000  0.76420000  1.0 0.1245208753
H  H41  1  0.08840000  0.71440000  0.76420000  1.0 0.1245208753
H  H42  1  0.91160000  0.62600000  0.26420000  1.0 0.1245208753
H  H43  1  0.71440000  0.08840000  0.26420000  1.0 0.1245208753
H  H44  1  0.62600000  0.71440000  0.26420000  1.0 0.1245208753
H  H45  1  0.08840000  0.37400000  0.26420000  1.0 0.1245208753
H  H46  1  0.28560000  0.91160000  0.26420000  1.0 0.1245208753
H  H47  1  0.71440000  0.62600000  0.23580000  1.0 0.1245208753
H  H48  1  0.62600000  0.71440000  0.73580000  1.0 0.1245208753
C  C1  1  0.87010000  0.51450000  0.63970000  1.0 0.6322502485
C  C2  1  0.48550000  0.35560000  0.63970000  1.0 0.6322502485
C  C3  1  0.64440000  0.12990000  0.63970000  1.0 0.6322502485
C  C4  1  0.51450000  0.64440000  0.63970000  1.0 0.6322502485
C  C5  1  0.35560000  0.87010000  0.63970000  1.0 0.6322502485
C  C6  1  0.64440000  0.51450000  0.13970000  1.0 0.6322502485
C  C7  1  0.87010000  0.35560000  0.13970000  1.0 0.6322502485
C  C8  1  0.51450000  0.87010000  0.13970000  1.0 0.6322502485
C  C9  1  0.35560000  0.48550000  0.13970000  1.0 0.6322502485
C  C10  1  0.12990000  0.64440000  0.13970000  1.0 0.6322502485
C  C11  1  0.87010000  0.51450000  0.36030000  1.0 0.6322502485
C  C12  1  0.51450000  0.87010000  0.86030000  1.0 0.6322502485
C  C13  1  0.12990000  0.48550000  0.36030000  1.0 0.6322502485
C  C14  1  0.51450000  0.64440000  0.36030000  1.0 0.6322502485
C  C15  1  0.35560000  0.87010000  0.36030000  1.0 0.6322502485
C  C16  1  0.48550000  0.35560000  0.36030000  1.0 0.6322502485
C  C17  1  0.64440000  0.12990000  0.36030000  1.0 0.6322502485
C  C18  1  0.35560000  0.48550000  0.86030000  1.0 0.6322502485
C  C19  1  0.12990000  0.64440000  0.86030000  1.0 0.6322502485
C  C20  1  0.48550000  0.12990000  0.86030000  1.0 0.6322502485
C  C21  1  0.64440000  0.51450000  0.86030000  1.0 0.6322502485
C  C22  1  0.87010000  0.35560000  0.86030000  1.0 0.6322502485
C  C23  1  0.12990000  0.48550000  0.63970000  1.0 0.6322502485
C  C24  1  0.48550000  0.12990000  0.13970000  1.0 0.6322502485
C  C25  1  0.14820000  0.41390000  0.30220000  1.0 -0.1684635588
C  C26  1  0.58610000  0.73430000  0.30220000  1.0 -0.1684635588
C  C27  1  0.26570000  0.85180000  0.30220000  1.0 -0.1684635588
C  C28  1  0.41390000  0.26570000  0.30220000  1.0 -0.1684635588
C  C29  1  0.73430000  0.14820000  0.30220000  1.0 -0.1684635588
C  C30  1  0.26570000  0.41390000  0.80220000  1.0 -0.1684635588
C  C31  1  0.14820000  0.73430000  0.80220000  1.0 -0.1684635588
C  C32  1  0.41390000  0.14820000  0.80220000  1.0 -0.1684635588
C  C33  1  0.73430000  0.58610000  0.80220000  1.0 -0.1684635588
C  C34  1  0.85180000  0.26570000  0.80220000  1.0 -0.1684635588
C  C35  1  0.14820000  0.41390000  0.69780000  1.0 -0.1684635588
C  C36  1  0.41390000  0.14820000  0.19780000  1.0 -0.1684635588
C  C37  1  0.85180000  0.58610000  0.69780000  1.0 -0.1684635588
C  C38  1  0.41390000  0.26570000  0.69780000  1.0 -0.1684635588
C  C39  1  0.73430000  0.14820000  0.69780000  1.0 -0.1684635588
C  C40  1  0.58610000  0.73430000  0.69780000  1.0 -0.1684635588
C  C41  1  0.26570000  0.85180000  0.69780000  1.0 -0.1684635588
C  C42  1  0.73430000  0.58610000  0.19780000  1.0 -0.1684635588
C  C43  1  0.85180000  0.26570000  0.19780000  1.0 -0.1684635588
C  C44  1  0.58610000  0.85180000  0.19780000  1.0 -0.1684635588
C  C45  1  0.26570000  0.41390000  0.19780000  1.0 -0.1684635588
C  C46  1  0.14820000  0.73430000  0.19780000  1.0 -0.1684635588
C  C47  1  0.85180000  0.58610000  0.30220000  1.0 -0.1684635588
C  C48  1  0.58610000  0.85180000  0.80220000  1.0 -0.1684635588
O  O1  1  0.80600000  0.41960000  0.64280000  1.0 -0.6179436627
O  O2  1  0.58040000  0.38640000  0.64280000  1.0 -0.6179436627
O  O3  1  0.61360000  0.19400000  0.64280000  1.0 -0.6179436627
O  O4  1  0.41960000  0.61360000  0.64280000  1.0 -0.6179436627
O  O5  1  0.38640000  0.80600000  0.64280000  1.0 -0.6179436627
O  O6  1  0.61360000  0.41960000  0.14280000  1.0 -0.6179436627
O  O7  1  0.80600000  0.38640000  0.14280000  1.0 -0.6179436627
O  O8  1  0.41960000  0.80600000  0.14280000  1.0 -0.6179436627
O  O9  1  0.38640000  0.58040000  0.14280000  1.0 -0.6179436627
O  O10  1  0.19400000  0.61360000  0.14280000  1.0 -0.6179436627
O  O11  1  0.80600000  0.41960000  0.35720000  1.0 -0.6179436627
O  O12  1  0.41960000  0.80600000  0.85720000  1.0 -0.6179436627
O  O13  1  0.19400000  0.58040000  0.35720000  1.0 -0.6179436627
O  O14  1  0.41960000  0.61360000  0.35720000  1.0 -0.6179436627
O  O15  1  0.38640000  0.80600000  0.35720000  1.0 -0.6179436627
O  O16  1  0.58040000  0.38640000  0.35720000  1.0 -0.6179436627
O  O17  1  0.61360000  0.19400000  0.35720000  1.0 -0.6179436627
O  O18  1  0.38640000  0.58040000  0.85720000  1.0 -0.6179436627
O  O19  1  0.19400000  0.61360000  0.85720000  1.0 -0.6179436627
O  O20  1  0.58040000  0.19400000  0.85720000  1.0 -0.6179436627
O  O21  1  0.61360000  0.41960000  0.85720000  1.0 -0.6179436627
O  O22  1  0.80600000  0.38640000  0.85720000  1.0 -0.6179436627
O  O23  1  0.19400000  0.58040000  0.64280000  1.0 -0.6179436627
O  O24  1  0.58040000  0.19400000  0.14280000  1.0 -0.6179436627
O  O25  1  0.94910000  0.55710000  0.59090000  1.0 -0.5515916828
O  O26  1  0.44290000  0.39200000  0.59090000  1.0 -0.5515916828
O  O27  1  0.60800000  0.05090000  0.59090000  1.0 -0.5515916828
O  O28  1  0.55710000  0.60800000  0.59090000  1.0 -0.5515916828
O  O29  1  0.39200000  0.94910000  0.59090000  1.0 -0.5515916828
O  O30  1  0.60800000  0.55710000  0.09090000  1.0 -0.5515916828
O  O31  1  0.94910000  0.39200000  0.09090000  1.0 -0.5515916828
O  O32  1  0.55710000  0.94910000  0.09090000  1.0 -0.5515916828
O  O33  1  0.39200000  0.44290000  0.09090000  1.0 -0.5515916828
O  O34  1  0.05090000  0.60800000  0.09090000  1.0 -0.5515916828
O  O35  1  0.94910000  0.55710000  0.40910000  1.0 -0.5515916828
O  O36  1  0.55710000  0.94910000  0.90910000  1.0 -0.5515916828
O  O37  1  0.05090000  0.44290000  0.40910000  1.0 -0.5515916828
O  O38  1  0.55710000  0.60800000  0.40910000  1.0 -0.5515916828
O  O39  1  0.39200000  0.94910000  0.40910000  1.0 -0.5515916828
O  O40  1  0.44290000  0.39200000  0.40910000  1.0 -0.5515916828
O  O41  1  0.60800000  0.05090000  0.40910000  1.0 -0.5515916828
O  O42  1  0.39200000  0.44290000  0.90910000  1.0 -0.5515916828
O  O43  1  0.05090000  0.60800000  0.90910000  1.0 -0.5515916828
O  O44  1  0.44290000  0.05090000  0.90910000  1.0 -0.5515916828
O  O45  1  0.60800000  0.55710000  0.90910000  1.0 -0.5515916828
O  O46  1  0.94910000  0.39200000  0.90910000  1.0 -0.5515916828
O  O47  1  0.05090000  0.44290000  0.59090000  1.0 -0.5515916828
O  O48  1  0.44290000  0.05090000  0.09090000  1.0 -0.5515916828
O  O49  1  0.23660000  0.47320000  0.25000000  1.0 -0.2238634957
O  O50  1  0.52680000  0.76340000  0.25000000  1.0 -0.2238634957
O  O51  1  0.23660000  0.76340000  0.25000000  1.0 -0.2238634957
O  O52  1  0.47320000  0.23660000  0.25000000  1.0 -0.2238634957
O  O53  1  0.76340000  0.23660000  0.25000000  1.0 -0.2238634957
O  O54  1  0.23660000  0.47320000  0.75000000  1.0 -0.2238634957
O  O55  1  0.23660000  0.76340000  0.75000000  1.0 -0.2238634957
O  O56  1  0.47320000  0.23660000  0.75000000  1.0 -0.2238634957
O  O57  1  0.76340000  0.52680000  0.75000000  1.0 -0.2238634957
O  O58  1  0.76340000  0.23660000  0.75000000  1.0 -0.2238634957
O  O59  1  0.52680000  0.76340000  0.75000000  1.0 -0.2238634957
O  O60  1  0.76340000  0.52680000  0.25000000  1.0 -0.2238634957
