# DDEC6 charges by PACMAN v1.1 (https://github.com/mtap-research/PACMAN-charge/)
data_WEXQUL_ASR_pacman
_symmetry_space_group_name_H-M   'P 1'
_cell_length_a   5.23520000
_cell_length_b   15.43700000
_cell_length_c   18.56450000
_cell_angle_alpha   90.00000000
_cell_angle_beta   104.58500000
_cell_angle_gamma   90.00000000
_symmetry_Int_Tables_number   1
_chemical_formula_structural   Zn4P3HO13
_chemical_formula_sum   'Zn16 P12 H4 O52'
_cell_volume   1451.95747030
_cell_formula_units_Z   4
loop_
 _symmetry_equiv_pos_site_id
 _symmetry_equiv_pos_as_xyz
  1  'x, y, z'
loop_
 _atom_site_type_symbol
 _atom_site_label
 _atom_site_symmetry_multiplicity
 _atom_site_fract_x
 _atom_site_fract_y
 _atom_site_fract_z
 _atom_site_occupancy
 _atom_site_charge
Zn  Zn1  1  0.63728000  0.76500000  0.69878000  1.0 1.0503360083
Zn  Zn2  1  0.63728000  0.73500000  0.19878000  1.0 1.0503360083
Zn  Zn3  1  0.36272000  0.23500000  0.30122000  1.0 1.0503360083
Zn  Zn4  1  0.36272000  0.26500000  0.80122000  1.0 1.0503360083
Zn  Zn5  1  0.17608000  0.89155000  0.74338000  1.0 1.1112615218
Zn  Zn6  1  0.17608000  0.60845000  0.24338000  1.0 1.1112615218
Zn  Zn7  1  0.82392000  0.10845000  0.25662000  1.0 1.1112615218
Zn  Zn8  1  0.82392000  0.39155000  0.75662000  1.0 1.1112615218
Zn  Zn9  1  0.27150000  0.59512000  0.69630000  1.0 1.122235482
Zn  Zn10  1  0.27150000  0.90488000  0.19630000  1.0 1.122235482
Zn  Zn11  1  0.72850000  0.40488000  0.30370000  1.0 1.122235482
Zn  Zn12  1  0.72850000  0.09512000  0.80370000  1.0 1.122235482
Zn  Zn13  1  0.04134000  0.72522000  0.93184000  1.0 1.1996271958
Zn  Zn14  1  0.04134000  0.77478000  0.43184000  1.0 1.1996271958
Zn  Zn15  1  0.95866000  0.27478000  0.06816000  1.0 1.1996271958
Zn  Zn16  1  0.95866000  0.22522000  0.56816000  1.0 1.1996271958
P  P1  1  0.06630000  0.76250000  0.60560000  1.0 1.5473762502
P  P2  1  0.06630000  0.73750000  0.10560000  1.0 1.5473762502
P  P3  1  0.93370000  0.23750000  0.39440000  1.0 1.5430072298
P  P4  1  0.93370000  0.26250000  0.89440000  1.0 1.5473762502
P  P5  1  0.76520000  0.88570000  0.83850000  1.0 1.5473762502
P  P6  1  0.76520000  0.61430000  0.33850000  1.0 1.5430072298
P  P7  1  0.23480000  0.11430000  0.16150000  1.0 1.5473762502
P  P8  1  0.23480000  0.38570000  0.66150000  1.0 1.5473762502
P  P9  1  0.85470000  0.59980000  0.79400000  1.0 1.5635228902
P  P10  1  0.85470000  0.90020000  0.29400000  1.0 1.5635228902
P  P11  1  0.14530000  0.40020000  0.20600000  1.0 1.5635228902
P  P12  1  0.14530000  0.09980000  0.70600000  1.0 1.5664492001
H  H1  1  0.46060000  0.67690000  0.91380000  1.0 0.4574149301
H  H2  1  0.46060000  0.82310000  0.41380000  1.0 0.4574149301
H  H3  1  0.53940000  0.32310000  0.08620000  1.0 0.4574149301
H  H4  1  0.53940000  0.17690000  0.58620000  1.0 0.4574149301
O  O1  1  0.79190000  0.77810000  0.61670000  1.0 -0.7366489897
O  O2  1  0.79190000  0.72190000  0.11670000  1.0 -0.7333584875
O  O3  1  0.20810000  0.22190000  0.38330000  1.0 -0.7333584875
O  O4  1  0.20810000  0.27810000  0.88330000  1.0 -0.7366489897
O  O5  1  0.63020000  0.64390000  0.73270000  1.0 -0.7681731129
O  O6  1  0.63020000  0.85610000  0.23270000  1.0 -0.7681731129
O  O7  1  0.36980000  0.35610000  0.26730000  1.0 -0.7681731129
O  O8  1  0.36980000  0.14390000  0.76730000  1.0 -0.7681731129
O  O9  1  0.26990000  0.80870000  0.67110000  1.0 -0.7681731129
O  O10  1  0.26990000  0.69130000  0.17110000  1.0 -0.7681731129
O  O11  1  0.73010000  0.19130000  0.32890000  1.0 -0.7681731129
O  O12  1  0.73010000  0.30870000  0.82890000  1.0 -0.7681731129
O  O13  1  0.85090000  0.85150000  0.76800000  1.0 -0.7681731129
O  O14  1  0.85090000  0.64850000  0.26800000  1.0 -0.7681731129
O  O15  1  0.14910000  0.14850000  0.23200000  1.0 -0.7681731129
O  O16  1  0.14910000  0.35150000  0.73200000  1.0 -0.7681731129
O  O17  1  0.78720000  0.50390000  0.79100000  1.0 -0.7681731129
O  O18  1  0.78720000  0.99610000  0.29100000  1.0 -0.7681731129
O  O19  1  0.21280000  0.49610000  0.20900000  1.0 -0.7681731129
O  O20  1  0.21280000  0.00390000  0.70900000  1.0 -0.7681731129
O  O21  1  0.47480000  0.86280000  0.82700000  1.0 -0.7163053165
O  O22  1  0.47480000  0.63720000  0.32700000  1.0 -0.7163053165
O  O23  1  0.52520000  0.13720000  0.17300000  1.0 -0.7163053165
O  O24  1  0.52520000  0.36280000  0.67300000  1.0 -0.7163053165
O  O25  1  0.81710000  0.98270000  0.84510000  1.0 -0.7333584875
O  O26  1  0.81710000  0.51730000  0.34510000  1.0 -0.7333584875
O  O27  1  0.18290000  0.01730000  0.15490000  1.0 -0.7333584875
O  O28  1  0.18290000  0.48270000  0.65490000  1.0 -0.7333584875
O  O29  1  0.11930000  0.61930000  0.77840000  1.0 -0.7649386774
O  O30  1  0.11930000  0.88070000  0.27840000  1.0 -0.7681731129
O  O31  1  0.88070000  0.38070000  0.22160000  1.0 -0.7649386774
O  O32  1  0.88070000  0.11930000  0.72160000  1.0 -0.7649386774
O  O33  1  0.14000000  0.66860000  0.60780000  1.0 -0.7366489897
O  O34  1  0.14000000  0.83140000  0.10780000  1.0 -0.7366489897
O  O35  1  0.86000000  0.33140000  0.39220000  1.0 -0.7366489897
O  O36  1  0.86000000  0.16860000  0.89220000  1.0 -0.7366489897
O  O37  1  0.92410000  0.84170000  0.90820000  1.0 -0.6864999185
O  O38  1  0.92410000  0.65830000  0.40820000  1.0 -0.6864999185
O  O39  1  0.07590000  0.15830000  0.09180000  1.0 -0.6864999185
O  O40  1  0.07590000  0.34170000  0.59180000  1.0 -0.6836690555
O  O41  1  0.84590000  0.63580000  0.86990000  1.0 -0.7366489897
O  O42  1  0.84590000  0.86420000  0.36990000  1.0 -0.7366489897
O  O43  1  0.15410000  0.36420000  0.13010000  1.0 -0.7366489897
O  O44  1  0.15410000  0.13580000  0.63010000  1.0 -0.7366489897
O  O45  1  0.08270000  0.80580000  0.53380000  1.0 -0.7018707941
O  O46  1  0.08270000  0.69420000  0.03380000  1.0 -0.7018707941
O  O47  1  0.91730000  0.19420000  0.46620000  1.0 -0.7018707941
O  O48  1  0.91730000  0.30580000  0.96620000  1.0 -0.7018707941
O  O49  1  0.39490000  0.72540000  0.90670000  1.0 -0.7127373467
O  O50  1  0.39490000  0.77460000  0.40670000  1.0 -0.7127373467
O  O51  1  0.60510000  0.27460000  0.09330000  1.0 -0.7163053165
O  O52  1  0.60510000  0.22540000  0.59330000  1.0 -0.7127373467
