# DDEC6 charges by PACMAN v1.1 (https://github.com/mtap-research/PACMAN-charge/)
data_WEXQOF01_ASR_pacman
_symmetry_space_group_name_H-M   'P 1'
_cell_length_a   9.55100000
_cell_length_b   9.97900000
_cell_length_c   10.00000000
_cell_angle_alpha   107.67000000
_cell_angle_beta   97.92000000
_cell_angle_gamma   114.91000000
_symmetry_Int_Tables_number   1
_chemical_formula_structural   Co2(PO4)3
_chemical_formula_sum   'Co4 P6 O24'
_cell_volume   783.76823099
_cell_formula_units_Z   2
loop_
 _symmetry_equiv_pos_site_id
 _symmetry_equiv_pos_as_xyz
  1  'x, y, z'
loop_
 _atom_site_type_symbol
 _atom_site_label
 _atom_site_symmetry_multiplicity
 _atom_site_fract_x
 _atom_site_fract_y
 _atom_site_fract_z
 _atom_site_occupancy
 _atom_site_charge
Co  Co1  1  0.68560000  0.20660000  0.15670000  1.0 1.3005016884
Co  Co2  1  0.31440000  0.79340000  0.84330000  1.0 1.3005016884
Co  Co3  1  0.86380000  0.03300000  0.61260000  1.0 1.2406185112
Co  Co4  1  0.13620000  0.96700000  0.38740000  1.0 1.2406185112
P  P1  1  0.82510000  0.59930000  0.27000000  1.0 1.3227733216
P  P2  1  0.17490000  0.40070000  0.73000000  1.0 1.3279666743
P  P3  1  0.84420000  0.02920000  0.30630000  1.0 1.3726814032
P  P4  1  0.15580000  0.97080000  0.69370000  1.0 1.3766826233
P  P5  1  0.66310000  0.96950000  0.83850000  1.0 1.3726814032
P  P6  1  0.33690000  0.03050000  0.16150000  1.0 1.3726814032
O  O1  1  0.65880000  0.10940000  0.94920000  1.0 -0.6762047866
O  O2  1  0.34120000  0.89060000  0.05080000  1.0 -0.6762047866
O  O3  1  0.82300000  0.15920000  0.27570000  1.0 -0.6245555439
O  O4  1  0.17700000  0.84080000  0.72430000  1.0 -0.6308378735
O  O5  1  0.82900000  0.44130000  0.21080000  1.0 -0.5759766856
O  O6  1  0.17100000  0.55870000  0.78920000  1.0 -0.5759766856
O  O7  1  0.50920000  0.81080000  0.79660000  1.0 -0.6394532779
O  O8  1  0.49080000  0.18920000  0.20340000  1.0 -0.6394532779
O  O9  1  0.75050000  0.96460000  0.40380000  1.0 -0.6308378735
O  O10  1  0.24950000  0.03540000  0.59620000  1.0 -0.6308378735
O  O11  1  0.99350000  0.73600000  0.30180000  1.0 -0.6394532779
O  O12  1  0.00650000  0.26400000  0.69820000  1.0 -0.6394532779
O  O13  1  0.69380000  0.99960000  0.70320000  1.0 -0.5677425721
O  O14  1  0.30620000  0.00040000  0.29680000  1.0 -0.5677425721
O  O15  1  0.02620000  0.09310000  0.37420000  1.0 -0.6658240714
O  O16  1  0.97380000  0.90690000  0.62580000  1.0 -0.6658240714
O  O17  1  0.69570000  0.60440000  0.16800000  1.0 -0.3997099781
O  O18  1  0.30430000  0.39560000  0.83200000  1.0 -0.3997099781
O  O19  1  0.78100000  0.61560000  0.41970000  1.0 -0.4197716722
O  O20  1  0.21900000  0.38440000  0.58030000  1.0 -0.4197716722
O  O21  1  0.78090000  0.88220000  0.15130000  1.0 -0.3714727321
O  O22  1  0.21910000  0.11780000  0.84870000  1.0 -0.3714727321
O  O23  1  0.81310000  0.95460000  0.90830000  1.0 -0.3997099781
O  O24  1  0.18690000  0.04540000  0.09170000  1.0 -0.3997099781
