# DDEC6 charges by PACMAN v1.1 (https://github.com/mtap-research/PACMAN-charge/)
data_WEYQEY_ASR_pacman
_symmetry_space_group_name_H-M   'P 1'
_cell_length_a   12.69910000
_cell_length_b   15.57110000
_cell_length_c   16.33130000
_cell_angle_alpha   90.00000000
_cell_angle_beta   90.00000000
_cell_angle_gamma   90.00000000
_symmetry_Int_Tables_number   1
_chemical_formula_structural   MnH3(C3O2)3
_chemical_formula_sum   'Mn8 H24 C72 O48'
_cell_volume   3229.33421229
_cell_formula_units_Z   8
loop_
 _symmetry_equiv_pos_site_id
 _symmetry_equiv_pos_as_xyz
  1  'x, y, z'
loop_
 _atom_site_type_symbol
 _atom_site_label
 _atom_site_symmetry_multiplicity
 _atom_site_fract_x
 _atom_site_fract_y
 _atom_site_fract_z
 _atom_site_occupancy
 _atom_site_charge
Mn  Mn1  1  0.60058000  0.00472000  0.58878000  1.0 1.0595571994
Mn  Mn2  1  0.89942000  0.99528000  0.08878000  1.0 1.0595571994
Mn  Mn3  1  0.39942000  0.50472000  0.91122000  1.0 1.0595571994
Mn  Mn4  1  0.10058000  0.49528000  0.41122000  1.0 1.0660831076
Mn  Mn5  1  0.39942000  0.99528000  0.41122000  1.0 1.0595571994
Mn  Mn6  1  0.10058000  0.00472000  0.91122000  1.0 1.0595571994
Mn  Mn7  1  0.60058000  0.49528000  0.08878000  1.0 1.0595571994
Mn  Mn8  1  0.89942000  0.50472000  0.58878000  1.0 1.0595571994
H  H1  1  0.72230000  0.46750000  0.36660000  1.0 0.1496394688
H  H2  1  0.77770000  0.53250000  0.86660000  1.0 0.1496394688
H  H3  1  0.27770000  0.96750000  0.13340000  1.0 0.1496394688
H  H4  1  0.22230000  0.03250000  0.63340000  1.0 0.1496394688
H  H5  1  0.27770000  0.53250000  0.63340000  1.0 0.1496394688
H  H6  1  0.22230000  0.46750000  0.13340000  1.0 0.1496394688
H  H7  1  0.72230000  0.03250000  0.86660000  1.0 0.1496394688
H  H8  1  0.77770000  0.96750000  0.36660000  1.0 0.1496394688
H  H9  1  0.55000000  0.25600000  0.29930000  1.0 0.1496394688
H  H10  1  0.95000000  0.74400000  0.79930000  1.0 0.144492541
H  H11  1  0.45000000  0.75600000  0.20070000  1.0 0.144492541
H  H12  1  0.05000000  0.24400000  0.70070000  1.0 0.1496394688
H  H13  1  0.45000000  0.74400000  0.70070000  1.0 0.1496394688
H  H14  1  0.05000000  0.25600000  0.20070000  1.0 0.1496394688
H  H15  1  0.55000000  0.24400000  0.79930000  1.0 0.1496394688
H  H16  1  0.95000000  0.75600000  0.29930000  1.0 0.144492541
H  H17  1  0.66780000  0.25430000  0.52430000  1.0 0.1496394688
H  H18  1  0.83220000  0.74570000  0.02430000  1.0 0.1496394688
H  H19  1  0.33220000  0.75430000  0.97570000  1.0 0.1496394688
H  H20  1  0.16780000  0.24570000  0.47570000  1.0 0.1496394688
H  H21  1  0.33220000  0.74570000  0.47570000  1.0 0.1496394688
H  H22  1  0.16780000  0.25430000  0.97570000  1.0 0.1496394688
H  H23  1  0.66780000  0.24570000  0.02430000  1.0 0.1496394688
H  H24  1  0.83220000  0.75430000  0.52430000  1.0 0.1496394688
C  C1  1  0.70445000  0.36659000  0.45226000  1.0 0.0600178256
C  C2  1  0.79555000  0.63341000  0.95226000  1.0 0.0600178256
C  C3  1  0.29555000  0.86659000  0.04774000  1.0 0.0600178256
C  C4  1  0.20445000  0.13341000  0.54774000  1.0 0.0600178256
C  C5  1  0.29555000  0.63341000  0.54774000  1.0 0.0600178256
C  C6  1  0.20445000  0.36659000  0.04774000  1.0 0.0600178256
C  C7  1  0.70445000  0.13341000  0.95226000  1.0 0.0600178256
C  C8  1  0.79555000  0.86659000  0.45226000  1.0 0.0600178256
C  C9  1  0.69328000  0.41351000  0.37558000  1.0 -0.1481889593
C  C10  1  0.80672000  0.58649000  0.87558000  1.0 -0.1481889593
C  C11  1  0.30672000  0.91351000  0.12442000  1.0 -0.1481889593
C  C12  1  0.19328000  0.08649000  0.62442000  1.0 -0.1481889593
C  C13  1  0.30672000  0.58649000  0.62442000  1.0 -0.1481889593
C  C14  1  0.19328000  0.41351000  0.12442000  1.0 -0.1481889593
C  C15  1  0.69328000  0.08649000  0.87558000  1.0 -0.1481889593
C  C16  1  0.80672000  0.91351000  0.37558000  1.0 -0.1481889593
C  C17  1  0.63688000  0.37081000  0.31928000  1.0 0.0524461935
C  C18  1  0.86312000  0.62919000  0.81928000  1.0 0.0524461935
C  C19  1  0.36312000  0.87081000  0.18072000  1.0 0.0524461935
C  C20  1  0.13688000  0.12919000  0.68072000  1.0 0.0524461935
C  C21  1  0.36312000  0.62919000  0.68072000  1.0 0.0524461935
C  C22  1  0.13688000  0.37081000  0.18072000  1.0 0.0524461935
C  C23  1  0.63688000  0.12919000  0.81928000  1.0 0.0524461935
C  C24  1  0.86312000  0.87081000  0.31928000  1.0 0.0524461935
C  C25  1  0.58895000  0.28255000  0.34042000  1.0 -0.0962664368
C  C26  1  0.91105000  0.71745000  0.84042000  1.0 -0.0940470817
C  C27  1  0.41105000  0.78255000  0.15958000  1.0 -0.0940470817
C  C28  1  0.08895000  0.21745000  0.65958000  1.0 -0.0962664368
C  C29  1  0.41105000  0.71745000  0.65958000  1.0 -0.0940470817
C  C30  1  0.08895000  0.28255000  0.15958000  1.0 -0.0962664368
C  C31  1  0.58895000  0.21745000  0.84042000  1.0 -0.0940470817
C  C32  1  0.91105000  0.78255000  0.34042000  1.0 -0.0940470817
C  C33  1  0.59772000  0.23620000  0.41725000  1.0 0.0156744584
C  C34  1  0.90228000  0.76380000  0.91725000  1.0 0.0156744584
C  C35  1  0.40228000  0.73620000  0.08275000  1.0 0.0156744584
C  C36  1  0.09772000  0.26380000  0.58275000  1.0 0.0156744584
C  C37  1  0.40228000  0.76380000  0.58275000  1.0 0.0156744584
C  C38  1  0.09772000  0.23620000  0.08275000  1.0 0.0156744584
C  C39  1  0.59772000  0.26380000  0.91725000  1.0 0.0156744584
C  C40  1  0.90228000  0.73620000  0.41725000  1.0 0.0156744584
C  C41  1  0.65636000  0.27847000  0.47299000  1.0 -0.12393498
C  C42  1  0.84364000  0.72153000  0.97299000  1.0 -0.12393498
C  C43  1  0.34364000  0.77847000  0.02701000  1.0 -0.12393498
C  C44  1  0.15636000  0.22153000  0.52701000  1.0 -0.12393498
C  C45  1  0.34364000  0.72153000  0.52701000  1.0 -0.12393498
C  C46  1  0.15636000  0.27847000  0.02701000  1.0 -0.12393498
C  C47  1  0.65636000  0.22153000  0.97299000  1.0 -0.12393498
C  C48  1  0.84364000  0.77847000  0.47299000  1.0 -0.1250593844
C  C49  1  0.77302000  0.41514000  0.51217000  1.0 0.5032439572
C  C50  1  0.72698000  0.58486000  0.01217000  1.0 0.5032439572
C  C51  1  0.22698000  0.91514000  0.98783000  1.0 0.5032439572
C  C52  1  0.27302000  0.08486000  0.48783000  1.0 0.5032439572
C  C53  1  0.22698000  0.58486000  0.48783000  1.0 0.5032439572
C  C54  1  0.27302000  0.41514000  0.98783000  1.0 0.5032439572
C  C55  1  0.77302000  0.08486000  0.01217000  1.0 0.5032439572
C  C56  1  0.72698000  0.91514000  0.51217000  1.0 0.5032439572
C  C57  1  0.62841000  0.41966000  0.23128000  1.0 0.5032439572
C  C58  1  0.87159000  0.58034000  0.73128000  1.0 0.5032439572
C  C59  1  0.37159000  0.91966000  0.26872000  1.0 0.5032439572
C  C60  1  0.12841000  0.08034000  0.76872000  1.0 0.5032439572
C  C61  1  0.37159000  0.58034000  0.76872000  1.0 0.5032439572
C  C62  1  0.12841000  0.41966000  0.26872000  1.0 0.5032439572
C  C63  1  0.62841000  0.08034000  0.73128000  1.0 0.5032439572
C  C64  1  0.87159000  0.91966000  0.23128000  1.0 0.5032439572
C  C65  1  0.54097000  0.14384000  0.44014000  1.0 0.5790994508
C  C66  1  0.95903000  0.85616000  0.94014000  1.0 0.5790994508
C  C67  1  0.45903000  0.64384000  0.05986000  1.0 0.5790994508
C  C68  1  0.04097000  0.35616000  0.55986000  1.0 0.5790994508
C  C69  1  0.45903000  0.85616000  0.55986000  1.0 0.5790994508
C  C70  1  0.04097000  0.14384000  0.05986000  1.0 0.5790994508
C  C71  1  0.54097000  0.35616000  0.94014000  1.0 0.5790994508
C  C72  1  0.95903000  0.64384000  0.44014000  1.0 0.5790994508
O  O1  1  0.79814000  0.49874000  0.49855000  1.0 -0.5258720624
O  O2  1  0.70186000  0.50126000  0.99855000  1.0 -0.5238666641
O  O3  1  0.20186000  0.99874000  0.00145000  1.0 -0.5258720624
O  O4  1  0.29814000  0.00126000  0.50145000  1.0 -0.5238666641
O  O5  1  0.20186000  0.50126000  0.50145000  1.0 -0.5238666641
O  O6  1  0.29814000  0.49874000  0.00145000  1.0 -0.5258720624
O  O7  1  0.79814000  0.00126000  0.99855000  1.0 -0.5258720624
O  O8  1  0.70186000  0.99874000  0.49855000  1.0 -0.5238666641
O  O9  1  0.80079000  0.35832000  0.56480000  1.0 -0.4493350344
O  O10  1  0.69921000  0.64168000  0.06480000  1.0 -0.4493350344
O  O11  1  0.19921000  0.85832000  0.93520000  1.0 -0.4493350344
O  O12  1  0.30079000  0.14168000  0.43520000  1.0 -0.4493350344
O  O13  1  0.19921000  0.64168000  0.43520000  1.0 -0.4493350344
O  O14  1  0.30079000  0.35832000  0.93520000  1.0 -0.4493350344
O  O15  1  0.80079000  0.14168000  0.06480000  1.0 -0.4493350344
O  O16  1  0.69921000  0.85832000  0.56480000  1.0 -0.4493350344
O  O17  1  0.66043000  0.50589000  0.22097000  1.0 -0.5023294794
O  O18  1  0.83957000  0.49411000  0.72097000  1.0 -0.5023294794
O  O19  1  0.33957000  0.00589000  0.27903000  1.0 -0.5023294794
O  O20  1  0.16043000  0.99411000  0.77903000  1.0 -0.5023294794
O  O21  1  0.33957000  0.49411000  0.77903000  1.0 -0.5023294794
O  O22  1  0.16043000  0.50589000  0.27903000  1.0 -0.5023294794
O  O23  1  0.66043000  0.99411000  0.72097000  1.0 -0.5023294794
O  O24  1  0.83957000  0.00589000  0.22097000  1.0 -0.5023294794
O  O25  1  0.58509000  0.37256000  0.18262000  1.0 -0.4325405243
O  O26  1  0.91491000  0.62744000  0.68262000  1.0 -0.4325405243
O  O27  1  0.41491000  0.87256000  0.31738000  1.0 -0.4325405243
O  O28  1  0.08509000  0.12744000  0.81738000  1.0 -0.4325405243
O  O29  1  0.41491000  0.62744000  0.81738000  1.0 -0.4325405243
O  O30  1  0.08509000  0.37256000  0.31738000  1.0 -0.4325405243
O  O31  1  0.58509000  0.12744000  0.68262000  1.0 -0.4325405243
O  O32  1  0.91491000  0.87256000  0.18262000  1.0 -0.4325405243
O  O33  1  0.53543000  0.11742000  0.51326000  1.0 -0.4910624539
O  O34  1  0.96457000  0.88258000  0.01326000  1.0 -0.4848220902
O  O35  1  0.46457000  0.61742000  0.98674000  1.0 -0.4910624539
O  O36  1  0.03543000  0.38258000  0.48674000  1.0 -0.4910624539
O  O37  1  0.46457000  0.88258000  0.48674000  1.0 -0.4910624539
O  O38  1  0.03543000  0.11742000  0.98674000  1.0 -0.4910624539
O  O39  1  0.53543000  0.38258000  0.01326000  1.0 -0.4910624539
O  O40  1  0.96457000  0.61742000  0.51326000  1.0 -0.4910624539
O  O41  1  0.50075000  0.09948000  0.38270000  1.0 -0.4563369212
O  O42  1  0.99925000  0.90052000  0.88270000  1.0 -0.4493350344
O  O43  1  0.49925000  0.59948000  0.11730000  1.0 -0.4493350344
O  O44  1  0.00075000  0.40052000  0.61730000  1.0 -0.4563369212
O  O45  1  0.49925000  0.90052000  0.61730000  1.0 -0.4563369212
O  O46  1  0.00075000  0.09948000  0.11730000  1.0 -0.4563369212
O  O47  1  0.50075000  0.40052000  0.88270000  1.0 -0.4563369212
O  O48  1  0.99925000  0.59948000  0.38270000  1.0 -0.4563369212
