# DDEC6 charges by PACMAN v1.1 (https://github.com/mtap-research/PACMAN-charge/)
data_WEYQAU01_ASR_pacman
_symmetry_space_group_name_H-M   'P 1'
_cell_length_a   12.39500000
_cell_length_b   14.66660000
_cell_length_c   16.63510000
_cell_angle_alpha   90.00000000
_cell_angle_beta   90.00000000
_cell_angle_gamma   90.00000000
_symmetry_Int_Tables_number   1
_chemical_formula_structural   Mn(C3O2)3
_chemical_formula_sum   'Mn8 C72 O48'
_cell_volume   3024.13653320
_cell_formula_units_Z   8
loop_
 _symmetry_equiv_pos_site_id
 _symmetry_equiv_pos_as_xyz
  1  'x, y, z'
loop_
 _atom_site_type_symbol
 _atom_site_label
 _atom_site_symmetry_multiplicity
 _atom_site_fract_x
 _atom_site_fract_y
 _atom_site_fract_z
 _atom_site_occupancy
 _atom_site_charge
Mn  Mn1  1  0.51789000  0.39479000  0.57858000  1.0 1.0677866757
Mn  Mn2  1  0.48211000  0.10521000  0.07858000  1.0 1.0677866757
Mn  Mn3  1  0.98211000  0.89479000  0.42142000  1.0 1.0677866757
Mn  Mn4  1  0.01789000  0.60521000  0.92142000  1.0 1.0677866757
Mn  Mn5  1  0.48211000  0.60521000  0.42142000  1.0 1.0677866757
Mn  Mn6  1  0.51789000  0.89479000  0.92142000  1.0 1.0677866757
Mn  Mn7  1  0.01789000  0.10521000  0.57858000  1.0 1.0677866757
Mn  Mn8  1  0.98211000  0.39479000  0.07858000  1.0 1.0677866757
C  C1  1  0.60071000  0.36273000  0.71807000  1.0 0.6046709836
C  C2  1  0.39929000  0.13727000  0.21807000  1.0 0.6054119886
C  C3  1  0.89929000  0.86273000  0.28193000  1.0 0.6046709836
C  C4  1  0.10071000  0.63727000  0.78193000  1.0 0.6054119886
C  C5  1  0.39929000  0.63727000  0.28193000  1.0 0.6054119886
C  C6  1  0.60071000  0.86273000  0.78193000  1.0 0.6054119886
C  C7  1  0.10071000  0.13727000  0.71807000  1.0 0.6054119886
C  C8  1  0.89929000  0.36273000  0.21807000  1.0 0.6046709836
C  C9  1  0.64194000  0.35763000  0.80271000  1.0 -0.0706024764
C  C10  1  0.35806000  0.14237000  0.30271000  1.0 -0.0706024764
C  C11  1  0.85806000  0.85763000  0.19729000  1.0 -0.0706024764
C  C12  1  0.14194000  0.64237000  0.69729000  1.0 -0.0706024764
C  C13  1  0.35806000  0.64237000  0.19729000  1.0 -0.0706024764
C  C14  1  0.64194000  0.85763000  0.69729000  1.0 -0.0706024764
C  C15  1  0.14194000  0.14237000  0.80271000  1.0 -0.0706024764
C  C16  1  0.85806000  0.35763000  0.30271000  1.0 -0.0706024764
C  C17  1  0.58870000  0.30438000  0.85950000  1.0 0.0611009867
C  C18  1  0.41130000  0.19562000  0.35950000  1.0 0.0611009867
C  C19  1  0.91130000  0.80438000  0.14050000  1.0 0.0611009867
C  C20  1  0.08870000  0.69562000  0.64050000  1.0 0.0611009867
C  C21  1  0.41130000  0.69562000  0.14050000  1.0 0.0611009867
C  C22  1  0.58870000  0.80438000  0.64050000  1.0 0.0611009867
C  C23  1  0.08870000  0.19562000  0.85950000  1.0 0.0611009867
C  C24  1  0.91130000  0.30438000  0.35950000  1.0 0.0611009867
C  C25  1  0.73299000  0.40687000  0.82532000  1.0 0.0815308093
C  C26  1  0.26701000  0.09313000  0.32532000  1.0 0.0815308093
C  C27  1  0.76701000  0.90687000  0.17468000  1.0 0.0815308093
C  C28  1  0.23299000  0.59313000  0.67468000  1.0 0.0815308093
C  C29  1  0.26701000  0.59313000  0.17468000  1.0 0.0815308093
C  C30  1  0.73299000  0.90687000  0.67468000  1.0 0.0815308093
C  C31  1  0.23299000  0.09313000  0.82532000  1.0 0.0815308093
C  C32  1  0.76701000  0.40687000  0.32532000  1.0 0.0815308093
C  C33  1  0.62859000  0.29713000  0.93758000  1.0 -0.0761201396
C  C34  1  0.37141000  0.20287000  0.43758000  1.0 -0.0761201396
C  C35  1  0.87141000  0.79713000  0.06242000  1.0 -0.0706024764
C  C36  1  0.12859000  0.70287000  0.56242000  1.0 -0.0761201396
C  C37  1  0.37141000  0.70287000  0.06242000  1.0 -0.0761201396
C  C38  1  0.62859000  0.79713000  0.56242000  1.0 -0.0706024764
C  C39  1  0.12859000  0.20287000  0.93758000  1.0 -0.0761201396
C  C40  1  0.87141000  0.29713000  0.43758000  1.0 -0.0706024764
C  C41  1  0.77034000  0.40392000  0.90429000  1.0 -0.0706024764
C  C42  1  0.22966000  0.09608000  0.40429000  1.0 -0.0706024764
C  C43  1  0.72966000  0.90392000  0.09571000  1.0 -0.0706024764
C  C44  1  0.27034000  0.59608000  0.59571000  1.0 -0.0706024764
C  C45  1  0.22966000  0.59608000  0.09571000  1.0 -0.0706024764
C  C46  1  0.77034000  0.90392000  0.59571000  1.0 -0.0706024764
C  C47  1  0.27034000  0.09608000  0.90429000  1.0 -0.0706024764
C  C48  1  0.72966000  0.40392000  0.40429000  1.0 -0.0706024764
C  C49  1  0.71908000  0.34762000  0.95974000  1.0 0.1057941829
C  C50  1  0.28092000  0.15238000  0.45974000  1.0 0.1057941829
C  C51  1  0.78092000  0.84762000  0.04026000  1.0 0.1057941829
C  C52  1  0.21908000  0.65238000  0.54026000  1.0 0.1057941829
C  C53  1  0.28092000  0.65238000  0.04026000  1.0 0.1057941829
C  C54  1  0.71908000  0.84762000  0.54026000  1.0 0.1057941829
C  C55  1  0.21908000  0.15238000  0.95974000  1.0 0.1057941829
C  C56  1  0.78092000  0.34762000  0.45974000  1.0 0.1057941829
C  C57  1  0.57672000  0.23158000  0.99526000  1.0 0.620908168
C  C58  1  0.42328000  0.26842000  0.49526000  1.0 0.620908168
C  C59  1  0.92328000  0.73158000  0.00474000  1.0 0.620908168
C  C60  1  0.07672000  0.76842000  0.50474000  1.0 0.620908168
C  C61  1  0.42328000  0.76842000  0.00474000  1.0 0.620908168
C  C62  1  0.57672000  0.73158000  0.50474000  1.0 0.620908168
C  C63  1  0.07672000  0.26842000  0.99526000  1.0 0.620908168
C  C64  1  0.92328000  0.23158000  0.49526000  1.0 0.620908168
C  C65  1  0.86385000  0.46284000  0.92866000  1.0 0.6494053275
C  C66  1  0.13615000  0.03716000  0.42866000  1.0 0.6494053275
C  C67  1  0.63615000  0.96284000  0.07134000  1.0 0.6494053275
C  C68  1  0.36385000  0.53716000  0.57134000  1.0 0.6494053275
C  C69  1  0.13615000  0.53716000  0.07134000  1.0 0.6494053275
C  C70  1  0.86385000  0.96284000  0.57134000  1.0 0.6494053275
C  C71  1  0.36385000  0.03716000  0.92866000  1.0 0.6494053275
C  C72  1  0.63615000  0.46284000  0.42866000  1.0 0.6494053275
O  O1  1  0.65404000  0.40545000  0.66585000  1.0 -0.4792544256
O  O2  1  0.34596000  0.09455000  0.16585000  1.0 -0.4792544256
O  O3  1  0.84596000  0.90545000  0.33415000  1.0 -0.4792544256
O  O4  1  0.15404000  0.59455000  0.83415000  1.0 -0.4792544256
O  O5  1  0.34596000  0.59455000  0.33415000  1.0 -0.4792544256
O  O6  1  0.65404000  0.90545000  0.83415000  1.0 -0.4792544256
O  O7  1  0.15404000  0.09455000  0.66585000  1.0 -0.4792544256
O  O8  1  0.84596000  0.40545000  0.16585000  1.0 -0.4792544256
O  O9  1  0.51202000  0.32514000  0.70128000  1.0 -0.4914734392
O  O10  1  0.48798000  0.17486000  0.20128000  1.0 -0.4914734392
O  O11  1  0.98798000  0.82514000  0.29872000  1.0 -0.4914734392
O  O12  1  0.01202000  0.67486000  0.79872000  1.0 -0.4914734392
O  O13  1  0.48798000  0.67486000  0.29872000  1.0 -0.4914734392
O  O14  1  0.51202000  0.82514000  0.79872000  1.0 -0.4914734392
O  O15  1  0.01202000  0.17486000  0.70128000  1.0 -0.4914734392
O  O16  1  0.98798000  0.32514000  0.20128000  1.0 -0.4914734392
O  O17  1  0.52063000  0.29095000  0.48412000  1.0 -0.5199123203
O  O18  1  0.47937000  0.20905000  0.98412000  1.0 -0.5199123203
O  O19  1  0.97937000  0.79095000  0.51588000  1.0 -0.5199123203
O  O20  1  0.02063000  0.70905000  0.01588000  1.0 -0.5199123203
O  O21  1  0.47937000  0.70905000  0.51588000  1.0 -0.5199123203
O  O22  1  0.52063000  0.79095000  0.01588000  1.0 -0.5199123203
O  O23  1  0.02063000  0.20905000  0.48412000  1.0 -0.5199123203
O  O24  1  0.97937000  0.29095000  0.98412000  1.0 -0.5199123203
O  O25  1  0.36886000  0.30128000  0.55141000  1.0 -0.4703734397
O  O26  1  0.63114000  0.19872000  0.05141000  1.0 -0.4703734397
O  O27  1  0.13114000  0.80128000  0.44859000  1.0 -0.4703734397
O  O28  1  0.86886000  0.69872000  0.94859000  1.0 -0.4703734397
O  O29  1  0.63114000  0.69872000  0.44859000  1.0 -0.4703734397
O  O30  1  0.36886000  0.80128000  0.94859000  1.0 -0.4703734397
O  O31  1  0.86886000  0.19872000  0.55141000  1.0 -0.4703734397
O  O32  1  0.13114000  0.30128000  0.05141000  1.0 -0.4703734397
O  O33  1  0.42013000  0.50140000  0.62631000  1.0 -0.4792544256
O  O34  1  0.57987000  0.99860000  0.12631000  1.0 -0.4792544256
O  O35  1  0.07987000  0.00140000  0.37369000  1.0 -0.4792544256
O  O36  1  0.92013000  0.49860000  0.87369000  1.0 -0.4792544256
O  O37  1  0.57987000  0.49860000  0.37369000  1.0 -0.4792544256
O  O38  1  0.42013000  0.00140000  0.87369000  1.0 -0.4792544256
O  O39  1  0.92013000  0.99860000  0.62631000  1.0 -0.4792544256
O  O40  1  0.07987000  0.50140000  0.12631000  1.0 -0.4792544256
O  O41  1  0.61988000  0.47674000  0.50253000  1.0 -0.5361362427
O  O42  1  0.38012000  0.02326000  0.00253000  1.0 -0.5361362427
O  O43  1  0.88012000  0.97674000  0.49747000  1.0 -0.5361362427
O  O44  1  0.11988000  0.52326000  0.99747000  1.0 -0.5361362427
O  O45  1  0.38012000  0.52326000  0.49747000  1.0 -0.5361362427
O  O46  1  0.61988000  0.97674000  0.99747000  1.0 -0.5361362427
O  O47  1  0.11988000  0.02326000  0.50253000  1.0 -0.5361362427
O  O48  1  0.88012000  0.47674000  0.00253000  1.0 -0.5361362427
