# DDEC6 charges by PACMAN v1.1 (https://github.com/mtap-research/PACMAN-charge/)
data_WIBSAD_ASR_pacman
_symmetry_space_group_name_H-M   'P 1'
_cell_length_a   35.49450000
_cell_length_b   35.49450000
_cell_length_c   35.49450000
_cell_angle_alpha   109.47100000
_cell_angle_beta   109.47100000
_cell_angle_gamma   109.47100000
_symmetry_Int_Tables_number   1
_chemical_formula_structural   Zn5Fe6B6H54C78(N27O2)2
_chemical_formula_sum   'Zn40 Fe48 B48 H432 C624 N432 O32'
_cell_volume   34424.27838672
_cell_formula_units_Z   8
loop_
 _symmetry_equiv_pos_site_id
 _symmetry_equiv_pos_as_xyz
  1  'x, y, z'
loop_
 _atom_site_type_symbol
 _atom_site_label
 _atom_site_symmetry_multiplicity
 _atom_site_fract_x
 _atom_site_fract_y
 _atom_site_fract_z
 _atom_site_occupancy
 _atom_site_charge
Zn  Zn1  1  0.50000000  0.00000000  0.14852000  1.0 0.8612266899
Zn  Zn2  1  0.35148000  0.35148000  0.35148000  1.0 0.8612266899
Zn  Zn3  1  0.14852000  0.50000000  0.00000000  1.0 0.8651193103
Zn  Zn4  1  0.00000000  0.14852000  0.50000000  1.0 0.8612266899
Zn  Zn5  1  0.50000000  0.00000000  0.64852000  1.0 0.8612266899
Zn  Zn6  1  0.85148000  0.85148000  0.85148000  1.0 0.8612266899
Zn  Zn7  1  0.00000000  0.64852000  0.50000000  1.0 0.8612266899
Zn  Zn8  1  0.64852000  0.50000000  0.00000000  1.0 0.8651193103
Zn  Zn9  1  0.50000000  0.00000000  0.98022000  1.0 0.8830670437
Zn  Zn10  1  0.51978000  0.51978000  0.51978000  1.0 0.8830670437
Zn  Zn11  1  0.98022000  0.50000000  0.00000000  1.0 0.8853734454
Zn  Zn12  1  0.00000000  0.98022000  0.50000000  1.0 0.8830670437
Zn  Zn13  1  0.50000000  0.00000000  0.48022000  1.0 0.8830670437
Zn  Zn14  1  0.01978000  0.01978000  0.01978000  1.0 0.8830670437
Zn  Zn15  1  0.00000000  0.48022000  0.50000000  1.0 0.8830670437
Zn  Zn16  1  0.48022000  0.50000000  0.00000000  1.0 0.8853734454
Zn  Zn17  1  0.59394000  0.24926000  0.19580000  1.0 0.8350584826
Zn  Zn18  1  0.55346000  0.39814000  0.30420000  1.0 0.8350584826
Zn  Zn19  1  0.94654000  0.25074000  0.84468000  1.0 0.8350584826
Zn  Zn20  1  0.90606000  0.10186000  0.65532000  1.0 0.8350584826
Zn  Zn21  1  0.19580000  0.59394000  0.24926000  1.0 0.8350584826
Zn  Zn22  1  0.30420000  0.55346000  0.39814000  1.0 0.8350584826
Zn  Zn23  1  0.84468000  0.94654000  0.25074000  1.0 0.8343797049
Zn  Zn24  1  0.65532000  0.90606000  0.10186000  1.0 0.8350584826
Zn  Zn25  1  0.24926000  0.19580000  0.59394000  1.0 0.8350584826
Zn  Zn26  1  0.39814000  0.30420000  0.55346000  1.0 0.8350584826
Zn  Zn27  1  0.25074000  0.84468000  0.94654000  1.0 0.8350584826
Zn  Zn28  1  0.10186000  0.65532000  0.90606000  1.0 0.8350584826
Zn  Zn29  1  0.74926000  0.09394000  0.69580000  1.0 0.8350584826
Zn  Zn30  1  0.89814000  0.05346000  0.80420000  1.0 0.8350584826
Zn  Zn31  1  0.75074000  0.44654000  0.34468000  1.0 0.8343797049
Zn  Zn32  1  0.60186000  0.40606000  0.15532000  1.0 0.8350584826
Zn  Zn33  1  0.09394000  0.69580000  0.74926000  1.0 0.8350584826
Zn  Zn34  1  0.05346000  0.80420000  0.89814000  1.0 0.8350584826
Zn  Zn35  1  0.44654000  0.34468000  0.75074000  1.0 0.8350584826
Zn  Zn36  1  0.40606000  0.15532000  0.60186000  1.0 0.8350584826
Zn  Zn37  1  0.69580000  0.74926000  0.09394000  1.0 0.8350584826
Zn  Zn38  1  0.80420000  0.89814000  0.05346000  1.0 0.8343797049
Zn  Zn39  1  0.34468000  0.75074000  0.44654000  1.0 0.8350584826
Zn  Zn40  1  0.15532000  0.60186000  0.40606000  1.0 0.8350584826
Fe  Fe1  1  0.62088000  0.12010000  0.14286000  1.0 0.1670191248
Fe  Fe2  1  0.47724000  0.47802000  0.35714000  1.0 0.1670191248
Fe  Fe3  1  0.02276000  0.37990000  0.00078000  1.0 0.1639085731
Fe  Fe4  1  0.87912000  0.02198000  0.49922000  1.0 0.1670191248
Fe  Fe5  1  0.14286000  0.62088000  0.12010000  1.0 0.1670191248
Fe  Fe6  1  0.35714000  0.47724000  0.47802000  1.0 0.1670191248
Fe  Fe7  1  0.00078000  0.02276000  0.37990000  1.0 0.1670191248
Fe  Fe8  1  0.49922000  0.87912000  0.02198000  1.0 0.1639085731
Fe  Fe9  1  0.12010000  0.14286000  0.62088000  1.0 0.1670191248
Fe  Fe10  1  0.47802000  0.35714000  0.47724000  1.0 0.1670191248
Fe  Fe11  1  0.37990000  0.00078000  0.02276000  1.0 0.1670191248
Fe  Fe12  1  0.02198000  0.49922000  0.87912000  1.0 0.1670191248
Fe  Fe13  1  0.62010000  0.12088000  0.64286000  1.0 0.1670191248
Fe  Fe14  1  0.97802000  0.97724000  0.85714000  1.0 0.1670191248
Fe  Fe15  1  0.87990000  0.52276000  0.50078000  1.0 0.1670191248
Fe  Fe16  1  0.52198000  0.37912000  0.99922000  1.0 0.1670191248
Fe  Fe17  1  0.12088000  0.64286000  0.62010000  1.0 0.1670191248
Fe  Fe18  1  0.97724000  0.85714000  0.97802000  1.0 0.1670191248
Fe  Fe19  1  0.52276000  0.50078000  0.87990000  1.0 0.1670191248
Fe  Fe20  1  0.37912000  0.99922000  0.52198000  1.0 0.1670191248
Fe  Fe21  1  0.64286000  0.62010000  0.12088000  1.0 0.1670191248
Fe  Fe22  1  0.85714000  0.97802000  0.97724000  1.0 0.1670191248
Fe  Fe23  1  0.50078000  0.87990000  0.52276000  1.0 0.1670191248
Fe  Fe24  1  0.99922000  0.52198000  0.37912000  1.0 0.1670191248
Fe  Fe25  1  0.71773000  0.35518000  0.18509000  1.0 0.1494237699
Fe  Fe26  1  0.67009000  0.53264000  0.31491000  1.0 0.1407368959
Fe  Fe27  1  0.82991000  0.14482000  0.86255000  1.0 0.1407368959
Fe  Fe28  1  0.78227000  0.96736000  0.63745000  1.0 0.1407368959
Fe  Fe29  1  0.18509000  0.71773000  0.35518000  1.0 0.1407368959
Fe  Fe30  1  0.31491000  0.67009000  0.53264000  1.0 0.1407368959
Fe  Fe31  1  0.86255000  0.82991000  0.14482000  1.0 0.1407368959
Fe  Fe32  1  0.63745000  0.78227000  0.96736000  1.0 0.1407368959
Fe  Fe33  1  0.35518000  0.18509000  0.71773000  1.0 0.1407368959
Fe  Fe34  1  0.53264000  0.31491000  0.67009000  1.0 0.1407368959
Fe  Fe35  1  0.14482000  0.86255000  0.82991000  1.0 0.1407368959
Fe  Fe36  1  0.96736000  0.63745000  0.78227000  1.0 0.1407368959
Fe  Fe37  1  0.85518000  0.21773000  0.68509000  1.0 0.1407368959
Fe  Fe38  1  0.03264000  0.17009000  0.81491000  1.0 0.1407368959
Fe  Fe39  1  0.64482000  0.32991000  0.36255000  1.0 0.1407368959
Fe  Fe40  1  0.46736000  0.28227000  0.13745000  1.0 0.1494237699
Fe  Fe41  1  0.21773000  0.68509000  0.85518000  1.0 0.1407368959
Fe  Fe42  1  0.17009000  0.81491000  0.03264000  1.0 0.1494237699
Fe  Fe43  1  0.32991000  0.36255000  0.64482000  1.0 0.1407368959
Fe  Fe44  1  0.28227000  0.13745000  0.46736000  1.0 0.1494237699
Fe  Fe45  1  0.68509000  0.85518000  0.21773000  1.0 0.1407368959
Fe  Fe46  1  0.81491000  0.03264000  0.17009000  1.0 0.1494237699
Fe  Fe47  1  0.36255000  0.64482000  0.32991000  1.0 0.1407368959
Fe  Fe48  1  0.13745000  0.46736000  0.28227000  1.0 0.1494237699
B  B1  1  0.78250000  0.34730000  0.14580000  1.0 0.2671382014
B  B2  1  0.70150000  0.63670000  0.35420000  1.0 0.2671382014
B  B3  1  0.79850000  0.15270000  0.93520000  1.0 0.2671382014
B  B4  1  0.71750000  0.86330000  0.56480000  1.0 0.2671382014
B  B5  1  0.14580000  0.78250000  0.34730000  1.0 0.2671382014
B  B6  1  0.35420000  0.70150000  0.63670000  1.0 0.2671382014
B  B7  1  0.93520000  0.79850000  0.15270000  1.0 0.2671382014
B  B8  1  0.56480000  0.71750000  0.86330000  1.0 0.2671382014
B  B9  1  0.34730000  0.14580000  0.78250000  1.0 0.2671382014
B  B10  1  0.63670000  0.35420000  0.70150000  1.0 0.2671382014
B  B11  1  0.15270000  0.93520000  0.79850000  1.0 0.2671382014
B  B12  1  0.86330000  0.56480000  0.71750000  1.0 0.2671382014
B  B13  1  0.84730000  0.28250000  0.64580000  1.0 0.2671382014
B  B14  1  0.13670000  0.20150000  0.85420000  1.0 0.2671382014
B  B15  1  0.65270000  0.29850000  0.43520000  1.0 0.2671382014
B  B16  1  0.36330000  0.21750000  0.06480000  1.0 0.2671382014
B  B17  1  0.28250000  0.64580000  0.84730000  1.0 0.2671382014
B  B18  1  0.20150000  0.85420000  0.13670000  1.0 0.2671382014
B  B19  1  0.29850000  0.43520000  0.65270000  1.0 0.2671382014
B  B20  1  0.21750000  0.06480000  0.36330000  1.0 0.2671382014
B  B21  1  0.64580000  0.84730000  0.28250000  1.0 0.2671382014
B  B22  1  0.85420000  0.13670000  0.20150000  1.0 0.2671382014
B  B23  1  0.43520000  0.65270000  0.29850000  1.0 0.2671382014
B  B24  1  0.06480000  0.36330000  0.21750000  1.0 0.2671382014
B  B25  1  0.72380000  0.15350000  0.17810000  1.0 0.2257208612
B  B26  1  0.47540000  0.54570000  0.32190000  1.0 0.2257208612
B  B27  1  0.02460000  0.34650000  0.07030000  1.0 0.2257208612
B  B28  1  0.77620000  0.95430000  0.42970000  1.0 0.2257208612
B  B29  1  0.17810000  0.72380000  0.15350000  1.0 0.2243320218
B  B30  1  0.32190000  0.47540000  0.54570000  1.0 0.2257208612
B  B31  1  0.07030000  0.02460000  0.34650000  1.0 0.2257208612
B  B32  1  0.42970000  0.77620000  0.95430000  1.0 0.2257208612
B  B33  1  0.15350000  0.17810000  0.72380000  1.0 0.2257208612
B  B34  1  0.54570000  0.32190000  0.47540000  1.0 0.2257208612
B  B35  1  0.34650000  0.07030000  0.02460000  1.0 0.2257208612
B  B36  1  0.95430000  0.42970000  0.77620000  1.0 0.2257208612
B  B37  1  0.65350000  0.22380000  0.67810000  1.0 0.2257208612
B  B38  1  0.04570000  0.97540000  0.82190000  1.0 0.2257208612
B  B39  1  0.84650000  0.52460000  0.57030000  1.0 0.2257208612
B  B40  1  0.45430000  0.27620000  0.92970000  1.0 0.2257208612
B  B41  1  0.22380000  0.67810000  0.65350000  1.0 0.2257208612
B  B42  1  0.97540000  0.82190000  0.04570000  1.0 0.2257208612
B  B43  1  0.52460000  0.57030000  0.84650000  1.0 0.2257208612
B  B44  1  0.27620000  0.92970000  0.45430000  1.0 0.2257208612
B  B45  1  0.67810000  0.65350000  0.22380000  1.0 0.2257208612
B  B46  1  0.82190000  0.04570000  0.97540000  1.0 0.2257208612
B  B47  1  0.57030000  0.84650000  0.52460000  1.0 0.2257208612
B  B48  1  0.92970000  0.45430000  0.27620000  1.0 0.2257208612
H  H1  1  0.80330000  0.34480000  0.13350000  1.0 -0.1075435639
H  H2  1  0.71130000  0.66980000  0.36650000  1.0 -0.1075435639
H  H3  1  0.78870000  0.15520000  0.95850000  1.0 -0.1075435639
H  H4  1  0.69670000  0.83020000  0.54150000  1.0 -0.1075435639
H  H5  1  0.13350000  0.80330000  0.34480000  1.0 -0.1075435639
H  H6  1  0.36650000  0.71130000  0.66980000  1.0 -0.1075435639
H  H7  1  0.95850000  0.78870000  0.15520000  1.0 -0.1075435639
H  H8  1  0.54150000  0.69670000  0.83020000  1.0 -0.1075435639
H  H9  1  0.34480000  0.13350000  0.80330000  1.0 -0.1075435639
H  H10  1  0.66980000  0.36650000  0.71130000  1.0 -0.1075435639
H  H11  1  0.15520000  0.95850000  0.78870000  1.0 -0.1075435639
H  H12  1  0.83020000  0.54150000  0.69670000  1.0 -0.1075435639
H  H13  1  0.84480000  0.30330000  0.63350000  1.0 -0.1075435639
H  H14  1  0.16980000  0.21130000  0.86650000  1.0 -0.1075435639
H  H15  1  0.65520000  0.28870000  0.45850000  1.0 -0.1075435639
H  H16  1  0.33020000  0.19670000  0.04150000  1.0 -0.1075435639
H  H17  1  0.30330000  0.63350000  0.84480000  1.0 -0.1075435639
H  H18  1  0.21130000  0.86650000  0.16980000  1.0 -0.1075435639
H  H19  1  0.28870000  0.45850000  0.65520000  1.0 -0.1075435639
H  H20  1  0.19670000  0.04150000  0.33020000  1.0 -0.1075435639
H  H21  1  0.63350000  0.84480000  0.30330000  1.0 -0.1075435639
H  H22  1  0.86650000  0.16980000  0.21130000  1.0 -0.1075435639
H  H23  1  0.45850000  0.65520000  0.28870000  1.0 -0.1075435639
H  H24  1  0.04150000  0.33020000  0.19670000  1.0 -0.1075435639
H  H25  1  0.72600000  0.28150000  0.04570000  1.0 0.1200445442
H  H26  1  0.73580000  0.68030000  0.45430000  1.0 0.1200445442
H  H27  1  0.76420000  0.21850000  0.94450000  1.0 0.1200445442
H  H28  1  0.77400000  0.81970000  0.55550000  1.0 0.1200445442
H  H29  1  0.04570000  0.72600000  0.28150000  1.0 0.1200445442
H  H30  1  0.45430000  0.73580000  0.68030000  1.0 0.1200445442
H  H31  1  0.94450000  0.76420000  0.21850000  1.0 0.1200445442
H  H32  1  0.55550000  0.77400000  0.81970000  1.0 0.1200445442
H  H33  1  0.28150000  0.04570000  0.72600000  1.0 0.1200445442
H  H34  1  0.68030000  0.45430000  0.73580000  1.0 0.1200445442
H  H35  1  0.21850000  0.94450000  0.76420000  1.0 0.1200445442
H  H36  1  0.81970000  0.55550000  0.77400000  1.0 0.1200445442
H  H37  1  0.78150000  0.22600000  0.54570000  1.0 0.1200445442
H  H38  1  0.18030000  0.23580000  0.95430000  1.0 0.1200445442
H  H39  1  0.71850000  0.26420000  0.44450000  1.0 0.1200445442
H  H40  1  0.31970000  0.27400000  0.05550000  1.0 0.1200445442
H  H41  1  0.22600000  0.54570000  0.78150000  1.0 0.1200445442
H  H42  1  0.23580000  0.95430000  0.18030000  1.0 0.1200445442
H  H43  1  0.26420000  0.44450000  0.71850000  1.0 0.1200445442
H  H44  1  0.27400000  0.05550000  0.31970000  1.0 0.1200445442
H  H45  1  0.54570000  0.78150000  0.22600000  1.0 0.1200445442
H  H46  1  0.95430000  0.18030000  0.23580000  1.0 0.1200445442
H  H47  1  0.44450000  0.71850000  0.26420000  1.0 0.1200445442
H  H48  1  0.05550000  0.31970000  0.27400000  1.0 0.1200445442
H  H49  1  0.64190000  0.24800000  0.01370000  1.0 0.1407368959
H  H50  1  0.73430000  0.62820000  0.48630000  1.0 0.1407368959
H  H51  1  0.76570000  0.25200000  0.89390000  1.0 0.1407368959
H  H52  1  0.85810000  0.87180000  0.60610000  1.0 0.1407368959
H  H53  1  0.01370000  0.64190000  0.24800000  1.0 0.1407368959
H  H54  1  0.48630000  0.73430000  0.62820000  1.0 0.1407368959
H  H55  1  0.89390000  0.76570000  0.25200000  1.0 0.1407368959
H  H56  1  0.60610000  0.85810000  0.87180000  1.0 0.1407368959
H  H57  1  0.24800000  0.01370000  0.64190000  1.0 0.1407368959
H  H58  1  0.62820000  0.48630000  0.73430000  1.0 0.1407368959
H  H59  1  0.25200000  0.89390000  0.76570000  1.0 0.1407368959
H  H60  1  0.87180000  0.60610000  0.85810000  1.0 0.1407368959
H  H61  1  0.74800000  0.14190000  0.51370000  1.0 0.1407368959
H  H62  1  0.12820000  0.23430000  0.98630000  1.0 0.1407368959
H  H63  1  0.75200000  0.26570000  0.39390000  1.0 0.1407368959
H  H64  1  0.37180000  0.35810000  0.10610000  1.0 0.1407368959
H  H65  1  0.14190000  0.51370000  0.74800000  1.0 0.1407368959
H  H66  1  0.23430000  0.98630000  0.12820000  1.0 0.1407368959
H  H67  1  0.26570000  0.39390000  0.75200000  1.0 0.1407368959
H  H68  1  0.35810000  0.10610000  0.37180000  1.0 0.1407368959
H  H69  1  0.51370000  0.74800000  0.14190000  1.0 0.1407368959
H  H70  1  0.98630000  0.12820000  0.23430000  1.0 0.1407368959
H  H71  1  0.39390000  0.75200000  0.26570000  1.0 0.1407368959
H  H72  1  0.10610000  0.37180000  0.35810000  1.0 0.1407368959
H  H73  1  0.62900000  0.27970000  0.07970000  1.0 0.1291168055
H  H74  1  0.70000000  0.54930000  0.42030000  1.0 0.1291168055
H  H75  1  0.80000000  0.22030000  0.84930000  1.0 0.1291168055
H  H76  1  0.87100000  0.95070000  0.65070000  1.0 0.1291168055
H  H77  1  0.07970000  0.62900000  0.27970000  1.0 0.1291168055
H  H78  1  0.42030000  0.70000000  0.54930000  1.0 0.1291168055
H  H79  1  0.84930000  0.80000000  0.22030000  1.0 0.1291168055
H  H80  1  0.65070000  0.87100000  0.95070000  1.0 0.1291168055
H  H81  1  0.27970000  0.07970000  0.62900000  1.0 0.1291168055
H  H82  1  0.54930000  0.42030000  0.70000000  1.0 0.1291168055
H  H83  1  0.22030000  0.84930000  0.80000000  1.0 0.1291168055
H  H84  1  0.95070000  0.65070000  0.87100000  1.0 0.1291168055
H  H85  1  0.77970000  0.12900000  0.57970000  1.0 0.1291168055
H  H86  1  0.04930000  0.20000000  0.92030000  1.0 0.1291168055
H  H87  1  0.72030000  0.30000000  0.34930000  1.0 0.1291168055
H  H88  1  0.45070000  0.37100000  0.15070000  1.0 0.1291168055
H  H89  1  0.12900000  0.57970000  0.77970000  1.0 0.1291168055
H  H90  1  0.20000000  0.92030000  0.04930000  1.0 0.1291168055
H  H91  1  0.30000000  0.34930000  0.72030000  1.0 0.1291168055
H  H92  1  0.37100000  0.15070000  0.45070000  1.0 0.1291168055
H  H93  1  0.57970000  0.77970000  0.12900000  1.0 0.1291168055
H  H94  1  0.92030000  0.04930000  0.20000000  1.0 0.1291168055
H  H95  1  0.34930000  0.72030000  0.30000000  1.0 0.1291168055
H  H96  1  0.15070000  0.45070000  0.37100000  1.0 0.1291168055
H  H97  1  0.84300000  0.43890000  0.16350000  1.0 0.1200445442
H  H98  1  0.77540000  0.67950000  0.33650000  1.0 0.1200445442
H  H99  1  0.72460000  0.06110000  0.90410000  1.0 0.1200445442
H  H100  1  0.65700000  0.82050000  0.59590000  1.0 0.1200445442
H  H101  1  0.16350000  0.84300000  0.43890000  1.0 0.1200445442
H  H102  1  0.33650000  0.77540000  0.67950000  1.0 0.1200445442
H  H103  1  0.90410000  0.72460000  0.06110000  1.0 0.1200445442
H  H104  1  0.59590000  0.65700000  0.82050000  1.0 0.1200445442
H  H105  1  0.43890000  0.16350000  0.84300000  1.0 0.1200445442
H  H106  1  0.67950000  0.33650000  0.77540000  1.0 0.1200445442
H  H107  1  0.06110000  0.90410000  0.72460000  1.0 0.1200445442
H  H108  1  0.82050000  0.59590000  0.65700000  1.0 0.1200445442
H  H109  1  0.93890000  0.34300000  0.66350000  1.0 0.1200445442
H  H110  1  0.17950000  0.27540000  0.83650000  1.0 0.1200445442
H  H111  1  0.56110000  0.22460000  0.40410000  1.0 0.1200445442
H  H112  1  0.32050000  0.15700000  0.09590000  1.0 0.1200445442
H  H113  1  0.34300000  0.66350000  0.93890000  1.0 0.1200445442
H  H114  1  0.27540000  0.83650000  0.17950000  1.0 0.1200445442
H  H115  1  0.22460000  0.40410000  0.56110000  1.0 0.1200445442
H  H116  1  0.15700000  0.09590000  0.32050000  1.0 0.1200445442
H  H117  1  0.66350000  0.93890000  0.34300000  1.0 0.1200445442
H  H118  1  0.83650000  0.17950000  0.27540000  1.0 0.1200445442
H  H119  1  0.40410000  0.56110000  0.22460000  1.0 0.1200445442
H  H120  1  0.09590000  0.32050000  0.15700000  1.0 0.1200445442
H  H121  1  0.83590000  0.50330000  0.20960000  1.0 0.1407368959
H  H122  1  0.79370000  0.62630000  0.29040000  1.0 0.1407368959
H  H123  1  0.70630000  0.99670000  0.83260000  1.0 0.1407368959
H  H124  1  0.66410000  0.87370000  0.66740000  1.0 0.1407368959
H  H125  1  0.20960000  0.83590000  0.50330000  1.0 0.1407368959
H  H126  1  0.29040000  0.79370000  0.62630000  1.0 0.1407368959
H  H127  1  0.83260000  0.70630000  0.99670000  1.0 0.1407368959
H  H128  1  0.66740000  0.66410000  0.87370000  1.0 0.1407368959
H  H129  1  0.50330000  0.20960000  0.83590000  1.0 0.1407368959
H  H130  1  0.62630000  0.29040000  0.79370000  1.0 0.1407368959
H  H131  1  0.99670000  0.83260000  0.70630000  1.0 0.1407368959
H  H132  1  0.87370000  0.66740000  0.66410000  1.0 0.1407368959
H  H133  1  0.00330000  0.33590000  0.70960000  1.0 0.1407368959
H  H134  1  0.12630000  0.29370000  0.79040000  1.0 0.1407368959
H  H135  1  0.49670000  0.20630000  0.33260000  1.0 0.1407368959
H  H136  1  0.37370000  0.16410000  0.16740000  1.0 0.1407368959
H  H137  1  0.33590000  0.70960000  0.00330000  1.0 0.1407368959
H  H138  1  0.29370000  0.79040000  0.12630000  1.0 0.1407368959
H  H139  1  0.20630000  0.33260000  0.49670000  1.0 0.1407368959
H  H140  1  0.16410000  0.16740000  0.37370000  1.0 0.1407368959
H  H141  1  0.70960000  0.00330000  0.33590000  1.0 0.1407368959
H  H142  1  0.79040000  0.12630000  0.29370000  1.0 0.1407368959
H  H143  1  0.33260000  0.49670000  0.20630000  1.0 0.1407368959
H  H144  1  0.16740000  0.37370000  0.16410000  1.0 0.1407368959
H  H145  1  0.77180000  0.46650000  0.22330000  1.0 0.1200445442
H  H146  1  0.74320000  0.54850000  0.27670000  1.0 0.1200445442
H  H147  1  0.75680000  0.03350000  0.80530000  1.0 0.1200445442
H  H148  1  0.72820000  0.95150000  0.69470000  1.0 0.1200445442
H  H149  1  0.22330000  0.77180000  0.46650000  1.0 0.1200445442
H  H150  1  0.27670000  0.74320000  0.54850000  1.0 0.1200445442
H  H151  1  0.80530000  0.75680000  0.03350000  1.0 0.1200445442
H  H152  1  0.69470000  0.72820000  0.95150000  1.0 0.1200445442
H  H153  1  0.46650000  0.22330000  0.77180000  1.0 0.1200445442
H  H154  1  0.54850000  0.27670000  0.74320000  1.0 0.1200445442
H  H155  1  0.03350000  0.80530000  0.75680000  1.0 0.1200445442
H  H156  1  0.95150000  0.69470000  0.72820000  1.0 0.1200445442
H  H157  1  0.96650000  0.27180000  0.72330000  1.0 0.1200445442
H  H158  1  0.04850000  0.24320000  0.77670000  1.0 0.1200445442
H  H159  1  0.53350000  0.25680000  0.30530000  1.0 0.1200445442
H  H160  1  0.45150000  0.22820000  0.19470000  1.0 0.1200445442
H  H161  1  0.27180000  0.72330000  0.96650000  1.0 0.1200445442
H  H162  1  0.24320000  0.77670000  0.04850000  1.0 0.1200445442
H  H163  1  0.25680000  0.30530000  0.53350000  1.0 0.1200445442
H  H164  1  0.22820000  0.19470000  0.45150000  1.0 0.1200445442
H  H165  1  0.72330000  0.96650000  0.27180000  1.0 0.1200445442
H  H166  1  0.77670000  0.04850000  0.24320000  1.0 0.1200445442
H  H167  1  0.30530000  0.53350000  0.25680000  1.0 0.1200445442
H  H168  1  0.19470000  0.45150000  0.22820000  1.0 0.1200445442
H  H169  1  0.83580000  0.31160000  0.19000000  1.0 0.1139078123
H  H170  1  0.62160000  0.64580000  0.31000000  1.0 0.1139078123
H  H171  1  0.87840000  0.18840000  0.02420000  1.0 0.1139078123
H  H172  1  0.66420000  0.85420000  0.47580000  1.0 0.1139078123
H  H173  1  0.19000000  0.83580000  0.31160000  1.0 0.1139078123
H  H174  1  0.31000000  0.62160000  0.64580000  1.0 0.1139078123
H  H175  1  0.02420000  0.87840000  0.18840000  1.0 0.1139078123
H  H176  1  0.47580000  0.66420000  0.85420000  1.0 0.1139078123
H  H177  1  0.31160000  0.19000000  0.83580000  1.0 0.1139078123
H  H178  1  0.64580000  0.31000000  0.62160000  1.0 0.1139078123
H  H179  1  0.18840000  0.02420000  0.87840000  1.0 0.1139078123
H  H180  1  0.85420000  0.47580000  0.66420000  1.0 0.1139078123
H  H181  1  0.81160000  0.33580000  0.69000000  1.0 0.1139078123
H  H182  1  0.14580000  0.12160000  0.81000000  1.0 0.1139078123
H  H183  1  0.68840000  0.37840000  0.52420000  1.0 0.1139078123
H  H184  1  0.35420000  0.16420000  0.97580000  1.0 0.1139078123
H  H185  1  0.33580000  0.69000000  0.81160000  1.0 0.1139078123
H  H186  1  0.12160000  0.81000000  0.14580000  1.0 0.1139078123
H  H187  1  0.37840000  0.52420000  0.68840000  1.0 0.1139078123
H  H188  1  0.16420000  0.97580000  0.35420000  1.0 0.1139078123
H  H189  1  0.69000000  0.81160000  0.33580000  1.0 0.1139078123
H  H190  1  0.81000000  0.14580000  0.12160000  1.0 0.1139078123
H  H191  1  0.52420000  0.68840000  0.37840000  1.0 0.1139078123
H  H192  1  0.97580000  0.35420000  0.16420000  1.0 0.1139078123
H  H193  1  0.81840000  0.29280000  0.24620000  1.0 0.1407368959
H  H194  1  0.54660000  0.57220000  0.25380000  1.0 0.1407368959
H  H195  1  0.95340000  0.20720000  0.02560000  1.0 0.1407368959
H  H196  1  0.68160000  0.92780000  0.47440000  1.0 0.1407368959
H  H197  1  0.24620000  0.81840000  0.29280000  1.0 0.1407368959
H  H198  1  0.25380000  0.54660000  0.57220000  1.0 0.1407368959
H  H199  1  0.02560000  0.95340000  0.20720000  1.0 0.1407368959
H  H200  1  0.47440000  0.68160000  0.92780000  1.0 0.1407368959
H  H201  1  0.29280000  0.24620000  0.81840000  1.0 0.1407368959
H  H202  1  0.57220000  0.25380000  0.54660000  1.0 0.1407368959
H  H203  1  0.20720000  0.02560000  0.95340000  1.0 0.1407368959
H  H204  1  0.92780000  0.47440000  0.68160000  1.0 0.1407368959
H  H205  1  0.79280000  0.31840000  0.74620000  1.0 0.1407368959
H  H206  1  0.07220000  0.04660000  0.75380000  1.0 0.1407368959
H  H207  1  0.70720000  0.45340000  0.52560000  1.0 0.1407368959
H  H208  1  0.42780000  0.18160000  0.97440000  1.0 0.1407368959
H  H209  1  0.31840000  0.74620000  0.79280000  1.0 0.1407368959
H  H210  1  0.04660000  0.75380000  0.07220000  1.0 0.1407368959
H  H211  1  0.45340000  0.52560000  0.70720000  1.0 0.1407368959
H  H212  1  0.18160000  0.97440000  0.42780000  1.0 0.1407368959
H  H213  1  0.74620000  0.79280000  0.31840000  1.0 0.1407368959
H  H214  1  0.75380000  0.07220000  0.04660000  1.0 0.1407368959
H  H215  1  0.52560000  0.70720000  0.45340000  1.0 0.1407368959
H  H216  1  0.97440000  0.42780000  0.18160000  1.0 0.1407368959
H  H217  1  0.75660000  0.31140000  0.24720000  1.0 0.1200445442
H  H218  1  0.56420000  0.50940000  0.25280000  1.0 0.1200445442
H  H219  1  0.93580000  0.18860000  0.94520000  1.0 0.1200445442
H  H220  1  0.74340000  0.99060000  0.55480000  1.0 0.1200445442
H  H221  1  0.24720000  0.75660000  0.31140000  1.0 0.1200445442
H  H222  1  0.25280000  0.56420000  0.50940000  1.0 0.1200445442
H  H223  1  0.94520000  0.93580000  0.18860000  1.0 0.1200445442
H  H224  1  0.55480000  0.74340000  0.99060000  1.0 0.1200445442
H  H225  1  0.31140000  0.24720000  0.75660000  1.0 0.1200445442
H  H226  1  0.50940000  0.25280000  0.56420000  1.0 0.1200445442
H  H227  1  0.18860000  0.94520000  0.93580000  1.0 0.1200445442
H  H228  1  0.99060000  0.55480000  0.74340000  1.0 0.1200445442
H  H229  1  0.81140000  0.25660000  0.74720000  1.0 0.1200445442
H  H230  1  0.00940000  0.06420000  0.75280000  1.0 0.1200445442
H  H231  1  0.68860000  0.43580000  0.44520000  1.0 0.1200445442
H  H232  1  0.49060000  0.24340000  0.05480000  1.0 0.1200445442
H  H233  1  0.25660000  0.74720000  0.81140000  1.0 0.1200445442
H  H234  1  0.06420000  0.75280000  0.00940000  1.0 0.1200445442
H  H235  1  0.43580000  0.44520000  0.68860000  1.0 0.1200445442
H  H236  1  0.24340000  0.05480000  0.49060000  1.0 0.1200445442
H  H237  1  0.74720000  0.81140000  0.25660000  1.0 0.1200445442
H  H238  1  0.75280000  0.00940000  0.06420000  1.0 0.1200445442
H  H239  1  0.44520000  0.68860000  0.43580000  1.0 0.1200445442
H  H240  1  0.05480000  0.49060000  0.24340000  1.0 0.1200445442
H  H241  1  0.75690000  0.16400000  0.18930000  1.0 -0.1039596163
H  H242  1  0.47470000  0.56760000  0.31070000  1.0 -0.1039596163
H  H243  1  0.02530000  0.33600000  0.09290000  1.0 -0.1039596163
H  H244  1  0.74310000  0.93240000  0.40710000  1.0 -0.1039596163
H  H245  1  0.18930000  0.75690000  0.16400000  1.0 -0.1039596163
H  H246  1  0.31070000  0.47470000  0.56760000  1.0 -0.1039596163
H  H247  1  0.09290000  0.02530000  0.33600000  1.0 -0.1039596163
H  H248  1  0.40710000  0.74310000  0.93240000  1.0 -0.1039596163
H  H249  1  0.16400000  0.18930000  0.75690000  1.0 -0.1039596163
H  H250  1  0.56760000  0.31070000  0.47470000  1.0 -0.1039596163
H  H251  1  0.33600000  0.09290000  0.02530000  1.0 -0.1039596163
H  H252  1  0.93240000  0.40710000  0.74310000  1.0 -0.1039596163
H  H253  1  0.66400000  0.25690000  0.68930000  1.0 -0.1039596163
H  H254  1  0.06760000  0.97470000  0.81070000  1.0 -0.1039596163
H  H255  1  0.83600000  0.52530000  0.59290000  1.0 -0.1039596163
H  H256  1  0.43240000  0.24310000  0.90710000  1.0 -0.1039596163
H  H257  1  0.25690000  0.68930000  0.66400000  1.0 -0.1039596163
H  H258  1  0.97470000  0.81070000  0.06760000  1.0 -0.1039596163
H  H259  1  0.52530000  0.59290000  0.83600000  1.0 -0.1039596163
H  H260  1  0.24310000  0.90710000  0.43240000  1.0 -0.1039596163
H  H261  1  0.68930000  0.66400000  0.25690000  1.0 -0.1039596163
H  H262  1  0.81070000  0.06760000  0.97470000  1.0 -0.1039596163
H  H263  1  0.59290000  0.83600000  0.52530000  1.0 -0.1039596163
H  H264  1  0.90710000  0.43240000  0.24310000  1.0 -0.1039596163
H  H265  1  0.64890000  0.17000000  0.25590000  1.0 0.1407368959
H  H266  1  0.41410000  0.39300000  0.24410000  1.0 0.1407368959
H  H267  1  0.08590000  0.33000000  0.97890000  1.0 0.1407368959
H  H268  1  0.85110000  0.10700000  0.52110000  1.0 0.1407368959
H  H269  1  0.25590000  0.64890000  0.17000000  1.0 0.1407368959
H  H270  1  0.24410000  0.41410000  0.39300000  1.0 0.1407368959
H  H271  1  0.97890000  0.08590000  0.33000000  1.0 0.1407368959
H  H272  1  0.52110000  0.85110000  0.10700000  1.0 0.1407368959
H  H273  1  0.17000000  0.25590000  0.64890000  1.0 0.1407368959
H  H274  1  0.39300000  0.24410000  0.41410000  1.0 0.1407368959
H  H275  1  0.33000000  0.97890000  0.08590000  1.0 0.1407368959
H  H276  1  0.10700000  0.52110000  0.85110000  1.0 0.1407368959
H  H277  1  0.67000000  0.14890000  0.75590000  1.0 0.1407368959
H  H278  1  0.89300000  0.91410000  0.74410000  1.0 0.1407368959
H  H279  1  0.83000000  0.58590000  0.47890000  1.0 0.1407368959
H  H280  1  0.60700000  0.35110000  0.02110000  1.0 0.1407368959
H  H281  1  0.14890000  0.75590000  0.67000000  1.0 0.1407368959
H  H282  1  0.91410000  0.74410000  0.89300000  1.0 0.1407368959
H  H283  1  0.58590000  0.47890000  0.83000000  1.0 0.1407368959
H  H284  1  0.35110000  0.02110000  0.60700000  1.0 0.1407368959
H  H285  1  0.75590000  0.67000000  0.14890000  1.0 0.1407368959
H  H286  1  0.74410000  0.89300000  0.91410000  1.0 0.1407368959
H  H287  1  0.47890000  0.83000000  0.58590000  1.0 0.1407368959
H  H288  1  0.02110000  0.60700000  0.35110000  1.0 0.1407368959
H  H289  1  0.75600000  0.21010000  0.13810000  1.0 0.1200445442
H  H290  1  0.57200000  0.61790000  0.36190000  1.0 0.1200445442
H  H291  1  0.92800000  0.28990000  0.04590000  1.0 0.1200445442
H  H292  1  0.74400000  0.88210000  0.45410000  1.0 0.1200445442
H  H293  1  0.13810000  0.75600000  0.21010000  1.0 0.1200445442
H  H294  1  0.36190000  0.57200000  0.61790000  1.0 0.1200445442
H  H295  1  0.04590000  0.92800000  0.28990000  1.0 0.1200445442
H  H296  1  0.45410000  0.74400000  0.88210000  1.0 0.1200445442
H  H297  1  0.21010000  0.13810000  0.75600000  1.0 0.1200445442
H  H298  1  0.61790000  0.36190000  0.57200000  1.0 0.1200445442
H  H299  1  0.28990000  0.04590000  0.92800000  1.0 0.1200445442
H  H300  1  0.88210000  0.45410000  0.74400000  1.0 0.1200445442
H  H301  1  0.71010000  0.25600000  0.63810000  1.0 0.1200445442
H  H302  1  0.11790000  0.07200000  0.86190000  1.0 0.1200445442
H  H303  1  0.78990000  0.42800000  0.54590000  1.0 0.1200445442
H  H304  1  0.38210000  0.24400000  0.95410000  1.0 0.1200445442
H  H305  1  0.25600000  0.63810000  0.71010000  1.0 0.1200445442
H  H306  1  0.07200000  0.86190000  0.11790000  1.0 0.1200445442
H  H307  1  0.42800000  0.54590000  0.78990000  1.0 0.1200445442
H  H308  1  0.24400000  0.95410000  0.38210000  1.0 0.1200445442
H  H309  1  0.63810000  0.71010000  0.25600000  1.0 0.1200445442
H  H310  1  0.86190000  0.11790000  0.07200000  1.0 0.1200445442
H  H311  1  0.54590000  0.78990000  0.42800000  1.0 0.1200445442
H  H312  1  0.95410000  0.38210000  0.24400000  1.0 0.1200445442
H  H313  1  0.70070000  0.22420000  0.09330000  1.0 0.1291168055
H  H314  1  0.63090000  0.60740000  0.40670000  1.0 0.1291168055
H  H315  1  0.86910000  0.27580000  0.97650000  1.0 0.1291168055
H  H316  1  0.79930000  0.89260000  0.52350000  1.0 0.1291168055
H  H317  1  0.09330000  0.70070000  0.22420000  1.0 0.1291168055
H  H318  1  0.40670000  0.63090000  0.60740000  1.0 0.1291168055
H  H319  1  0.97650000  0.86910000  0.27580000  1.0 0.1291168055
H  H320  1  0.52350000  0.79930000  0.89260000  1.0 0.1291168055
H  H321  1  0.22420000  0.09330000  0.70070000  1.0 0.1291168055
H  H322  1  0.60740000  0.40670000  0.63090000  1.0 0.1291168055
H  H323  1  0.27580000  0.97650000  0.86910000  1.0 0.1291168055
H  H324  1  0.89260000  0.52350000  0.79930000  1.0 0.1291168055
H  H325  1  0.72420000  0.20070000  0.59330000  1.0 0.1291168055
H  H326  1  0.10740000  0.13090000  0.90670000  1.0 0.1291168055
H  H327  1  0.77580000  0.36910000  0.47650000  1.0 0.1291168055
H  H328  1  0.39260000  0.29930000  0.02350000  1.0 0.1291168055
H  H329  1  0.20070000  0.59330000  0.72420000  1.0 0.1291168055
H  H330  1  0.13090000  0.90670000  0.10740000  1.0 0.1291168055
H  H331  1  0.36910000  0.47650000  0.77580000  1.0 0.1291168055
H  H332  1  0.29930000  0.02350000  0.39260000  1.0 0.1291168055
H  H333  1  0.59330000  0.72420000  0.20070000  1.0 0.1291168055
H  H334  1  0.90670000  0.10740000  0.13090000  1.0 0.1291168055
H  H335  1  0.47650000  0.77580000  0.36910000  1.0 0.1291168055
H  H336  1  0.02350000  0.39260000  0.29930000  1.0 0.1291168055
H  H337  1  0.62740000  0.18250000  0.09190000  1.0 0.1291168055
H  H338  1  0.59060000  0.53550000  0.40810000  1.0 0.1291168055
H  H339  1  0.90940000  0.31750000  0.94490000  1.0 0.1291168055
H  H340  1  0.87260000  0.96450000  0.55510000  1.0 0.1291168055
H  H341  1  0.09190000  0.62740000  0.18250000  1.0 0.1291168055
H  H342  1  0.40810000  0.59060000  0.53550000  1.0 0.1291168055
H  H343  1  0.94490000  0.90940000  0.31750000  1.0 0.1291168055
H  H344  1  0.55510000  0.87260000  0.96450000  1.0 0.1291168055
H  H345  1  0.18250000  0.09190000  0.62740000  1.0 0.1291168055
H  H346  1  0.53550000  0.40810000  0.59060000  1.0 0.1291168055
H  H347  1  0.31750000  0.94490000  0.90940000  1.0 0.1291168055
H  H348  1  0.96450000  0.55510000  0.87260000  1.0 0.1291168055
H  H349  1  0.68250000  0.12740000  0.59190000  1.0 0.1291168055
H  H350  1  0.03550000  0.09060000  0.90810000  1.0 0.1291168055
H  H351  1  0.81750000  0.40940000  0.44490000  1.0 0.1291168055
H  H352  1  0.46450000  0.37260000  0.05510000  1.0 0.1291168055
H  H353  1  0.12740000  0.59190000  0.68250000  1.0 0.1291168055
H  H354  1  0.09060000  0.90810000  0.03550000  1.0 0.1291168055
H  H355  1  0.40940000  0.44490000  0.81750000  1.0 0.1291168055
H  H356  1  0.37260000  0.05510000  0.46450000  1.0 0.1291168055
H  H357  1  0.59190000  0.68250000  0.12740000  1.0 0.1291168055
H  H358  1  0.90810000  0.03550000  0.09060000  1.0 0.1291168055
H  H359  1  0.44490000  0.81750000  0.40940000  1.0 0.1291168055
H  H360  1  0.05510000  0.46450000  0.37260000  1.0 0.1291168055
H  H361  1  0.73530000  0.07140000  0.14650000  1.0 0.1139078123
H  H362  1  0.42490000  0.58880000  0.35350000  1.0 0.1139078123
H  H363  1  0.07510000  0.42860000  0.16390000  1.0 0.1139078123
H  H364  1  0.76470000  0.91120000  0.33610000  1.0 0.1139078123
H  H365  1  0.14650000  0.73530000  0.07140000  1.0 0.1139078123
H  H366  1  0.35350000  0.42490000  0.58880000  1.0 0.1139078123
H  H367  1  0.16390000  0.07510000  0.42860000  1.0 0.1139078123
H  H368  1  0.33610000  0.76470000  0.91120000  1.0 0.1139078123
H  H369  1  0.07140000  0.14650000  0.73530000  1.0 0.1139078123
H  H370  1  0.58880000  0.35350000  0.42490000  1.0 0.1139078123
H  H371  1  0.42860000  0.16390000  0.07510000  1.0 0.1139078123
H  H372  1  0.91120000  0.33610000  0.76470000  1.0 0.1139078123
H  H373  1  0.57140000  0.23530000  0.64650000  1.0 0.1139078123
H  H374  1  0.08880000  0.92490000  0.85350000  1.0 0.1139078123
H  H375  1  0.92860000  0.57510000  0.66390000  1.0 0.1139078123
H  H376  1  0.41120000  0.26470000  0.83610000  1.0 0.1139078123
H  H377  1  0.23530000  0.64650000  0.57140000  1.0 0.1139078123
H  H378  1  0.92490000  0.85350000  0.08880000  1.0 0.1139078123
H  H379  1  0.57510000  0.66390000  0.92860000  1.0 0.1139078123
H  H380  1  0.26470000  0.83610000  0.41120000  1.0 0.1139078123
H  H381  1  0.64650000  0.57140000  0.23530000  1.0 0.1139078123
H  H382  1  0.85350000  0.08880000  0.92490000  1.0 0.1139078123
H  H383  1  0.66390000  0.92860000  0.57510000  1.0 0.1139078123
H  H384  1  0.83610000  0.41120000  0.26470000  1.0 0.1139078123
H  H385  1  0.66270000  0.99600000  0.10030000  1.0 0.1494237699
H  H386  1  0.39570000  0.56240000  0.39970000  1.0 0.1494237699
H  H387  1  0.10430000  0.50400000  0.16670000  1.0 0.1494237699
H  H388  1  0.83730000  0.93760000  0.33333333  1.0 0.1494237699
H  H389  1  0.10030000  0.66270000  0.99600000  1.0 0.1494237699
H  H390  1  0.39970000  0.39570000  0.56240000  1.0 0.1494237699
H  H391  1  0.16670000  0.10430000  0.50400000  1.0 0.1494237699
H  H392  1  0.33333333  0.83730000  0.93760000  1.0 0.1494237699
H  H393  1  0.99600000  0.10030000  0.66270000  1.0 0.1494237699
H  H394  1  0.56240000  0.39970000  0.39570000  1.0 0.1494237699
H  H395  1  0.50400000  0.16670000  0.10430000  1.0 0.1494237699
H  H396  1  0.93760000  0.33333333  0.83730000  1.0 0.1494237699
H  H397  1  0.49600000  0.16270000  0.60030000  1.0 0.1494237699
H  H398  1  0.06240000  0.89570000  0.89970000  1.0 0.1494237699
H  H399  1  0.00400000  0.60430000  0.66666667  1.0 0.1494237699
H  H400  1  0.43760000  0.33730000  0.83330000  1.0 0.1494237699
H  H401  1  0.16270000  0.60030000  0.49600000  1.0 0.1494237699
H  H402  1  0.89570000  0.89970000  0.06240000  1.0 0.1494237699
H  H403  1  0.60430000  0.66666667  0.00400000  1.0 0.1494237699
H  H404  1  0.33730000  0.83330000  0.43760000  1.0 0.1494237699
H  H405  1  0.60030000  0.49600000  0.16270000  1.0 0.1494237699
H  H406  1  0.89970000  0.06240000  0.89570000  1.0 0.1494237699
H  H407  1  0.66666667  0.00400000  0.60430000  1.0 0.1494237699
H  H408  1  0.83330000  0.43760000  0.33730000  1.0 0.1494237699
H  H409  1  0.59940000  0.01290000  0.09070000  1.0 0.1494237699
H  H410  1  0.42220000  0.50870000  0.40930000  1.0 0.1494237699
H  H411  1  0.07780000  0.48710000  0.08650000  1.0 0.1494237699
H  H412  1  0.90060000  0.99130000  0.41350000  1.0 0.1494237699
H  H413  1  0.09070000  0.59940000  0.01290000  1.0 0.1494237699
H  H414  1  0.40930000  0.42220000  0.50870000  1.0 0.1494237699
H  H415  1  0.08650000  0.07780000  0.48710000  1.0 0.1494237699
H  H416  1  0.41350000  0.90060000  0.99130000  1.0 0.1494237699
H  H417  1  0.01290000  0.09070000  0.59940000  1.0 0.1494237699
H  H418  1  0.50870000  0.40930000  0.42220000  1.0 0.1494237699
H  H419  1  0.48710000  0.08650000  0.07780000  1.0 0.1494237699
H  H420  1  0.99130000  0.41350000  0.90060000  1.0 0.1494237699
H  H421  1  0.51290000  0.09940000  0.59070000  1.0 0.1494237699
H  H422  1  0.00870000  0.92220000  0.90930000  1.0 0.1494237699
H  H423  1  0.98710000  0.57780000  0.58650000  1.0 0.1494237699
H  H424  1  0.49130000  0.40060000  0.91350000  1.0 0.1494237699
H  H425  1  0.09940000  0.59070000  0.51290000  1.0 0.1494237699
H  H426  1  0.92220000  0.90930000  0.00870000  1.0 0.1494237699
H  H427  1  0.57780000  0.58650000  0.98710000  1.0 0.1494237699
H  H428  1  0.40060000  0.91350000  0.49130000  1.0 0.1494237699
H  H429  1  0.59070000  0.51290000  0.09940000  1.0 0.1494237699
H  H430  1  0.90930000  0.00870000  0.92220000  1.0 0.1494237699
H  H431  1  0.58650000  0.98710000  0.57780000  1.0 0.1494237699
H  H432  1  0.91350000  0.49130000  0.40060000  1.0 0.1494237699
C  C1  1  0.57950000  0.07983000  0.15313000  1.0 0.0590580787
C  C2  1  0.42670000  0.42637000  0.34687000  1.0 0.0590580787
C  C3  1  0.07330000  0.42017000  0.99967000  1.0 0.0590580787
C  C4  1  0.92050000  0.07363000  0.50033000  1.0 0.0590580787
C  C5  1  0.15313000  0.57950000  0.07983000  1.0 0.0590580787
C  C6  1  0.34687000  0.42670000  0.42637000  1.0 0.0590580787
C  C7  1  0.99967000  0.07330000  0.42017000  1.0 0.0590580787
C  C8  1  0.50033000  0.92050000  0.07363000  1.0 0.0590580787
C  C9  1  0.07983000  0.15313000  0.57950000  1.0 0.0590580787
C  C10  1  0.42637000  0.34687000  0.42670000  1.0 0.0590580787
C  C11  1  0.42017000  0.99967000  0.07330000  1.0 0.0590580787
C  C12  1  0.07363000  0.50033000  0.92050000  1.0 0.0590580787
C  C13  1  0.57983000  0.07950000  0.65313000  1.0 0.0590580787
C  C14  1  0.92637000  0.92670000  0.84687000  1.0 0.0590580787
C  C15  1  0.92017000  0.57330000  0.49967000  1.0 0.0590580787
C  C16  1  0.57363000  0.42050000  0.00033000  1.0 0.0590580787
C  C17  1  0.07950000  0.65313000  0.57983000  1.0 0.0590580787
C  C18  1  0.92670000  0.84687000  0.92637000  1.0 0.0590580787
C  C19  1  0.57330000  0.49967000  0.92017000  1.0 0.0590580787
C  C20  1  0.42050000  0.00033000  0.57363000  1.0 0.0590580787
C  C21  1  0.65313000  0.57983000  0.07950000  1.0 0.0590580787
C  C22  1  0.84687000  0.92637000  0.92670000  1.0 0.0590580787
C  C23  1  0.49967000  0.92017000  0.57330000  1.0 0.0590580787
C  C24  1  0.00033000  0.57363000  0.42050000  1.0 0.0590580787
C  C25  1  0.57413000  0.08393000  0.07980000  1.0 0.0398135548
C  C26  1  0.50413000  0.49433000  0.42020000  1.0 0.0398135548
C  C27  1  0.99587000  0.41607000  0.99020000  1.0 0.0398135548
C  C28  1  0.92587000  0.00567000  0.50980000  1.0 0.0398135548
C  C29  1  0.07980000  0.57413000  0.08393000  1.0 0.0398135548
C  C30  1  0.42020000  0.50413000  0.49433000  1.0 0.0398135548
C  C31  1  0.99020000  0.99587000  0.41607000  1.0 0.0398135548
C  C32  1  0.50980000  0.92587000  0.00567000  1.0 0.0398135548
C  C33  1  0.08393000  0.07980000  0.57413000  1.0 0.0398135548
C  C34  1  0.49433000  0.42020000  0.50413000  1.0 0.0398135548
C  C35  1  0.41607000  0.99020000  0.99587000  1.0 0.0398135548
C  C36  1  0.00567000  0.50980000  0.92587000  1.0 0.0398135548
C  C37  1  0.58393000  0.07413000  0.57980000  1.0 0.0398135548
C  C38  1  0.99433000  0.00413000  0.92020000  1.0 0.0398135548
C  C39  1  0.91607000  0.49587000  0.49020000  1.0 0.0398135548
C  C40  1  0.50567000  0.42587000  0.00980000  1.0 0.0398135548
C  C41  1  0.07413000  0.57980000  0.58393000  1.0 0.0398135548
C  C42  1  0.00413000  0.92020000  0.99433000  1.0 0.0398135548
C  C43  1  0.49587000  0.49020000  0.91607000  1.0 0.0398135548
C  C44  1  0.42587000  0.00980000  0.50567000  1.0 0.0398135548
C  C45  1  0.57980000  0.58393000  0.07413000  1.0 0.0398135548
C  C46  1  0.92020000  0.99433000  0.00413000  1.0 0.0398135548
C  C47  1  0.49020000  0.91607000  0.49587000  1.0 0.0398135548
C  C48  1  0.00980000  0.50567000  0.42587000  1.0 0.0398135548
C  C49  1  0.62421000  0.29241000  0.29908000  1.0 0.0535309853
C  C50  1  0.49333000  0.32513000  0.20092000  1.0 0.0535309853
C  C51  1  0.00667000  0.20759000  0.83180000  1.0 0.0535309853
C  C52  1  0.87579000  0.17487000  0.66820000  1.0 0.0535309853
C  C53  1  0.29908000  0.62421000  0.29241000  1.0 0.0535309853
C  C54  1  0.20092000  0.49333000  0.32513000  1.0 0.0535309853
C  C55  1  0.83180000  0.00667000  0.20759000  1.0 0.0535309853
C  C56  1  0.66820000  0.87579000  0.17487000  1.0 0.0535309853
C  C57  1  0.29241000  0.29908000  0.62421000  1.0 0.0535309853
C  C58  1  0.32513000  0.20092000  0.49333000  1.0 0.0535309853
C  C59  1  0.20759000  0.83180000  0.00667000  1.0 0.0535309853
C  C60  1  0.17487000  0.66820000  0.87579000  1.0 0.0535309853
C  C61  1  0.79241000  0.12421000  0.79908000  1.0 0.0535309853
C  C62  1  0.82513000  0.99333000  0.70092000  1.0 0.0535309853
C  C63  1  0.70759000  0.50667000  0.33180000  1.0 0.0535309853
C  C64  1  0.67487000  0.37579000  0.16820000  1.0 0.0535309853
C  C65  1  0.12421000  0.79908000  0.79241000  1.0 0.0535309853
C  C66  1  0.99333000  0.70092000  0.82513000  1.0 0.0535309853
C  C67  1  0.50667000  0.33180000  0.70759000  1.0 0.0535309853
C  C68  1  0.37579000  0.16820000  0.67487000  1.0 0.0535309853
C  C69  1  0.79908000  0.79241000  0.12421000  1.0 0.0535309853
C  C70  1  0.70092000  0.82513000  0.99333000  1.0 0.0535309853
C  C71  1  0.33180000  0.70759000  0.50667000  1.0 0.0535309853
C  C72  1  0.16820000  0.67487000  0.37579000  1.0 0.0535309853
C  C73  1  0.51212000  0.26350000  0.15610000  1.0 0.0590580787
C  C74  1  0.60740000  0.35602000  0.34390000  1.0 0.0590580787
C  C75  1  0.89260000  0.23650000  0.74862000  1.0 0.0590580787
C  C76  1  0.98788000  0.14398000  0.75138000  1.0 0.0590580787
C  C77  1  0.15610000  0.51212000  0.26350000  1.0 0.0590580787
C  C78  1  0.34390000  0.60740000  0.35602000  1.0 0.0590580787
C  C79  1  0.74862000  0.89260000  0.23650000  1.0 0.0590580787
C  C80  1  0.75138000  0.98788000  0.14398000  1.0 0.0590580787
C  C81  1  0.26350000  0.15610000  0.51212000  1.0 0.0590580787
C  C82  1  0.35602000  0.34390000  0.60740000  1.0 0.0590580787
C  C83  1  0.23650000  0.74862000  0.89260000  1.0 0.0590580787
C  C84  1  0.14398000  0.75138000  0.98788000  1.0 0.0590580787
C  C85  1  0.76350000  0.01212000  0.65610000  1.0 0.0590580787
C  C86  1  0.85602000  0.10740000  0.84390000  1.0 0.0590580787
C  C87  1  0.73650000  0.39260000  0.24862000  1.0 0.0590580787
C  C88  1  0.64398000  0.48788000  0.25138000  1.0 0.0590580787
C  C89  1  0.01212000  0.65610000  0.76350000  1.0 0.0590580787
C  C90  1  0.10740000  0.84390000  0.85602000  1.0 0.0590580787
C  C91  1  0.39260000  0.24862000  0.73650000  1.0 0.0590580787
C  C92  1  0.48788000  0.25138000  0.64398000  1.0 0.0590580787
C  C93  1  0.65610000  0.76350000  0.01212000  1.0 0.0590580787
C  C94  1  0.84390000  0.85602000  0.10740000  1.0 0.0590580787
C  C95  1  0.24862000  0.73650000  0.39260000  1.0 0.0590580787
C  C96  1  0.25138000  0.64398000  0.48788000  1.0 0.0590580787
C  C97  1  0.59593000  0.16010000  0.15643000  1.0 0.0590580787
C  C98  1  0.50367000  0.43950000  0.34357000  1.0 0.0590580787
C  C99  1  0.99633000  0.33990000  0.93583000  1.0 0.0590580787
C  C100  1  0.90407000  0.06050000  0.56417000  1.0 0.0590580787
C  C101  1  0.15643000  0.59593000  0.16010000  1.0 0.0590580787
C  C102  1  0.34357000  0.50367000  0.43950000  1.0 0.0590580787
C  C103  1  0.93583000  0.99633000  0.33990000  1.0 0.0590580787
C  C104  1  0.56417000  0.90407000  0.06050000  1.0 0.0590580787
C  C105  1  0.16010000  0.15643000  0.59593000  1.0 0.0590580787
C  C106  1  0.43950000  0.34357000  0.50367000  1.0 0.0590580787
C  C107  1  0.33990000  0.93583000  0.99633000  1.0 0.0590580787
C  C108  1  0.06050000  0.56417000  0.90407000  1.0 0.0590580787
C  C109  1  0.66010000  0.09593000  0.65643000  1.0 0.0590580787
C  C110  1  0.93950000  0.00367000  0.84357000  1.0 0.0590580787
C  C111  1  0.83990000  0.49633000  0.43583000  1.0 0.0590580787
C  C112  1  0.56050000  0.40407000  0.06417000  1.0 0.0590580787
C  C113  1  0.09593000  0.65643000  0.66010000  1.0 0.0590580787
C  C114  1  0.00367000  0.84357000  0.93950000  1.0 0.0590580787
C  C115  1  0.49633000  0.43583000  0.83990000  1.0 0.0590580787
C  C116  1  0.40407000  0.06417000  0.56050000  1.0 0.0590580787
C  C117  1  0.65643000  0.66010000  0.09593000  1.0 0.0590580787
C  C118  1  0.84357000  0.93950000  0.00367000  1.0 0.0590580787
C  C119  1  0.43583000  0.83990000  0.49633000  1.0 0.0590580787
C  C120  1  0.06417000  0.56050000  0.40407000  1.0 0.0590580787
C  C121  1  0.67033000  0.30835000  0.18468000  1.0 0.0535309853
C  C122  1  0.62367000  0.48565000  0.31532000  1.0 0.0535309853
C  C123  1  0.87633000  0.19165000  0.86198000  1.0 0.0535309853
C  C124  1  0.82967000  0.01435000  0.63802000  1.0 0.0535309853
C  C125  1  0.18468000  0.67033000  0.30835000  1.0 0.0535309853
C  C126  1  0.31532000  0.62367000  0.48565000  1.0 0.0535309853
C  C127  1  0.86198000  0.87633000  0.19165000  1.0 0.0535309853
C  C128  1  0.63802000  0.82967000  0.01435000  1.0 0.0590580787
C  C129  1  0.30835000  0.18468000  0.67033000  1.0 0.0535309853
C  C130  1  0.48565000  0.31532000  0.62367000  1.0 0.0535309853
C  C131  1  0.19165000  0.86198000  0.87633000  1.0 0.0535309853
C  C132  1  0.01435000  0.63802000  0.82967000  1.0 0.0535309853
C  C133  1  0.80835000  0.17033000  0.68468000  1.0 0.0535309853
C  C134  1  0.98565000  0.12367000  0.81532000  1.0 0.0535309853
C  C135  1  0.69165000  0.37633000  0.36198000  1.0 0.0535309853
C  C136  1  0.51435000  0.32967000  0.13802000  1.0 0.0535309853
C  C137  1  0.17033000  0.68468000  0.80835000  1.0 0.0535309853
C  C138  1  0.12367000  0.81532000  0.98565000  1.0 0.0535309853
C  C139  1  0.37633000  0.36198000  0.69165000  1.0 0.0535309853
C  C140  1  0.32967000  0.13802000  0.51435000  1.0 0.0535309853
C  C141  1  0.68468000  0.80835000  0.17033000  1.0 0.0535309853
C  C142  1  0.81532000  0.98565000  0.12367000  1.0 0.0535309853
C  C143  1  0.36198000  0.69165000  0.37633000  1.0 0.0535309853
C  C144  1  0.13802000  0.51435000  0.32967000  1.0 0.0535309853
C  C145  1  0.71100000  0.28790000  0.06230000  1.0 -0.0286986053
C  C146  1  0.72560000  0.64870000  0.43770000  1.0 -0.0286986053
C  C147  1  0.77440000  0.21210000  0.92310000  1.0 -0.0286986053
C  C148  1  0.78900000  0.85130000  0.57690000  1.0 -0.0286986053
C  C149  1  0.06230000  0.71100000  0.28790000  1.0 -0.0286986053
C  C150  1  0.43770000  0.72560000  0.64870000  1.0 -0.0286986053
C  C151  1  0.92310000  0.77440000  0.21210000  1.0 -0.0286986053
C  C152  1  0.57690000  0.78900000  0.85130000  1.0 -0.0286986053
C  C153  1  0.28790000  0.06230000  0.71100000  1.0 -0.0286986053
C  C154  1  0.64870000  0.43770000  0.72560000  1.0 -0.0286986053
C  C155  1  0.21210000  0.92310000  0.77440000  1.0 -0.0286986053
C  C156  1  0.85130000  0.57690000  0.78900000  1.0 -0.0286986053
C  C157  1  0.78790000  0.21100000  0.56230000  1.0 -0.0286986053
C  C158  1  0.14870000  0.22560000  0.93770000  1.0 -0.0286986053
C  C159  1  0.71210000  0.27440000  0.42310000  1.0 -0.0286986053
C  C160  1  0.35130000  0.28900000  0.07690000  1.0 -0.0286986053
C  C161  1  0.21100000  0.56230000  0.78790000  1.0 -0.0286986053
C  C162  1  0.22560000  0.93770000  0.14870000  1.0 -0.0286986053
C  C163  1  0.27440000  0.42310000  0.71210000  1.0 -0.0286986053
C  C164  1  0.28900000  0.07690000  0.35130000  1.0 -0.0286986053
C  C165  1  0.56230000  0.78790000  0.21100000  1.0 -0.0286986053
C  C166  1  0.93770000  0.14870000  0.22560000  1.0 -0.0286986053
C  C167  1  0.42310000  0.71210000  0.27440000  1.0 -0.0286986053
C  C168  1  0.07690000  0.35130000  0.28900000  1.0 -0.0286986053
C  C169  1  0.66480000  0.26910000  0.04470000  1.0 -0.2094921662
C  C170  1  0.72440000  0.62010000  0.45530000  1.0 -0.2094921662
C  C171  1  0.77560000  0.23090000  0.89570000  1.0 -0.2094921662
C  C172  1  0.83520000  0.87990000  0.60430000  1.0 -0.2094921662
C  C173  1  0.04470000  0.66480000  0.26910000  1.0 -0.2094921662
C  C174  1  0.45530000  0.72440000  0.62010000  1.0 -0.2094921662
C  C175  1  0.89570000  0.77560000  0.23090000  1.0 -0.2094921662
C  C176  1  0.60430000  0.83520000  0.87990000  1.0 -0.2094921662
C  C177  1  0.26910000  0.04470000  0.66480000  1.0 -0.2094921662
C  C178  1  0.62010000  0.45530000  0.72440000  1.0 -0.2094921662
C  C179  1  0.23090000  0.89570000  0.77560000  1.0 -0.2094921662
C  C180  1  0.87990000  0.60430000  0.83520000  1.0 -0.2094921662
C  C181  1  0.76910000  0.16480000  0.54470000  1.0 -0.2094921662
C  C182  1  0.12010000  0.22440000  0.95530000  1.0 -0.2094921662
C  C183  1  0.73090000  0.27560000  0.39570000  1.0 -0.2094921662
C  C184  1  0.37990000  0.33520000  0.10430000  1.0 -0.2094921662
C  C185  1  0.16480000  0.54470000  0.76910000  1.0 -0.2094921662
C  C186  1  0.22440000  0.95530000  0.12010000  1.0 -0.2094921662
C  C187  1  0.27560000  0.39570000  0.73090000  1.0 -0.2094921662
C  C188  1  0.33520000  0.10430000  0.37990000  1.0 -0.2094921662
C  C189  1  0.54470000  0.76910000  0.16480000  1.0 -0.2094921662
C  C190  1  0.95530000  0.12010000  0.22440000  1.0 -0.2094921662
C  C191  1  0.39570000  0.73090000  0.27560000  1.0 -0.2094921662
C  C192  1  0.10430000  0.37990000  0.33520000  1.0 -0.2094921662
C  C193  1  0.65781000  0.28737000  0.08158000  1.0 -0.013236476
C  C194  1  0.70579000  0.57623000  0.41842000  1.0 -0.013236476
C  C195  1  0.79421000  0.21263000  0.87044000  1.0 -0.013236476
C  C196  1  0.84219000  0.92377000  0.62956000  1.0 -0.013236476
C  C197  1  0.08158000  0.65781000  0.28737000  1.0 -0.013236476
C  C198  1  0.41842000  0.70579000  0.57623000  1.0 -0.013236476
C  C199  1  0.87044000  0.79421000  0.21263000  1.0 -0.013236476
C  C200  1  0.62956000  0.84219000  0.92377000  1.0 -0.013236476
C  C201  1  0.28737000  0.08158000  0.65781000  1.0 -0.013236476
C  C202  1  0.57623000  0.41842000  0.70579000  1.0 -0.013236476
C  C203  1  0.21263000  0.87044000  0.79421000  1.0 -0.013236476
C  C204  1  0.92377000  0.62956000  0.84219000  1.0 -0.013236476
C  C205  1  0.78737000  0.15781000  0.58158000  1.0 -0.013236476
C  C206  1  0.07623000  0.20579000  0.91842000  1.0 -0.013236476
C  C207  1  0.71263000  0.29421000  0.37044000  1.0 -0.013236476
C  C208  1  0.42377000  0.34219000  0.12956000  1.0 -0.013236476
C  C209  1  0.15781000  0.58158000  0.78737000  1.0 -0.013236476
C  C210  1  0.20579000  0.91842000  0.07623000  1.0 -0.013236476
C  C211  1  0.29421000  0.37044000  0.71263000  1.0 -0.013236476
C  C212  1  0.34219000  0.12956000  0.42377000  1.0 -0.013236476
C  C213  1  0.58158000  0.78737000  0.15781000  1.0 -0.013236476
C  C214  1  0.91842000  0.07623000  0.20579000  1.0 -0.013236476
C  C215  1  0.37044000  0.71263000  0.29421000  1.0 -0.013236476
C  C216  1  0.12956000  0.42377000  0.34219000  1.0 -0.013236476
C  C217  1  0.82250000  0.43640000  0.17490000  1.0 -0.0387244485
C  C218  1  0.76150000  0.64760000  0.32510000  1.0 -0.0387244485
C  C219  1  0.73850000  0.06360000  0.88610000  1.0 -0.0387244485
C  C220  1  0.67750000  0.85240000  0.61390000  1.0 -0.0387244485
C  C221  1  0.17490000  0.82250000  0.43640000  1.0 -0.0387244485
C  C222  1  0.32510000  0.76150000  0.64760000  1.0 -0.0387244485
C  C223  1  0.88610000  0.73850000  0.06360000  1.0 -0.0387244485
C  C224  1  0.61390000  0.67750000  0.85240000  1.0 -0.0387244485
C  C225  1  0.43640000  0.17490000  0.82250000  1.0 -0.0387244485
C  C226  1  0.64760000  0.32510000  0.76150000  1.0 -0.0387244485
C  C227  1  0.06360000  0.88610000  0.73850000  1.0 -0.0387244485
C  C228  1  0.85240000  0.61390000  0.67750000  1.0 -0.0387244485
C  C229  1  0.93640000  0.32250000  0.67490000  1.0 -0.0387244485
C  C230  1  0.14760000  0.26150000  0.82510000  1.0 -0.0387244485
C  C231  1  0.56360000  0.23850000  0.38610000  1.0 -0.0387244485
C  C232  1  0.35240000  0.17750000  0.11390000  1.0 -0.0387244485
C  C233  1  0.32250000  0.67490000  0.93640000  1.0 -0.0387244485
C  C234  1  0.26150000  0.82510000  0.14760000  1.0 -0.0387244485
C  C235  1  0.23850000  0.38610000  0.56360000  1.0 -0.0387244485
C  C236  1  0.17750000  0.11390000  0.35240000  1.0 -0.0387244485
C  C237  1  0.67490000  0.93640000  0.32250000  1.0 -0.0387244485
C  C238  1  0.82510000  0.14760000  0.26150000  1.0 -0.0387244485
C  C239  1  0.38610000  0.56360000  0.23850000  1.0 -0.0387244485
C  C240  1  0.11390000  0.35240000  0.17750000  1.0 -0.0387244485
C  C241  1  0.81860000  0.47190000  0.19970000  1.0 -0.2094921662
C  C242  1  0.77220000  0.61890000  0.30030000  1.0 -0.2094921662
C  C243  1  0.72780000  0.02810000  0.84670000  1.0 -0.2094921662
C  C244  1  0.68140000  0.88110000  0.65330000  1.0 -0.2094921662
C  C245  1  0.19970000  0.81860000  0.47190000  1.0 -0.2094921662
C  C246  1  0.30030000  0.77220000  0.61890000  1.0 -0.2094921662
C  C247  1  0.84670000  0.72780000  0.02810000  1.0 -0.2094921662
C  C248  1  0.65330000  0.68140000  0.88110000  1.0 -0.2094921662
C  C249  1  0.47190000  0.19970000  0.81860000  1.0 -0.2094921662
C  C250  1  0.61890000  0.30030000  0.77220000  1.0 -0.2094921662
C  C251  1  0.02810000  0.84670000  0.72780000  1.0 -0.2094921662
C  C252  1  0.88110000  0.65330000  0.68140000  1.0 -0.2094921662
C  C253  1  0.97190000  0.31860000  0.69970000  1.0 -0.2094921662
C  C254  1  0.11890000  0.27220000  0.80030000  1.0 -0.2094921662
C  C255  1  0.52810000  0.22780000  0.34670000  1.0 -0.2094921662
C  C256  1  0.38110000  0.18140000  0.15330000  1.0 -0.2094921662
C  C257  1  0.31860000  0.69970000  0.97190000  1.0 -0.2094921662
C  C258  1  0.27220000  0.80030000  0.11890000  1.0 -0.2094921662
C  C259  1  0.22780000  0.34670000  0.52810000  1.0 -0.2094921662
C  C260  1  0.18140000  0.15330000  0.38110000  1.0 -0.2094921662
C  C261  1  0.69970000  0.97190000  0.31860000  1.0 -0.2094921662
C  C262  1  0.80030000  0.11890000  0.27220000  1.0 -0.2094921662
C  C263  1  0.34670000  0.52810000  0.22780000  1.0 -0.2094921662
C  C264  1  0.15330000  0.38110000  0.18140000  1.0 -0.2094921662
C  C265  1  0.78290000  0.45060000  0.20710000  1.0 0.002689513
C  C266  1  0.74350000  0.57580000  0.29290000  1.0 0.002689513
C  C267  1  0.75650000  0.04940000  0.83230000  1.0 0.002689513
C  C268  1  0.71710000  0.92420000  0.66770000  1.0 0.002689513
C  C269  1  0.20710000  0.78290000  0.45060000  1.0 0.002689513
C  C270  1  0.29290000  0.74350000  0.57580000  1.0 0.002689513
C  C271  1  0.83230000  0.75650000  0.04940000  1.0 0.002689513
C  C272  1  0.66770000  0.71710000  0.92420000  1.0 0.002689513
C  C273  1  0.45060000  0.20710000  0.78290000  1.0 0.002689513
C  C274  1  0.57580000  0.29290000  0.74350000  1.0 0.002689513
C  C275  1  0.04940000  0.83230000  0.75650000  1.0 0.002689513
C  C276  1  0.92420000  0.66770000  0.71710000  1.0 0.002689513
C  C277  1  0.95060000  0.28290000  0.70710000  1.0 0.002689513
C  C278  1  0.07580000  0.24350000  0.79290000  1.0 0.002689513
C  C279  1  0.54940000  0.25650000  0.33230000  1.0 0.002689513
C  C280  1  0.42420000  0.21710000  0.16770000  1.0 0.002689513
C  C281  1  0.28290000  0.70710000  0.95060000  1.0 0.002689513
C  C282  1  0.24350000  0.79290000  0.07580000  1.0 0.002689513
C  C283  1  0.25650000  0.33230000  0.54940000  1.0 0.002689513
C  C284  1  0.21710000  0.16770000  0.42420000  1.0 0.002689513
C  C285  1  0.70710000  0.95060000  0.28290000  1.0 0.002689513
C  C286  1  0.79290000  0.07580000  0.24350000  1.0 0.002689513
C  C287  1  0.33230000  0.54940000  0.25650000  1.0 0.002689513
C  C288  1  0.16770000  0.42420000  0.21710000  1.0 0.002689513
C  C289  1  0.81410000  0.31500000  0.19810000  1.0 -0.0487587739
C  C290  1  0.61690000  0.61600000  0.30190000  1.0 -0.0487587739
C  C291  1  0.88310000  0.18500000  0.99910000  1.0 -0.0487587739
C  C292  1  0.68590000  0.88400000  0.50090000  1.0 -0.0487587739
C  C293  1  0.19810000  0.81410000  0.31500000  1.0 -0.0487587739
C  C294  1  0.30190000  0.61690000  0.61600000  1.0 -0.0487587739
C  C295  1  0.99910000  0.88310000  0.18500000  1.0 -0.0487587739
C  C296  1  0.50090000  0.68590000  0.88400000  1.0 -0.0487587739
C  C297  1  0.31500000  0.19810000  0.81410000  1.0 -0.0487587739
C  C298  1  0.61600000  0.30190000  0.61690000  1.0 -0.0487587739
C  C299  1  0.18500000  0.99910000  0.88310000  1.0 -0.0487587739
C  C300  1  0.88400000  0.50090000  0.68590000  1.0 -0.0487587739
C  C301  1  0.81500000  0.31410000  0.69810000  1.0 -0.0487587739
C  C302  1  0.11600000  0.11690000  0.80190000  1.0 -0.0487587739
C  C303  1  0.68500000  0.38310000  0.49910000  1.0 -0.0487587739
C  C304  1  0.38400000  0.18590000  0.00090000  1.0 -0.0487587739
C  C305  1  0.31410000  0.69810000  0.81500000  1.0 -0.0487587739
C  C306  1  0.11690000  0.80190000  0.11600000  1.0 -0.0487587739
C  C307  1  0.38310000  0.49910000  0.68500000  1.0 -0.0487587739
C  C308  1  0.18590000  0.00090000  0.38400000  1.0 -0.0487587739
C  C309  1  0.69810000  0.81500000  0.31410000  1.0 -0.0487587739
C  C310  1  0.80190000  0.11600000  0.11690000  1.0 -0.0487587739
C  C311  1  0.49910000  0.68500000  0.38310000  1.0 -0.0487587739
C  C312  1  0.00090000  0.38400000  0.18590000  1.0 -0.0487587739
C  C313  1  0.80470000  0.30460000  0.22910000  1.0 -0.2094921662
C  C314  1  0.57550000  0.57560000  0.27090000  1.0 -0.2094921662
C  C315  1  0.92450000  0.19540000  0.00010000  1.0 -0.2094921662
C  C316  1  0.69530000  0.92440000  0.49990000  1.0 -0.2094921662
C  C317  1  0.22910000  0.80470000  0.30460000  1.0 -0.2094921662
C  C318  1  0.27090000  0.57550000  0.57560000  1.0 -0.2094921662
C  C319  1  0.00010000  0.92450000  0.19540000  1.0 -0.2094921662
C  C320  1  0.49990000  0.69530000  0.92440000  1.0 -0.2094921662
C  C321  1  0.30460000  0.22910000  0.80470000  1.0 -0.2094921662
C  C322  1  0.57560000  0.27090000  0.57550000  1.0 -0.2094921662
C  C323  1  0.19540000  0.00010000  0.92450000  1.0 -0.2094921662
C  C324  1  0.92440000  0.49990000  0.69530000  1.0 -0.2094921662
C  C325  1  0.80460000  0.30470000  0.72910000  1.0 -0.2094921662
C  C326  1  0.07560000  0.07550000  0.77090000  1.0 -0.2094921662
C  C327  1  0.69540000  0.42450000  0.50010000  1.0 -0.2094921662
C  C328  1  0.42440000  0.19530000  0.99990000  1.0 -0.2094921662
C  C329  1  0.30470000  0.72910000  0.80460000  1.0 -0.2094921662
C  C330  1  0.07550000  0.77090000  0.07560000  1.0 -0.2094921662
C  C331  1  0.42450000  0.50010000  0.69540000  1.0 -0.2094921662
C  C332  1  0.19530000  0.99990000  0.42440000  1.0 -0.2094921662
C  C333  1  0.72910000  0.80460000  0.30470000  1.0 -0.2094921662
C  C334  1  0.77090000  0.07560000  0.07550000  1.0 -0.2094921662
C  C335  1  0.50010000  0.69540000  0.42450000  1.0 -0.2094921662
C  C336  1  0.99990000  0.42440000  0.19530000  1.0 -0.2094921662
C  C337  1  0.77060000  0.31527000  0.22947000  1.0 -0.0181969902
C  C338  1  0.58580000  0.54113000  0.27053000  1.0 -0.0181969902
C  C339  1  0.91420000  0.18473000  0.95533000  1.0 -0.0181969902
C  C340  1  0.72940000  0.95887000  0.54467000  1.0 -0.0181969902
C  C341  1  0.22947000  0.77060000  0.31527000  1.0 -0.0181969902
C  C342  1  0.27053000  0.58580000  0.54113000  1.0 -0.0181969902
C  C343  1  0.95533000  0.91420000  0.18473000  1.0 -0.0181969902
C  C344  1  0.54467000  0.72940000  0.95887000  1.0 -0.0181969902
C  C345  1  0.31527000  0.22947000  0.77060000  1.0 -0.0181969902
C  C346  1  0.54113000  0.27053000  0.58580000  1.0 -0.0181969902
C  C347  1  0.18473000  0.95533000  0.91420000  1.0 -0.0181969902
C  C348  1  0.95887000  0.54467000  0.72940000  1.0 -0.0181969902
C  C349  1  0.81527000  0.27060000  0.72947000  1.0 -0.0181969902
C  C350  1  0.04113000  0.08580000  0.77053000  1.0 -0.0181969902
C  C351  1  0.68473000  0.41420000  0.45533000  1.0 -0.0181969902
C  C352  1  0.45887000  0.22940000  0.04467000  1.0 -0.0181969902
C  C353  1  0.27060000  0.72947000  0.81527000  1.0 -0.0181969902
C  C354  1  0.08580000  0.77053000  0.04113000  1.0 -0.0181969902
C  C355  1  0.41420000  0.45533000  0.68473000  1.0 -0.0181969902
C  C356  1  0.22940000  0.04467000  0.45887000  1.0 -0.0181969902
C  C357  1  0.72947000  0.81527000  0.27060000  1.0 -0.0181969902
C  C358  1  0.77053000  0.04113000  0.08580000  1.0 -0.0181969902
C  C359  1  0.45533000  0.68473000  0.41420000  1.0 -0.0181969902
C  C360  1  0.04467000  0.45887000  0.22940000  1.0 -0.0181969902
C  C361  1  0.75010000  0.20380000  0.26090000  1.0 0.0084358694
C  C362  1  0.44290000  0.48920000  0.23910000  1.0 0.0084358694
C  C363  1  0.05710000  0.29620000  0.04630000  1.0 0.0084358694
C  C364  1  0.74990000  0.01080000  0.45370000  1.0 0.0084358694
C  C365  1  0.26090000  0.75010000  0.20380000  1.0 0.0084358694
C  C366  1  0.23910000  0.44290000  0.48920000  1.0 0.0084358694
C  C367  1  0.04630000  0.05710000  0.29620000  1.0 0.0084358694
C  C368  1  0.45370000  0.74990000  0.01080000  1.0 0.0084358694
C  C369  1  0.20380000  0.26090000  0.75010000  1.0 0.0084358694
C  C370  1  0.48920000  0.23910000  0.44290000  1.0 0.0084358694
C  C371  1  0.29620000  0.04630000  0.05710000  1.0 0.0084358694
C  C372  1  0.01080000  0.45370000  0.74990000  1.0 0.0084358694
C  C373  1  0.70380000  0.25010000  0.76090000  1.0 0.0084358694
C  C374  1  0.98920000  0.94290000  0.73910000  1.0 0.0084358694
C  C375  1  0.79620000  0.55710000  0.54630000  1.0 0.0084358694
C  C376  1  0.51080000  0.24990000  0.95370000  1.0 0.0084358694
C  C377  1  0.25010000  0.76090000  0.70380000  1.0 0.0084358694
C  C378  1  0.94290000  0.73910000  0.98920000  1.0 0.0084358694
C  C379  1  0.55710000  0.54630000  0.79620000  1.0 0.0084358694
C  C380  1  0.24990000  0.95370000  0.51080000  1.0 0.0084358694
C  C381  1  0.76090000  0.70380000  0.25010000  1.0 0.0084358694
C  C382  1  0.73910000  0.98920000  0.94290000  1.0 0.0084358694
C  C383  1  0.54630000  0.79620000  0.55710000  1.0 0.0084358694
C  C384  1  0.95370000  0.51080000  0.24990000  1.0 0.0084358694
C  C385  1  0.71980000  0.20700000  0.27960000  1.0 -0.0387244485
C  C386  1  0.42740000  0.44020000  0.22040000  1.0 -0.0387244485
C  C387  1  0.07260000  0.29300000  0.01280000  1.0 -0.0387244485
C  C388  1  0.78020000  0.05980000  0.48720000  1.0 -0.0387244485
C  C389  1  0.27960000  0.71980000  0.20700000  1.0 -0.0387244485
C  C390  1  0.22040000  0.42740000  0.44020000  1.0 -0.0387244485
C  C391  1  0.01280000  0.07260000  0.29300000  1.0 -0.0387244485
C  C392  1  0.48720000  0.78020000  0.05980000  1.0 -0.0387244485
C  C393  1  0.20700000  0.27960000  0.71980000  1.0 -0.0387244485
C  C394  1  0.44020000  0.22040000  0.42740000  1.0 -0.0387244485
C  C395  1  0.29300000  0.01280000  0.07260000  1.0 -0.0387244485
C  C396  1  0.05980000  0.48720000  0.78020000  1.0 -0.0387244485
C  C397  1  0.70700000  0.21980000  0.77960000  1.0 -0.0387244485
C  C398  1  0.94020000  0.92740000  0.72040000  1.0 -0.0387244485
C  C399  1  0.79300000  0.57260000  0.51280000  1.0 -0.0387244485
C  C400  1  0.55980000  0.28020000  0.98720000  1.0 -0.0387244485
C  C401  1  0.21980000  0.77960000  0.70700000  1.0 -0.0387244485
C  C402  1  0.92740000  0.72040000  0.94020000  1.0 -0.0387244485
C  C403  1  0.57260000  0.51280000  0.79300000  1.0 -0.0387244485
C  C404  1  0.28020000  0.98720000  0.55980000  1.0 -0.0387244485
C  C405  1  0.77960000  0.70700000  0.21980000  1.0 -0.0387244485
C  C406  1  0.72040000  0.94020000  0.92740000  1.0 -0.0387244485
C  C407  1  0.51280000  0.79300000  0.57260000  1.0 -0.0387244485
C  C408  1  0.98720000  0.55980000  0.28020000  1.0 -0.0387244485
C  C409  1  0.67320000  0.17610000  0.24930000  1.0 -0.0387244485
C  C410  1  0.42680000  0.42390000  0.25070000  1.0 -0.0387244485
C  C411  1  0.07320000  0.32390000  0.99710000  1.0 -0.0387244485
C  C412  1  0.82680000  0.07610000  0.50290000  1.0 -0.0387244485
C  C413  1  0.24930000  0.67320000  0.17610000  1.0 -0.0387244485
C  C414  1  0.25070000  0.42680000  0.42390000  1.0 -0.0387244485
C  C415  1  0.99710000  0.07320000  0.32390000  1.0 -0.0387244485
C  C416  1  0.50290000  0.82680000  0.07610000  1.0 -0.0387244485
C  C417  1  0.17610000  0.24930000  0.67320000  1.0 -0.0387244485
C  C418  1  0.42390000  0.25070000  0.42680000  1.0 -0.0387244485
C  C419  1  0.32390000  0.99710000  0.07320000  1.0 -0.0387244485
C  C420  1  0.07610000  0.50290000  0.82680000  1.0 -0.0387244485
C  C421  1  0.67610000  0.17320000  0.74930000  1.0 -0.0387244485
C  C422  1  0.92390000  0.92680000  0.75070000  1.0 -0.0387244485
C  C423  1  0.82390000  0.57320000  0.49710000  1.0 -0.0387244485
C  C424  1  0.57610000  0.32680000  0.00290000  1.0 -0.0387244485
C  C425  1  0.17320000  0.74930000  0.67610000  1.0 -0.0387244485
C  C426  1  0.92680000  0.75070000  0.92390000  1.0 -0.0387244485
C  C427  1  0.57320000  0.49710000  0.82390000  1.0 -0.0387244485
C  C428  1  0.32680000  0.00290000  0.57610000  1.0 -0.0387244485
C  C429  1  0.74930000  0.67610000  0.17320000  1.0 -0.0387244485
C  C430  1  0.75070000  0.92390000  0.92680000  1.0 -0.0387244485
C  C431  1  0.49710000  0.82390000  0.57320000  1.0 -0.0387244485
C  C432  1  0.00290000  0.57610000  0.32680000  1.0 -0.0387244485
C  C433  1  0.72520000  0.19860000  0.13180000  1.0 -0.0286986053
C  C434  1  0.56680000  0.59340000  0.36820000  1.0 -0.0286986053
C  C435  1  0.93320000  0.30140000  0.02660000  1.0 -0.0286986053
C  C436  1  0.77480000  0.90660000  0.47340000  1.0 -0.0286986053
C  C437  1  0.13180000  0.72520000  0.19860000  1.0 -0.0286986053
C  C438  1  0.36820000  0.56680000  0.59340000  1.0 -0.0286986053
C  C439  1  0.02660000  0.93320000  0.30140000  1.0 -0.0286986053
C  C440  1  0.47340000  0.77480000  0.90660000  1.0 -0.0286986053
C  C441  1  0.19860000  0.13180000  0.72520000  1.0 -0.0286986053
C  C442  1  0.59340000  0.36820000  0.56680000  1.0 -0.0286986053
C  C443  1  0.30140000  0.02660000  0.93320000  1.0 -0.0286986053
C  C444  1  0.90660000  0.47340000  0.77480000  1.0 -0.0286986053
C  C445  1  0.69860000  0.22520000  0.63180000  1.0 -0.0286986053
C  C446  1  0.09340000  0.06680000  0.86820000  1.0 -0.0286986053
C  C447  1  0.80140000  0.43320000  0.52660000  1.0 -0.0286986053
C  C448  1  0.40660000  0.27480000  0.97340000  1.0 -0.0286986053
C  C449  1  0.22520000  0.63180000  0.69860000  1.0 -0.0286986053
C  C450  1  0.06680000  0.86820000  0.09340000  1.0 -0.0286986053
C  C451  1  0.43320000  0.52660000  0.80140000  1.0 -0.0286986053
C  C452  1  0.27480000  0.97340000  0.40660000  1.0 -0.0286986053
C  C453  1  0.63180000  0.69860000  0.22520000  1.0 -0.0286986053
C  C454  1  0.86820000  0.09340000  0.06680000  1.0 -0.0286986053
C  C455  1  0.52660000  0.80140000  0.43320000  1.0 -0.0286986053
C  C456  1  0.97340000  0.40660000  0.27480000  1.0 -0.0286986053
C  C457  1  0.69570000  0.20640000  0.10750000  1.0 -0.1978881165
C  C458  1  0.59890000  0.58820000  0.39250000  1.0 -0.1978881165
C  C459  1  0.90110000  0.29360000  0.98930000  1.0 -0.1978881165
C  C460  1  0.80430000  0.91180000  0.51070000  1.0 -0.1978881165
C  C461  1  0.10750000  0.69570000  0.20640000  1.0 -0.1978881165
C  C462  1  0.39250000  0.59890000  0.58820000  1.0 -0.1978881165
C  C463  1  0.98930000  0.90110000  0.29360000  1.0 -0.1978881165
C  C464  1  0.51070000  0.80430000  0.91180000  1.0 -0.1978881165
C  C465  1  0.20640000  0.10750000  0.69570000  1.0 -0.1978881165
C  C466  1  0.58820000  0.39250000  0.59890000  1.0 -0.1978881165
C  C467  1  0.29360000  0.98930000  0.90110000  1.0 -0.1978881165
C  C468  1  0.91180000  0.51070000  0.80430000  1.0 -0.1978881165
C  C469  1  0.70640000  0.19570000  0.60750000  1.0 -0.1978881165
C  C470  1  0.08820000  0.09890000  0.89250000  1.0 -0.1978881165
C  C471  1  0.79360000  0.40110000  0.48930000  1.0 -0.1978881165
C  C472  1  0.41180000  0.30430000  0.01070000  1.0 -0.1978881165
C  C473  1  0.19570000  0.60750000  0.70640000  1.0 -0.1978881165
C  C474  1  0.09890000  0.89250000  0.08820000  1.0 -0.1978881165
C  C475  1  0.40110000  0.48930000  0.79360000  1.0 -0.1978881165
C  C476  1  0.30430000  0.01070000  0.41180000  1.0 -0.1978881165
C  C477  1  0.60750000  0.70640000  0.19570000  1.0 -0.1978881165
C  C478  1  0.89250000  0.08820000  0.09890000  1.0 -0.1978881165
C  C479  1  0.48930000  0.79360000  0.40110000  1.0 -0.1978881165
C  C480  1  0.01070000  0.41180000  0.30430000  1.0 -0.1978881165
C  C481  1  0.65500000  0.18300000  0.10680000  1.0 0.0227567428
C  C482  1  0.57620000  0.54820000  0.39320000  1.0 0.0227567428
C  C483  1  0.92380000  0.31700000  0.97200000  1.0 0.0227567428
C  C484  1  0.84500000  0.95180000  0.52800000  1.0 0.0227567428
C  C485  1  0.10680000  0.65500000  0.18300000  1.0 0.0227567428
C  C486  1  0.39320000  0.57620000  0.54820000  1.0 0.0227567428
C  C487  1  0.97200000  0.92380000  0.31700000  1.0 0.0227567428
C  C488  1  0.52800000  0.84500000  0.95180000  1.0 0.0227567428
C  C489  1  0.18300000  0.10680000  0.65500000  1.0 0.0227567428
C  C490  1  0.54820000  0.39320000  0.57620000  1.0 0.0227567428
C  C491  1  0.31700000  0.97200000  0.92380000  1.0 0.0227567428
C  C492  1  0.95180000  0.52800000  0.84500000  1.0 0.0227567428
C  C493  1  0.68300000  0.15500000  0.60680000  1.0 0.0227567428
C  C494  1  0.04820000  0.07620000  0.89320000  1.0 0.0227567428
C  C495  1  0.81700000  0.42380000  0.47200000  1.0 0.0227567428
C  C496  1  0.45180000  0.34500000  0.02800000  1.0 0.0227567428
C  C497  1  0.15500000  0.60680000  0.68300000  1.0 0.0227567428
C  C498  1  0.07620000  0.89320000  0.04820000  1.0 0.0227567428
C  C499  1  0.42380000  0.47200000  0.81700000  1.0 0.0227567428
C  C500  1  0.34500000  0.02800000  0.45180000  1.0 0.0227567428
C  C501  1  0.60680000  0.68300000  0.15500000  1.0 0.0227567428
C  C502  1  0.89320000  0.04820000  0.07620000  1.0 0.0227567428
C  C503  1  0.47200000  0.81700000  0.42380000  1.0 0.0227567428
C  C504  1  0.02800000  0.45180000  0.34500000  1.0 0.0227567428
C  C505  1  0.70537000  0.06680000  0.13817000  1.0 -0.0286986053
C  C506  1  0.42863000  0.56720000  0.36183000  1.0 -0.0286986053
C  C507  1  0.07137000  0.43320000  0.13857000  1.0 -0.0286986053
C  C508  1  0.79463000  0.93280000  0.36143000  1.0 -0.0286986053
C  C509  1  0.13817000  0.70537000  0.06680000  1.0 -0.0286986053
C  C510  1  0.36183000  0.42863000  0.56720000  1.0 -0.0286986053
C  C511  1  0.13857000  0.07137000  0.43320000  1.0 -0.0286986053
C  C512  1  0.36143000  0.79463000  0.93280000  1.0 -0.0286986053
C  C513  1  0.06680000  0.13817000  0.70537000  1.0 -0.0286986053
C  C514  1  0.56720000  0.36183000  0.42863000  1.0 -0.0286986053
C  C515  1  0.43320000  0.13857000  0.07137000  1.0 -0.0286986053
C  C516  1  0.93280000  0.36143000  0.79463000  1.0 -0.0286986053
C  C517  1  0.56680000  0.20537000  0.63817000  1.0 -0.0286986053
C  C518  1  0.06720000  0.92863000  0.86183000  1.0 -0.0286986053
C  C519  1  0.93320000  0.57137000  0.63857000  1.0 -0.0286986053
C  C520  1  0.43280000  0.29463000  0.86143000  1.0 -0.0286986053
C  C521  1  0.20537000  0.63817000  0.56680000  1.0 -0.0286986053
C  C522  1  0.92863000  0.86183000  0.06720000  1.0 -0.0286986053
C  C523  1  0.57137000  0.63857000  0.93320000  1.0 -0.0286986053
C  C524  1  0.29463000  0.86143000  0.43280000  1.0 -0.0286986053
C  C525  1  0.63817000  0.56680000  0.20537000  1.0 -0.0286986053
C  C526  1  0.86183000  0.06720000  0.92863000  1.0 -0.0286986053
C  C527  1  0.63857000  0.93320000  0.57137000  1.0 -0.0286986053
C  C528  1  0.86143000  0.43280000  0.29463000  1.0 -0.0286986053
C  C529  1  0.66570000  0.02540000  0.11250000  1.0 -0.1833599487
C  C530  1  0.41290000  0.55320000  0.38750000  1.0 -0.1833599487
C  C531  1  0.08710000  0.47460000  0.14030000  1.0 -0.1833599487
C  C532  1  0.83430000  0.94680000  0.35970000  1.0 -0.1833599487
C  C533  1  0.11250000  0.66570000  0.02540000  1.0 -0.1833599487
C  C534  1  0.38750000  0.41290000  0.55320000  1.0 -0.1833599487
C  C535  1  0.14030000  0.08710000  0.47460000  1.0 -0.1833599487
C  C536  1  0.35970000  0.83430000  0.94680000  1.0 -0.1833599487
C  C537  1  0.02540000  0.11250000  0.66570000  1.0 -0.1833599487
C  C538  1  0.55320000  0.38750000  0.41290000  1.0 -0.1833599487
C  C539  1  0.47460000  0.14030000  0.08710000  1.0 -0.1833599487
C  C540  1  0.94680000  0.35970000  0.83430000  1.0 -0.1833599487
C  C541  1  0.52540000  0.16570000  0.61250000  1.0 -0.1833599487
C  C542  1  0.05320000  0.91290000  0.88750000  1.0 -0.1833599487
C  C543  1  0.97460000  0.58710000  0.64030000  1.0 -0.1833599487
C  C544  1  0.44680000  0.33430000  0.85970000  1.0 -0.1833599487
C  C545  1  0.16570000  0.61250000  0.52540000  1.0 -0.1833599487
C  C546  1  0.91290000  0.88750000  0.05320000  1.0 -0.1833599487
C  C547  1  0.58710000  0.64030000  0.97460000  1.0 -0.1833599487
C  C548  1  0.33430000  0.85970000  0.44680000  1.0 -0.1833599487
C  C549  1  0.61250000  0.52540000  0.16570000  1.0 -0.1833599487
C  C550  1  0.88750000  0.05320000  0.91290000  1.0 -0.1833599487
C  C551  1  0.64030000  0.97460000  0.58710000  1.0 -0.1833599487
C  C552  1  0.85970000  0.44680000  0.33430000  1.0 -0.1833599487
C  C553  1  0.63090000  0.03510000  0.10780000  1.0 0.0084358694
C  C554  1  0.42730000  0.52310000  0.39220000  1.0 0.0084358694
C  C555  1  0.07270000  0.46490000  0.09580000  1.0 0.0084358694
C  C556  1  0.86910000  0.97690000  0.40420000  1.0 0.0084358694
C  C557  1  0.10780000  0.63090000  0.03510000  1.0 0.0084358694
C  C558  1  0.39220000  0.42730000  0.52310000  1.0 0.0084358694
C  C559  1  0.09580000  0.07270000  0.46490000  1.0 0.0084358694
C  C560  1  0.40420000  0.86910000  0.97690000  1.0 0.0084358694
C  C561  1  0.03510000  0.10780000  0.63090000  1.0 0.0084358694
C  C562  1  0.52310000  0.39220000  0.42730000  1.0 0.0084358694
C  C563  1  0.46490000  0.09580000  0.07270000  1.0 0.0084358694
C  C564  1  0.97690000  0.40420000  0.86910000  1.0 0.0084358694
C  C565  1  0.53510000  0.13090000  0.60780000  1.0 0.0084358694
C  C566  1  0.02310000  0.92730000  0.89220000  1.0 0.0084358694
C  C567  1  0.96490000  0.57270000  0.59580000  1.0 0.0084358694
C  C568  1  0.47690000  0.36910000  0.90420000  1.0 0.0084358694
C  C569  1  0.13090000  0.60780000  0.53510000  1.0 0.0084358694
C  C570  1  0.92730000  0.89220000  0.02310000  1.0 0.0084358694
C  C571  1  0.57270000  0.59580000  0.96490000  1.0 0.0084358694
C  C572  1  0.36910000  0.90420000  0.47690000  1.0 0.0084358694
C  C573  1  0.60780000  0.53510000  0.13090000  1.0 0.0084358694
C  C574  1  0.89220000  0.02310000  0.92730000  1.0 0.0084358694
C  C575  1  0.59580000  0.96490000  0.57270000  1.0 0.0084358694
C  C576  1  0.90420000  0.47690000  0.36910000  1.0 0.0084358694
C  C577  1  0.73800000  0.18650000  0.26270000  1.0 0.002689513
C  C578  1  0.42380000  0.47530000  0.23730000  1.0 0.002689513
C  C579  1  0.07620000  0.31350000  0.05150000  1.0 0.002689513
C  C580  1  0.76200000  0.02470000  0.44850000  1.0 0.002689513
C  C581  1  0.26270000  0.73800000  0.18650000  1.0 0.002689513
C  C582  1  0.23730000  0.42380000  0.47530000  1.0 0.002689513
C  C583  1  0.05150000  0.07620000  0.31350000  1.0 0.002689513
C  C584  1  0.44850000  0.76200000  0.02470000  1.0 0.002689513
C  C585  1  0.18650000  0.26270000  0.73800000  1.0 0.002689513
C  C586  1  0.47530000  0.23730000  0.42380000  1.0 0.002689513
C  C587  1  0.31350000  0.05150000  0.07620000  1.0 0.002689513
C  C588  1  0.02470000  0.44850000  0.76200000  1.0 0.002689513
C  C589  1  0.68650000  0.23800000  0.76270000  1.0 0.002689513
C  C590  1  0.97530000  0.92380000  0.73730000  1.0 0.002689513
C  C591  1  0.81350000  0.57620000  0.55150000  1.0 0.002689513
C  C592  1  0.52470000  0.26200000  0.94850000  1.0 0.002689513
C  C593  1  0.23800000  0.76270000  0.68650000  1.0 0.002689513
C  C594  1  0.92380000  0.73730000  0.97530000  1.0 0.002689513
C  C595  1  0.57620000  0.55150000  0.81350000  1.0 0.002689513
C  C596  1  0.26200000  0.94850000  0.52470000  1.0 0.002689513
C  C597  1  0.76270000  0.68650000  0.23800000  1.0 0.002689513
C  C598  1  0.73730000  0.97530000  0.92380000  1.0 0.002689513
C  C599  1  0.55150000  0.81350000  0.57620000  1.0 0.002689513
C  C600  1  0.94850000  0.52470000  0.26200000  1.0 0.002689513
C  C601  1  0.71450000  0.19240000  0.28930000  1.0 -0.0387244485
C  C602  1  0.40310000  0.42520000  0.21070000  1.0 -0.0387244485
C  C603  1  0.09690000  0.30760000  0.02210000  1.0 -0.0387244485
C  C604  1  0.78550000  0.07480000  0.47790000  1.0 -0.0387244485
C  C605  1  0.28930000  0.71450000  0.19240000  1.0 -0.0387244485
C  C606  1  0.21070000  0.40310000  0.42520000  1.0 -0.0387244485
C  C607  1  0.02210000  0.09690000  0.30760000  1.0 -0.0387244485
C  C608  1  0.47790000  0.78550000  0.07480000  1.0 -0.0387244485
C  C609  1  0.19240000  0.28930000  0.71450000  1.0 -0.0387244485
C  C610  1  0.42520000  0.21070000  0.40310000  1.0 -0.0387244485
C  C611  1  0.30760000  0.02210000  0.09690000  1.0 -0.0387244485
C  C612  1  0.07480000  0.47790000  0.78550000  1.0 -0.0387244485
C  C613  1  0.69240000  0.21450000  0.78930000  1.0 -0.0387244485
C  C614  1  0.92520000  0.90310000  0.71070000  1.0 -0.0387244485
C  C615  1  0.80760000  0.59690000  0.52210000  1.0 -0.0387244485
C  C616  1  0.57480000  0.28550000  0.97790000  1.0 -0.0387244485
C  C617  1  0.21450000  0.78930000  0.69240000  1.0 -0.0387244485
C  C618  1  0.90310000  0.71070000  0.92520000  1.0 -0.0387244485
C  C619  1  0.59690000  0.52210000  0.80760000  1.0 -0.0387244485
C  C620  1  0.28550000  0.97790000  0.57480000  1.0 -0.0387244485
C  C621  1  0.78930000  0.69240000  0.21450000  1.0 -0.0387244485
C  C622  1  0.71070000  0.92520000  0.90310000  1.0 -0.0387244485
C  C623  1  0.52210000  0.80760000  0.59690000  1.0 -0.0387244485
C  C624  1  0.97790000  0.57480000  0.28550000  1.0 -0.0387244485
N  N1  1  0.55335000  0.05360000  0.15755000  1.0 -0.396789071
N  N2  1  0.39605000  0.39580000  0.34245000  1.0 -0.396789071
N  N3  1  0.10395000  0.44640000  0.99975000  1.0 -0.396789071
N  N4  1  0.94665000  0.10420000  0.50025000  1.0 -0.396789071
N  N5  1  0.15755000  0.55335000  0.05360000  1.0 -0.396789071
N  N6  1  0.34245000  0.39605000  0.39580000  1.0 -0.396789071
N  N7  1  0.99975000  0.10395000  0.44640000  1.0 -0.396789071
N  N8  1  0.50025000  0.94665000  0.10420000  1.0 -0.396789071
N  N9  1  0.05360000  0.15755000  0.55335000  1.0 -0.396789071
N  N10  1  0.39580000  0.34245000  0.39605000  1.0 -0.396789071
N  N11  1  0.44640000  0.99975000  0.10395000  1.0 -0.396789071
N  N12  1  0.10420000  0.50025000  0.94665000  1.0 -0.396789071
N  N13  1  0.55360000  0.05335000  0.65755000  1.0 -0.396789071
N  N14  1  0.89580000  0.89605000  0.84245000  1.0 -0.396789071
N  N15  1  0.94640000  0.60395000  0.49975000  1.0 -0.396789071
N  N16  1  0.60420000  0.44665000  0.00025000  1.0 -0.396789071
N  N17  1  0.05335000  0.65755000  0.55360000  1.0 -0.396789071
N  N18  1  0.89605000  0.84245000  0.89580000  1.0 -0.396789071
N  N19  1  0.60395000  0.49975000  0.94640000  1.0 -0.396789071
N  N20  1  0.44665000  0.00025000  0.60420000  1.0 -0.396789071
N  N21  1  0.65755000  0.55360000  0.05335000  1.0 -0.396789071
N  N22  1  0.84245000  0.89580000  0.89605000  1.0 -0.396789071
N  N23  1  0.49975000  0.94640000  0.60395000  1.0 -0.396789071
N  N24  1  0.00025000  0.60420000  0.44665000  1.0 -0.396789071
N  N25  1  0.54622000  0.05822000  0.04188000  1.0 -0.3733926047
N  N26  1  0.51634000  0.50434000  0.45812000  1.0 -0.3733926047
N  N27  1  0.98366000  0.44178000  0.98800000  1.0 -0.3733926047
N  N28  1  0.95378000  0.99566000  0.51200000  1.0 -0.3733926047
N  N29  1  0.04188000  0.54622000  0.05822000  1.0 -0.3733926047
N  N30  1  0.45812000  0.51634000  0.50434000  1.0 -0.3733926047
N  N31  1  0.98800000  0.98366000  0.44178000  1.0 -0.3733926047
N  N32  1  0.51200000  0.95378000  0.99566000  1.0 -0.3733926047
N  N33  1  0.05822000  0.04188000  0.54622000  1.0 -0.3733926047
N  N34  1  0.50434000  0.45812000  0.51634000  1.0 -0.3733926047
N  N35  1  0.44178000  0.98800000  0.98366000  1.0 -0.3733926047
N  N36  1  0.99566000  0.51200000  0.95378000  1.0 -0.3733926047
N  N37  1  0.55822000  0.04622000  0.54188000  1.0 -0.3733926047
N  N38  1  0.00434000  0.01634000  0.95812000  1.0 -0.3733926047
N  N39  1  0.94178000  0.48366000  0.48800000  1.0 -0.3733926047
N  N40  1  0.49566000  0.45378000  0.01200000  1.0 -0.3733926047
N  N41  1  0.04622000  0.54188000  0.55822000  1.0 -0.3733926047
N  N42  1  0.01634000  0.95812000  0.00434000  1.0 -0.3733926047
N  N43  1  0.48366000  0.48800000  0.94178000  1.0 -0.3733926047
N  N44  1  0.45378000  0.01200000  0.49566000  1.0 -0.3733926047
N  N45  1  0.54188000  0.55822000  0.04622000  1.0 -0.3733926047
N  N46  1  0.95812000  0.00434000  0.01634000  1.0 -0.3733926047
N  N47  1  0.48800000  0.94178000  0.48366000  1.0 -0.3733926047
N  N48  1  0.01200000  0.49566000  0.45378000  1.0 -0.3733926047
N  N49  1  0.61343000  0.27194000  0.26117000  1.0 -0.396789071
N  N50  1  0.51077000  0.35226000  0.23883000  1.0 -0.396789071
N  N51  1  0.98923000  0.22806000  0.84149000  1.0 -0.396789071
N  N52  1  0.88657000  0.14774000  0.65851000  1.0 -0.396789071
N  N53  1  0.26117000  0.61343000  0.27194000  1.0 -0.396789071
N  N54  1  0.23883000  0.51077000  0.35226000  1.0 -0.396789071
N  N55  1  0.84149000  0.98923000  0.22806000  1.0 -0.396789071
N  N56  1  0.65851000  0.88657000  0.14774000  1.0 -0.396789071
N  N57  1  0.27194000  0.26117000  0.61343000  1.0 -0.396789071
N  N58  1  0.35226000  0.23883000  0.51077000  1.0 -0.396789071
N  N59  1  0.22806000  0.84149000  0.98923000  1.0 -0.396789071
N  N60  1  0.14774000  0.65851000  0.88657000  1.0 -0.396789071
N  N61  1  0.77194000  0.11343000  0.76117000  1.0 -0.396789071
N  N62  1  0.85226000  0.01077000  0.73883000  1.0 -0.396789071
N  N63  1  0.72806000  0.48923000  0.34149000  1.0 -0.396789071
N  N64  1  0.64774000  0.38657000  0.15851000  1.0 -0.396789071
N  N65  1  0.11343000  0.76117000  0.77194000  1.0 -0.396789071
N  N66  1  0.01077000  0.73883000  0.85226000  1.0 -0.396789071
N  N67  1  0.48923000  0.34149000  0.72806000  1.0 -0.396789071
N  N68  1  0.38657000  0.15851000  0.64774000  1.0 -0.396789071
N  N69  1  0.76117000  0.77194000  0.11343000  1.0 -0.396789071
N  N70  1  0.73883000  0.85226000  0.01077000  1.0 -0.396789071
N  N71  1  0.34149000  0.72806000  0.48923000  1.0 -0.396789071
N  N72  1  0.15851000  0.64774000  0.38657000  1.0 -0.396789071
N  N73  1  0.53936000  0.25366000  0.16726000  1.0 -0.4075097086
N  N74  1  0.58640000  0.37210000  0.33274000  1.0 -0.4075097086
N  N75  1  0.91360000  0.24634000  0.78570000  1.0 -0.4075097086
N  N76  1  0.96064000  0.12790000  0.71430000  1.0 -0.4075097086
N  N77  1  0.16726000  0.53936000  0.25366000  1.0 -0.4075097086
N  N78  1  0.33274000  0.58640000  0.37210000  1.0 -0.4075097086
N  N79  1  0.78570000  0.91360000  0.24634000  1.0 -0.4075097086
N  N80  1  0.71430000  0.96064000  0.12790000  1.0 -0.4075097086
N  N81  1  0.25366000  0.16726000  0.53936000  1.0 -0.4075097086
N  N82  1  0.37210000  0.33274000  0.58640000  1.0 -0.4075097086
N  N83  1  0.24634000  0.78570000  0.91360000  1.0 -0.4075097086
N  N84  1  0.12790000  0.71430000  0.96064000  1.0 -0.4075097086
N  N85  1  0.75366000  0.03936000  0.66726000  1.0 -0.4075097086
N  N86  1  0.87210000  0.08640000  0.83274000  1.0 -0.4075097086
N  N87  1  0.74634000  0.41360000  0.28570000  1.0 -0.4075097086
N  N88  1  0.62790000  0.46064000  0.21430000  1.0 -0.4075097086
N  N89  1  0.03936000  0.66726000  0.75366000  1.0 -0.4075097086
N  N90  1  0.08640000  0.83274000  0.87210000  1.0 -0.4075097086
N  N91  1  0.41360000  0.28570000  0.74634000  1.0 -0.4075097086
N  N92  1  0.46064000  0.21430000  0.62790000  1.0 -0.4075097086
N  N93  1  0.66726000  0.75366000  0.03936000  1.0 -0.4075097086
N  N94  1  0.83274000  0.87210000  0.08640000  1.0 -0.4075097086
N  N95  1  0.28570000  0.74634000  0.41360000  1.0 -0.4075097086
N  N96  1  0.21430000  0.62790000  0.46064000  1.0 -0.4075097086
N  N97  1  0.58454000  0.18581000  0.16691000  1.0 -0.3812866786
N  N98  1  0.51890000  0.41763000  0.33309000  1.0 -0.3812866786
N  N99  1  0.98110000  0.31419000  0.89873000  1.0 -0.3812866786
N  N100  1  0.91546000  0.08237000  0.60127000  1.0 -0.3812866786
N  N101  1  0.16691000  0.58454000  0.18581000  1.0 -0.3812866786
N  N102  1  0.33309000  0.51890000  0.41763000  1.0 -0.3812866786
N  N103  1  0.89873000  0.98110000  0.31419000  1.0 -0.3812866786
N  N104  1  0.60127000  0.91546000  0.08237000  1.0 -0.3812866786
N  N105  1  0.18581000  0.16691000  0.58454000  1.0 -0.3812866786
N  N106  1  0.41763000  0.33309000  0.51890000  1.0 -0.3812866786
N  N107  1  0.31419000  0.89873000  0.98110000  1.0 -0.3812866786
N  N108  1  0.08237000  0.60127000  0.91546000  1.0 -0.3812866786
N  N109  1  0.68581000  0.08454000  0.66691000  1.0 -0.3812866786
N  N110  1  0.91763000  0.01890000  0.83309000  1.0 -0.3812866786
N  N111  1  0.81419000  0.48110000  0.39873000  1.0 -0.3812866786
N  N112  1  0.58237000  0.41546000  0.10127000  1.0 -0.3812866786
N  N113  1  0.08454000  0.66691000  0.68581000  1.0 -0.3812866786
N  N114  1  0.01890000  0.83309000  0.91763000  1.0 -0.3812866786
N  N115  1  0.48110000  0.39873000  0.81419000  1.0 -0.3812866786
N  N116  1  0.41546000  0.10127000  0.58237000  1.0 -0.3812866786
N  N117  1  0.66691000  0.68581000  0.08454000  1.0 -0.3812866786
N  N118  1  0.83309000  0.91763000  0.01890000  1.0 -0.3812866786
N  N119  1  0.39873000  0.81419000  0.48110000  1.0 -0.3812866786
N  N120  1  0.10127000  0.58237000  0.41546000  1.0 -0.3812866786
N  N121  1  0.64151000  0.28378000  0.18601000  1.0 -0.396789071
N  N122  1  0.59777000  0.45550000  0.31399000  1.0 -0.396789071
N  N123  1  0.90223000  0.21622000  0.85773000  1.0 -0.396789071
N  N124  1  0.85849000  0.04450000  0.64227000  1.0 -0.396789071
N  N125  1  0.18601000  0.64151000  0.28378000  1.0 -0.396789071
N  N126  1  0.31399000  0.59777000  0.45550000  1.0 -0.396789071
N  N127  1  0.85773000  0.90223000  0.21622000  1.0 -0.396789071
N  N128  1  0.64227000  0.85849000  0.04450000  1.0 -0.396789071
N  N129  1  0.28378000  0.18601000  0.64151000  1.0 -0.396789071
N  N130  1  0.45550000  0.31399000  0.59777000  1.0 -0.396789071
N  N131  1  0.21622000  0.85773000  0.90223000  1.0 -0.396789071
N  N132  1  0.04450000  0.64227000  0.85849000  1.0 -0.396789071
N  N133  1  0.78378000  0.14151000  0.68601000  1.0 -0.396789071
N  N134  1  0.95550000  0.09777000  0.81399000  1.0 -0.396789071
N  N135  1  0.71622000  0.40223000  0.35773000  1.0 -0.396789071
N  N136  1  0.54450000  0.35849000  0.14227000  1.0 -0.396789071
N  N137  1  0.14151000  0.68601000  0.78378000  1.0 -0.396789071
N  N138  1  0.09777000  0.81399000  0.95550000  1.0 -0.396789071
N  N139  1  0.40223000  0.35773000  0.71622000  1.0 -0.396789071
N  N140  1  0.35849000  0.14227000  0.54450000  1.0 -0.396789071
N  N141  1  0.68601000  0.78378000  0.14151000  1.0 -0.396789071
N  N142  1  0.81399000  0.95550000  0.09777000  1.0 -0.396789071
N  N143  1  0.35773000  0.71622000  0.40223000  1.0 -0.396789071
N  N144  1  0.14227000  0.54450000  0.35849000  1.0 -0.396789071
N  N145  1  0.73124000  0.31688000  0.10710000  1.0 -0.0286986053
N  N146  1  0.70978000  0.62414000  0.39290000  1.0 -0.0286986053
N  N147  1  0.79022000  0.18312000  0.91436000  1.0 -0.0286986053
N  N148  1  0.76876000  0.87586000  0.58564000  1.0 -0.0286986053
N  N149  1  0.10710000  0.73124000  0.31688000  1.0 -0.0286986053
N  N150  1  0.39290000  0.70978000  0.62414000  1.0 -0.0286986053
N  N151  1  0.91436000  0.79022000  0.18312000  1.0 -0.0286986053
N  N152  1  0.58564000  0.76876000  0.87586000  1.0 -0.0286986053
N  N153  1  0.31688000  0.10710000  0.73124000  1.0 -0.0286986053
N  N154  1  0.62414000  0.39290000  0.70978000  1.0 -0.0286986053
N  N155  1  0.18312000  0.91436000  0.79022000  1.0 -0.0286986053
N  N156  1  0.87586000  0.58564000  0.76876000  1.0 -0.0286986053
N  N157  1  0.81688000  0.23124000  0.60710000  1.0 -0.0286986053
N  N158  1  0.12414000  0.20978000  0.89290000  1.0 -0.0286986053
N  N159  1  0.68312000  0.29022000  0.41436000  1.0 -0.0286986053
N  N160  1  0.37586000  0.26876000  0.08564000  1.0 -0.0286986053
N  N161  1  0.23124000  0.60710000  0.81688000  1.0 -0.0286986053
N  N162  1  0.20978000  0.89290000  0.12414000  1.0 -0.0286986053
N  N163  1  0.29022000  0.41436000  0.68312000  1.0 -0.0286986053
N  N164  1  0.26876000  0.08564000  0.37586000  1.0 -0.0286986053
N  N165  1  0.60710000  0.81688000  0.23124000  1.0 -0.0286986053
N  N166  1  0.89290000  0.12414000  0.20978000  1.0 -0.0286986053
N  N167  1  0.41436000  0.68312000  0.29022000  1.0 -0.0286986053
N  N168  1  0.08564000  0.37586000  0.26876000  1.0 -0.0286986053
N  N169  1  0.69833000  0.31738000  0.11971000  1.0 -0.0907867822
N  N170  1  0.69767000  0.57862000  0.38029000  1.0 -0.0907867822
N  N171  1  0.80233000  0.18262000  0.88095000  1.0 -0.0907867822
N  N172  1  0.80167000  0.92138000  0.61905000  1.0 -0.0907867822
N  N173  1  0.11971000  0.69833000  0.31738000  1.0 -0.0907867822
N  N174  1  0.38029000  0.69767000  0.57862000  1.0 -0.0907867822
N  N175  1  0.88095000  0.80233000  0.18262000  1.0 -0.0907867822
N  N176  1  0.61905000  0.80167000  0.92138000  1.0 -0.0907867822
N  N177  1  0.31738000  0.11971000  0.69833000  1.0 -0.0907867822
N  N178  1  0.57862000  0.38029000  0.69767000  1.0 -0.0907867822
N  N179  1  0.18262000  0.88095000  0.80233000  1.0 -0.0907867822
N  N180  1  0.92138000  0.61905000  0.80167000  1.0 -0.0907867822
N  N181  1  0.81738000  0.19833000  0.61971000  1.0 -0.0907867822
N  N182  1  0.07862000  0.19767000  0.88029000  1.0 -0.0907867822
N  N183  1  0.68262000  0.30233000  0.38095000  1.0 -0.0907867822
N  N184  1  0.42138000  0.30167000  0.11905000  1.0 -0.0907867822
N  N185  1  0.19833000  0.61971000  0.81738000  1.0 -0.0907867822
N  N186  1  0.19767000  0.88029000  0.07862000  1.0 -0.0907867822
N  N187  1  0.30233000  0.38095000  0.68262000  1.0 -0.0907867822
N  N188  1  0.30167000  0.11905000  0.42138000  1.0 -0.0907867822
N  N189  1  0.61971000  0.81738000  0.19833000  1.0 -0.0907867822
N  N190  1  0.88029000  0.07862000  0.19767000  1.0 -0.0907867822
N  N191  1  0.38095000  0.68262000  0.30233000  1.0 -0.0907867822
N  N192  1  0.11905000  0.42138000  0.30167000  1.0 -0.0907867822
N  N193  1  0.79215000  0.39669000  0.16890000  1.0 -0.0286986053
N  N194  1  0.72779000  0.62325000  0.33110000  1.0 -0.0286986053
N  N195  1  0.77221000  0.10331000  0.89546000  1.0 -0.0286986053
N  N196  1  0.70785000  0.87675000  0.60454000  1.0 -0.0286986053
N  N197  1  0.16890000  0.79215000  0.39669000  1.0 -0.0286986053
N  N198  1  0.33110000  0.72779000  0.62325000  1.0 -0.0286986053
N  N199  1  0.89546000  0.77221000  0.10331000  1.0 -0.0286986053
N  N200  1  0.60454000  0.70785000  0.87675000  1.0 -0.0286986053
N  N201  1  0.39669000  0.16890000  0.79215000  1.0 -0.0286986053
N  N202  1  0.62325000  0.33110000  0.72779000  1.0 -0.0286986053
N  N203  1  0.10331000  0.89546000  0.77221000  1.0 -0.0286986053
N  N204  1  0.87675000  0.60454000  0.70785000  1.0 -0.0286986053
N  N205  1  0.89669000  0.29215000  0.66890000  1.0 -0.0286986053
N  N206  1  0.12325000  0.22779000  0.83110000  1.0 -0.0286986053
N  N207  1  0.60331000  0.27221000  0.39546000  1.0 -0.0286986053
N  N208  1  0.37675000  0.20785000  0.10454000  1.0 -0.0286986053
N  N209  1  0.29215000  0.66890000  0.89669000  1.0 -0.0286986053
N  N210  1  0.22779000  0.83110000  0.12325000  1.0 -0.0286986053
N  N211  1  0.27221000  0.39546000  0.60331000  1.0 -0.0286986053
N  N212  1  0.20785000  0.10454000  0.37675000  1.0 -0.0286986053
N  N213  1  0.66890000  0.89669000  0.29215000  1.0 -0.0286986053
N  N214  1  0.83110000  0.12325000  0.22779000  1.0 -0.0286986053
N  N215  1  0.39546000  0.60331000  0.27221000  1.0 -0.0286986053
N  N216  1  0.10454000  0.37675000  0.20785000  1.0 -0.0286986053
N  N217  1  0.76700000  0.40622000  0.18896000  1.0 -0.1039596163
N  N218  1  0.71726000  0.57804000  0.31104000  1.0 -0.1039596163
N  N219  1  0.78274000  0.09378000  0.86078000  1.0 -0.1039596163
N  N220  1  0.73300000  0.92196000  0.63922000  1.0 -0.1039596163
N  N221  1  0.18896000  0.76700000  0.40622000  1.0 -0.1039596163
N  N222  1  0.31104000  0.71726000  0.57804000  1.0 -0.1039596163
N  N223  1  0.86078000  0.78274000  0.09378000  1.0 -0.1039596163
N  N224  1  0.63922000  0.73300000  0.92196000  1.0 -0.1039596163
N  N225  1  0.40622000  0.18896000  0.76700000  1.0 -0.1039596163
N  N226  1  0.57804000  0.31104000  0.71726000  1.0 -0.1039596163
N  N227  1  0.09378000  0.86078000  0.78274000  1.0 -0.1039596163
N  N228  1  0.92196000  0.63922000  0.73300000  1.0 -0.1039596163
N  N229  1  0.90622000  0.26700000  0.68896000  1.0 -0.1039596163
N  N230  1  0.07804000  0.21726000  0.81104000  1.0 -0.1039596163
N  N231  1  0.59378000  0.28274000  0.36078000  1.0 -0.1039596163
N  N232  1  0.42196000  0.23300000  0.13922000  1.0 -0.1039596163
N  N233  1  0.26700000  0.68896000  0.90622000  1.0 -0.1039596163
N  N234  1  0.21726000  0.81104000  0.07804000  1.0 -0.1039596163
N  N235  1  0.28274000  0.36078000  0.59378000  1.0 -0.1039596163
N  N236  1  0.23300000  0.13922000  0.42196000  1.0 -0.1039596163
N  N237  1  0.68896000  0.90622000  0.26700000  1.0 -0.1039596163
N  N238  1  0.81104000  0.07804000  0.21726000  1.0 -0.1039596163
N  N239  1  0.36078000  0.59378000  0.28274000  1.0 -0.1039596163
N  N240  1  0.13922000  0.42196000  0.23300000  1.0 -0.1039596163
N  N241  1  0.78738000  0.33094000  0.18170000  1.0 -0.0286986053
N  N242  1  0.64924000  0.60568000  0.31830000  1.0 -0.0286986053
N  N243  1  0.85076000  0.16906000  0.95644000  1.0 -0.0286986053
N  N244  1  0.71262000  0.89432000  0.54356000  1.0 -0.0286986053
N  N245  1  0.18170000  0.78738000  0.33094000  1.0 -0.0286986053
N  N246  1  0.31830000  0.64924000  0.60568000  1.0 -0.0286986053
N  N247  1  0.95644000  0.85076000  0.16906000  1.0 -0.0286986053
N  N248  1  0.54356000  0.71262000  0.89432000  1.0 -0.0286986053
N  N249  1  0.33094000  0.18170000  0.78738000  1.0 -0.0286986053
N  N250  1  0.60568000  0.31830000  0.64924000  1.0 -0.0286986053
N  N251  1  0.16906000  0.95644000  0.85076000  1.0 -0.0286986053
N  N252  1  0.89432000  0.54356000  0.71262000  1.0 -0.0286986053
N  N253  1  0.83094000  0.28738000  0.68170000  1.0 -0.0286986053
N  N254  1  0.10568000  0.14924000  0.81830000  1.0 -0.0286986053
N  N255  1  0.66906000  0.35076000  0.45644000  1.0 -0.0286986053
N  N256  1  0.39432000  0.21262000  0.04356000  1.0 -0.0286986053
N  N257  1  0.28738000  0.68170000  0.83094000  1.0 -0.0286986053
N  N258  1  0.14924000  0.81830000  0.10568000  1.0 -0.0286986053
N  N259  1  0.35076000  0.45644000  0.66906000  1.0 -0.0286986053
N  N260  1  0.21262000  0.04356000  0.39432000  1.0 -0.0286986053
N  N261  1  0.68170000  0.83094000  0.28738000  1.0 -0.0286986053
N  N262  1  0.81830000  0.10568000  0.14924000  1.0 -0.0286986053
N  N263  1  0.45644000  0.66906000  0.35076000  1.0 -0.0286986053
N  N264  1  0.04356000  0.39432000  0.21262000  1.0 -0.0286986053
N  N265  1  0.76080000  0.33171000  0.20147000  1.0 -0.1039596163
N  N266  1  0.63024000  0.55933000  0.29853000  1.0 -0.1039596163
N  N267  1  0.86976000  0.16829000  0.92909000  1.0 -0.1039596163
N  N268  1  0.73920000  0.94067000  0.57091000  1.0 -0.1039596163
N  N269  1  0.20147000  0.76080000  0.33171000  1.0 -0.1039596163
N  N270  1  0.29853000  0.63024000  0.55933000  1.0 -0.1039596163
N  N271  1  0.92909000  0.86976000  0.16829000  1.0 -0.1039596163
N  N272  1  0.57091000  0.73920000  0.94067000  1.0 -0.1039596163
N  N273  1  0.33171000  0.20147000  0.76080000  1.0 -0.1039596163
N  N274  1  0.55933000  0.29853000  0.63024000  1.0 -0.1039596163
N  N275  1  0.16829000  0.92909000  0.86976000  1.0 -0.1039596163
N  N276  1  0.94067000  0.57091000  0.73920000  1.0 -0.1039596163
N  N277  1  0.83171000  0.26080000  0.70147000  1.0 -0.1039596163
N  N278  1  0.05933000  0.13024000  0.79853000  1.0 -0.1039596163
N  N279  1  0.66829000  0.36976000  0.42909000  1.0 -0.1039596163
N  N280  1  0.44067000  0.23920000  0.07091000  1.0 -0.1039596163
N  N281  1  0.26080000  0.70147000  0.83171000  1.0 -0.1039596163
N  N282  1  0.13024000  0.79853000  0.05933000  1.0 -0.1039596163
N  N283  1  0.36976000  0.42909000  0.66829000  1.0 -0.1039596163
N  N284  1  0.23920000  0.07091000  0.44067000  1.0 -0.1039596163
N  N285  1  0.70147000  0.83171000  0.26080000  1.0 -0.1039596163
N  N286  1  0.79853000  0.05933000  0.13024000  1.0 -0.1039596163
N  N287  1  0.42909000  0.66829000  0.36976000  1.0 -0.1039596163
N  N288  1  0.07091000  0.44067000  0.23920000  1.0 -0.1039596163
N  N289  1  0.71552000  0.17031000  0.21775000  1.0 0.0084358694
N  N290  1  0.45256000  0.49777000  0.28225000  1.0 0.0084358694
N  N291  1  0.04744000  0.32969000  0.04521000  1.0 0.0084358694
N  N292  1  0.78448000  0.00223000  0.45479000  1.0 0.0084358694
N  N293  1  0.21775000  0.71552000  0.17031000  1.0 0.0084358694
N  N294  1  0.28225000  0.45256000  0.49777000  1.0 0.0084358694
N  N295  1  0.04521000  0.04744000  0.32969000  1.0 0.0084358694
N  N296  1  0.45479000  0.78448000  0.00223000  1.0 0.0084358694
N  N297  1  0.17031000  0.21775000  0.71552000  1.0 0.0084358694
N  N298  1  0.49777000  0.28225000  0.45256000  1.0 0.0084358694
N  N299  1  0.32969000  0.04521000  0.04744000  1.0 0.0084358694
N  N300  1  0.00223000  0.45479000  0.78448000  1.0 0.0084358694
N  N301  1  0.67031000  0.21552000  0.71775000  1.0 0.0084358694
N  N302  1  0.99777000  0.95256000  0.78225000  1.0 0.0084358694
N  N303  1  0.82969000  0.54744000  0.54521000  1.0 0.0084358694
N  N304  1  0.50223000  0.28448000  0.95479000  1.0 0.0084358694
N  N305  1  0.21552000  0.71775000  0.67031000  1.0 0.0084358694
N  N306  1  0.95256000  0.78225000  0.99777000  1.0 0.0084358694
N  N307  1  0.54744000  0.54521000  0.82969000  1.0 0.0084358694
N  N308  1  0.28448000  0.95479000  0.50223000  1.0 0.0084358694
N  N309  1  0.71775000  0.67031000  0.21552000  1.0 0.0084358694
N  N310  1  0.78225000  0.99777000  0.95256000  1.0 0.0084358694
N  N311  1  0.54521000  0.82969000  0.54744000  1.0 0.0084358694
N  N312  1  0.95479000  0.50223000  0.28448000  1.0 0.0084358694
N  N313  1  0.67053000  0.15661000  0.20784000  1.0 -0.0611014345
N  N314  1  0.44877000  0.46269000  0.29216000  1.0 -0.0611014345
N  N315  1  0.05123000  0.34339000  0.01392000  1.0 -0.0611014345
N  N316  1  0.82947000  0.03731000  0.48608000  1.0 -0.0611014345
N  N317  1  0.20784000  0.67053000  0.15661000  1.0 -0.0611014345
N  N318  1  0.29216000  0.44877000  0.46269000  1.0 -0.0611014345
N  N319  1  0.01392000  0.05123000  0.34339000  1.0 -0.0611014345
N  N320  1  0.48608000  0.82947000  0.03731000  1.0 -0.0611014345
N  N321  1  0.15661000  0.20784000  0.67053000  1.0 -0.0611014345
N  N322  1  0.46269000  0.29216000  0.44877000  1.0 -0.0611014345
N  N323  1  0.34339000  0.01392000  0.05123000  1.0 -0.0611014345
N  N324  1  0.03731000  0.48608000  0.82947000  1.0 -0.0611014345
N  N325  1  0.65661000  0.17053000  0.70784000  1.0 -0.0611014345
N  N326  1  0.96269000  0.94877000  0.79216000  1.0 -0.0611014345
N  N327  1  0.84339000  0.55123000  0.51392000  1.0 -0.0611014345
N  N328  1  0.53731000  0.32947000  0.98608000  1.0 -0.0611014345
N  N329  1  0.17053000  0.70784000  0.65661000  1.0 -0.0611014345
N  N330  1  0.94877000  0.79216000  0.96269000  1.0 -0.0611014345
N  N331  1  0.55123000  0.51392000  0.84339000  1.0 -0.0611014345
N  N332  1  0.32947000  0.98608000  0.53731000  1.0 -0.0611014345
N  N333  1  0.70784000  0.65661000  0.17053000  1.0 -0.0611014345
N  N334  1  0.79216000  0.96269000  0.94877000  1.0 -0.0611014345
N  N335  1  0.51392000  0.84339000  0.55123000  1.0 -0.0611014345
N  N336  1  0.98608000  0.53731000  0.32947000  1.0 -0.0611014345
N  N337  1  0.70633000  0.17217000  0.14674000  1.0 -0.0286986053
N  N338  1  0.52543000  0.55959000  0.35326000  1.0 -0.0286986053
N  N339  1  0.97457000  0.32783000  0.03416000  1.0 -0.0286986053
N  N340  1  0.79367000  0.94041000  0.46584000  1.0 -0.0286986053
N  N341  1  0.14674000  0.70633000  0.17217000  1.0 -0.0286986053
N  N342  1  0.35326000  0.52543000  0.55959000  1.0 -0.0286986053
N  N343  1  0.03416000  0.97457000  0.32783000  1.0 -0.0286986053
N  N344  1  0.46584000  0.79367000  0.94041000  1.0 -0.0286986053
N  N345  1  0.17217000  0.14674000  0.70633000  1.0 -0.0286986053
N  N346  1  0.55959000  0.35326000  0.52543000  1.0 -0.0286986053
N  N347  1  0.32783000  0.03416000  0.97457000  1.0 -0.0286986053
N  N348  1  0.94041000  0.46584000  0.79367000  1.0 -0.0286986053
N  N349  1  0.67217000  0.20633000  0.64674000  1.0 -0.0286986053
N  N350  1  0.05959000  0.02543000  0.85326000  1.0 -0.0286986053
N  N351  1  0.82783000  0.47457000  0.53416000  1.0 -0.0286986053
N  N352  1  0.44041000  0.29367000  0.96584000  1.0 -0.0286986053
N  N353  1  0.20633000  0.64674000  0.67217000  1.0 -0.0286986053
N  N354  1  0.02543000  0.85326000  0.05959000  1.0 -0.0286986053
N  N355  1  0.47457000  0.53416000  0.82783000  1.0 -0.0286986053
N  N356  1  0.29367000  0.96584000  0.44041000  1.0 -0.0286986053
N  N357  1  0.64674000  0.67217000  0.20633000  1.0 -0.0286986053
N  N358  1  0.85326000  0.05959000  0.02543000  1.0 -0.0286986053
N  N359  1  0.53416000  0.82783000  0.47457000  1.0 -0.0286986053
N  N360  1  0.96584000  0.44041000  0.29367000  1.0 -0.0286986053
N  N361  1  0.66167000  0.16200000  0.13057000  1.0 -0.0796031683
N  N362  1  0.53143000  0.53110000  0.36943000  1.0 -0.0796031683
N  N363  1  0.96857000  0.33800000  0.99967000  1.0 -0.0796031683
N  N364  1  0.83833000  0.96890000  0.50033000  1.0 -0.0796031683
N  N365  1  0.13057000  0.66167000  0.16200000  1.0 -0.0796031683
N  N366  1  0.36943000  0.53143000  0.53110000  1.0 -0.0796031683
N  N367  1  0.99967000  0.96857000  0.33800000  1.0 -0.0796031683
N  N368  1  0.50033000  0.83833000  0.96890000  1.0 -0.0796031683
N  N369  1  0.16200000  0.13057000  0.66167000  1.0 -0.0796031683
N  N370  1  0.53110000  0.36943000  0.53143000  1.0 -0.0796031683
N  N371  1  0.33800000  0.99967000  0.96857000  1.0 -0.0796031683
N  N372  1  0.96890000  0.50033000  0.83833000  1.0 -0.0796031683
N  N373  1  0.66200000  0.16167000  0.63057000  1.0 -0.0796031683
N  N374  1  0.03110000  0.03143000  0.86943000  1.0 -0.0796031683
N  N375  1  0.83800000  0.46857000  0.49967000  1.0 -0.0796031683
N  N376  1  0.46890000  0.33833000  0.00033000  1.0 -0.0796031683
N  N377  1  0.16167000  0.63057000  0.66200000  1.0 -0.0796031683
N  N378  1  0.03143000  0.86943000  0.03110000  1.0 -0.0796031683
N  N379  1  0.46857000  0.49967000  0.83800000  1.0 -0.0796031683
N  N380  1  0.33833000  0.00033000  0.46890000  1.0 -0.0796031683
N  N381  1  0.63057000  0.66200000  0.16167000  1.0 -0.0796031683
N  N382  1  0.86943000  0.03110000  0.03143000  1.0 -0.0796031683
N  N383  1  0.49967000  0.83800000  0.46857000  1.0 -0.0796031683
N  N384  1  0.00033000  0.46890000  0.33833000  1.0 -0.0796031683
N  N385  1  0.69456000  0.09989000  0.14957000  1.0 -0.0181969902
N  N386  1  0.45032000  0.54499000  0.35043000  1.0 -0.0181969902
N  N387  1  0.04968000  0.40011000  0.09467000  1.0 -0.0181969902
N  N388  1  0.80544000  0.95501000  0.40533000  1.0 -0.0181969902
N  N389  1  0.14957000  0.69456000  0.09989000  1.0 -0.0181969902
N  N390  1  0.35043000  0.45032000  0.54499000  1.0 -0.0181969902
N  N391  1  0.09467000  0.04968000  0.40011000  1.0 -0.0181969902
N  N392  1  0.40533000  0.80544000  0.95501000  1.0 -0.0181969902
N  N393  1  0.09989000  0.14957000  0.69456000  1.0 -0.0181969902
N  N394  1  0.54499000  0.35043000  0.45032000  1.0 -0.0181969902
N  N395  1  0.40011000  0.09467000  0.04968000  1.0 -0.0181969902
N  N396  1  0.95501000  0.40533000  0.80544000  1.0 -0.0181969902
N  N397  1  0.59989000  0.19456000  0.64957000  1.0 -0.0181969902
N  N398  1  0.04499000  0.95032000  0.85043000  1.0 -0.0181969902
N  N399  1  0.90011000  0.54968000  0.59467000  1.0 -0.0181969902
N  N400  1  0.45501000  0.30544000  0.90533000  1.0 -0.0181969902
N  N401  1  0.19456000  0.64957000  0.59989000  1.0 -0.0181969902
N  N402  1  0.95032000  0.85043000  0.04499000  1.0 -0.0181969902
N  N403  1  0.54968000  0.59467000  0.90011000  1.0 -0.0181969902
N  N404  1  0.30544000  0.90533000  0.45501000  1.0 -0.0181969902
N  N405  1  0.64957000  0.59989000  0.19456000  1.0 -0.0181969902
N  N406  1  0.85043000  0.04499000  0.95032000  1.0 -0.0181969902
N  N407  1  0.59467000  0.90011000  0.54968000  1.0 -0.0181969902
N  N408  1  0.90533000  0.45501000  0.30544000  1.0 -0.0181969902
N  N409  1  0.64853000  0.08136000  0.13157000  1.0 -0.0611014345
N  N410  1  0.44979000  0.51696000  0.36843000  1.0 -0.0611014345
N  N411  1  0.05021000  0.41864000  0.06717000  1.0 -0.0611014345
N  N412  1  0.85147000  0.98304000  0.43283000  1.0 -0.0611014345
N  N413  1  0.13157000  0.64853000  0.08136000  1.0 -0.0611014345
N  N414  1  0.36843000  0.44979000  0.51696000  1.0 -0.0611014345
N  N415  1  0.06717000  0.05021000  0.41864000  1.0 -0.0611014345
N  N416  1  0.43283000  0.85147000  0.98304000  1.0 -0.0611014345
N  N417  1  0.08136000  0.13157000  0.64853000  1.0 -0.0611014345
N  N418  1  0.51696000  0.36843000  0.44979000  1.0 -0.0611014345
N  N419  1  0.41864000  0.06717000  0.05021000  1.0 -0.0611014345
N  N420  1  0.98304000  0.43283000  0.85147000  1.0 -0.0611014345
N  N421  1  0.58136000  0.14853000  0.63157000  1.0 -0.0611014345
N  N422  1  0.01696000  0.94979000  0.86843000  1.0 -0.0611014345
N  N423  1  0.91864000  0.55021000  0.56717000  1.0 -0.0611014345
N  N424  1  0.48304000  0.35147000  0.93283000  1.0 -0.0611014345
N  N425  1  0.14853000  0.63157000  0.58136000  1.0 -0.0611014345
N  N426  1  0.94979000  0.86843000  0.01696000  1.0 -0.0611014345
N  N427  1  0.55021000  0.56717000  0.91864000  1.0 -0.0611014345
N  N428  1  0.35147000  0.93283000  0.48304000  1.0 -0.0611014345
N  N429  1  0.63157000  0.58136000  0.14853000  1.0 -0.0611014345
N  N430  1  0.86843000  0.01696000  0.94979000  1.0 -0.0611014345
N  N431  1  0.56717000  0.91864000  0.55021000  1.0 -0.0611014345
N  N432  1  0.93283000  0.48304000  0.35147000  1.0 -0.0611014345
O  O1  1  0.50000000  0.00000000  0.92626000  1.0 0.9498940056
O  O2  1  0.57374000  0.57374000  0.57374000  1.0 0.9498940056
O  O3  1  0.92626000  0.50000000  0.00000000  1.0 0.9498940056
O  O4  1  0.00000000  0.92626000  0.50000000  1.0 0.9498940056
O  O5  1  0.50000000  0.00000000  0.42626000  1.0 0.9498940056
O  O6  1  0.07374000  0.07374000  0.07374000  1.0 0.9498940056
O  O7  1  0.00000000  0.42626000  0.50000000  1.0 0.9498940056
O  O8  1  0.42626000  0.50000000  0.00000000  1.0 0.9498940056
O  O9  1  0.55610000  0.01250000  0.96140000  1.0 -0.4617332855
O  O10  1  0.55110000  0.59470000  0.53860000  1.0 -0.4617332855
O  O11  1  0.94890000  0.48750000  0.04360000  1.0 -0.4660730416
O  O12  1  0.94390000  0.90530000  0.45640000  1.0 -0.4617332855
O  O13  1  0.96140000  0.55610000  0.01250000  1.0 -0.4617332855
O  O14  1  0.53860000  0.55110000  0.59470000  1.0 -0.4617332855
O  O15  1  0.04360000  0.94890000  0.48750000  1.0 -0.4617332855
O  O16  1  0.45640000  0.94390000  0.90530000  1.0 -0.4617332855
O  O17  1  0.01250000  0.96140000  0.55610000  1.0 -0.4617332855
O  O18  1  0.59470000  0.53860000  0.55110000  1.0 -0.4617332855
O  O19  1  0.48750000  0.04360000  0.94890000  1.0 -0.4617332855
O  O20  1  0.90530000  0.45640000  0.94390000  1.0 -0.4617332855
O  O21  1  0.51250000  0.05610000  0.46140000  1.0 -0.4617332855
O  O22  1  0.09470000  0.05110000  0.03860000  1.0 -0.4617332855
O  O23  1  0.98750000  0.44890000  0.54360000  1.0 -0.4617332855
O  O24  1  0.40530000  0.44390000  0.95640000  1.0 -0.4660730416
O  O25  1  0.05610000  0.46140000  0.51250000  1.0 -0.4617332855
O  O26  1  0.05110000  0.03860000  0.09470000  1.0 -0.4617332855
O  O27  1  0.44890000  0.54360000  0.98750000  1.0 -0.4660730416
O  O28  1  0.44390000  0.95640000  0.40530000  1.0 -0.4617332855
O  O29  1  0.46140000  0.51250000  0.05610000  1.0 -0.4660730416
O  O30  1  0.03860000  0.09470000  0.05110000  1.0 -0.4617332855
O  O31  1  0.54360000  0.98750000  0.44890000  1.0 -0.4617332855
O  O32  1  0.95640000  0.40530000  0.44390000  1.0 -0.4617332855
