# DDEC6 charges by PACMAN v1.1 (https://github.com/mtap-research/PACMAN-charge/)
data_WIBWEM_ASR_pacman
_symmetry_space_group_name_H-M   'P 1'
_cell_length_a   10.14960000
_cell_length_b   10.14960000
_cell_length_c   10.14960000
_cell_angle_alpha   99.84560000
_cell_angle_beta   99.84560000
_cell_angle_gamma   131.14800000
_symmetry_Int_Tables_number   1
_chemical_formula_structural   CuH32(C10N3)4
_chemical_formula_sum   'Cu1 H32 C40 N12'
_cell_volume   716.85059379
_cell_formula_units_Z   1
loop_
 _symmetry_equiv_pos_site_id
 _symmetry_equiv_pos_as_xyz
  1  'x, y, z'
loop_
 _atom_site_type_symbol
 _atom_site_label
 _atom_site_symmetry_multiplicity
 _atom_site_fract_x
 _atom_site_fract_y
 _atom_site_fract_z
 _atom_site_occupancy
 _atom_site_charge
Cu  Cu1  1  0.50000000  0.50000000  0.00000000  1.0 0.2219684927
H  H1  1  0.28431000  0.10745000  0.85766000  1.0 0.088300911
H  H2  1  0.23447000  0.90079000  0.66410000  1.0 0.0630823078
H  H3  1  0.74459000  0.91530000  0.20503000  1.0 0.1084748862
H  H4  1  0.68480000  0.06196000  0.37396000  1.0 0.088300911
H  H5  1  0.24979000  0.42665000  0.14234000  1.0 0.088300911
H  H6  1  0.23669000  0.57037000  0.33590000  1.0 0.0630823078
H  H7  1  0.71027000  0.53956000  0.79497000  1.0 0.1084748862
H  H8  1  0.68800000  0.31084000  0.62604000  1.0 0.088300911
H  H9  1  0.42665000  0.28431000  0.17686000  1.0 0.088300911
H  H10  1  0.57037000  0.23447000  0.33368000  1.0 0.0630823078
H  H11  1  0.53956000  0.74459000  0.82929000  1.0 0.1084748862
H  H12  1  0.31084000  0.68480000  0.62284000  1.0 0.088300911
H  H13  1  0.10745000  0.24979000  0.82314000  1.0 0.088300911
H  H14  1  0.90079000  0.23669000  0.66632000  1.0 0.0630823078
H  H15  1  0.91530000  0.71027000  0.17071000  1.0 0.1084748862
H  H16  1  0.06196000  0.68800000  0.37716000  1.0 0.088300911
H  H17  1  0.71569000  0.89255000  0.14234000  1.0 0.088300911
H  H18  1  0.76553000  0.09921000  0.33590000  1.0 0.0630823078
H  H19  1  0.25541000  0.08470000  0.79497000  1.0 0.1084748862
H  H20  1  0.31520000  0.93804000  0.62604000  1.0 0.088300911
H  H21  1  0.75021000  0.57335000  0.85766000  1.0 0.088300911
H  H22  1  0.76331000  0.42963000  0.66410000  1.0 0.0630823078
H  H23  1  0.28973000  0.46044000  0.20503000  1.0 0.1084748862
H  H24  1  0.31200000  0.68916000  0.37396000  1.0 0.088300911
H  H25  1  0.57335000  0.71569000  0.82314000  1.0 0.088300911
H  H26  1  0.42963000  0.76553000  0.66632000  1.0 0.0630823078
H  H27  1  0.46044000  0.25541000  0.17071000  1.0 0.1084748862
H  H28  1  0.68916000  0.31520000  0.37716000  1.0 0.088300911
H  H29  1  0.89255000  0.75021000  0.17686000  1.0 0.088300911
H  H30  1  0.09921000  0.76331000  0.33368000  1.0 0.0630823078
H  H31  1  0.08470000  0.28973000  0.82929000  1.0 0.1084748862
H  H32  1  0.93804000  0.31200000  0.62284000  1.0 0.088300911
C  C1  1  0.36600000  0.15810000  0.80610000  1.0 -0.1757506968
C  C2  1  0.34100000  0.03350000  0.69570000  1.0 -0.0929724106
C  C3  1  0.53120000  0.16460000  0.63300000  1.0 0.0630823078
C  C4  1  0.63200000  0.84170000  0.22370000  1.0 -0.1332731934
C  C5  1  0.61140000  0.93200000  0.32340000  1.0 0.0105008785
C  C6  1  0.35200000  0.55990000  0.19390000  1.0 -0.1741630845
C  C7  1  0.33780000  0.64530000  0.30430000  1.0 -0.0929724106
C  C8  1  0.53160000  0.89820000  0.36700000  1.0 0.0630823078
C  C9  1  0.61800000  0.40830000  0.77630000  1.0 -0.1332731934
C  C10  1  0.60860000  0.28800000  0.67660000  1.0 0.0105008785
C  C11  1  0.55990000  0.36600000  0.20790000  1.0 -0.1741630845
C  C12  1  0.64530000  0.34100000  0.30750000  1.0 -0.0929724106
C  C13  1  0.89820000  0.53120000  0.36660000  1.0 0.0630823078
C  C14  1  0.40830000  0.63200000  0.79030000  1.0 -0.1332731934
C  C15  1  0.28800000  0.61140000  0.67940000  1.0 0.0105008785
C  C16  1  0.15810000  0.35200000  0.79210000  1.0 -0.1741630845
C  C17  1  0.03350000  0.33780000  0.69250000  1.0 -0.0929724106
C  C18  1  0.16460000  0.53160000  0.63340000  1.0 0.0630823078
C  C19  1  0.84170000  0.61800000  0.20970000  1.0 -0.1332731934
C  C20  1  0.93200000  0.60860000  0.32060000  1.0 0.0105008785
C  C21  1  0.63400000  0.84190000  0.19390000  1.0 -0.1741630845
C  C22  1  0.65900000  0.96650000  0.30430000  1.0 -0.0929724106
C  C23  1  0.46880000  0.83540000  0.36700000  1.0 0.0630823078
C  C24  1  0.36800000  0.15830000  0.77630000  1.0 -0.1332731934
C  C25  1  0.38860000  0.06800000  0.67660000  1.0 0.0105008785
C  C26  1  0.64800000  0.44010000  0.80610000  1.0 -0.1741630845
C  C27  1  0.66220000  0.35470000  0.69570000  1.0 -0.0929724106
C  C28  1  0.46840000  0.10180000  0.63300000  1.0 0.0630823078
C  C29  1  0.38200000  0.59170000  0.22370000  1.0 -0.1332731934
C  C30  1  0.39140000  0.71200000  0.32340000  1.0 0.0105008785
C  C31  1  0.44010000  0.63400000  0.79210000  1.0 -0.1741630845
C  C32  1  0.35470000  0.65900000  0.69250000  1.0 -0.0929724106
C  C33  1  0.10180000  0.46880000  0.63340000  1.0 0.0630823078
C  C34  1  0.59170000  0.36800000  0.20970000  1.0 -0.1332731934
C  C35  1  0.71200000  0.38860000  0.32060000  1.0 0.0105008785
C  C36  1  0.84190000  0.64800000  0.20790000  1.0 -0.1741630845
C  C37  1  0.96650000  0.66220000  0.30750000  1.0 -0.0929724106
C  C38  1  0.83540000  0.46840000  0.36660000  1.0 0.0630823078
C  C39  1  0.15830000  0.38200000  0.79030000  1.0 -0.1332731934
C  C40  1  0.06800000  0.39140000  0.67940000  1.0 0.0105008785
N  N1  1  0.55830000  0.08470000  0.52580000  1.0 -0.0243288407
N  N2  1  0.55890000  0.03250000  0.47420000  1.0 -0.0243288407
N  N3  1  0.03250000  0.55830000  0.47360000  1.0 -0.0252035515
N  N4  1  0.08470000  0.55890000  0.52640000  1.0 -0.0252035515
N  N5  1  0.44170000  0.91530000  0.47420000  1.0 -0.0252035515
N  N6  1  0.44110000  0.96750000  0.52580000  1.0 -0.0252035515
N  N7  1  0.96750000  0.44170000  0.52640000  1.0 -0.0243288407
N  N8  1  0.91530000  0.44110000  0.47360000  1.0 -0.0243288407
N  N9  1  0.50000000  0.34540000  0.84540000  1.0 -0.0482298553
N  N10  1  0.50000000  0.65460000  0.15460000  1.0 -0.0482298553
N  N11  1  0.65460000  0.50000000  0.15460000  1.0 -0.0482298553
N  N12  1  0.34540000  0.50000000  0.84540000  1.0 -0.0482298553
