# DDEC6 charges by PACMAN v1.1 (https://github.com/mtap-research/PACMAN-charge/)
data_WICSOU_ASR_pacman
_symmetry_space_group_name_H-M   'P 1'
_cell_length_a   17.88070000
_cell_length_b   17.88070000
_cell_length_c   34.22170000
_cell_angle_alpha   90.00000000
_cell_angle_beta   90.00000000
_cell_angle_gamma   120.00000000
_symmetry_Int_Tables_number   1
_chemical_formula_structural   Tb3H24C72S18N(O3F)4
_chemical_formula_sum   'Tb12 H96 C288 S72 N4 O48 F16'
_cell_volume   9475.48055897
_cell_formula_units_Z   4
loop_
 _symmetry_equiv_pos_site_id
 _symmetry_equiv_pos_as_xyz
  1  'x, y, z'
loop_
 _atom_site_type_symbol
 _atom_site_label
 _atom_site_symmetry_multiplicity
 _atom_site_fract_x
 _atom_site_fract_y
 _atom_site_fract_z
 _atom_site_occupancy
 _atom_site_charge
Tb  Tb1  1  0.00000000  0.12725000  0.45188000  1.0 2.038975125
Tb  Tb2  1  0.87275000  0.87275000  0.45188000  1.0 2.038975125
Tb  Tb3  1  0.12725000  0.00000000  0.45188000  1.0 2.038975125
Tb  Tb4  1  0.00000000  0.87275000  0.95188000  1.0 2.038975125
Tb  Tb5  1  0.12725000  0.12725000  0.95188000  1.0 2.038975125
Tb  Tb6  1  0.87275000  0.00000000  0.95188000  1.0 2.038975125
Tb  Tb7  1  0.12725000  0.00000000  0.04812000  1.0 2.038975125
Tb  Tb8  1  0.87275000  0.87275000  0.04812000  1.0 2.038975125
Tb  Tb9  1  0.00000000  0.12725000  0.04812000  1.0 2.038975125
Tb  Tb10  1  0.87275000  0.00000000  0.54812000  1.0 2.038975125
Tb  Tb11  1  0.12725000  0.12725000  0.54812000  1.0 2.038975125
Tb  Tb12  1  0.00000000  0.87275000  0.54812000  1.0 2.038975125
H  H1  1  0.19967000  0.56158000  0.46012000  1.0 0.1265514771
H  H2  1  0.43842000  0.63809000  0.46012000  1.0 0.1265514771
H  H3  1  0.36191000  0.80033000  0.46012000  1.0 0.1265514771
H  H4  1  0.80033000  0.43842000  0.96012000  1.0 0.1265514771
H  H5  1  0.56158000  0.36191000  0.96012000  1.0 0.1265514771
H  H6  1  0.63809000  0.19967000  0.96012000  1.0 0.1265514771
H  H7  1  0.56158000  0.19967000  0.03988000  1.0 0.1265514771
H  H8  1  0.63809000  0.43842000  0.03988000  1.0 0.1265514771
H  H9  1  0.80033000  0.36191000  0.03988000  1.0 0.1265514771
H  H10  1  0.43842000  0.80033000  0.53988000  1.0 0.1265514771
H  H11  1  0.36191000  0.56158000  0.53988000  1.0 0.1265514771
H  H12  1  0.19967000  0.63809000  0.53988000  1.0 0.1265514771
H  H13  1  0.80033000  0.43842000  0.53988000  1.0 0.1265514771
H  H14  1  0.56158000  0.36191000  0.53988000  1.0 0.1265514771
H  H15  1  0.63809000  0.19967000  0.53988000  1.0 0.1265514771
H  H16  1  0.19967000  0.56158000  0.03988000  1.0 0.1265514771
H  H17  1  0.43842000  0.63809000  0.03988000  1.0 0.1265514771
H  H18  1  0.36191000  0.80033000  0.03988000  1.0 0.1265514771
H  H19  1  0.43842000  0.80033000  0.96012000  1.0 0.1265514771
H  H20  1  0.36191000  0.56158000  0.96012000  1.0 0.1265514771
H  H21  1  0.19967000  0.63809000  0.96012000  1.0 0.1265514771
H  H22  1  0.56158000  0.19967000  0.46012000  1.0 0.1265514771
H  H23  1  0.63809000  0.43842000  0.46012000  1.0 0.1265514771
H  H24  1  0.80033000  0.36191000  0.46012000  1.0 0.1265514771
H  H25  1  0.12225000  0.41107000  0.46061000  1.0 0.1226398354
H  H26  1  0.58893000  0.71118000  0.46061000  1.0 0.1226398354
H  H27  1  0.28882000  0.87775000  0.46061000  1.0 0.1226398354
H  H28  1  0.87775000  0.58893000  0.96061000  1.0 0.1226398354
H  H29  1  0.41107000  0.28882000  0.96061000  1.0 0.1226398354
H  H30  1  0.71118000  0.12225000  0.96061000  1.0 0.1226398354
H  H31  1  0.41107000  0.12225000  0.03939000  1.0 0.1226398354
H  H32  1  0.71118000  0.58893000  0.03939000  1.0 0.1226398354
H  H33  1  0.87775000  0.28882000  0.03939000  1.0 0.1226398354
H  H34  1  0.58893000  0.87775000  0.53939000  1.0 0.1226398354
H  H35  1  0.28882000  0.41107000  0.53939000  1.0 0.1226398354
H  H36  1  0.12225000  0.71118000  0.53939000  1.0 0.1226398354
H  H37  1  0.87775000  0.58893000  0.53939000  1.0 0.1226398354
H  H38  1  0.41107000  0.28882000  0.53939000  1.0 0.1226398354
H  H39  1  0.71118000  0.12225000  0.53939000  1.0 0.1226398354
H  H40  1  0.12225000  0.41107000  0.03939000  1.0 0.1226398354
H  H41  1  0.58893000  0.71118000  0.03939000  1.0 0.1226398354
H  H42  1  0.28882000  0.87775000  0.03939000  1.0 0.1226398354
H  H43  1  0.58893000  0.87775000  0.96061000  1.0 0.1226398354
H  H44  1  0.28882000  0.41107000  0.96061000  1.0 0.1226398354
H  H45  1  0.12225000  0.71118000  0.96061000  1.0 0.1226398354
H  H46  1  0.41107000  0.12225000  0.46061000  1.0 0.1226398354
H  H47  1  0.71118000  0.58893000  0.46061000  1.0 0.1226398354
H  H48  1  0.87775000  0.28882000  0.46061000  1.0 0.1226398354
H  H49  1  0.75238000  0.86526000  0.34398000  1.0 0.105397738
H  H50  1  0.13474000  0.88712000  0.34398000  1.0 0.105397738
H  H51  1  0.11288000  0.24762000  0.34398000  1.0 0.105397738
H  H52  1  0.24762000  0.13474000  0.84398000  1.0 0.105397738
H  H53  1  0.86526000  0.11288000  0.84398000  1.0 0.105397738
H  H54  1  0.88712000  0.75238000  0.84398000  1.0 0.105397738
H  H55  1  0.86526000  0.75238000  0.15602000  1.0 0.105397738
H  H56  1  0.88712000  0.13474000  0.15602000  1.0 0.105397738
H  H57  1  0.24762000  0.11288000  0.15602000  1.0 0.105397738
H  H58  1  0.13474000  0.24762000  0.65602000  1.0 0.105397738
H  H59  1  0.11288000  0.86526000  0.65602000  1.0 0.105397738
H  H60  1  0.75238000  0.88712000  0.65602000  1.0 0.105397738
H  H61  1  0.24762000  0.13474000  0.65602000  1.0 0.105397738
H  H62  1  0.86526000  0.11288000  0.65602000  1.0 0.105397738
H  H63  1  0.88712000  0.75238000  0.65602000  1.0 0.105397738
H  H64  1  0.75238000  0.86526000  0.15602000  1.0 0.105397738
H  H65  1  0.13474000  0.88712000  0.15602000  1.0 0.105397738
H  H66  1  0.11288000  0.24762000  0.15602000  1.0 0.105397738
H  H67  1  0.13474000  0.24762000  0.84398000  1.0 0.105397738
H  H68  1  0.11288000  0.86526000  0.84398000  1.0 0.105397738
H  H69  1  0.75238000  0.88712000  0.84398000  1.0 0.105397738
H  H70  1  0.86526000  0.75238000  0.34398000  1.0 0.105397738
H  H71  1  0.88712000  0.13474000  0.34398000  1.0 0.105397738
H  H72  1  0.24762000  0.11288000  0.34398000  1.0 0.105397738
H  H73  1  0.73368000  0.85665000  0.16656000  1.0 0.0991257806
H  H74  1  0.14335000  0.87703000  0.16656000  1.0 0.0991257806
H  H75  1  0.12297000  0.26632000  0.16656000  1.0 0.0991257806
H  H76  1  0.26632000  0.14335000  0.66656000  1.0 0.0991257806
H  H77  1  0.85665000  0.12297000  0.66656000  1.0 0.0991257806
H  H78  1  0.87703000  0.73368000  0.66656000  1.0 0.0991257806
H  H79  1  0.85665000  0.73368000  0.33344000  1.0 0.0991257806
H  H80  1  0.87703000  0.14335000  0.33344000  1.0 0.0991257806
H  H81  1  0.26632000  0.12297000  0.33344000  1.0 0.0991257806
H  H82  1  0.14335000  0.26632000  0.83344000  1.0 0.0991257806
H  H83  1  0.12297000  0.85665000  0.83344000  1.0 0.0991257806
H  H84  1  0.73368000  0.87703000  0.83344000  1.0 0.0991257806
H  H85  1  0.26632000  0.14335000  0.83344000  1.0 0.0991257806
H  H86  1  0.85665000  0.12297000  0.83344000  1.0 0.0991257806
H  H87  1  0.87703000  0.73368000  0.83344000  1.0 0.0991257806
H  H88  1  0.73368000  0.85665000  0.33344000  1.0 0.0991257806
H  H89  1  0.14335000  0.87703000  0.33344000  1.0 0.0991257806
H  H90  1  0.12297000  0.26632000  0.33344000  1.0 0.0991257806
H  H91  1  0.14335000  0.26632000  0.66656000  1.0 0.0991257806
H  H92  1  0.12297000  0.85665000  0.66656000  1.0 0.0991257806
H  H93  1  0.73368000  0.87703000  0.66656000  1.0 0.0991257806
H  H94  1  0.85665000  0.73368000  0.16656000  1.0 0.0991257806
H  H95  1  0.87703000  0.14335000  0.16656000  1.0 0.0991257806
H  H96  1  0.26632000  0.12297000  0.16656000  1.0 0.0991257806
C  C1  1  0.28695000  0.57390000  0.50000000  1.0 0.1640101825
C  C2  1  0.42610000  0.71305000  0.50000000  1.0 0.1640101825
C  C3  1  0.28695000  0.71305000  0.50000000  1.0 0.1640101825
C  C4  1  0.71305000  0.42610000  0.00000000  1.0 0.1640101825
C  C5  1  0.57390000  0.28695000  0.00000000  1.0 0.1640101825
C  C6  1  0.71305000  0.28695000  0.00000000  1.0 0.1640101825
C  C7  1  0.71305000  0.42610000  0.50000000  1.0 0.1640101825
C  C8  1  0.57390000  0.28695000  0.50000000  1.0 0.1640101825
C  C9  1  0.71305000  0.28695000  0.50000000  1.0 0.1640101825
C  C10  1  0.28695000  0.57390000  0.00000000  1.0 0.1640101825
C  C11  1  0.42610000  0.71305000  0.00000000  1.0 0.1640101825
C  C12  1  0.28695000  0.71305000  0.00000000  1.0 0.1640101825
C  C13  1  0.21710000  0.53080000  0.47650000  1.0 -0.195069104
C  C14  1  0.46920000  0.68630000  0.47650000  1.0 -0.195069104
C  C15  1  0.31370000  0.78290000  0.47650000  1.0 -0.195069104
C  C16  1  0.78290000  0.46920000  0.97650000  1.0 -0.195069104
C  C17  1  0.53080000  0.31370000  0.97650000  1.0 -0.195069104
C  C18  1  0.68630000  0.21710000  0.97650000  1.0 -0.195069104
C  C19  1  0.53080000  0.21710000  0.02350000  1.0 -0.193161024
C  C20  1  0.68630000  0.46920000  0.02350000  1.0 -0.193161024
C  C21  1  0.78290000  0.31370000  0.02350000  1.0 -0.193161024
C  C22  1  0.46920000  0.78290000  0.52350000  1.0 -0.195069104
C  C23  1  0.31370000  0.53080000  0.52350000  1.0 -0.195069104
C  C24  1  0.21710000  0.68630000  0.52350000  1.0 -0.195069104
C  C25  1  0.78290000  0.46920000  0.52350000  1.0 -0.193161024
C  C26  1  0.53080000  0.31370000  0.52350000  1.0 -0.193161024
C  C27  1  0.68630000  0.21710000  0.52350000  1.0 -0.193161024
C  C28  1  0.21710000  0.53080000  0.02350000  1.0 -0.195069104
C  C29  1  0.46920000  0.68630000  0.02350000  1.0 -0.195069104
C  C30  1  0.31370000  0.78290000  0.02350000  1.0 -0.195069104
C  C31  1  0.46920000  0.78290000  0.97650000  1.0 -0.195069104
C  C32  1  0.31370000  0.53080000  0.97650000  1.0 -0.195069104
C  C33  1  0.21710000  0.68630000  0.97650000  1.0 -0.195069104
C  C34  1  0.53080000  0.21710000  0.47650000  1.0 -0.193161024
C  C35  1  0.68630000  0.46920000  0.47650000  1.0 -0.193161024
C  C36  1  0.78290000  0.31370000  0.47650000  1.0 -0.193161024
C  C37  1  0.17130000  0.44100000  0.47650000  1.0 -0.082519455
C  C38  1  0.55900000  0.73030000  0.47650000  1.0 -0.082519455
C  C39  1  0.26970000  0.82870000  0.47650000  1.0 -0.082519455
C  C40  1  0.82870000  0.55900000  0.97650000  1.0 -0.082519455
C  C41  1  0.44100000  0.26970000  0.97650000  1.0 -0.082519455
C  C42  1  0.73030000  0.17130000  0.97650000  1.0 -0.082519455
C  C43  1  0.44100000  0.17130000  0.02350000  1.0 -0.082519455
C  C44  1  0.73030000  0.55900000  0.02350000  1.0 -0.082519455
C  C45  1  0.82870000  0.26970000  0.02350000  1.0 -0.082519455
C  C46  1  0.55900000  0.82870000  0.52350000  1.0 -0.082519455
C  C47  1  0.26970000  0.44100000  0.52350000  1.0 -0.082519455
C  C48  1  0.17130000  0.73030000  0.52350000  1.0 -0.082519455
C  C49  1  0.82870000  0.55900000  0.52350000  1.0 -0.082519455
C  C50  1  0.44100000  0.26970000  0.52350000  1.0 -0.082519455
C  C51  1  0.73030000  0.17130000  0.52350000  1.0 -0.082519455
C  C52  1  0.17130000  0.44100000  0.02350000  1.0 -0.082519455
C  C53  1  0.55900000  0.73030000  0.02350000  1.0 -0.082519455
C  C54  1  0.26970000  0.82870000  0.02350000  1.0 -0.082519455
C  C55  1  0.55900000  0.82870000  0.97650000  1.0 -0.082519455
C  C56  1  0.26970000  0.44100000  0.97650000  1.0 -0.082519455
C  C57  1  0.17130000  0.73030000  0.97650000  1.0 -0.082519455
C  C58  1  0.44100000  0.17130000  0.47650000  1.0 -0.082519455
C  C59  1  0.73030000  0.55900000  0.47650000  1.0 -0.082519455
C  C60  1  0.82870000  0.26970000  0.47650000  1.0 -0.082519455
C  C61  1  0.19785000  0.39570000  0.50000000  1.0 -0.0451955779
C  C62  1  0.60430000  0.80215000  0.50000000  1.0 -0.0451955779
C  C63  1  0.19785000  0.80215000  0.50000000  1.0 -0.0451955779
C  C64  1  0.80215000  0.60430000  0.00000000  1.0 -0.0451955779
C  C65  1  0.39570000  0.19785000  0.00000000  1.0 -0.0451955779
C  C66  1  0.80215000  0.19785000  0.00000000  1.0 -0.0451955779
C  C67  1  0.80215000  0.60430000  0.50000000  1.0 -0.0451955779
C  C68  1  0.39570000  0.19785000  0.50000000  1.0 -0.0451955779
C  C69  1  0.80215000  0.19785000  0.50000000  1.0 -0.0451955779
C  C70  1  0.19785000  0.39570000  0.00000000  1.0 -0.0451955779
C  C71  1  0.60430000  0.80215000  0.00000000  1.0 -0.0451955779
C  C72  1  0.19785000  0.80215000  0.00000000  1.0 -0.0451955779
C  C73  1  0.14900000  0.29800000  0.50000000  1.0 0.6499966239
C  C74  1  0.70200000  0.85100000  0.50000000  1.0 0.6499966239
C  C75  1  0.14900000  0.85100000  0.50000000  1.0 0.6499966239
C  C76  1  0.85100000  0.70200000  0.00000000  1.0 0.6499966239
C  C77  1  0.29800000  0.14900000  0.00000000  1.0 0.6499966239
C  C78  1  0.85100000  0.14900000  0.00000000  1.0 0.6499966239
C  C79  1  0.85100000  0.70200000  0.50000000  1.0 0.6499966239
C  C80  1  0.29800000  0.14900000  0.50000000  1.0 0.6499966239
C  C81  1  0.85100000  0.14900000  0.50000000  1.0 0.6499966239
C  C82  1  0.14900000  0.29800000  0.00000000  1.0 0.6499966239
C  C83  1  0.70200000  0.85100000  0.00000000  1.0 0.6499966239
C  C84  1  0.14900000  0.85100000  0.00000000  1.0 0.6499966239
C  C85  1  0.86520000  0.00000000  0.38520000  1.0 0.2823556468
C  C86  1  0.00000000  0.86520000  0.38520000  1.0 0.2823556468
C  C87  1  0.13480000  0.13480000  0.38520000  1.0 0.2823556468
C  C88  1  0.13480000  0.00000000  0.88520000  1.0 0.2823556468
C  C89  1  0.00000000  0.13480000  0.88520000  1.0 0.2823556468
C  C90  1  0.86520000  0.86520000  0.88520000  1.0 0.2823556468
C  C91  1  0.00000000  0.86520000  0.11480000  1.0 0.2823556468
C  C92  1  0.86520000  0.00000000  0.11480000  1.0 0.2823556468
C  C93  1  0.13480000  0.13480000  0.11480000  1.0 0.2823556468
C  C94  1  0.00000000  0.13480000  0.61480000  1.0 0.2823556468
C  C95  1  0.13480000  0.00000000  0.61480000  1.0 0.2823556468
C  C96  1  0.86520000  0.86520000  0.61480000  1.0 0.2823556468
C  C97  1  0.85130000  0.98610000  0.34530000  1.0 0.0107425757
C  C98  1  0.01390000  0.86520000  0.34530000  1.0 0.0107425757
C  C99  1  0.13480000  0.14870000  0.34530000  1.0 0.0107425757
C  C100  1  0.14870000  0.01390000  0.84530000  1.0 0.0107425757
C  C101  1  0.98610000  0.13480000  0.84530000  1.0 0.0159125828
C  C102  1  0.86520000  0.85130000  0.84530000  1.0 0.0107425757
C  C103  1  0.98610000  0.85130000  0.15470000  1.0 0.0107425757
C  C104  1  0.86520000  0.01390000  0.15470000  1.0 0.0107425757
C  C105  1  0.14870000  0.13480000  0.15470000  1.0 0.0107425757
C  C106  1  0.01390000  0.14870000  0.65470000  1.0 0.0107425757
C  C107  1  0.13480000  0.98610000  0.65470000  1.0 0.0107425757
C  C108  1  0.85130000  0.86520000  0.65470000  1.0 0.0107425757
C  C109  1  0.14870000  0.01390000  0.65470000  1.0 0.0107425757
C  C110  1  0.98610000  0.13480000  0.65470000  1.0 0.0159125828
C  C111  1  0.86520000  0.85130000  0.65470000  1.0 0.0107425757
C  C112  1  0.85130000  0.98610000  0.15470000  1.0 0.0107425757
C  C113  1  0.01390000  0.86520000  0.15470000  1.0 0.0107425757
C  C114  1  0.13480000  0.14870000  0.15470000  1.0 0.0107425757
C  C115  1  0.01390000  0.14870000  0.84530000  1.0 0.0107425757
C  C116  1  0.13480000  0.98610000  0.84530000  1.0 0.0107425757
C  C117  1  0.85130000  0.86520000  0.84530000  1.0 0.0107425757
C  C118  1  0.98610000  0.85130000  0.34530000  1.0 0.0107425757
C  C119  1  0.86520000  0.01390000  0.34530000  1.0 0.0107425757
C  C120  1  0.14870000  0.13480000  0.34530000  1.0 0.0107425757
C  C121  1  0.78990000  0.91250000  0.32840000  1.0 -0.0415103396
C  C122  1  0.08750000  0.87740000  0.32840000  1.0 -0.0451955779
C  C123  1  0.12260000  0.21010000  0.32840000  1.0 -0.0451955779
C  C124  1  0.21010000  0.08750000  0.82840000  1.0 -0.0451955779
C  C125  1  0.91250000  0.12260000  0.82840000  1.0 -0.0451955779
C  C126  1  0.87740000  0.78990000  0.82840000  1.0 -0.0415103396
C  C127  1  0.91250000  0.78990000  0.17160000  1.0 -0.0415103396
C  C128  1  0.87740000  0.08750000  0.17160000  1.0 -0.0415103396
C  C129  1  0.21010000  0.12260000  0.17160000  1.0 -0.0451955779
C  C130  1  0.08750000  0.21010000  0.67160000  1.0 -0.0451955779
C  C131  1  0.12260000  0.91250000  0.67160000  1.0 -0.0451955779
C  C132  1  0.78990000  0.87740000  0.67160000  1.0 -0.0415103396
C  C133  1  0.21010000  0.08750000  0.67160000  1.0 -0.0451955779
C  C134  1  0.91250000  0.12260000  0.67160000  1.0 -0.0451955779
C  C135  1  0.87740000  0.78990000  0.67160000  1.0 -0.0415103396
C  C136  1  0.78990000  0.91250000  0.17160000  1.0 -0.0415103396
C  C137  1  0.08750000  0.87740000  0.17160000  1.0 -0.0451955779
C  C138  1  0.12260000  0.21010000  0.17160000  1.0 -0.0451955779
C  C139  1  0.08750000  0.21010000  0.82840000  1.0 -0.0451955779
C  C140  1  0.12260000  0.91250000  0.82840000  1.0 -0.0451955779
C  C141  1  0.78990000  0.87740000  0.82840000  1.0 -0.0415103396
C  C142  1  0.91250000  0.78990000  0.32840000  1.0 -0.0415103396
C  C143  1  0.87740000  0.08750000  0.32840000  1.0 -0.0415103396
C  C144  1  0.21010000  0.12260000  0.32840000  1.0 -0.0451955779
C  C145  1  0.78240000  0.90700000  0.28870000  1.0 -0.0081755651
C  C146  1  0.09300000  0.87540000  0.28870000  1.0 -0.0081755651
C  C147  1  0.12460000  0.21760000  0.28870000  1.0 -0.0081755651
C  C148  1  0.21760000  0.09300000  0.78870000  1.0 -0.0081755651
C  C149  1  0.90700000  0.12460000  0.78870000  1.0 -0.0081755651
C  C150  1  0.87540000  0.78240000  0.78870000  1.0 -0.0081755651
C  C151  1  0.90700000  0.78240000  0.21130000  1.0 -0.0081755651
C  C152  1  0.87540000  0.09300000  0.21130000  1.0 -0.0081755651
C  C153  1  0.21760000  0.12460000  0.21130000  1.0 -0.0081755651
C  C154  1  0.09300000  0.21760000  0.71130000  1.0 -0.0081755651
C  C155  1  0.12460000  0.90700000  0.71130000  1.0 -0.0081755651
C  C156  1  0.78240000  0.87540000  0.71130000  1.0 -0.0081755651
C  C157  1  0.21760000  0.09300000  0.71130000  1.0 -0.0081755651
C  C158  1  0.90700000  0.12460000  0.71130000  1.0 -0.0081755651
C  C159  1  0.87540000  0.78240000  0.71130000  1.0 -0.0081755651
C  C160  1  0.78240000  0.90700000  0.21130000  1.0 -0.0081755651
C  C161  1  0.09300000  0.87540000  0.21130000  1.0 -0.0081755651
C  C162  1  0.12460000  0.21760000  0.21130000  1.0 -0.0081755651
C  C163  1  0.09300000  0.21760000  0.78870000  1.0 -0.0081755651
C  C164  1  0.12460000  0.90700000  0.78870000  1.0 -0.0081755651
C  C165  1  0.78240000  0.87540000  0.78870000  1.0 -0.0081755651
C  C166  1  0.90700000  0.78240000  0.28870000  1.0 -0.0081755651
C  C167  1  0.87540000  0.09300000  0.28870000  1.0 -0.0081755651
C  C168  1  0.21760000  0.12460000  0.28870000  1.0 -0.0081755651
C  C169  1  0.84260000  0.98190000  0.27180000  1.0 0.0107425757
C  C170  1  0.01810000  0.86070000  0.27180000  1.0 0.0107425757
C  C171  1  0.13930000  0.15740000  0.27180000  1.0 0.0107425757
C  C172  1  0.15740000  0.01810000  0.77180000  1.0 0.0107425757
C  C173  1  0.98190000  0.13930000  0.77180000  1.0 0.0107425757
C  C174  1  0.86070000  0.84260000  0.77180000  1.0 0.0107425757
C  C175  1  0.98190000  0.84260000  0.22820000  1.0 0.0107425757
C  C176  1  0.86070000  0.01810000  0.22820000  1.0 0.0107425757
C  C177  1  0.15740000  0.13930000  0.22820000  1.0 0.0107425757
C  C178  1  0.01810000  0.15740000  0.72820000  1.0 0.0107425757
C  C179  1  0.13930000  0.98190000  0.72820000  1.0 0.0107425757
C  C180  1  0.84260000  0.86070000  0.72820000  1.0 0.0107425757
C  C181  1  0.15740000  0.01810000  0.72820000  1.0 0.0107425757
C  C182  1  0.98190000  0.13930000  0.72820000  1.0 0.0107425757
C  C183  1  0.86070000  0.84260000  0.72820000  1.0 0.0107425757
C  C184  1  0.84260000  0.98190000  0.22820000  1.0 0.0107425757
C  C185  1  0.01810000  0.86070000  0.22820000  1.0 0.0107425757
C  C186  1  0.13930000  0.15740000  0.22820000  1.0 0.0107425757
C  C187  1  0.01810000  0.15740000  0.77180000  1.0 0.0107425757
C  C188  1  0.13930000  0.98190000  0.77180000  1.0 0.0107425757
C  C189  1  0.84260000  0.86070000  0.77180000  1.0 0.0107425757
C  C190  1  0.98190000  0.84260000  0.27180000  1.0 0.0107425757
C  C191  1  0.86070000  0.01810000  0.27180000  1.0 0.0107425757
C  C192  1  0.15740000  0.13930000  0.27180000  1.0 0.0107425757
C  C193  1  0.84900000  0.99300000  0.23250000  1.0 -0.0415103396
C  C194  1  0.00700000  0.85600000  0.23250000  1.0 -0.0415103396
C  C195  1  0.14400000  0.15100000  0.23250000  1.0 -0.0415103396
C  C196  1  0.15100000  0.00700000  0.73250000  1.0 -0.0415103396
C  C197  1  0.99300000  0.14400000  0.73250000  1.0 -0.0415103396
C  C198  1  0.85600000  0.84900000  0.73250000  1.0 -0.0415103396
C  C199  1  0.99300000  0.84900000  0.26750000  1.0 -0.0415103396
C  C200  1  0.85600000  0.00700000  0.26750000  1.0 -0.0415103396
C  C201  1  0.15100000  0.14400000  0.26750000  1.0 -0.0415103396
C  C202  1  0.00700000  0.15100000  0.76750000  1.0 -0.0415103396
C  C203  1  0.14400000  0.99300000  0.76750000  1.0 -0.0415103396
C  C204  1  0.84900000  0.85600000  0.76750000  1.0 -0.0415103396
C  C205  1  0.15100000  0.00700000  0.76750000  1.0 -0.0415103396
C  C206  1  0.99300000  0.14400000  0.76750000  1.0 -0.0415103396
C  C207  1  0.85600000  0.84900000  0.76750000  1.0 -0.0415103396
C  C208  1  0.84900000  0.99300000  0.26750000  1.0 -0.0415103396
C  C209  1  0.00700000  0.85600000  0.26750000  1.0 -0.0415103396
C  C210  1  0.14400000  0.15100000  0.26750000  1.0 -0.0415103396
C  C211  1  0.00700000  0.15100000  0.73250000  1.0 -0.0415103396
C  C212  1  0.14400000  0.99300000  0.73250000  1.0 -0.0415103396
C  C213  1  0.84900000  0.85600000  0.73250000  1.0 -0.0415103396
C  C214  1  0.99300000  0.84900000  0.23250000  1.0 -0.0415103396
C  C215  1  0.85600000  0.00700000  0.23250000  1.0 -0.0415103396
C  C216  1  0.15100000  0.14400000  0.23250000  1.0 -0.0415103396
C  C217  1  0.78520000  0.91600000  0.21820000  1.0 -0.0193408192
C  C218  1  0.08400000  0.86920000  0.21820000  1.0 -0.0193408192
C  C219  1  0.13080000  0.21480000  0.21820000  1.0 -0.0193408192
C  C220  1  0.21480000  0.08400000  0.71820000  1.0 -0.0193408192
C  C221  1  0.91600000  0.13080000  0.71820000  1.0 -0.0193408192
C  C222  1  0.86920000  0.78520000  0.71820000  1.0 -0.0193408192
C  C223  1  0.91600000  0.78520000  0.28180000  1.0 -0.0193408192
C  C224  1  0.86920000  0.08400000  0.28180000  1.0 -0.0193408192
C  C225  1  0.21480000  0.13080000  0.28180000  1.0 -0.0193408192
C  C226  1  0.08400000  0.21480000  0.78180000  1.0 -0.0193408192
C  C227  1  0.13080000  0.91600000  0.78180000  1.0 -0.0193408192
C  C228  1  0.78520000  0.86920000  0.78180000  1.0 -0.0193408192
C  C229  1  0.21480000  0.08400000  0.78180000  1.0 -0.0193408192
C  C230  1  0.91600000  0.13080000  0.78180000  1.0 -0.0193408192
C  C231  1  0.86920000  0.78520000  0.78180000  1.0 -0.0193408192
C  C232  1  0.78520000  0.91600000  0.28180000  1.0 -0.0193408192
C  C233  1  0.08400000  0.86920000  0.28180000  1.0 -0.0193408192
C  C234  1  0.13080000  0.21480000  0.28180000  1.0 -0.0193408192
C  C235  1  0.08400000  0.21480000  0.71820000  1.0 -0.0193408192
C  C236  1  0.13080000  0.91600000  0.71820000  1.0 -0.0193408192
C  C237  1  0.78520000  0.86920000  0.71820000  1.0 -0.0193408192
C  C238  1  0.91600000  0.78520000  0.21820000  1.0 -0.0193408192
C  C239  1  0.86920000  0.08400000  0.21820000  1.0 -0.0193408192
C  C240  1  0.21480000  0.13080000  0.21820000  1.0 -0.0193408192
C  C241  1  0.77600000  0.90700000  0.17870000  1.0 -0.065947151
C  C242  1  0.09300000  0.86900000  0.17870000  1.0 -0.065947151
C  C243  1  0.13100000  0.22400000  0.17870000  1.0 -0.065947151
C  C244  1  0.22400000  0.09300000  0.67870000  1.0 -0.065947151
C  C245  1  0.90700000  0.13100000  0.67870000  1.0 -0.065947151
C  C246  1  0.86900000  0.77600000  0.67870000  1.0 -0.065947151
C  C247  1  0.90700000  0.77600000  0.32130000  1.0 -0.065947151
C  C248  1  0.86900000  0.09300000  0.32130000  1.0 -0.065947151
C  C249  1  0.22400000  0.13100000  0.32130000  1.0 -0.065947151
C  C250  1  0.09300000  0.22400000  0.82130000  1.0 -0.065947151
C  C251  1  0.13100000  0.90700000  0.82130000  1.0 -0.065947151
C  C252  1  0.77600000  0.86900000  0.82130000  1.0 -0.065947151
C  C253  1  0.22400000  0.09300000  0.82130000  1.0 -0.065947151
C  C254  1  0.90700000  0.13100000  0.82130000  1.0 -0.065947151
C  C255  1  0.86900000  0.77600000  0.82130000  1.0 -0.065947151
C  C256  1  0.77600000  0.90700000  0.32130000  1.0 -0.065947151
C  C257  1  0.09300000  0.86900000  0.32130000  1.0 -0.065947151
C  C258  1  0.13100000  0.22400000  0.32130000  1.0 -0.065947151
C  C259  1  0.09300000  0.22400000  0.67870000  1.0 -0.065947151
C  C260  1  0.13100000  0.90700000  0.67870000  1.0 -0.065947151
C  C261  1  0.77600000  0.86900000  0.67870000  1.0 -0.065947151
C  C262  1  0.90700000  0.77600000  0.17870000  1.0 -0.065947151
C  C263  1  0.86900000  0.09300000  0.17870000  1.0 -0.065947151
C  C264  1  0.22400000  0.13100000  0.17870000  1.0 -0.065947151
C  C265  1  0.83280000  0.97900000  0.15830000  1.0 0.0159125828
C  C266  1  0.02100000  0.85380000  0.15830000  1.0 0.0107425757
C  C267  1  0.14620000  0.16720000  0.15830000  1.0 0.0107425757
C  C268  1  0.16720000  0.02100000  0.65830000  1.0 0.0107425757
C  C269  1  0.97900000  0.14620000  0.65830000  1.0 0.0159125828
C  C270  1  0.85380000  0.83280000  0.65830000  1.0 0.0159125828
C  C271  1  0.97900000  0.83280000  0.34170000  1.0 0.0159125828
C  C272  1  0.85380000  0.02100000  0.34170000  1.0 0.0159125828
C  C273  1  0.16720000  0.14620000  0.34170000  1.0 0.0159125828
C  C274  1  0.02100000  0.16720000  0.84170000  1.0 0.0159125828
C  C275  1  0.14620000  0.97900000  0.84170000  1.0 0.0159125828
C  C276  1  0.83280000  0.85380000  0.84170000  1.0 0.0159125828
C  C277  1  0.16720000  0.02100000  0.84170000  1.0 0.0107425757
C  C278  1  0.97900000  0.14620000  0.84170000  1.0 0.0159125828
C  C279  1  0.85380000  0.83280000  0.84170000  1.0 0.0159125828
C  C280  1  0.83280000  0.97900000  0.34170000  1.0 0.0159125828
C  C281  1  0.02100000  0.85380000  0.34170000  1.0 0.0107425757
C  C282  1  0.14620000  0.16720000  0.34170000  1.0 0.0159125828
C  C283  1  0.02100000  0.16720000  0.65830000  1.0 0.0159125828
C  C284  1  0.14620000  0.97900000  0.65830000  1.0 0.0159125828
C  C285  1  0.83280000  0.85380000  0.65830000  1.0 0.0159125828
C  C286  1  0.97900000  0.83280000  0.15830000  1.0 0.0159125828
C  C287  1  0.85380000  0.02100000  0.15830000  1.0 0.0159125828
C  C288  1  0.16720000  0.14620000  0.15830000  1.0 0.0159125828
S  S1  1  0.90720000  0.05790000  0.30680000  1.0 0.0395607819
S  S2  1  0.94210000  0.84930000  0.30680000  1.0 0.0395607819
S  S3  1  0.15070000  0.09280000  0.30680000  1.0 0.0395607819
S  S4  1  0.09280000  0.94210000  0.80680000  1.0 0.0395607819
S  S5  1  0.05790000  0.15070000  0.80680000  1.0 0.0395607819
S  S6  1  0.84930000  0.90720000  0.80680000  1.0 0.0395607819
S  S7  1  0.05790000  0.90720000  0.19320000  1.0 0.0395607819
S  S8  1  0.84930000  0.94210000  0.19320000  1.0 0.0395607819
S  S9  1  0.09280000  0.15070000  0.19320000  1.0 0.0395607819
S  S10  1  0.94210000  0.09280000  0.69320000  1.0 0.0395607819
S  S11  1  0.15070000  0.05790000  0.69320000  1.0 0.0395607819
S  S12  1  0.90720000  0.84930000  0.69320000  1.0 0.0395607819
S  S13  1  0.09280000  0.94210000  0.69320000  1.0 0.0395607819
S  S14  1  0.05790000  0.15070000  0.69320000  1.0 0.0395607819
S  S15  1  0.84930000  0.90720000  0.69320000  1.0 0.0395607819
S  S16  1  0.90720000  0.05790000  0.19320000  1.0 0.0395607819
S  S17  1  0.94210000  0.84930000  0.19320000  1.0 0.0395607819
S  S18  1  0.15070000  0.09280000  0.19320000  1.0 0.0395607819
S  S19  1  0.94210000  0.09280000  0.80680000  1.0 0.0395607819
S  S20  1  0.15070000  0.05790000  0.80680000  1.0 0.0395607819
S  S21  1  0.90720000  0.84930000  0.80680000  1.0 0.0395607819
S  S22  1  0.05790000  0.90720000  0.30680000  1.0 0.0395607819
S  S23  1  0.84930000  0.94210000  0.30680000  1.0 0.0395607819
S  S24  1  0.09280000  0.15070000  0.30680000  1.0 0.0395607819
S  S25  1  0.72070000  0.83390000  0.25140000  1.0 -0.0193408192
S  S26  1  0.16610000  0.88680000  0.25140000  1.0 -0.0193408192
S  S27  1  0.11320000  0.27930000  0.25140000  1.0 -0.0193408192
S  S28  1  0.27930000  0.16610000  0.75140000  1.0 -0.0081755651
S  S29  1  0.83390000  0.11320000  0.75140000  1.0 -0.0193408192
S  S30  1  0.88680000  0.72070000  0.75140000  1.0 -0.0193408192
S  S31  1  0.83390000  0.72070000  0.24860000  1.0 -0.0193408192
S  S32  1  0.88680000  0.16610000  0.24860000  1.0 -0.0193408192
S  S33  1  0.27930000  0.11320000  0.24860000  1.0 -0.0193408192
S  S34  1  0.16610000  0.27930000  0.74860000  1.0 -0.0193408192
S  S35  1  0.11320000  0.83390000  0.74860000  1.0 -0.0193408192
S  S36  1  0.72070000  0.88680000  0.74860000  1.0 -0.0193408192
S  S37  1  0.27930000  0.16610000  0.74860000  1.0 -0.0081755651
S  S38  1  0.83390000  0.11320000  0.74860000  1.0 -0.0193408192
S  S39  1  0.88680000  0.72070000  0.74860000  1.0 -0.0193408192
S  S40  1  0.72070000  0.83390000  0.24860000  1.0 -0.0193408192
S  S41  1  0.16610000  0.88680000  0.24860000  1.0 -0.0193408192
S  S42  1  0.11320000  0.27930000  0.24860000  1.0 -0.0193408192
S  S43  1  0.16610000  0.27930000  0.75140000  1.0 -0.0193408192
S  S44  1  0.11320000  0.83390000  0.75140000  1.0 -0.0193408192
S  S45  1  0.72070000  0.88680000  0.75140000  1.0 -0.0193408192
S  S46  1  0.83390000  0.72070000  0.25140000  1.0 -0.0193408192
S  S47  1  0.88680000  0.16610000  0.25140000  1.0 -0.0193408192
S  S48  1  0.27930000  0.11320000  0.25140000  1.0 -0.0193408192
S  S49  1  0.90020000  0.05890000  0.19210000  1.0 0.0584521506
S  S50  1  0.94110000  0.84130000  0.19210000  1.0 0.0584521506
S  S51  1  0.15870000  0.09980000  0.19210000  1.0 0.0584521506
S  S52  1  0.09980000  0.94110000  0.69210000  1.0 0.0584521506
S  S53  1  0.05890000  0.15870000  0.69210000  1.0 0.0584521506
S  S54  1  0.84130000  0.90020000  0.69210000  1.0 0.0584521506
S  S55  1  0.05890000  0.90020000  0.30790000  1.0 0.0584521506
S  S56  1  0.84130000  0.94110000  0.30790000  1.0 0.0584521506
S  S57  1  0.09980000  0.15870000  0.30790000  1.0 0.0584521506
S  S58  1  0.94110000  0.09980000  0.80790000  1.0 0.0584521506
S  S59  1  0.15870000  0.05890000  0.80790000  1.0 0.0584521506
S  S60  1  0.90020000  0.84130000  0.80790000  1.0 0.0584521506
S  S61  1  0.09980000  0.94110000  0.80790000  1.0 0.0584521506
S  S62  1  0.05890000  0.15870000  0.80790000  1.0 0.0584521506
S  S63  1  0.84130000  0.90020000  0.80790000  1.0 0.0584521506
S  S64  1  0.90020000  0.05890000  0.30790000  1.0 0.0584521506
S  S65  1  0.94110000  0.84130000  0.30790000  1.0 0.0584521506
S  S66  1  0.15870000  0.09980000  0.30790000  1.0 0.0584521506
S  S67  1  0.94110000  0.09980000  0.69210000  1.0 0.0584521506
S  S68  1  0.15870000  0.05890000  0.69210000  1.0 0.0584521506
S  S69  1  0.90020000  0.84130000  0.69210000  1.0 0.0584521506
S  S70  1  0.05890000  0.90020000  0.19210000  1.0 0.0584521506
S  S71  1  0.84130000  0.94110000  0.19210000  1.0 0.0584521506
S  S72  1  0.09980000  0.15870000  0.19210000  1.0 0.0584521506
N  N1  1  0.33333333  0.66666667  0.50000000  1.0 -0.193161024
N  N2  1  0.66666667  0.33333333  0.00000000  1.0 -0.193161024
N  N3  1  0.66666667  0.33333333  0.50000000  1.0 -0.193161024
N  N4  1  0.33333333  0.66666667  0.00000000  1.0 -0.193161024
O  O1  1  0.09560000  0.26370000  0.47240000  1.0 -0.6469541461
O  O2  1  0.73630000  0.83190000  0.47240000  1.0 -0.6469541461
O  O3  1  0.16810000  0.90440000  0.47240000  1.0 -0.6469541461
O  O4  1  0.90440000  0.73630000  0.97240000  1.0 -0.6469541461
O  O5  1  0.26370000  0.16810000  0.97240000  1.0 -0.6469541461
O  O6  1  0.83190000  0.09560000  0.97240000  1.0 -0.6469541461
O  O7  1  0.26370000  0.09560000  0.02760000  1.0 -0.6469541461
O  O8  1  0.83190000  0.73630000  0.02760000  1.0 -0.6469541461
O  O9  1  0.90440000  0.16810000  0.02760000  1.0 -0.6469541461
O  O10  1  0.73630000  0.90440000  0.52760000  1.0 -0.6469541461
O  O11  1  0.16810000  0.26370000  0.52760000  1.0 -0.6469541461
O  O12  1  0.09560000  0.83190000  0.52760000  1.0 -0.6469541461
O  O13  1  0.90440000  0.73630000  0.52760000  1.0 -0.6469541461
O  O14  1  0.26370000  0.16810000  0.52760000  1.0 -0.6469541461
O  O15  1  0.83190000  0.09560000  0.52760000  1.0 -0.6469541461
O  O16  1  0.09560000  0.26370000  0.02760000  1.0 -0.6469541461
O  O17  1  0.73630000  0.83190000  0.02760000  1.0 -0.6469541461
O  O18  1  0.16810000  0.90440000  0.02760000  1.0 -0.6469541461
O  O19  1  0.73630000  0.90440000  0.97240000  1.0 -0.6469541461
O  O20  1  0.16810000  0.26370000  0.97240000  1.0 -0.6469541461
O  O21  1  0.09560000  0.83190000  0.97240000  1.0 -0.6469541461
O  O22  1  0.26370000  0.09560000  0.47240000  1.0 -0.6469541461
O  O23  1  0.83190000  0.73630000  0.47240000  1.0 -0.6469541461
O  O24  1  0.90440000  0.16810000  0.47240000  1.0 -0.6469541461
O  O25  1  0.90410000  0.07000000  0.40040000  1.0 -0.4893751985
O  O26  1  0.93000000  0.83410000  0.40040000  1.0 -0.4893751985
O  O27  1  0.16590000  0.09590000  0.40040000  1.0 -0.4893751985
O  O28  1  0.09590000  0.93000000  0.90040000  1.0 -0.4893751985
O  O29  1  0.07000000  0.16590000  0.90040000  1.0 -0.4893751985
O  O30  1  0.83410000  0.90410000  0.90040000  1.0 -0.4893751985
O  O31  1  0.07000000  0.90410000  0.09960000  1.0 -0.4893751985
O  O32  1  0.83410000  0.93000000  0.09960000  1.0 -0.4893751985
O  O33  1  0.09590000  0.16590000  0.09960000  1.0 -0.4893751985
O  O34  1  0.93000000  0.09590000  0.59960000  1.0 -0.4893751985
O  O35  1  0.16590000  0.07000000  0.59960000  1.0 -0.4893751985
O  O36  1  0.90410000  0.83410000  0.59960000  1.0 -0.4893751985
O  O37  1  0.09590000  0.93000000  0.59960000  1.0 -0.4893751985
O  O38  1  0.07000000  0.16590000  0.59960000  1.0 -0.4893751985
O  O39  1  0.83410000  0.90410000  0.59960000  1.0 -0.4893751985
O  O40  1  0.90410000  0.07000000  0.09960000  1.0 -0.4893751985
O  O41  1  0.93000000  0.83410000  0.09960000  1.0 -0.4893751985
O  O42  1  0.16590000  0.09590000  0.09960000  1.0 -0.4893751985
O  O43  1  0.93000000  0.09590000  0.90040000  1.0 -0.4893751985
O  O44  1  0.16590000  0.07000000  0.90040000  1.0 -0.4893751985
O  O45  1  0.90410000  0.83410000  0.90040000  1.0 -0.4893751985
O  O46  1  0.07000000  0.90410000  0.40040000  1.0 -0.4893751985
O  O47  1  0.83410000  0.93000000  0.40040000  1.0 -0.4893751985
O  O48  1  0.09590000  0.16590000  0.40040000  1.0 -0.4893751985
F  F1  1  0.88990000  0.00000000  0.48100000  1.0 -0.7463243499
F  F2  1  0.00000000  0.88990000  0.48100000  1.0 -0.7463243499
F  F3  1  0.11010000  0.11010000  0.48100000  1.0 -0.7463243499
F  F4  1  0.11010000  0.00000000  0.98100000  1.0 -0.7463243499
F  F5  1  0.00000000  0.11010000  0.98100000  1.0 -0.7463243499
F  F6  1  0.88990000  0.88990000  0.98100000  1.0 -0.7463243499
F  F7  1  0.00000000  0.88990000  0.01900000  1.0 -0.7463243499
F  F8  1  0.88990000  0.00000000  0.01900000  1.0 -0.7463243499
F  F9  1  0.11010000  0.11010000  0.01900000  1.0 -0.7463243499
F  F10  1  0.00000000  0.11010000  0.51900000  1.0 -0.7463243499
F  F11  1  0.11010000  0.00000000  0.51900000  1.0 -0.7463243499
F  F12  1  0.88990000  0.88990000  0.51900000  1.0 -0.7463243499
F  F13  1  0.00000000  0.00000000  0.43550000  1.0 -0.7076872583
F  F14  1  0.00000000  0.00000000  0.93550000  1.0 -0.7076872583
F  F15  1  0.00000000  0.00000000  0.06450000  1.0 -0.7076872583
F  F16  1  0.00000000  0.00000000  0.56450000  1.0 -0.7076872583
