# DDEC6 charges by PACMAN v1.1 (https://github.com/mtap-research/PACMAN-charge/)
data_WICSIO_FSR_pacman
_symmetry_space_group_name_H-M   'P 1'
_cell_length_a   18.03780000
_cell_length_b   18.03780000
_cell_length_c   27.58860000
_cell_angle_alpha   90.00000000
_cell_angle_beta   90.00000000
_cell_angle_gamma   120.00000000
_symmetry_Int_Tables_number   1
_chemical_formula_structural   Tb3H48C83NO15F4
_chemical_formula_sum   'Tb12 H192 C332 N4 O60 F16'
_cell_volume   7773.69377447
_cell_formula_units_Z   4
loop_
 _symmetry_equiv_pos_site_id
 _symmetry_equiv_pos_as_xyz
  1  'x, y, z'
loop_
 _atom_site_type_symbol
 _atom_site_label
 _atom_site_symmetry_multiplicity
 _atom_site_fract_x
 _atom_site_fract_y
 _atom_site_fract_z
 _atom_site_occupancy
 _atom_site_charge
Tb  Tb1  1  0.87466000  0.00000000  0.80756000  1.0 2.0336579028
Tb  Tb2  1  0.00000000  0.87466000  0.80756000  1.0 2.0336579028
Tb  Tb3  1  0.12534000  0.12534000  0.80756000  1.0 2.0230548623
Tb  Tb4  1  0.12534000  0.00000000  0.30756000  1.0 2.0336579028
Tb  Tb5  1  0.00000000  0.12534000  0.30756000  1.0 2.0336579028
Tb  Tb6  1  0.87466000  0.87466000  0.30756000  1.0 2.0230548623
Tb  Tb7  1  0.00000000  0.87466000  0.19244000  1.0 2.0336579028
Tb  Tb8  1  0.87466000  0.00000000  0.19244000  1.0 2.0336579028
Tb  Tb9  1  0.12534000  0.12534000  0.19244000  1.0 2.0230548623
Tb  Tb10  1  0.00000000  0.12534000  0.69244000  1.0 2.0336579028
Tb  Tb11  1  0.12534000  0.00000000  0.69244000  1.0 2.0336579028
Tb  Tb12  1  0.87466000  0.87466000  0.69244000  1.0 2.0230548623
H  H1  1  0.58633000  0.71034000  0.70243000  1.0 0.1269596013
H  H2  1  0.28966000  0.87599000  0.70243000  1.0 0.1269596013
H  H3  1  0.12401000  0.41367000  0.70243000  1.0 0.1269596013
H  H4  1  0.41367000  0.28966000  0.20243000  1.0 0.1269596013
H  H5  1  0.71034000  0.12401000  0.20243000  1.0 0.1269596013
H  H6  1  0.87599000  0.58633000  0.20243000  1.0 0.1269596013
H  H7  1  0.71034000  0.58633000  0.29757000  1.0 0.1269596013
H  H8  1  0.87599000  0.28966000  0.29757000  1.0 0.1269596013
H  H9  1  0.41367000  0.12401000  0.29757000  1.0 0.1269596013
H  H10  1  0.28966000  0.41367000  0.79757000  1.0 0.1269596013
H  H11  1  0.12401000  0.71034000  0.79757000  1.0 0.1269596013
H  H12  1  0.58633000  0.87599000  0.79757000  1.0 0.1269596013
H  H13  1  0.41367000  0.28966000  0.79757000  1.0 0.1269596013
H  H14  1  0.71034000  0.12401000  0.79757000  1.0 0.1269596013
H  H15  1  0.87599000  0.58633000  0.79757000  1.0 0.1269596013
H  H16  1  0.58633000  0.71034000  0.29757000  1.0 0.1269596013
H  H17  1  0.28966000  0.87599000  0.29757000  1.0 0.1269596013
H  H18  1  0.12401000  0.41367000  0.29757000  1.0 0.1269596013
H  H19  1  0.28966000  0.41367000  0.20243000  1.0 0.1269596013
H  H20  1  0.12401000  0.71034000  0.20243000  1.0 0.1269596013
H  H21  1  0.58633000  0.87599000  0.20243000  1.0 0.1269596013
H  H22  1  0.71034000  0.58633000  0.70243000  1.0 0.1269596013
H  H23  1  0.87599000  0.28966000  0.70243000  1.0 0.1269596013
H  H24  1  0.41367000  0.12401000  0.70243000  1.0 0.1269596013
H  H25  1  0.43950000  0.63685000  0.70235000  1.0 0.1372442375
H  H26  1  0.36315000  0.80264000  0.70235000  1.0 0.1372442375
H  H27  1  0.19736000  0.56051000  0.70235000  1.0 0.1372442375
H  H28  1  0.56050000  0.36315000  0.20235000  1.0 0.1372442375
H  H29  1  0.63685000  0.19736000  0.20235000  1.0 0.1372442375
H  H30  1  0.80264000  0.43949000  0.20235000  1.0 0.1372442375
H  H31  1  0.63685000  0.43950000  0.29765000  1.0 0.1372442375
H  H32  1  0.80264000  0.36315000  0.29765000  1.0 0.1372442375
H  H33  1  0.56051000  0.19736000  0.29765000  1.0 0.1372442375
H  H34  1  0.36315000  0.56050000  0.79765000  1.0 0.1372442375
H  H35  1  0.19736000  0.63685000  0.79765000  1.0 0.1372442375
H  H36  1  0.43949000  0.80264000  0.79765000  1.0 0.1372442375
H  H37  1  0.56051000  0.36315000  0.79765000  1.0 0.1372442375
H  H38  1  0.63685000  0.19736000  0.79765000  1.0 0.1372442375
H  H39  1  0.80264000  0.43950000  0.79765000  1.0 0.1372442375
H  H40  1  0.43949000  0.63685000  0.29765000  1.0 0.1372442375
H  H41  1  0.36315000  0.80264000  0.29765000  1.0 0.1372442375
H  H42  1  0.19736000  0.56050000  0.29765000  1.0 0.1372442375
H  H43  1  0.36315000  0.56051000  0.20235000  1.0 0.1372442375
H  H44  1  0.19736000  0.63685000  0.20235000  1.0 0.1372442375
H  H45  1  0.43950000  0.80264000  0.20235000  1.0 0.1372442375
H  H46  1  0.63685000  0.43949000  0.70235000  1.0 0.1372442375
H  H47  1  0.80264000  0.36315000  0.70235000  1.0 0.1372442375
H  H48  1  0.56050000  0.19736000  0.70235000  1.0 0.1372442375
H  H49  1  0.09714000  0.12971000  0.95421000  1.0 0.0931750153
H  H50  1  0.87029000  0.96743000  0.95421000  1.0 0.0931750153
H  H51  1  0.03257000  0.90286000  0.95421000  1.0 0.0931750153
H  H52  1  0.90286000  0.87029000  0.45421000  1.0 0.0931750153
H  H53  1  0.12971000  0.03257000  0.45421000  1.0 0.0931750153
H  H54  1  0.96743000  0.09714000  0.45421000  1.0 0.0931750153
H  H55  1  0.12971000  0.09714000  0.04579000  1.0 0.0931750153
H  H56  1  0.96743000  0.87029000  0.04579000  1.0 0.0931750153
H  H57  1  0.90286000  0.03257000  0.04579000  1.0 0.0931750153
H  H58  1  0.87029000  0.90286000  0.54579000  1.0 0.0931750153
H  H59  1  0.03257000  0.12971000  0.54579000  1.0 0.0931750153
H  H60  1  0.09714000  0.96743000  0.54579000  1.0 0.0931750153
H  H61  1  0.90286000  0.87029000  0.54579000  1.0 0.0931750153
H  H62  1  0.12971000  0.03257000  0.54579000  1.0 0.0931750153
H  H63  1  0.96743000  0.09714000  0.54579000  1.0 0.0931750153
H  H64  1  0.09714000  0.12971000  0.04579000  1.0 0.0931750153
H  H65  1  0.87029000  0.96743000  0.04579000  1.0 0.0931750153
H  H66  1  0.03257000  0.90286000  0.04579000  1.0 0.0931750153
H  H67  1  0.87029000  0.90286000  0.45421000  1.0 0.0931750153
H  H68  1  0.03257000  0.12971000  0.45421000  1.0 0.0931750153
H  H69  1  0.09714000  0.96743000  0.45421000  1.0 0.0931750153
H  H70  1  0.12971000  0.09714000  0.95421000  1.0 0.0931750153
H  H71  1  0.96743000  0.87029000  0.95421000  1.0 0.0931750153
H  H72  1  0.90286000  0.03257000  0.95421000  1.0 0.0931750153
H  H73  1  0.10909000  0.14668000  0.03775000  1.0 0.0931750153
H  H74  1  0.85333000  0.96242000  0.03775000  1.0 0.0931750153
H  H75  1  0.03758000  0.89091000  0.03775000  1.0 0.0931750153
H  H76  1  0.89091000  0.85332000  0.53775000  1.0 0.0931750153
H  H77  1  0.14667000  0.03758000  0.53775000  1.0 0.0931750153
H  H78  1  0.96242000  0.10909000  0.53775000  1.0 0.0931750153
H  H79  1  0.14668000  0.10909000  0.96225000  1.0 0.0931750153
H  H80  1  0.96242000  0.85333000  0.96225000  1.0 0.0931750153
H  H81  1  0.89091000  0.03758000  0.96225000  1.0 0.0931750153
H  H82  1  0.85332000  0.89091000  0.46225000  1.0 0.0931750153
H  H83  1  0.03758000  0.14667000  0.46225000  1.0 0.0931750153
H  H84  1  0.10909000  0.96242000  0.46225000  1.0 0.0931750153
H  H85  1  0.89091000  0.85332000  0.46225000  1.0 0.0931750153
H  H86  1  0.14668000  0.03758000  0.46225000  1.0 0.0931750153
H  H87  1  0.96242000  0.10909000  0.46225000  1.0 0.0931750153
H  H88  1  0.10909000  0.14668000  0.96225000  1.0 0.0931750153
H  H89  1  0.85332000  0.96242000  0.96225000  1.0 0.0931750153
H  H90  1  0.03758000  0.89091000  0.96225000  1.0 0.0931750153
H  H91  1  0.85332000  0.89091000  0.53775000  1.0 0.0931750153
H  H92  1  0.03758000  0.14668000  0.53775000  1.0 0.0931750153
H  H93  1  0.10909000  0.96242000  0.53775000  1.0 0.0931750153
H  H94  1  0.14668000  0.10909000  0.03775000  1.0 0.0931750153
H  H95  1  0.96242000  0.85332000  0.03775000  1.0 0.0931750153
H  H96  1  0.89091000  0.03758000  0.03775000  1.0 0.0931750153
H  H97  1  0.88729000  0.18035000  0.08288000  1.0 0.0931750153
H  H98  1  0.81965000  0.70694000  0.08288000  1.0 0.0993354751
H  H99  1  0.29306000  0.11271000  0.08288000  1.0 0.0931750153
H  H100  1  0.11271000  0.81965000  0.58288000  1.0 0.0931750153
H  H101  1  0.18035000  0.29306000  0.58288000  1.0 0.0993354751
H  H102  1  0.70694000  0.88729000  0.58288000  1.0 0.0931750153
H  H103  1  0.18035000  0.88729000  0.91712000  1.0 0.0931750153
H  H104  1  0.70694000  0.81965000  0.91712000  1.0 0.0993354751
H  H105  1  0.11271000  0.29306000  0.91712000  1.0 0.0931750153
H  H106  1  0.81965000  0.11271000  0.41712000  1.0 0.0931750153
H  H107  1  0.29306000  0.18035000  0.41712000  1.0 0.0993354751
H  H108  1  0.88729000  0.70694000  0.41712000  1.0 0.0931750153
H  H109  1  0.11271000  0.81965000  0.41712000  1.0 0.0931750153
H  H110  1  0.18035000  0.29306000  0.41712000  1.0 0.0993354751
H  H111  1  0.70694000  0.88729000  0.41712000  1.0 0.0931750153
H  H112  1  0.88729000  0.18035000  0.91712000  1.0 0.0931750153
H  H113  1  0.81965000  0.70694000  0.91712000  1.0 0.0993354751
H  H114  1  0.29306000  0.11271000  0.91712000  1.0 0.0931750153
H  H115  1  0.81965000  0.11271000  0.58288000  1.0 0.0931750153
H  H116  1  0.29306000  0.18035000  0.58288000  1.0 0.0993354751
H  H117  1  0.88729000  0.70694000  0.58288000  1.0 0.0931750153
H  H118  1  0.18035000  0.88729000  0.08288000  1.0 0.0931750153
H  H119  1  0.70694000  0.81965000  0.08288000  1.0 0.0993354751
H  H120  1  0.11271000  0.29306000  0.08288000  1.0 0.0931750153
H  H121  1  0.79161000  0.21169000  0.04237000  1.0 0.0993354751
H  H122  1  0.78831000  0.57991000  0.04237000  1.0 0.0993354751
H  H123  1  0.42009000  0.20839000  0.04237000  1.0 0.0993354751
H  H124  1  0.20839000  0.78831000  0.54237000  1.0 0.0993354751
H  H125  1  0.21169000  0.42009000  0.54237000  1.0 0.0993354751
H  H126  1  0.57991000  0.79161000  0.54237000  1.0 0.0993354751
H  H127  1  0.21169000  0.79161000  0.95763000  1.0 0.0993354751
H  H128  1  0.57991000  0.78831000  0.95763000  1.0 0.0993354751
H  H129  1  0.20839000  0.42009000  0.95763000  1.0 0.0993354751
H  H130  1  0.78831000  0.20839000  0.45763000  1.0 0.0993354751
H  H131  1  0.42009000  0.21169000  0.45763000  1.0 0.0993354751
H  H132  1  0.79161000  0.57991000  0.45763000  1.0 0.0993354751
H  H133  1  0.20839000  0.78831000  0.45763000  1.0 0.0993354751
H  H134  1  0.21169000  0.42009000  0.45763000  1.0 0.0993354751
H  H135  1  0.57991000  0.79161000  0.45763000  1.0 0.0993354751
H  H136  1  0.79161000  0.21169000  0.95763000  1.0 0.0993354751
H  H137  1  0.78831000  0.57991000  0.95763000  1.0 0.0993354751
H  H138  1  0.42009000  0.20839000  0.95763000  1.0 0.0993354751
H  H139  1  0.78831000  0.20839000  0.54237000  1.0 0.0993354751
H  H140  1  0.42009000  0.21169000  0.54237000  1.0 0.0993354751
H  H141  1  0.79161000  0.57991000  0.54237000  1.0 0.0993354751
H  H142  1  0.21169000  0.79161000  0.04237000  1.0 0.0993354751
H  H143  1  0.57991000  0.78831000  0.04237000  1.0 0.0931750153
H  H144  1  0.20839000  0.42009000  0.04237000  1.0 0.0993354751
H  H145  1  0.75694000  0.16214000  0.96189000  1.0 0.0993354751
H  H146  1  0.83786000  0.59479000  0.96189000  1.0 0.0993354751
H  H147  1  0.40521000  0.24306000  0.96189000  1.0 0.0993354751
H  H148  1  0.24306000  0.83786000  0.46189000  1.0 0.0993354751
H  H149  1  0.16214000  0.40521000  0.46189000  1.0 0.0993354751
H  H150  1  0.59479000  0.75694000  0.46189000  1.0 0.0993354751
H  H151  1  0.16214000  0.75694000  0.03811000  1.0 0.0993354751
H  H152  1  0.59479000  0.83786000  0.03811000  1.0 0.0993354751
H  H153  1  0.24306000  0.40521000  0.03811000  1.0 0.0993354751
H  H154  1  0.83786000  0.24306000  0.53811000  1.0 0.0993354751
H  H155  1  0.40521000  0.16214000  0.53811000  1.0 0.0993354751
H  H156  1  0.75694000  0.59479000  0.53811000  1.0 0.0993354751
H  H157  1  0.24306000  0.83786000  0.53811000  1.0 0.0993354751
H  H158  1  0.16214000  0.40521000  0.53811000  1.0 0.0993354751
H  H159  1  0.59479000  0.75694000  0.53811000  1.0 0.0993354751
H  H160  1  0.75694000  0.16214000  0.03811000  1.0 0.0993354751
H  H161  1  0.83786000  0.59479000  0.03811000  1.0 0.0993354751
H  H162  1  0.40521000  0.24306000  0.03811000  1.0 0.0993354751
H  H163  1  0.83786000  0.24306000  0.46189000  1.0 0.0993354751
H  H164  1  0.40521000  0.16214000  0.46189000  1.0 0.0993354751
H  H165  1  0.75694000  0.59479000  0.46189000  1.0 0.0993354751
H  H166  1  0.16214000  0.75694000  0.96189000  1.0 0.0993354751
H  H167  1  0.59479000  0.83786000  0.96189000  1.0 0.0993354751
H  H168  1  0.24306000  0.40521000  0.96189000  1.0 0.0993354751
H  H169  1  0.86027000  0.15387000  0.91583000  1.0 0.0993354751
H  H170  1  0.84613000  0.70640000  0.91583000  1.0 0.0993354751
H  H171  1  0.29360000  0.13973000  0.91583000  1.0 0.0993354751
H  H172  1  0.13973000  0.84613000  0.41583000  1.0 0.0993354751
H  H173  1  0.15387000  0.29360000  0.41583000  1.0 0.0993354751
H  H174  1  0.70640000  0.86027000  0.41583000  1.0 0.0993354751
H  H175  1  0.15387000  0.86027000  0.08417000  1.0 0.0993354751
H  H176  1  0.70640000  0.84613000  0.08417000  1.0 0.0993354751
H  H177  1  0.13973000  0.29360000  0.08417000  1.0 0.0993354751
H  H178  1  0.84613000  0.13973000  0.58417000  1.0 0.0993354751
H  H179  1  0.29360000  0.15387000  0.58417000  1.0 0.0993354751
H  H180  1  0.86027000  0.70640000  0.58417000  1.0 0.0993354751
H  H181  1  0.13973000  0.84613000  0.58417000  1.0 0.0993354751
H  H182  1  0.15387000  0.29360000  0.58417000  1.0 0.0993354751
H  H183  1  0.70640000  0.86027000  0.58417000  1.0 0.0993354751
H  H184  1  0.86027000  0.15387000  0.08417000  1.0 0.0993354751
H  H185  1  0.84613000  0.70640000  0.08417000  1.0 0.0993354751
H  H186  1  0.29360000  0.13973000  0.08417000  1.0 0.0993354751
H  H187  1  0.84613000  0.13973000  0.41583000  1.0 0.0993354751
H  H188  1  0.29360000  0.15387000  0.41583000  1.0 0.0993354751
H  H189  1  0.86027000  0.70640000  0.41583000  1.0 0.0993354751
H  H190  1  0.15387000  0.86027000  0.91583000  1.0 0.0993354751
H  H191  1  0.70640000  0.84613000  0.91583000  1.0 0.0993354751
H  H192  1  0.13973000  0.29360000  0.91583000  1.0 0.0993354751
C  C1  1  0.69850000  0.84920000  0.75000000  1.0 0.6406033876
C  C2  1  0.15075000  0.84925000  0.75000000  1.0 0.6406033876
C  C3  1  0.15080000  0.30150000  0.75000000  1.0 0.6406033876
C  C4  1  0.30150000  0.15080000  0.25000000  1.0 0.6406033876
C  C5  1  0.84925000  0.15075000  0.25000000  1.0 0.6406033876
C  C6  1  0.84920000  0.69850000  0.25000000  1.0 0.6406033876
C  C7  1  0.30150000  0.15080000  0.75000000  1.0 0.6406033876
C  C8  1  0.84925000  0.15075000  0.75000000  1.0 0.6406033876
C  C9  1  0.84920000  0.69850000  0.75000000  1.0 0.6406033876
C  C10  1  0.69850000  0.84920000  0.25000000  1.0 0.6406033876
C  C11  1  0.15075000  0.84925000  0.25000000  1.0 0.6406033876
C  C12  1  0.15080000  0.30150000  0.25000000  1.0 0.6406033876
C  C13  1  0.00000000  0.13600000  0.89570000  1.0 0.2841715558
C  C14  1  0.86400000  0.86400000  0.89570000  1.0 0.2841715558
C  C15  1  0.13600000  0.00000000  0.89570000  1.0 0.2841715558
C  C16  1  0.00000000  0.86400000  0.39570000  1.0 0.2841715558
C  C17  1  0.13600000  0.13600000  0.39570000  1.0 0.2841715558
C  C18  1  0.86400000  0.00000000  0.39570000  1.0 0.2841715558
C  C19  1  0.13600000  0.00000000  0.10430000  1.0 0.2841715558
C  C20  1  0.86400000  0.86400000  0.10430000  1.0 0.2841715558
C  C21  1  0.00000000  0.13600000  0.10430000  1.0 0.2841715558
C  C22  1  0.86400000  0.00000000  0.60430000  1.0 0.2841715558
C  C23  1  0.13600000  0.13600000  0.60430000  1.0 0.2841715558
C  C24  1  0.00000000  0.86400000  0.60430000  1.0 0.2841715558
C  C25  1  0.60270000  0.80140000  0.75000000  1.0 -0.0330603893
C  C26  1  0.19865000  0.80135000  0.75000000  1.0 -0.0330603893
C  C27  1  0.19860000  0.39730000  0.75000000  1.0 -0.0330603893
C  C28  1  0.39730000  0.19860000  0.25000000  1.0 -0.0330603893
C  C29  1  0.80135000  0.19865000  0.25000000  1.0 -0.0330603893
C  C30  1  0.80140000  0.60270000  0.25000000  1.0 -0.0330603893
C  C31  1  0.39730000  0.19860000  0.75000000  1.0 -0.0330603893
C  C32  1  0.80135000  0.19865000  0.75000000  1.0 -0.0330603893
C  C33  1  0.80140000  0.60270000  0.75000000  1.0 -0.0330603893
C  C34  1  0.60270000  0.80140000  0.25000000  1.0 -0.0330603893
C  C35  1  0.19865000  0.80135000  0.25000000  1.0 -0.0330603893
C  C36  1  0.19860000  0.39730000  0.25000000  1.0 -0.0330603893
C  C37  1  0.99370000  0.14390000  0.94540000  1.0 0.0216537911
C  C38  1  0.85610000  0.84980000  0.94540000  1.0 0.029666258
C  C39  1  0.15020000  0.00630000  0.94540000  1.0 0.0216537911
C  C40  1  0.00630000  0.85610000  0.44540000  1.0 0.0216537911
C  C41  1  0.14390000  0.15020000  0.44540000  1.0 0.029666258
C  C42  1  0.84980000  0.99370000  0.44540000  1.0 0.0216537911
C  C43  1  0.14390000  0.99370000  0.05460000  1.0 0.0216537911
C  C44  1  0.84980000  0.85610000  0.05460000  1.0 0.029666258
C  C45  1  0.00630000  0.15020000  0.05460000  1.0 0.0216537911
C  C46  1  0.85610000  0.00630000  0.55460000  1.0 0.0216537911
C  C47  1  0.15020000  0.14390000  0.55460000  1.0 0.029666258
C  C48  1  0.99370000  0.84980000  0.55460000  1.0 0.0216537911
C  C49  1  0.00630000  0.85610000  0.55460000  1.0 0.0216537911
C  C50  1  0.14390000  0.15020000  0.55460000  1.0 0.029666258
C  C51  1  0.84980000  0.99370000  0.55460000  1.0 0.0216537911
C  C52  1  0.99370000  0.14390000  0.05460000  1.0 0.0216537911
C  C53  1  0.85610000  0.84980000  0.05460000  1.0 0.029666258
C  C54  1  0.15020000  0.00630000  0.05460000  1.0 0.0216537911
C  C55  1  0.85610000  0.00630000  0.44540000  1.0 0.0216537911
C  C56  1  0.15020000  0.14390000  0.44540000  1.0 0.029666258
C  C57  1  0.99370000  0.84980000  0.44540000  1.0 0.0216537911
C  C58  1  0.14390000  0.99370000  0.94540000  1.0 0.0216537911
C  C59  1  0.84980000  0.85610000  0.94540000  1.0 0.029666258
C  C60  1  0.00630000  0.15020000  0.94540000  1.0 0.0216537911
C  C61  1  0.00060000  0.15120000  0.95270000  1.0 0.0052256925
C  C62  1  0.84880000  0.84940000  0.95270000  1.0 0.0216537911
C  C63  1  0.15060000  0.99940000  0.95270000  1.0 0.0052256925
C  C64  1  0.99940000  0.84880000  0.45270000  1.0 0.0052256925
C  C65  1  0.15120000  0.15060000  0.45270000  1.0 0.0216537911
C  C66  1  0.84940000  0.00060000  0.45270000  1.0 0.0052256925
C  C67  1  0.15120000  0.00060000  0.04730000  1.0 0.0052256925
C  C68  1  0.84940000  0.84880000  0.04730000  1.0 0.0216537911
C  C69  1  0.99940000  0.15060000  0.04730000  1.0 0.0052256925
C  C70  1  0.84880000  0.99940000  0.54730000  1.0 0.0052256925
C  C71  1  0.15060000  0.15120000  0.54730000  1.0 0.0216537911
C  C72  1  0.00060000  0.84940000  0.54730000  1.0 0.0052256925
C  C73  1  0.99940000  0.84880000  0.54730000  1.0 0.0052256925
C  C74  1  0.84940000  0.00060000  0.54730000  1.0 0.0052256925
C  C75  1  0.00060000  0.15120000  0.04730000  1.0 0.0043454915
C  C76  1  0.15060000  0.99940000  0.04730000  1.0 0.0043454915
C  C77  1  0.84880000  0.99940000  0.45270000  1.0 0.0052256925
C  C78  1  0.00060000  0.84940000  0.45270000  1.0 0.0052256925
C  C79  1  0.15120000  0.00060000  0.95270000  1.0 0.0052256925
C  C80  1  0.99940000  0.15060000  0.95270000  1.0 0.0052256925
C  C81  1  0.55690000  0.72970000  0.72200000  1.0 -0.0805147452
C  C82  1  0.27030000  0.82720000  0.72200000  1.0 -0.0805147452
C  C83  1  0.17280000  0.44310000  0.72200000  1.0 -0.0805147452
C  C84  1  0.44310000  0.27030000  0.22200000  1.0 -0.0805147452
C  C85  1  0.72970000  0.17280000  0.22200000  1.0 -0.0805147452
C  C86  1  0.82720000  0.55690000  0.22200000  1.0 -0.0805147452
C  C87  1  0.72970000  0.55690000  0.27800000  1.0 -0.0805147452
C  C88  1  0.82720000  0.27030000  0.27800000  1.0 -0.0805147452
C  C89  1  0.44310000  0.17280000  0.27800000  1.0 -0.0805147452
C  C90  1  0.27030000  0.44310000  0.77800000  1.0 -0.0805147452
C  C91  1  0.17280000  0.72970000  0.77800000  1.0 -0.0805147452
C  C92  1  0.55690000  0.82720000  0.77800000  1.0 -0.0805147452
C  C93  1  0.44310000  0.27030000  0.77800000  1.0 -0.0805147452
C  C94  1  0.72970000  0.17280000  0.77800000  1.0 -0.0805147452
C  C95  1  0.82720000  0.55690000  0.77800000  1.0 -0.0805147452
C  C96  1  0.55690000  0.72970000  0.27800000  1.0 -0.0805147452
C  C97  1  0.27030000  0.82720000  0.27800000  1.0 -0.0805147452
C  C98  1  0.17280000  0.44310000  0.27800000  1.0 -0.0805147452
C  C99  1  0.27030000  0.44310000  0.22200000  1.0 -0.0805147452
C  C100  1  0.17280000  0.72970000  0.22200000  1.0 -0.0805147452
C  C101  1  0.55690000  0.82720000  0.22200000  1.0 -0.0805147452
C  C102  1  0.72970000  0.55690000  0.72200000  1.0 -0.0805147452
C  C103  1  0.82720000  0.27030000  0.72200000  1.0 -0.0805147452
C  C104  1  0.44310000  0.17280000  0.72200000  1.0 -0.0805147452
C  C105  1  0.05700000  0.13840000  0.97120000  1.0 -0.0560510381
C  C106  1  0.86160000  0.91860000  0.97120000  1.0 -0.0695961713
C  C107  1  0.08140000  0.94300000  0.97120000  1.0 -0.0560510381
C  C108  1  0.94300000  0.86160000  0.47120000  1.0 -0.0560510381
C  C109  1  0.13840000  0.08140000  0.47120000  1.0 -0.0695961713
C  C110  1  0.91860000  0.05700000  0.47120000  1.0 -0.0560510381
C  C111  1  0.13840000  0.05700000  0.02880000  1.0 -0.0560510381
C  C112  1  0.91860000  0.86160000  0.02880000  1.0 -0.0695961713
C  C113  1  0.94300000  0.08140000  0.02880000  1.0 -0.0560510381
C  C114  1  0.86160000  0.94300000  0.52880000  1.0 -0.0560510381
C  C115  1  0.08140000  0.13840000  0.52880000  1.0 -0.0695961713
C  C116  1  0.05700000  0.91860000  0.52880000  1.0 -0.0560510381
C  C117  1  0.94300000  0.86160000  0.52880000  1.0 -0.0560510381
C  C118  1  0.13840000  0.08140000  0.52880000  1.0 -0.0695961713
C  C119  1  0.91860000  0.05700000  0.52880000  1.0 -0.0560510381
C  C120  1  0.05700000  0.13840000  0.02880000  1.0 -0.0560510381
C  C121  1  0.86160000  0.91860000  0.02880000  1.0 -0.0695961713
C  C122  1  0.08140000  0.94300000  0.02880000  1.0 -0.0560510381
C  C123  1  0.86160000  0.94300000  0.47120000  1.0 -0.0560510381
C  C124  1  0.08140000  0.13840000  0.47120000  1.0 -0.0695961713
C  C125  1  0.05700000  0.91860000  0.47120000  1.0 -0.0560510381
C  C126  1  0.13840000  0.05700000  0.97120000  1.0 -0.0560510381
C  C127  1  0.91860000  0.86160000  0.97120000  1.0 -0.0695961713
C  C128  1  0.94300000  0.08140000  0.97120000  1.0 -0.0560510381
C  C129  1  0.93420000  0.15550000  0.97130000  1.0 0.029666258
C  C130  1  0.84450000  0.77870000  0.97130000  1.0 0.0216537911
C  C131  1  0.22130000  0.06580000  0.97130000  1.0 0.029666258
C  C132  1  0.06580000  0.84450000  0.47130000  1.0 0.029666258
C  C133  1  0.15550000  0.22130000  0.47130000  1.0 0.029666258
C  C134  1  0.77870000  0.93420000  0.47130000  1.0 0.029666258
C  C135  1  0.15550000  0.93420000  0.02870000  1.0 0.029666258
C  C136  1  0.77870000  0.84450000  0.02870000  1.0 0.0216537911
C  C137  1  0.06580000  0.22130000  0.02870000  1.0 0.029666258
C  C138  1  0.84450000  0.06580000  0.52870000  1.0 0.029666258
C  C139  1  0.22130000  0.15550000  0.52870000  1.0 0.029666258
C  C140  1  0.93420000  0.77870000  0.52870000  1.0 0.029666258
C  C141  1  0.06580000  0.84450000  0.52870000  1.0 0.029666258
C  C142  1  0.15550000  0.22130000  0.52870000  1.0 0.029666258
C  C143  1  0.77870000  0.93420000  0.52870000  1.0 0.029666258
C  C144  1  0.93420000  0.15550000  0.02870000  1.0 0.029666258
C  C145  1  0.84450000  0.77870000  0.02870000  1.0 0.0216537911
C  C146  1  0.22130000  0.06580000  0.02870000  1.0 0.029666258
C  C147  1  0.84450000  0.06580000  0.47130000  1.0 0.029666258
C  C148  1  0.22130000  0.15550000  0.47130000  1.0 0.029666258
C  C149  1  0.93420000  0.77870000  0.47130000  1.0 0.029666258
C  C150  1  0.15550000  0.93420000  0.97130000  1.0 0.029666258
C  C151  1  0.77870000  0.84450000  0.97130000  1.0 0.0216537911
C  C152  1  0.06580000  0.22130000  0.97130000  1.0 0.029666258
C  C153  1  0.93730000  0.08270000  0.97860000  1.0 -0.0536986261
C  C154  1  0.91730000  0.85460000  0.97860000  1.0 -0.0695961713
C  C155  1  0.14540000  0.06270000  0.97860000  1.0 -0.0560510381
C  C156  1  0.06270000  0.91730000  0.47860000  1.0 -0.0536986261
C  C157  1  0.08270000  0.14540000  0.47860000  1.0 -0.0695961713
C  C158  1  0.85460000  0.93730000  0.47860000  1.0 -0.0560510381
C  C159  1  0.08270000  0.93730000  0.02140000  1.0 -0.0536986261
C  C160  1  0.85460000  0.91730000  0.02140000  1.0 -0.0695961713
C  C161  1  0.06270000  0.14540000  0.02140000  1.0 -0.0560510381
C  C162  1  0.91730000  0.06270000  0.52140000  1.0 -0.0560510381
C  C163  1  0.14540000  0.08270000  0.52140000  1.0 -0.0695961713
C  C164  1  0.93730000  0.85460000  0.52140000  1.0 -0.0560510381
C  C165  1  0.06270000  0.91730000  0.52140000  1.0 -0.0536986261
C  C166  1  0.08270000  0.14540000  0.52140000  1.0 -0.0695961713
C  C167  1  0.85460000  0.93730000  0.52140000  1.0 -0.0560510381
C  C168  1  0.93730000  0.08270000  0.02140000  1.0 -0.0560510381
C  C169  1  0.91730000  0.85460000  0.02140000  1.0 -0.0695961713
C  C170  1  0.14540000  0.06270000  0.02140000  1.0 -0.0560510381
C  C171  1  0.91730000  0.06270000  0.47860000  1.0 -0.0536986261
C  C172  1  0.14540000  0.08270000  0.47860000  1.0 -0.0695961713
C  C173  1  0.93730000  0.85460000  0.47860000  1.0 -0.0560510381
C  C174  1  0.08270000  0.93730000  0.97860000  1.0 -0.0536986261
C  C175  1  0.85460000  0.91730000  0.97860000  1.0 -0.0695961713
C  C176  1  0.06270000  0.14540000  0.97860000  1.0 -0.0560510381
C  C177  1  0.06190000  0.22230000  0.97800000  1.0 0.029666258
C  C178  1  0.77770000  0.83960000  0.97800000  1.0 0.029666258
C  C179  1  0.16040000  0.93810000  0.97800000  1.0 0.029666258
C  C180  1  0.93810000  0.77770000  0.47800000  1.0 0.029666258
C  C181  1  0.22230000  0.16040000  0.47800000  1.0 0.029666258
C  C182  1  0.83960000  0.06190000  0.47800000  1.0 0.029666258
C  C183  1  0.22230000  0.06190000  0.02200000  1.0 0.029666258
C  C184  1  0.83960000  0.77770000  0.02200000  1.0 0.029666258
C  C185  1  0.93810000  0.16040000  0.02200000  1.0 0.029666258
C  C186  1  0.77770000  0.93810000  0.52200000  1.0 0.029666258
C  C187  1  0.16040000  0.22230000  0.52200000  1.0 0.029666258
C  C188  1  0.06190000  0.83960000  0.52200000  1.0 0.029666258
C  C189  1  0.93810000  0.77770000  0.52200000  1.0 0.029666258
C  C190  1  0.22230000  0.16040000  0.52200000  1.0 0.029666258
C  C191  1  0.83960000  0.06190000  0.52200000  1.0 0.029666258
C  C192  1  0.06190000  0.22230000  0.02200000  1.0 0.029666258
C  C193  1  0.77770000  0.83960000  0.02200000  1.0 0.029666258
C  C194  1  0.16040000  0.93810000  0.02200000  1.0 0.029666258
C  C195  1  0.77770000  0.93810000  0.47800000  1.0 0.029666258
C  C196  1  0.16040000  0.22230000  0.47800000  1.0 0.029666258
C  C197  1  0.06190000  0.83960000  0.47800000  1.0 0.029666258
C  C198  1  0.22230000  0.06190000  0.97800000  1.0 0.029666258
C  C199  1  0.83960000  0.77770000  0.97800000  1.0 0.029666258
C  C200  1  0.93810000  0.16040000  0.97800000  1.0 0.029666258
C  C201  1  0.46920000  0.68570000  0.72190000  1.0 -0.1798151807
C  C202  1  0.31430000  0.78350000  0.72190000  1.0 -0.1798151807
C  C203  1  0.21650000  0.53080000  0.72190000  1.0 -0.1798151807
C  C204  1  0.53080000  0.31430000  0.22190000  1.0 -0.1798151807
C  C205  1  0.68570000  0.21650000  0.22190000  1.0 -0.1798151807
C  C206  1  0.78350000  0.46920000  0.22190000  1.0 -0.1798151807
C  C207  1  0.68570000  0.46920000  0.27810000  1.0 -0.1798151807
C  C208  1  0.78350000  0.31430000  0.27810000  1.0 -0.1798151807
C  C209  1  0.53080000  0.21650000  0.27810000  1.0 -0.1798151807
C  C210  1  0.31430000  0.53080000  0.77810000  1.0 -0.1798151807
C  C211  1  0.21650000  0.68570000  0.77810000  1.0 -0.1798151807
C  C212  1  0.46920000  0.78350000  0.77810000  1.0 -0.1798151807
C  C213  1  0.53080000  0.31430000  0.77810000  1.0 -0.1798151807
C  C214  1  0.68570000  0.21650000  0.77810000  1.0 -0.1798151807
C  C215  1  0.78350000  0.46920000  0.77810000  1.0 -0.1798151807
C  C216  1  0.46920000  0.68570000  0.27810000  1.0 -0.1798151807
C  C217  1  0.31430000  0.78350000  0.27810000  1.0 -0.1798151807
C  C218  1  0.21650000  0.53080000  0.27810000  1.0 -0.1798151807
C  C219  1  0.31430000  0.53080000  0.22190000  1.0 -0.1798151807
C  C220  1  0.21650000  0.68570000  0.22190000  1.0 -0.1798151807
C  C221  1  0.46920000  0.78350000  0.22190000  1.0 -0.1798151807
C  C222  1  0.68570000  0.46920000  0.72190000  1.0 -0.1798151807
C  C223  1  0.78350000  0.31430000  0.72190000  1.0 -0.1798151807
C  C224  1  0.53080000  0.21650000  0.72190000  1.0 -0.1798151807
C  C225  1  0.86630000  0.15880000  0.94970000  1.0 -0.1185598247
C  C226  1  0.84120000  0.70750000  0.94970000  1.0 -0.1185598247
C  C227  1  0.29250000  0.13370000  0.94970000  1.0 -0.1185598247
C  C228  1  0.13370000  0.84120000  0.44970000  1.0 -0.1185598247
C  C229  1  0.15880000  0.29250000  0.44970000  1.0 -0.1185598247
C  C230  1  0.70750000  0.86630000  0.44970000  1.0 -0.1185598247
C  C231  1  0.15880000  0.86630000  0.05030000  1.0 -0.1185598247
C  C232  1  0.70750000  0.84120000  0.05030000  1.0 -0.1185598247
C  C233  1  0.13370000  0.29250000  0.05030000  1.0 -0.1185598247
C  C234  1  0.84120000  0.13370000  0.55030000  1.0 -0.1185598247
C  C235  1  0.29250000  0.15880000  0.55030000  1.0 -0.1185598247
C  C236  1  0.86630000  0.70750000  0.55030000  1.0 -0.1185598247
C  C237  1  0.13370000  0.84120000  0.55030000  1.0 -0.1185598247
C  C238  1  0.15880000  0.29250000  0.55030000  1.0 -0.1185598247
C  C239  1  0.70750000  0.86630000  0.55030000  1.0 -0.1185598247
C  C240  1  0.86630000  0.15880000  0.05030000  1.0 -0.1185598247
C  C241  1  0.84120000  0.70750000  0.05030000  1.0 -0.1185598247
C  C242  1  0.29250000  0.13370000  0.05030000  1.0 -0.1185598247
C  C243  1  0.84120000  0.13370000  0.44970000  1.0 -0.1185598247
C  C244  1  0.29250000  0.15880000  0.44970000  1.0 -0.1185598247
C  C245  1  0.86630000  0.70750000  0.44970000  1.0 -0.1185598247
C  C246  1  0.15880000  0.86630000  0.94970000  1.0 -0.1185598247
C  C247  1  0.70750000  0.84120000  0.94970000  1.0 -0.1185598247
C  C248  1  0.13370000  0.29250000  0.94970000  1.0 -0.1185598247
C  C249  1  0.88310000  0.17730000  0.95110000  1.0 -0.1288422092
C  C250  1  0.82270000  0.70580000  0.95110000  1.0 -0.1288422092
C  C251  1  0.29420000  0.11690000  0.95110000  1.0 -0.1288422092
C  C252  1  0.11690000  0.82270000  0.45110000  1.0 -0.1288422092
C  C253  1  0.17730000  0.29420000  0.45110000  1.0 -0.1288422092
C  C254  1  0.70580000  0.88310000  0.45110000  1.0 -0.1288422092
C  C255  1  0.17730000  0.88310000  0.04890000  1.0 -0.1288422092
C  C256  1  0.70580000  0.82270000  0.04890000  1.0 -0.1288422092
C  C257  1  0.11690000  0.29420000  0.04890000  1.0 -0.1288422092
C  C258  1  0.82270000  0.11690000  0.54890000  1.0 -0.1288422092
C  C259  1  0.29420000  0.17730000  0.54890000  1.0 -0.1288422092
C  C260  1  0.88310000  0.70580000  0.54890000  1.0 -0.1288422092
C  C261  1  0.11690000  0.82270000  0.54890000  1.0 -0.1288422092
C  C262  1  0.17730000  0.29420000  0.54890000  1.0 -0.1288422092
C  C263  1  0.70580000  0.88310000  0.54890000  1.0 -0.1288422092
C  C264  1  0.88310000  0.17730000  0.04890000  1.0 -0.1288422092
C  C265  1  0.82270000  0.70580000  0.04890000  1.0 -0.1288422092
C  C266  1  0.29420000  0.11690000  0.04890000  1.0 -0.1288422092
C  C267  1  0.82270000  0.11690000  0.45110000  1.0 -0.1288422092
C  C268  1  0.29420000  0.17730000  0.45110000  1.0 -0.1288422092
C  C269  1  0.88310000  0.70580000  0.45110000  1.0 -0.1288422092
C  C270  1  0.17730000  0.88310000  0.95110000  1.0 -0.1288422092
C  C271  1  0.70580000  0.82270000  0.95110000  1.0 -0.1288422092
C  C272  1  0.11690000  0.29420000  0.95110000  1.0 -0.1288422092
C  C273  1  0.42470000  0.71240000  0.75000000  1.0 0.1654204744
C  C274  1  0.28765000  0.71235000  0.75000000  1.0 0.1654204744
C  C275  1  0.28760000  0.57530000  0.75000000  1.0 0.1654204744
C  C276  1  0.57530000  0.28760000  0.25000000  1.0 0.1654204744
C  C277  1  0.71235000  0.28765000  0.25000000  1.0 0.1654204744
C  C278  1  0.71240000  0.42470000  0.25000000  1.0 0.1654204744
C  C279  1  0.57530000  0.28760000  0.75000000  1.0 0.1654204744
C  C280  1  0.71235000  0.28765000  0.75000000  1.0 0.1654204744
C  C281  1  0.71240000  0.42470000  0.75000000  1.0 0.1654204744
C  C282  1  0.42470000  0.71240000  0.25000000  1.0 0.1654204744
C  C283  1  0.28765000  0.71235000  0.25000000  1.0 0.1654204744
C  C284  1  0.28760000  0.57530000  0.25000000  1.0 0.1654204744
C  C285  1  0.80700000  0.16910000  0.97670000  1.0 -0.0805147452
C  C286  1  0.83090000  0.63790000  0.97670000  1.0 -0.0859624964
C  C287  1  0.36210000  0.19300000  0.97670000  1.0 -0.0859624964
C  C288  1  0.19300000  0.83090000  0.47670000  1.0 -0.0805147452
C  C289  1  0.16910000  0.36210000  0.47670000  1.0 -0.0859624964
C  C290  1  0.63790000  0.80700000  0.47670000  1.0 -0.0805147452
C  C291  1  0.16910000  0.80700000  0.02330000  1.0 -0.0805147452
C  C292  1  0.63790000  0.83090000  0.02330000  1.0 -0.0859624964
C  C293  1  0.19300000  0.36210000  0.02330000  1.0 -0.0805147452
C  C294  1  0.83090000  0.19300000  0.52330000  1.0 -0.0805147452
C  C295  1  0.36210000  0.16910000  0.52330000  1.0 -0.0859624964
C  C296  1  0.80700000  0.63790000  0.52330000  1.0 -0.0805147452
C  C297  1  0.19300000  0.83090000  0.52330000  1.0 -0.0805147452
C  C298  1  0.16910000  0.36210000  0.52330000  1.0 -0.0859624964
C  C299  1  0.63790000  0.80700000  0.52330000  1.0 -0.0805147452
C  C300  1  0.80700000  0.16910000  0.02330000  1.0 -0.0805147452
C  C301  1  0.83090000  0.63790000  0.02330000  1.0 -0.0859624964
C  C302  1  0.36210000  0.19300000  0.02330000  1.0 -0.0805147452
C  C303  1  0.83090000  0.19300000  0.47670000  1.0 -0.0805147452
C  C304  1  0.36210000  0.16910000  0.47670000  1.0 -0.0859624964
C  C305  1  0.80700000  0.63790000  0.47670000  1.0 -0.0805147452
C  C306  1  0.16910000  0.80700000  0.97670000  1.0 -0.0805147452
C  C307  1  0.63790000  0.83090000  0.97670000  1.0 -0.0859624964
C  C308  1  0.19300000  0.36210000  0.97670000  1.0 -0.0859624964
C  C309  1  0.82190000  0.18990000  0.97440000  1.0 -0.0805147452
C  C310  1  0.81010000  0.63200000  0.97440000  1.0 -0.0805147452
C  C311  1  0.36800000  0.17810000  0.97440000  1.0 -0.0805147452
C  C312  1  0.17810000  0.81010000  0.47440000  1.0 -0.0805147452
C  C313  1  0.18990000  0.36800000  0.47440000  1.0 -0.0805147452
C  C314  1  0.63200000  0.82190000  0.47440000  1.0 -0.0805147452
C  C315  1  0.18990000  0.82190000  0.02560000  1.0 -0.0805147452
C  C316  1  0.63200000  0.81010000  0.02560000  1.0 -0.0805147452
C  C317  1  0.17810000  0.36800000  0.02560000  1.0 -0.0805147452
C  C318  1  0.81010000  0.17810000  0.52560000  1.0 -0.0805147452
C  C319  1  0.36800000  0.18990000  0.52560000  1.0 -0.0805147452
C  C320  1  0.82190000  0.63200000  0.52560000  1.0 -0.0805147452
C  C321  1  0.17810000  0.81010000  0.52560000  1.0 -0.0805147452
C  C322  1  0.18990000  0.36800000  0.52560000  1.0 -0.0805147452
C  C323  1  0.63200000  0.82190000  0.52560000  1.0 -0.0805147452
C  C324  1  0.82190000  0.18990000  0.02560000  1.0 -0.0805147452
C  C325  1  0.81010000  0.63200000  0.02560000  1.0 -0.0805147452
C  C326  1  0.36800000  0.17810000  0.02560000  1.0 -0.0805147452
C  C327  1  0.81010000  0.17810000  0.47440000  1.0 -0.0805147452
C  C328  1  0.36800000  0.18990000  0.47440000  1.0 -0.0805147452
C  C329  1  0.82190000  0.63200000  0.47440000  1.0 -0.0805147452
C  C330  1  0.18990000  0.82190000  0.97440000  1.0 -0.0805147452
C  C331  1  0.63200000  0.81010000  0.97440000  1.0 -0.0805147452
C  C332  1  0.17810000  0.36800000  0.97440000  1.0 -0.0805147452
N  N1  1  0.33333333  0.66666667  0.75000000  1.0 -0.1572463383
N  N2  1  0.66666667  0.33333333  0.25000000  1.0 -0.1572463383
N  N3  1  0.66666667  0.33333333  0.75000000  1.0 -0.1572463383
N  N4  1  0.33333333  0.66666667  0.25000000  1.0 -0.1572463383
O  O1  1  0.73490000  0.90350000  0.78290000  1.0 -0.6171048117
O  O2  1  0.09650000  0.83140000  0.78290000  1.0 -0.6171048117
O  O3  1  0.16860000  0.26510000  0.78290000  1.0 -0.6171048117
O  O4  1  0.26510000  0.09650000  0.28290000  1.0 -0.6171048117
O  O5  1  0.90350000  0.16860000  0.28290000  1.0 -0.6171048117
O  O6  1  0.83140000  0.73490000  0.28290000  1.0 -0.6171048117
O  O7  1  0.90350000  0.73490000  0.21710000  1.0 -0.6171048117
O  O8  1  0.83140000  0.09650000  0.21710000  1.0 -0.6171048117
O  O9  1  0.26510000  0.16860000  0.21710000  1.0 -0.6171048117
O  O10  1  0.09650000  0.26510000  0.71710000  1.0 -0.6171048117
O  O11  1  0.16860000  0.90350000  0.71710000  1.0 -0.6171048117
O  O12  1  0.73490000  0.83140000  0.71710000  1.0 -0.6171048117
O  O13  1  0.26510000  0.09650000  0.71710000  1.0 -0.6171048117
O  O14  1  0.90350000  0.16860000  0.71710000  1.0 -0.6171048117
O  O15  1  0.83140000  0.73490000  0.71710000  1.0 -0.6171048117
O  O16  1  0.73490000  0.90350000  0.21710000  1.0 -0.6171048117
O  O17  1  0.09650000  0.83140000  0.21710000  1.0 -0.6171048117
O  O18  1  0.16860000  0.26510000  0.21710000  1.0 -0.6171048117
O  O19  1  0.09650000  0.26510000  0.28290000  1.0 -0.6171048117
O  O20  1  0.16860000  0.90350000  0.28290000  1.0 -0.6171048117
O  O21  1  0.73490000  0.83140000  0.28290000  1.0 -0.6171048117
O  O22  1  0.90350000  0.73490000  0.78290000  1.0 -0.6171048117
O  O23  1  0.83140000  0.09650000  0.78290000  1.0 -0.6171048117
O  O24  1  0.26510000  0.16860000  0.78290000  1.0 -0.6171048117
O  O25  1  0.74300000  0.00000000  0.86400000  1.0 -0.0695961713
O  O26  1  0.00000000  0.74300000  0.86400000  1.0 -0.0805147452
O  O27  1  0.25700000  0.25700000  0.86400000  1.0 -0.0695961713
O  O28  1  0.25700000  0.00000000  0.36400000  1.0 -0.0805147452
O  O29  1  0.00000000  0.25700000  0.36400000  1.0 -0.0695961713
O  O30  1  0.74300000  0.74300000  0.36400000  1.0 -0.0695961713
O  O31  1  0.00000000  0.74300000  0.13600000  1.0 -0.0805147452
O  O32  1  0.74300000  0.00000000  0.13600000  1.0 -0.0695961713
O  O33  1  0.25700000  0.25700000  0.13600000  1.0 -0.0695961713
O  O34  1  0.00000000  0.25700000  0.63600000  1.0 -0.0805147452
O  O35  1  0.25700000  0.00000000  0.63600000  1.0 -0.0805147452
O  O36  1  0.74300000  0.74300000  0.63600000  1.0 -0.0805147452
O  O37  1  0.92800000  0.09430000  0.87436000  1.0 -0.5070420978
O  O38  1  0.90570000  0.83370000  0.87436000  1.0 -0.5025654024
O  O39  1  0.16630000  0.07200000  0.87436000  1.0 -0.5025654024
O  O40  1  0.07200000  0.90570000  0.37436000  1.0 -0.5070420978
O  O41  1  0.09430000  0.16630000  0.37436000  1.0 -0.5025654024
O  O42  1  0.83370000  0.92800000  0.37436000  1.0 -0.5025654024
O  O43  1  0.09430000  0.92800000  0.12564000  1.0 -0.5070420978
O  O44  1  0.83370000  0.90570000  0.12564000  1.0 -0.5025654024
O  O45  1  0.07200000  0.16630000  0.12564000  1.0 -0.5025654024
O  O46  1  0.90570000  0.07200000  0.62564000  1.0 -0.5070420978
O  O47  1  0.16630000  0.09430000  0.62564000  1.0 -0.5025654024
O  O48  1  0.92800000  0.83370000  0.62564000  1.0 -0.5070420978
O  O49  1  0.07200000  0.90570000  0.62564000  1.0 -0.5070420978
O  O50  1  0.09430000  0.16630000  0.62564000  1.0 -0.5025654024
O  O51  1  0.83370000  0.92800000  0.62564000  1.0 -0.5025654024
O  O52  1  0.92800000  0.09430000  0.12564000  1.0 -0.5070420978
O  O53  1  0.90570000  0.83370000  0.12564000  1.0 -0.5025654024
O  O54  1  0.16630000  0.07200000  0.12564000  1.0 -0.5025654024
O  O55  1  0.90570000  0.07200000  0.37436000  1.0 -0.5070420978
O  O56  1  0.16630000  0.09430000  0.37436000  1.0 -0.5025654024
O  O57  1  0.92800000  0.83370000  0.37436000  1.0 -0.5070420978
O  O58  1  0.09430000  0.92800000  0.87436000  1.0 -0.5070420978
O  O59  1  0.83370000  0.90570000  0.87436000  1.0 -0.5025654024
O  O60  1  0.07200000  0.16630000  0.87436000  1.0 -0.5025654024
F  F1  1  0.00000000  0.11490000  0.77670000  1.0 -0.7616995982
F  F2  1  0.88510000  0.88510000  0.77670000  1.0 -0.7616995982
F  F3  1  0.11490000  0.00000000  0.77670000  1.0 -0.7616995982
F  F4  1  0.00000000  0.88510000  0.27670000  1.0 -0.7616995982
F  F5  1  0.11490000  0.11490000  0.27670000  1.0 -0.7681058404
F  F6  1  0.88510000  0.00000000  0.27670000  1.0 -0.7616995982
F  F7  1  0.11490000  0.00000000  0.22330000  1.0 -0.7616995982
F  F8  1  0.88510000  0.88510000  0.22330000  1.0 -0.7616995982
F  F9  1  0.00000000  0.11490000  0.22330000  1.0 -0.7616995982
F  F10  1  0.88510000  0.00000000  0.72330000  1.0 -0.7616995982
F  F11  1  0.11490000  0.11490000  0.72330000  1.0 -0.7616995982
F  F12  1  0.00000000  0.88510000  0.72330000  1.0 -0.7616995982
F  F13  1  0.00000000  0.00000000  0.83000000  1.0 -0.7112366465
F  F14  1  0.00000000  0.00000000  0.33000000  1.0 -0.7112366465
F  F15  1  0.00000000  0.00000000  0.17000000  1.0 -0.7112366465
F  F16  1  0.00000000  0.00000000  0.67000000  1.0 -0.7112366465
