# DDEC6 charges by PACMAN v1.1 (https://github.com/mtap-research/PACMAN-charge/)
data_WIGHIG_FSR_pacman
_symmetry_space_group_name_H-M   'P 1'
_cell_length_a   13.10870000
_cell_length_b   13.44020000
_cell_length_c   14.66630000
_cell_angle_alpha   96.37200000
_cell_angle_beta   113.18400000
_cell_angle_gamma   90.86900000
_symmetry_Int_Tables_number   1
_chemical_formula_structural   CoH19C19N3O4
_chemical_formula_sum   'Co4 H76 C76 N12 O16'
_cell_volume   2355.71548949
_cell_formula_units_Z   4
loop_
 _symmetry_equiv_pos_site_id
 _symmetry_equiv_pos_as_xyz
  1  'x, y, z'
loop_
 _atom_site_type_symbol
 _atom_site_label
 _atom_site_symmetry_multiplicity
 _atom_site_fract_x
 _atom_site_fract_y
 _atom_site_fract_z
 _atom_site_occupancy
 _atom_site_charge
Co  Co1  1  0.61549000  0.30451000  0.10717000  1.0 0.8607789419
Co  Co2  1  0.07479000  0.79484000  0.11182000  1.0 0.8502034686
Co  Co3  1  0.21515000  0.82546000  0.31136000  1.0 0.8607789419
Co  Co4  1  0.67460000  0.31599000  0.31680000  1.0 0.8729871056
H  H1  1  0.48160000  0.13550000  0.48820000  1.0 0.1385117787
H  H2  1  0.49870000  0.23520000  0.37860000  1.0 0.130214361
H  H3  1  0.24510000  0.72040000  0.49170000  1.0 0.1205909095
H  H4  1  0.46620000  0.84270000  0.41310000  1.0 0.1205909095
H  H5  1  0.86100000  0.73620000  0.63520000  1.0 0.130214361
H  H6  1  0.38970000  0.65940000  0.62440000  1.0 0.1385117787
H  H7  1  0.82070000  0.19030000  0.48120000  1.0 0.130214361
H  H8  1  0.80570000  0.10340000  0.59930000  1.0 0.1385117787
H  H9  1  0.24290000  0.85910000  0.77310000  1.0 0.1205909095
H  H10  1  0.60120000  0.76280000  0.52010000  1.0 0.1385117787
H  H11  1  0.98550000  0.56790000  0.24430000  1.0 0.1385117787
H  H12  1  0.91070000  0.48210000  0.25570000  1.0 0.130214361
H  H13  1  0.85910000  0.55270000  0.17300000  1.0 0.1205909095
H  H14  1  0.68030000  0.83550000  0.87950000  1.0 0.1385117787
H  H15  1  0.30740000  0.01410000  0.53730000  1.0 0.1385117787
H  H16  1  0.27820000  0.34850000  0.10960000  1.0 0.1097295226
H  H17  1  0.91030000  0.96000000  0.79760000  1.0 0.1385117787
H  H18  1  0.48630000  0.53180000  0.83430000  1.0 0.130214361
H  H19  1  0.36520000  0.39620000  0.31610000  1.0 0.1013661507
H  H20  1  0.26310000  0.32160000  0.24860000  1.0 0.1013661507
H  H21  1  0.98140000  0.61460000  0.88730000  1.0 0.1385117787
H  H22  1  0.53070000  0.98030000  0.05430000  1.0 0.1097295226
H  H23  1  0.69690000  0.60500000  0.14800000  1.0 0.1013661507
H  H24  1  0.62620000  0.66530000  0.19950000  1.0 0.1097295226
H  H25  1  0.46800000  0.41330000  0.93300000  1.0 0.130214361
H  H26  1  0.31800000  0.97590000  0.94830000  1.0 0.1205909095
H  H27  1  0.23750000  0.00350000  0.00150000  1.0 0.1205909095
H  H28  1  0.31750000  0.08700000  0.99390000  1.0 0.1385117787
H  H29  1  0.51140000  0.93440000  0.29140000  1.0 0.1013661507
H  H30  1  0.55010000  0.83590000  0.24720000  1.0 0.1097295226
H  H31  1  0.41820000  0.88290000  0.79230000  1.0 0.1385117787
H  H32  1  0.13130000  0.97380000  0.52800000  1.0 0.1097295226
H  H33  1  0.05130000  0.09930000  0.11150000  1.0 0.130214361
H  H34  1  0.15710000  0.17380000  0.17530000  1.0 0.130214361
H  H35  1  0.15780000  0.64900000  0.90170000  1.0 0.1205909095
H  H36  1  0.77900000  0.37800000  0.04340000  1.0 0.1205909095
H  H37  1  0.25920000  0.51540000  0.31140000  1.0 0.1097295226
H  H38  1  0.15680000  0.43750000  0.25540000  1.0 0.1097295226
H  H39  1  0.83130000  0.79210000  0.02210000  1.0 0.1205909095
H  H40  1  0.42200000  0.06270000  0.23900000  1.0 0.130214361
H  H41  1  0.37600000  0.13680000  0.15890000  1.0 0.130214361
H  H42  1  0.29590000  0.05340000  0.16660000  1.0 0.130214361
H  H43  1  0.04410000  0.90010000  0.92880000  1.0 0.1205909095
H  H44  1  0.90540000  0.77250000  0.36100000  1.0 0.1013661507
H  H45  1  0.87880000  0.06150000  0.14130000  1.0 0.130214361
H  H46  1  0.90940000  0.98050000  0.21540000  1.0 0.130214361
H  H47  1  0.82250000  0.05850000  0.21760000  1.0 0.130214361
H  H48  1  0.04530000  0.75200000  0.63970000  1.0 0.1097295226
H  H49  1  0.01330000  0.02860000  0.39140000  1.0 0.130214361
H  H50  1  0.05940000  0.13920000  0.43710000  1.0 0.1205909095
H  H51  1  0.93140000  0.11090000  0.39620000  1.0 0.1205909095
H  H52  1  0.81890000  0.48950000  0.95100000  1.0 0.1385117787
H  H53  1  0.38630000  0.63840000  0.20950000  1.0 0.1385117787
H  H54  1  0.41630000  0.56360000  0.28960000  1.0 0.130214361
H  H55  1  0.46940000  0.55560000  0.21040000  1.0 0.1385117787
H  H56  1  0.03460000  0.31300000  0.18760000  1.0 0.1097295226
H  H57  1  0.93080000  0.24420000  0.11070000  1.0 0.1205909095
H  H58  1  0.13640000  0.37980000  0.07500000  1.0 0.09099074
H  H59  1  0.04060000  0.45070000  0.06880000  1.0 0.130214361
H  H60  1  0.11510000  0.46830000  0.00980000  1.0 0.130214361
H  H61  1  0.63480000  0.01480000  0.25020000  1.0 0.1097295226
H  H62  1  0.63770000  0.92270000  0.17590000  1.0 0.1013661507
H  H63  1  0.03960000  0.35270000  0.34760000  1.0 0.130214361
H  H64  1  0.02770000  0.26700000  0.40770000  1.0 0.1097295226
H  H65  1  0.11690000  0.26280000  0.36110000  1.0 0.1097295226
H  H66  1  0.67080000  0.64270000  0.38860000  1.0 0.130214361
H  H67  1  0.79650000  0.65080000  0.46220000  1.0 0.1205909095
H  H68  1  0.74910000  0.73360000  0.39190000  1.0 0.1205909095
H  H69  1  0.02870000  0.64500000  0.44320000  1.0 0.1385117787
H  H70  1  0.92540000  0.68760000  0.45900000  1.0 0.0819098196
H  H71  1  0.94060000  0.57190000  0.45330000  1.0 0.1385117787
H  H72  1  0.78250000  0.76200000  0.16590000  1.0 0.1013661507
H  H73  1  0.75150000  0.80230000  0.25570000  1.0 0.09099074
H  H74  1  0.44780000  0.82810000  0.01480000  1.0 0.1205909095
H  H75  1  0.39500000  0.74600000  0.05410000  1.0 0.1385117787
H  H76  1  0.31830000  0.81470000  0.97910000  1.0 0.1205909095
C  C1  1  0.55120000  0.14710000  0.48700000  1.0 -0.1517807611
C  C2  1  0.56140000  0.20840000  0.42250000  1.0 0.0819098196
C  C3  1  0.60130000  0.66770000  0.67260000  1.0 0.3601494274
C  C4  1  0.31860000  0.73290000  0.50050000  1.0 0.09099074
C  C5  1  0.44870000  0.80130000  0.45240000  1.0 0.0700609974
C  C6  1  0.84140000  0.25520000  0.24050000  1.0 0.574538841
C  C7  1  0.39420000  0.89030000  0.12460000  1.0 0.0505027036
C  C8  1  0.29890000  0.86160000  0.15190000  1.0 0.5774889729
C  C9  1  0.92070000  0.71350000  0.68640000  1.0 -0.1412659892
C  C10  1  0.38640000  0.94920000  0.66300000  1.0 0.0566220126
C  C11  1  0.65250000  0.51860000  0.87230000  1.0 0.0298360276
C  C12  1  0.50280000  0.96920000  0.67370000  1.0 0.3488526485
C  C13  1  0.77710000  0.90920000  0.83030000  1.0 0.0700609974
C  C14  1  0.62270000  0.03640000  0.62180000  1.0 0.3488526485
C  C15  1  0.40670000  0.69480000  0.58070000  1.0 -0.1412659892
C  C16  1  0.96190000  0.22650000  0.25950000  1.0 0.0505027036
C  C17  1  0.09020000  0.10960000  0.26600000  1.0 0.020375359
C  C18  1  0.63750000  0.10310000  0.54840000  1.0 0.0700609974
C  C19  1  0.77450000  0.60320000  0.31590000  1.0 0.0298360276
C  C20  1  0.75200000  0.18300000  0.48510000  1.0 0.0566220126
C  C21  1  0.74290000  0.12650000  0.55180000  1.0 -0.1682635214
C  C22  1  0.67200000  0.58080000  0.80870000  1.0 0.3311192087
C  C23  1  0.12570000  0.99700000  0.25950000  1.0 0.5282909415
C  C24  1  0.25530000  0.88840000  0.72360000  1.0 0.0700609974
C  C25  1  0.53040000  0.75940000  0.52030000  1.0 -0.1682635214
C  C26  1  0.51210000  0.70940000  0.59340000  1.0 0.0403835691
C  C27  1  0.91250000  0.54930000  0.23970000  1.0 -0.468173609
C  C28  1  0.78950000  0.64980000  0.74790000  1.0 0.3736450217
C  C29  1  0.75340000  0.85400000  0.89100000  1.0 -0.1682635214
C  C30  1  0.16560000  0.62040000  0.15670000  1.0 0.5554884217
C  C31  1  0.55680000  0.12760000  0.12050000  1.0 0.5852278612
C  C32  1  0.73400000  0.49610000  0.30550000  1.0 0.5774889729
C  C33  1  0.29750000  0.97970000  0.58520000  1.0 -0.1517807611
C  C34  1  0.19450000  0.51610000  0.15950000  1.0 0.0298360276
C  C35  1  0.90450000  0.66900000  0.75570000  1.0 0.0403835691
C  C36  1  0.33230000  0.38980000  0.16870000  1.0 -0.1517807611
C  C37  1  0.98690000  0.75740000  0.26470000  1.0 0.600704088
C  C38  1  0.44910000  0.36440000  0.18130000  1.0 0.600704088
C  C39  1  0.89210000  0.92630000  0.84170000  1.0 -0.1815284052
C  C40  1  0.54780000  0.50000000  0.87370000  1.0 -0.1616985657
C  C41  1  0.88420000  0.62080000  0.31290000  1.0 0.2028534404
C  C42  1  0.29970000  0.38650000  0.25380000  1.0 -0.1682635214
C  C43  1  0.99340000  0.64400000  0.83760000  1.0 -0.1682635214
C  C44  1  0.52360000  0.01470000  0.11390000  1.0 -0.1517807611
C  C45  1  0.70050000  0.64940000  0.20610000  1.0 -0.1990664759
C  C46  1  0.53860000  0.43100000  0.93680000  1.0 0.0819098196
C  C47  1  0.68090000  0.94740000  0.74820000  1.0 0.3311192087
C  C48  1  0.30970000  0.01780000  0.00210000  1.0 -0.4545609512
C  C49  1  0.51980000  0.90060000  0.23310000  1.0 -0.2219151118
C  C50  1  0.98560000  0.12180000  0.28610000  1.0 0.1687091879
C  C51  1  0.36140000  0.90260000  0.73670000  1.0 -0.1990664759
C  C52  1  0.19200000  0.95640000  0.58200000  1.0 0.0298360276
C  C53  1  0.08500000  0.14880000  0.17010000  1.0 -0.279678882
C  C54  1  0.31480000  0.50460000  0.15680000  1.0 0.1687091879
C  C55  1  0.09860000  0.66310000  0.84460000  1.0 0.1013661507
C  C56  1  0.72040000  0.41040000  0.00070000  1.0 0.1013661507
C  C57  1  0.22400000  0.46600000  0.25290000  1.0 -0.1990664759
C  C58  1  0.84550000  0.82420000  0.97490000  1.0 0.09099074
C  C59  1  0.37010000  0.06920000  0.17250000  1.0 -0.4553329208
C  C60  1  0.97030000  0.89020000  0.92030000  1.0 0.0819098196
C  C61  1  0.89170000  0.73120000  0.29750000  1.0 -0.1616985657
C  C62  1  0.39590000  0.99780000  0.09810000  1.0 0.2059023819
C  C63  1  0.88980000  0.04850000  0.20750000  1.0 -0.4403200605
C  C64  1  0.03120000  0.72700000  0.69040000  1.0 0.0298360276
C  C65  1  0.99900000  0.09800000  0.38660000  1.0 -0.4403200605
C  C66  1  0.74630000  0.47520000  0.94360000  1.0 -0.1682635214
C  C67  1  0.29900000  0.52020000  0.03720000  1.0 -0.045491957
C  C68  1  0.40370000  0.57070000  0.22200000  1.0 -0.4403200605
C  C69  1  0.99540000  0.24770000  0.17340000  1.0 -0.2359299221
C  C70  1  0.11430000  0.44750000  0.07010000  1.0 -0.415141777
C  C71  1  0.58870000  0.96510000  0.19560000  1.0 -0.1517807611
C  C72  1  0.04360000  0.28210000  0.35190000  1.0 -0.4312194922
C  C73  1  0.74490000  0.66330000  0.39730000  1.0 -0.4312194922
C  C74  1  0.95100000  0.63200000  0.42800000  1.0 -0.4312194922
C  C75  1  0.78030000  0.74600000  0.22800000  1.0 -0.1682635214
C  C76  1  0.38800000  0.81220000  0.03440000  1.0 -0.4312194922
N  N1  1  0.77290000  0.59680000  0.81240000  1.0 -0.3795110591
N  N2  1  0.62330000  0.39090000  0.00010000  1.0 -0.2219151118
N  N3  1  0.34160000  0.78640000  0.43810000  1.0 -0.2219151118
N  N4  1  0.70770000  0.68750000  0.67520000  1.0 -0.4312194922
N  N5  1  0.57870000  0.61960000  0.73400000  1.0 -0.3967101433
N  N6  1  0.58380000  0.92930000  0.74490000  1.0 -0.3795110591
N  N7  1  0.95060000  0.84170000  0.98630000  1.0 -0.2304860958
N  N8  1  0.66420000  0.23080000  0.42210000  1.0 -0.2304860958
N  N9  1  0.51270000  0.02530000  0.60780000  1.0 -0.4062115111
N  N10  1  0.70580000  0.00290000  0.68320000  1.0 -0.3725503244
N  N11  1  0.17000000  0.90990000  0.65210000  1.0 -0.2686601737
N  N12  1  0.11970000  0.69830000  0.77850000  1.0 -0.279678882
O  O1  1  0.77530000  0.26700000  0.15640000  1.0 -0.5397751787
O  O2  1  0.69060000  0.44080000  0.22100000  1.0 -0.5909784892
O  O3  1  0.19270000  0.97190000  0.33850000  1.0 -0.5136502245
O  O4  1  0.47260000  0.35200000  0.10580000  1.0 -0.5397751787
O  O5  1  0.32240000  0.85670000  0.24460000  1.0 -0.570386202
O  O6  1  0.81860000  0.26400000  0.31580000  1.0 -0.5314385452
O  O7  1  0.97150000  0.75700000  0.17770000  1.0 -0.5314385452
O  O8  1  0.20410000  0.84260000  0.08440000  1.0 -0.5314385452
O  O9  1  0.08150000  0.77890000  0.33830000  1.0 -0.570386202
O  O10  1  0.54680000  0.16550000  0.04370000  1.0 -0.5314385452
O  O11  1  0.08070000  0.94020000  0.18130000  1.0 -0.5397751787
O  O12  1  0.74280000  0.45970000  0.38610000  1.0 -0.5397751787
O  O13  1  0.20420000  0.67750000  0.23990000  1.0 -0.570386202
O  O14  1  0.51600000  0.35520000  0.27210000  1.0 -0.5785912135
O  O15  1  0.59400000  0.17650000  0.20530000  1.0 -0.570386202
O  O16  1  0.09690000  0.64890000  0.07500000  1.0 -0.5471504786
