# DDEC6 charges by PACMAN v1.1 (https://github.com/mtap-research/PACMAN-charge/)
data_WIHCUM_ASR_pacman
_symmetry_space_group_name_H-M   'P 1'
_cell_length_a   5.73280000
_cell_length_b   10.91520000
_cell_length_c   11.26650000
_cell_angle_alpha   90.00000000
_cell_angle_beta   97.10600000
_cell_angle_gamma   90.00000000
_symmetry_Int_Tables_number   1
_chemical_formula_structural   NaH6C2(SO2)2
_chemical_formula_sum   'Na4 H24 C8 S8 O16'
_cell_volume   699.58229790
_cell_formula_units_Z   4
loop_
 _symmetry_equiv_pos_site_id
 _symmetry_equiv_pos_as_xyz
  1  'x, y, z'
loop_
 _atom_site_type_symbol
 _atom_site_label
 _atom_site_symmetry_multiplicity
 _atom_site_fract_x
 _atom_site_fract_y
 _atom_site_fract_z
 _atom_site_occupancy
 _atom_site_charge
Na  Na1  1  0.77200000  0.09442000  0.74548000  1.0 0.8662085063
Na  Na2  1  0.27200000  0.90558000  0.74548000  1.0 0.8662085063
Na  Na3  1  0.02409000  0.40532000  0.76522000  1.0 0.8662085063
Na  Na4  1  0.52409000  0.59468000  0.76522000  1.0 0.8662085063
H  H1  1  0.75990000  0.45850000  0.04570000  1.0 0.150588227
H  H2  1  0.25990000  0.54150000  0.04570000  1.0 0.150588227
H  H3  1  0.61170000  0.37140000  0.12240000  1.0 0.1303630877
H  H4  1  0.11170000  0.62860000  0.12240000  1.0 0.1303630877
H  H5  1  0.02690000  0.34490000  0.17000000  1.0 0.1303630877
H  H6  1  0.52690000  0.65510000  0.17000000  1.0 0.1303630877
H  H7  1  0.04050000  0.29830000  0.03680000  1.0 0.150588227
H  H8  1  0.54050000  0.70170000  0.03680000  1.0 0.150588227
H  H9  1  0.92460000  0.29370000  0.38940000  1.0 0.1303630877
H  H10  1  0.42460000  0.70630000  0.38940000  1.0 0.1303630877
H  H11  1  0.75860000  0.22500000  0.47210000  1.0 0.150588227
H  H12  1  0.25860000  0.77500000  0.47210000  1.0 0.150588227
H  H13  1  0.15680000  0.11470000  0.38470000  1.0 0.1303630877
H  H14  1  0.65680000  0.88530000  0.38470000  1.0 0.1303630877
H  H15  1  0.98980000  0.04510000  0.46680000  1.0 0.150588227
H  H16  1  0.48980000  0.95490000  0.46680000  1.0 0.150588227
H  H17  1  0.18400000  0.08400000  0.89800000  1.0 0.308805672
H  H18  1  0.68400000  0.91600000  0.89800000  1.0 0.308805672
H  H19  1  0.07400000  0.98600000  0.92800000  1.0 0.2782423473
H  H20  1  0.57400000  0.01400000  0.92800000  1.0 0.2782423473
H  H21  1  0.60900000  0.40600000  0.61200000  1.0 0.2782423473
H  H22  1  0.10900000  0.59400000  0.61200000  1.0 0.2782423473
H  H23  1  0.70300000  0.48800000  0.56900000  1.0 0.2599993623
H  H24  1  0.20300000  0.51200000  0.56900000  1.0 0.2599993623
C  C1  1  0.71620000  0.37220000  0.05870000  1.0 -0.3790603228
C  C2  1  0.21620000  0.62780000  0.05870000  1.0 -0.3790603228
C  C3  1  0.93990000  0.29980000  0.10220000  1.0 -0.1619044416
C  C4  1  0.43990000  0.70020000  0.10220000  1.0 -0.1619044416
C  C5  1  0.85710000  0.21320000  0.40680000  1.0 -0.1542473607
C  C6  1  0.35710000  0.78680000  0.40680000  1.0 -0.1542473607
C  C7  1  0.05570000  0.12590000  0.44900000  1.0 -0.3790603228
C  C8  1  0.55570000  0.87410000  0.44900000  1.0 -0.3790603228
S  S1  1  0.55708000  0.31465000  0.92415000  1.0 1.2629351692
S  S2  1  0.05708000  0.68535000  0.92415000  1.0 1.2629351692
S  S3  1  0.89874000  0.14314000  0.14969000  1.0 0.0548559963
S  S4  1  0.39874000  0.85686000  0.14969000  1.0 0.0548559963
S  S5  1  0.67117000  0.15983000  0.27364000  1.0 0.0363133266
S  S6  1  0.17117000  0.84017000  0.27364000  1.0 0.0322969309
S  S7  1  0.22768000  0.18324000  0.57943000  1.0 1.2629351692
S  S8  1  0.72768000  0.81676000  0.57943000  1.0 1.2652649558
O  O1  1  0.40400000  0.41544000  0.87786000  1.0 -0.7181709357
O  O2  1  0.90400000  0.58456000  0.87786000  1.0 -0.7181709357
O  O3  1  0.73130000  0.28386000  0.84467000  1.0 -0.7181709357
O  O4  1  0.23130000  0.71614000  0.84467000  1.0 -0.7181709357
O  O5  1  0.42400000  0.20872000  0.95658000  1.0 -0.6229266249
O  O6  1  0.92400000  0.79128000  0.95658000  1.0 -0.6229266249
O  O7  1  0.06360000  0.21572000  0.66323000  1.0 -0.7181709357
O  O8  1  0.56360000  0.78428000  0.66323000  1.0 -0.7181709357
O  O9  1  0.38980000  0.08517000  0.62452000  1.0 -0.7181709357
O  O10  1  0.88980000  0.91483000  0.62452000  1.0 -0.7181709357
O  O11  1  0.35230000  0.29000000  0.53982000  1.0 -0.6272778832
O  O12  1  0.85230000  0.71000000  0.53982000  1.0 -0.6272778832
O  O13  1  0.09350000  0.03360000  0.88078000  1.0 -0.7051661932
O  O14  1  0.59350000  0.96640000  0.88078000  1.0 -0.698643041
O  O15  1  0.69350000  0.45846000  0.62980000  1.0 -0.698643041
O  O16  1  0.19350000  0.54154000  0.62980000  1.0 -0.698643041
