# DDEC6 charges by PACMAN v1.1 (https://github.com/mtap-research/PACMAN-charge/)
data_WIKGII_ASR_pacman
_symmetry_space_group_name_H-M   'P 1'
_cell_length_a   17.05000000
_cell_length_b   17.05000000
_cell_length_c   34.00900000
_cell_angle_alpha   78.57960000
_cell_angle_beta   101.42000000
_cell_angle_gamma   82.70730000
_symmetry_Int_Tables_number   1
_chemical_formula_structural   Zn4H20C55N(OF2)13
_chemical_formula_sum   'Zn16 H80 C220 N4 O52 F104'
_cell_volume   9355.80205884
_cell_formula_units_Z   4
loop_
 _symmetry_equiv_pos_site_id
 _symmetry_equiv_pos_as_xyz
  1  'x, y, z'
loop_
 _atom_site_type_symbol
 _atom_site_label
 _atom_site_symmetry_multiplicity
 _atom_site_fract_x
 _atom_site_fract_y
 _atom_site_fract_z
 _atom_site_occupancy
 _atom_site_charge
Zn  Zn1  1  0.56593000  0.37665000  0.80025000  1.0 0.9387467188
Zn  Zn2  1  0.37665000  0.56593000  0.69975000  1.0 0.9387467188
Zn  Zn3  1  0.43407000  0.62335000  0.19975000  1.0 0.9452449418
Zn  Zn4  1  0.62335000  0.43407000  0.30025000  1.0 0.9387467188
Zn  Zn5  1  0.71806000  0.35546000  0.87345000  1.0 0.9387467188
Zn  Zn6  1  0.35546000  0.71806000  0.62655000  1.0 0.9387467188
Zn  Zn7  1  0.28194000  0.64454000  0.12655000  1.0 0.9387467188
Zn  Zn8  1  0.64454000  0.28194000  0.37345000  1.0 0.9387467188
Zn  Zn9  1  0.71422000  0.23332000  0.81780000  1.0 0.9387467188
Zn  Zn10  1  0.23332000  0.71422000  0.68220000  1.0 0.9387467188
Zn  Zn11  1  0.28578000  0.76668000  0.18220000  1.0 0.9387467188
Zn  Zn12  1  0.76668000  0.28578000  0.31780000  1.0 0.9387467188
Zn  Zn13  1  0.60692000  0.22036000  0.88278000  1.0 0.8951629735
Zn  Zn14  1  0.22036000  0.60692000  0.61722000  1.0 0.8951629735
Zn  Zn15  1  0.39308000  0.77964000  0.11722000  1.0 0.8951629735
Zn  Zn16  1  0.77964000  0.39308000  0.38278000  1.0 0.8951629735
H  H1  1  0.52310000  0.63830000  0.77290000  1.0 0.1294131521
H  H2  1  0.63830000  0.52310000  0.72710000  1.0 0.1294131521
H  H3  1  0.47690000  0.36170000  0.22710000  1.0 0.1294131521
H  H4  1  0.36170000  0.47690000  0.27290000  1.0 0.1294131521
H  H5  1  0.70150000  0.73450000  0.86440000  1.0 0.1294131521
H  H6  1  0.73450000  0.70150000  0.63560000  1.0 0.1294131521
H  H7  1  0.29850000  0.26550000  0.13560000  1.0 0.1294131521
H  H8  1  0.26550000  0.29850000  0.36440000  1.0 0.1294131521
H  H9  1  0.70990000  0.59690000  0.87060000  1.0 0.1294131521
H  H10  1  0.59690000  0.70990000  0.62940000  1.0 0.1294131521
H  H11  1  0.29010000  0.40310000  0.12940000  1.0 0.1294131521
H  H12  1  0.40310000  0.29010000  0.37060000  1.0 0.1294131521
H  H13  1  0.70550000  0.00410000  0.78810000  1.0 0.1294131521
H  H14  1  0.00410000  0.70550000  0.71190000  1.0 0.1294131521
H  H15  1  0.29450000  0.99590000  0.21190000  1.0 0.1294131521
H  H16  1  0.99590000  0.29450000  0.28810000  1.0 0.1294131521
H  H17  1  0.54150000  0.00270000  0.85470000  1.0 0.1204717611
H  H18  1  0.00270000  0.54150000  0.64530000  1.0 0.1204717611
H  H19  1  0.45850000  0.99730000  0.14530000  1.0 0.1204717611
H  H20  1  0.99730000  0.45850000  0.35470000  1.0 0.1204717611
H  H21  1  0.52850000  0.87250000  0.84700000  1.0 0.1294131521
H  H22  1  0.87250000  0.52850000  0.65300000  1.0 0.1294131521
H  H23  1  0.47150000  0.12750000  0.15300000  1.0 0.1294131521
H  H24  1  0.12750000  0.47150000  0.34700000  1.0 0.1294131521
H  H25  1  0.96180000  0.38140000  0.87670000  1.0 0.1294131521
H  H26  1  0.38140000  0.96180000  0.62330000  1.0 0.1294131521
H  H27  1  0.03820000  0.61860000  0.12330000  1.0 0.1294131521
H  H28  1  0.61860000  0.03820000  0.37670000  1.0 0.1294131521
H  H29  1  0.95190000  0.23190000  0.80310000  1.0 0.1294131521
H  H30  1  0.23190000  0.95190000  0.69690000  1.0 0.1294131521
H  H31  1  0.04810000  0.76810000  0.19690000  1.0 0.1294131521
H  H32  1  0.76810000  0.04810000  0.30310000  1.0 0.1294131521
H  H33  1  0.30580000  0.41700000  0.78130000  1.0 0.1204717611
H  H34  1  0.41700000  0.30580000  0.71870000  1.0 0.1204717611
H  H35  1  0.69420000  0.58300000  0.21870000  1.0 0.1204717611
H  H36  1  0.58300000  0.69420000  0.28130000  1.0 0.1204717611
H  H37  1  0.36560000  0.23480000  0.88070000  1.0 0.1116072949
H  H38  1  0.23480000  0.36560000  0.61930000  1.0 0.1116072949
H  H39  1  0.63440000  0.76520000  0.11930000  1.0 0.1116072949
H  H40  1  0.76520000  0.63440000  0.38070000  1.0 0.1116072949
H  H41  1  0.22800000  0.23500000  0.87940000  1.0 0.1294131521
H  H42  1  0.23500000  0.22800000  0.62060000  1.0 0.1294131521
H  H43  1  0.77200000  0.76500000  0.12060000  1.0 0.1294131521
H  H44  1  0.76500000  0.77200000  0.37940000  1.0 0.1294131521
H  H45  1  0.52770000  0.42810000  0.66770000  1.0 0.1204717611
H  H46  1  0.42810000  0.52770000  0.83230000  1.0 0.1204717611
H  H47  1  0.47230000  0.57190000  0.33230000  1.0 0.1204717611
H  H48  1  0.57190000  0.47230000  0.16770000  1.0 0.1204717611
H  H49  1  0.73620000  0.28420000  0.62780000  1.0 0.1294131521
H  H50  1  0.28420000  0.73620000  0.87220000  1.0 0.1294131521
H  H51  1  0.26380000  0.71580000  0.37220000  1.0 0.1294131521
H  H52  1  0.71580000  0.26380000  0.12780000  1.0 0.1294131521
H  H53  1  0.73540000  0.26520000  0.69810000  1.0 0.1294131521
H  H54  1  0.26520000  0.73540000  0.80190000  1.0 0.1294131521
H  H55  1  0.26460000  0.73480000  0.30190000  1.0 0.1294131521
H  H56  1  0.73480000  0.26460000  0.19810000  1.0 0.1294131521
H  H57  1  0.71520000  0.43940000  0.49020000  1.0 0.1116072949
H  H58  1  0.43940000  0.71520000  0.00980000  1.0 0.1116072949
H  H59  1  0.28480000  0.56060000  0.50980000  1.0 0.1116072949
H  H60  1  0.56060000  0.28480000  0.99020000  1.0 0.1116072949
H  H61  1  0.58800000  0.26000000  0.49240000  1.0 0.1204717611
H  H62  1  0.26000000  0.58800000  0.00760000  1.0 0.1204717611
H  H63  1  0.41200000  0.74000000  0.50760000  1.0 0.1204717611
H  H64  1  0.74000000  0.41200000  0.99240000  1.0 0.1204717611
H  H65  1  0.47290000  0.20610000  0.92750000  1.0 0.1116072949
H  H66  1  0.20610000  0.47290000  0.57250000  1.0 0.1116072949
H  H67  1  0.52710000  0.79390000  0.07250000  1.0 0.1116072949
H  H68  1  0.79390000  0.52710000  0.42750000  1.0 0.1116072949
H  H69  1  0.43150000  0.12050000  0.97760000  1.0 0.1421005539
H  H70  1  0.12050000  0.43150000  0.52240000  1.0 0.1421005539
H  H71  1  0.56850000  0.87950000  0.02240000  1.0 0.1421005539
H  H72  1  0.87950000  0.56850000  0.47760000  1.0 0.1421005539
H  H73  1  0.61510000  0.96170000  0.98490000  1.0 0.1421005539
H  H74  1  0.96170000  0.61510000  0.51510000  1.0 0.1421005539
H  H75  1  0.38490000  0.03830000  0.01510000  1.0 0.1421005539
H  H76  1  0.03830000  0.38490000  0.48490000  1.0 0.1421005539
H  H77  1  0.64290000  0.03590000  0.92670000  1.0 0.1116072949
H  H78  1  0.03590000  0.64290000  0.57330000  1.0 0.1116072949
H  H79  1  0.35710000  0.96410000  0.07330000  1.0 0.1116072949
H  H80  1  0.96410000  0.35710000  0.42670000  1.0 0.1116072949
C  C1  1  0.62790000  0.51390000  0.82480000  1.0 0.5901410438
C  C2  1  0.51390000  0.62790000  0.67520000  1.0 0.5901410438
C  C3  1  0.37210000  0.48610000  0.17520000  1.0 0.5901410438
C  C4  1  0.48610000  0.37210000  0.32480000  1.0 0.5901410438
C  C5  1  0.61800000  0.60420000  0.82100000  1.0 -0.0092518673
C  C6  1  0.60420000  0.61800000  0.67900000  1.0 -0.0092518673
C  C7  1  0.38200000  0.39580000  0.17900000  1.0 -0.0092518673
C  C8  1  0.39580000  0.38200000  0.32100000  1.0 -0.0092518673
C  C9  1  0.55960000  0.65780000  0.79120000  1.0 -0.0945852977
C  C10  1  0.65780000  0.55960000  0.70880000  1.0 -0.0945852977
C  C11  1  0.44040000  0.34220000  0.20880000  1.0 -0.0945852977
C  C12  1  0.34220000  0.44040000  0.29120000  1.0 -0.0945852977
C  C13  1  0.55370000  0.74130000  0.78770000  1.0 -0.1521051936
C  C14  1  0.74130000  0.55370000  0.71230000  1.0 -0.1521051936
C  C15  1  0.44630000  0.25870000  0.21230000  1.0 -0.1521051936
C  C16  1  0.25870000  0.44630000  0.28770000  1.0 -0.1521051936
C  C17  1  0.60690000  0.77250000  0.81400000  1.0 0.0674941074
C  C18  1  0.77250000  0.60690000  0.68600000  1.0 0.0674941074
C  C19  1  0.39310000  0.22750000  0.18600000  1.0 0.0674941074
C  C20  1  0.22750000  0.39310000  0.31400000  1.0 0.0674941074
C  C21  1  0.66570000  0.71550000  0.84560000  1.0 -0.1109934225
C  C22  1  0.71550000  0.66570000  0.65440000  1.0 -0.1109934225
C  C23  1  0.33430000  0.28450000  0.15440000  1.0 -0.1109934225
C  C24  1  0.28450000  0.33430000  0.34560000  1.0 -0.1109934225
C  C25  1  0.67120000  0.63300000  0.84940000  1.0 -0.0802846775
C  C26  1  0.63300000  0.67120000  0.65060000  1.0 -0.0802846775
C  C27  1  0.32880000  0.36700000  0.15060000  1.0 -0.0802846775
C  C28  1  0.36700000  0.32880000  0.34940000  1.0 -0.0802846775
C  C29  1  0.48830000  0.79790000  0.75650000  1.0 0.6403581984
C  C30  1  0.79790000  0.48830000  0.74350000  1.0 0.6403581984
C  C31  1  0.51170000  0.20210000  0.24350000  1.0 0.6403581984
C  C32  1  0.20210000  0.51170000  0.25650000  1.0 0.6403581984
C  C33  1  0.60920000  0.85860000  0.81350000  1.0 0.0586853762
C  C34  1  0.85860000  0.60920000  0.68650000  1.0 0.0586853762
C  C35  1  0.39080000  0.14140000  0.18650000  1.0 0.0586853762
C  C36  1  0.14140000  0.39080000  0.31350000  1.0 0.0586853762
C  C37  1  0.66260000  0.89780000  0.79430000  1.0 -0.1109934225
C  C38  1  0.89780000  0.66260000  0.70570000  1.0 -0.1109934225
C  C39  1  0.33740000  0.10220000  0.20570000  1.0 -0.1109934225
C  C40  1  0.10220000  0.33740000  0.29430000  1.0 -0.1109934225
C  C41  1  0.66980000  0.97680000  0.80060000  1.0 -0.0998156645
C  C42  1  0.97680000  0.66980000  0.69940000  1.0 -0.0998156645
C  C43  1  0.33020000  0.02320000  0.19940000  1.0 -0.0998156645
C  C44  1  0.02320000  0.33020000  0.30060000  1.0 -0.0998156645
C  C45  1  0.62880000  0.01420000  0.82300000  1.0 -0.0183966395
C  C46  1  0.01420000  0.62880000  0.67700000  1.0 -0.0183966395
C  C47  1  0.37120000  0.98580000  0.17700000  1.0 -0.0183966395
C  C48  1  0.98580000  0.37120000  0.32300000  1.0 -0.0183966395
C  C49  1  0.57310000  0.97690000  0.84010000  1.0 -0.0998156645
C  C50  1  0.97690000  0.57310000  0.65990000  1.0 -0.0998156645
C  C51  1  0.42690000  0.02310000  0.15990000  1.0 -0.0998156645
C  C52  1  0.02310000  0.42690000  0.34010000  1.0 -0.0998156645
C  C53  1  0.56550000  0.89850000  0.83500000  1.0 -0.1299432852
C  C54  1  0.89850000  0.56550000  0.66500000  1.0 -0.1299432852
C  C55  1  0.43450000  0.10150000  0.16500000  1.0 -0.1299432852
C  C56  1  0.10150000  0.43450000  0.33500000  1.0 -0.1299432852
C  C57  1  0.64070000  0.09730000  0.83030000  1.0 0.5781858898
C  C58  1  0.09730000  0.64070000  0.66970000  1.0 0.5781858898
C  C59  1  0.35930000  0.90270000  0.16970000  1.0 0.5781858898
C  C60  1  0.90270000  0.35930000  0.33030000  1.0 0.5781858898
C  C61  1  0.72780000  0.85280000  0.77880000  1.0 0.6235808767
C  C62  1  0.85280000  0.72780000  0.72120000  1.0 0.6235808767
C  C63  1  0.27220000  0.14720000  0.22120000  1.0 0.6235808767
C  C64  1  0.14720000  0.27220000  0.27880000  1.0 0.6235808767
C  C65  1  0.86050000  0.29450000  0.84610000  1.0 0.6128614582
C  C66  1  0.29450000  0.86050000  0.65390000  1.0 0.6128614582
C  C67  1  0.13950000  0.70550000  0.15390000  1.0 0.6128614582
C  C68  1  0.70550000  0.13950000  0.34610000  1.0 0.6128614582
C  C69  1  0.94380000  0.30320000  0.84080000  1.0 -0.0183966395
C  C70  1  0.30320000  0.94380000  0.65920000  1.0 -0.0183966395
C  C71  1  0.05620000  0.69680000  0.15920000  1.0 -0.0183966395
C  C72  1  0.69680000  0.05620000  0.34080000  1.0 -0.0183966395
C  C73  1  0.98540000  0.35420000  0.85970000  1.0 -0.0998156645
C  C74  1  0.35420000  0.98540000  0.64030000  1.0 -0.0998156645
C  C75  1  0.01460000  0.64580000  0.14030000  1.0 -0.0998156645
C  C76  1  0.64580000  0.01460000  0.35970000  1.0 -0.0998156645
C  C77  1  0.06010000  0.36650000  0.85440000  1.0 -0.0998156645
C  C78  1  0.36650000  0.06010000  0.64560000  1.0 -0.0998156645
C  C79  1  0.93990000  0.63350000  0.14560000  1.0 -0.0998156645
C  C80  1  0.63350000  0.93990000  0.35440000  1.0 -0.0998156645
C  C81  1  0.09870000  0.32470000  0.83160000  1.0 0.0586853762
C  C82  1  0.32470000  0.09870000  0.66840000  1.0 0.0586853762
C  C83  1  0.90130000  0.67530000  0.16840000  1.0 0.0586853762
C  C84  1  0.67530000  0.90130000  0.33160000  1.0 0.0586853762
C  C85  1  0.05640000  0.27500000  0.81040000  1.0 -0.1801842191
C  C86  1  0.27500000  0.05640000  0.68960000  1.0 -0.1801842191
C  C87  1  0.94360000  0.72500000  0.18960000  1.0 -0.1801842191
C  C88  1  0.72500000  0.94360000  0.31040000  1.0 -0.1801842191
C  C89  1  0.97980000  0.26600000  0.81670000  1.0 -0.0802846775
C  C90  1  0.26600000  0.97980000  0.68330000  1.0 -0.0802846775
C  C91  1  0.02020000  0.73400000  0.18330000  1.0 -0.0802846775
C  C92  1  0.73400000  0.02020000  0.31670000  1.0 -0.0802846775
C  C93  1  0.10730000  0.41030000  0.88600000  1.0 0.6552473642
C  C94  1  0.41030000  0.10730000  0.61400000  1.0 0.6552473642
C  C95  1  0.89270000  0.58970000  0.11400000  1.0 0.654655192
C  C96  1  0.58970000  0.89270000  0.38600000  1.0 0.6552473642
C  C97  1  0.18480000  0.32980000  0.82950000  1.0 0.0674941074
C  C98  1  0.32980000  0.18480000  0.67050000  1.0 0.0674941074
C  C99  1  0.81520000  0.67020000  0.17050000  1.0 0.0674941074
C  C100  1  0.67020000  0.81520000  0.32950000  1.0 0.0674941074
C  C101  1  0.21110000  0.38090000  0.80070000  1.0 -0.2087886701
C  C102  1  0.38090000  0.21110000  0.69930000  1.0 -0.2087886701
C  C103  1  0.78890000  0.61910000  0.19930000  1.0 -0.2087886701
C  C104  1  0.61910000  0.78890000  0.30070000  1.0 -0.2087886701
C  C105  1  0.29060000  0.37940000  0.80090000  1.0 -0.0626492389
C  C106  1  0.37940000  0.29060000  0.69910000  1.0 -0.0626492389
C  C107  1  0.70940000  0.62060000  0.19910000  1.0 -0.0626492389
C  C108  1  0.62060000  0.70940000  0.30090000  1.0 -0.0626492389
C  C109  1  0.34950000  0.32270000  0.83010000  1.0 -0.0183966395
C  C110  1  0.32270000  0.34950000  0.66990000  1.0 -0.0183966395
C  C111  1  0.65050000  0.67730000  0.16990000  1.0 -0.0183966395
C  C112  1  0.67730000  0.65050000  0.33010000  1.0 -0.0183966395
C  C113  1  0.32630000  0.27110000  0.85990000  1.0 -0.0945852977
C  C114  1  0.27110000  0.32630000  0.64010000  1.0 -0.0945852977
C  C115  1  0.67370000  0.72890000  0.14010000  1.0 -0.0945852977
C  C116  1  0.72890000  0.67370000  0.35990000  1.0 -0.0945852977
C  C117  1  0.24360000  0.27220000  0.85970000  1.0 -0.1299432852
C  C118  1  0.27220000  0.24360000  0.64030000  1.0 -0.1299432852
C  C119  1  0.75640000  0.72780000  0.14030000  1.0 -0.1299432852
C  C120  1  0.72780000  0.75640000  0.35970000  1.0 -0.1299432852
C  C121  1  0.43780000  0.31820000  0.83110000  1.0 0.5901410438
C  C122  1  0.31820000  0.43780000  0.66890000  1.0 0.5901410438
C  C123  1  0.56220000  0.68180000  0.16890000  1.0 0.5901410438
C  C124  1  0.68180000  0.56220000  0.33110000  1.0 0.5901410438
C  C125  1  0.15190000  0.44550000  0.77320000  1.0 0.5054695941
C  C126  1  0.44550000  0.15190000  0.72680000  1.0 0.5054695941
C  C127  1  0.84810000  0.55450000  0.22680000  1.0 0.5054695941
C  C128  1  0.55450000  0.84810000  0.27320000  1.0 0.5054695941
C  C129  1  0.63170000  0.33030000  0.73450000  1.0 0.5901410438
C  C130  1  0.33030000  0.63170000  0.76550000  1.0 0.5901410438
C  C131  1  0.36830000  0.66970000  0.26550000  1.0 0.5901410438
C  C132  1  0.66970000  0.36830000  0.23450000  1.0 0.5901410438
C  C133  1  0.62970000  0.34250000  0.68950000  1.0 -0.0092518673
C  C134  1  0.34250000  0.62970000  0.81050000  1.0 -0.0092518673
C  C135  1  0.37030000  0.65750000  0.31050000  1.0 -0.0092518673
C  C136  1  0.65750000  0.37030000  0.18950000  1.0 -0.0092518673
C  C137  1  0.56850000  0.39730000  0.65990000  1.0 -0.0732517206
C  C138  1  0.39730000  0.56850000  0.84010000  1.0 -0.0732517206
C  C139  1  0.43150000  0.60270000  0.34010000  1.0 -0.0732517206
C  C140  1  0.60270000  0.43150000  0.15990000  1.0 -0.0732517206
C  C141  1  0.56920000  0.40520000  0.61920000  1.0 -0.2407786046
C  C142  1  0.40520000  0.56920000  0.88080000  1.0 -0.2407786046
C  C143  1  0.43080000  0.59480000  0.38080000  1.0 -0.2407786046
C  C144  1  0.59480000  0.43080000  0.11920000  1.0 -0.2407786046
C  C145  1  0.62740000  0.35960000  0.60590000  1.0 0.0586853762
C  C146  1  0.35960000  0.62740000  0.89410000  1.0 0.0586853762
C  C147  1  0.37260000  0.64040000  0.39410000  1.0 0.0586853762
C  C148  1  0.64040000  0.37260000  0.10590000  1.0 0.0586853762
C  C149  1  0.69280000  0.31020000  0.63580000  1.0 -0.1109934225
C  C150  1  0.31020000  0.69280000  0.86420000  1.0 -0.1109934225
C  C151  1  0.30720000  0.68980000  0.36420000  1.0 -0.1109934225
C  C152  1  0.68980000  0.30720000  0.13580000  1.0 -0.1109934225
C  C153  1  0.69330000  0.29990000  0.67820000  1.0 -0.0802846775
C  C154  1  0.29990000  0.69330000  0.82180000  1.0 -0.0802846775
C  C155  1  0.30670000  0.70010000  0.32180000  1.0 -0.0802846775
C  C156  1  0.70010000  0.30670000  0.17820000  1.0 -0.0802846775
C  C157  1  0.51050000  0.46690000  0.58890000  1.0 0.4973321445
C  C158  1  0.46690000  0.51050000  0.91110000  1.0 0.4973321445
C  C159  1  0.48950000  0.53310000  0.41110000  1.0 0.4973321445
C  C160  1  0.53310000  0.48950000  0.08890000  1.0 0.4973321445
C  C161  1  0.63260000  0.35920000  0.56240000  1.0 0.0798373259
C  C162  1  0.35920000  0.63260000  0.93760000  1.0 0.0798373259
C  C163  1  0.36740000  0.64080000  0.43760000  1.0 0.0798373259
C  C164  1  0.64080000  0.36740000  0.06240000  1.0 0.0798373259
C  C165  1  0.67950000  0.40890000  0.54330000  1.0 -0.1521051936
C  C166  1  0.40890000  0.67950000  0.95670000  1.0 -0.1521051936
C  C167  1  0.32050000  0.59110000  0.45670000  1.0 -0.1521051936
C  C168  1  0.59110000  0.32050000  0.04330000  1.0 -0.1521051936
C  C169  1  0.68770000  0.40350000  0.50400000  1.0 -0.1109934225
C  C170  1  0.40350000  0.68770000  0.99600000  1.0 -0.1109934225
C  C171  1  0.31230000  0.59650000  0.49600000  1.0 -0.1109934225
C  C172  1  0.59650000  0.31230000  0.00400000  1.0 -0.1109934225
C  C173  1  0.65640000  0.34660000  0.48500000  1.0 -0.0378107652
C  C174  1  0.34660000  0.65640000  0.01500000  1.0 -0.0378107652
C  C175  1  0.34360000  0.65340000  0.51500000  1.0 -0.0378107652
C  C176  1  0.65340000  0.34360000  0.98500000  1.0 -0.0378107652
C  C177  1  0.61050000  0.29870000  0.50460000  1.0 -0.1185712837
C  C178  1  0.29870000  0.61050000  0.99540000  1.0 -0.1109934225
C  C179  1  0.38950000  0.70130000  0.49540000  1.0 -0.1109934225
C  C180  1  0.70130000  0.38950000  0.00460000  1.0 -0.1109934225
C  C181  1  0.59740000  0.30820000  0.54360000  1.0 -0.1109934225
C  C182  1  0.30820000  0.59740000  0.95640000  1.0 -0.1109934225
C  C183  1  0.40260000  0.69180000  0.45640000  1.0 -0.1109934225
C  C184  1  0.69180000  0.40260000  0.04360000  1.0 -0.1109934225
C  C185  1  0.67190000  0.33830000  0.44470000  1.0 0.5901410438
C  C186  1  0.33830000  0.67190000  0.05530000  1.0 0.5901410438
C  C187  1  0.32810000  0.66170000  0.55530000  1.0 0.5901410438
C  C188  1  0.66170000  0.32810000  0.94470000  1.0 0.5901410438
C  C189  1  0.73280000  0.45980000  0.56260000  1.0 0.6403581984
C  C190  1  0.45980000  0.73280000  0.93740000  1.0 0.6403581984
C  C191  1  0.26720000  0.54020000  0.43740000  1.0 0.6403581984
C  C192  1  0.54020000  0.26720000  0.06260000  1.0 0.6403581984
C  C193  1  0.50400000  0.15480000  0.93920000  1.0 0.1116072949
C  C194  1  0.15480000  0.50400000  0.56080000  1.0 0.1116072949
C  C195  1  0.49600000  0.84520000  0.06080000  1.0 0.1116072949
C  C196  1  0.84520000  0.49600000  0.43920000  1.0 0.1116072949
C  C197  1  0.47740000  0.10200000  0.96890000  1.0 -0.2018047825
C  C198  1  0.10200000  0.47740000  0.53110000  1.0 -0.2018047825
C  C199  1  0.52260000  0.89800000  0.03110000  1.0 -0.2018047825
C  C200  1  0.89800000  0.52260000  0.46890000  1.0 -0.2018047825
C  C201  1  0.51480000  0.02800000  0.98450000  1.0 0.1021519052
C  C202  1  0.02800000  0.51480000  0.51550000  1.0 0.1021519052
C  C203  1  0.48520000  0.97200000  0.01550000  1.0 0.1021519052
C  C204  1  0.97200000  0.48520000  0.48450000  1.0 0.1021519052
C  C205  1  0.58100000  0.01060000  0.97130000  1.0 -0.2176213675
C  C206  1  0.01060000  0.58100000  0.52870000  1.0 -0.2176213675
C  C207  1  0.41900000  0.98940000  0.02870000  1.0 -0.2176213675
C  C208  1  0.98940000  0.41900000  0.47130000  1.0 -0.2176213675
C  C209  1  0.60450000  0.05790000  0.93930000  1.0 0.0874832905
C  C210  1  0.05790000  0.60450000  0.56070000  1.0 0.0874832905
C  C211  1  0.39550000  0.94210000  0.06070000  1.0 0.0874832905
C  C212  1  0.94210000  0.39550000  0.43930000  1.0 0.0874832905
C  C213  1  0.57260000  0.24140000  0.56000000  1.0 0.4560059644
C  C214  1  0.24140000  0.57260000  0.94000000  1.0 0.4560059644
C  C215  1  0.42740000  0.75860000  0.44000000  1.0 0.4560059644
C  C216  1  0.75860000  0.42740000  0.06000000  1.0 0.4560059644
C  C217  1  0.10450000  0.23170000  0.78760000  1.0 0.5901410438
C  C218  1  0.23170000  0.10450000  0.71240000  1.0 0.5901410438
C  C219  1  0.89550000  0.76830000  0.21240000  1.0 0.5901410438
C  C220  1  0.76830000  0.89550000  0.28760000  1.0 0.5901410438
N  N1  1  0.57100000  0.13540000  0.92710000  1.0 -0.2018047825
N  N2  1  0.13540000  0.57100000  0.57290000  1.0 -0.2018047825
N  N3  1  0.42900000  0.86460000  0.07290000  1.0 -0.2018047825
N  N4  1  0.86460000  0.42900000  0.42710000  1.0 -0.2018047825
O  O1  1  0.57438000  0.48978000  0.80241000  1.0 -0.5084632479
O  O2  1  0.48978000  0.57438000  0.69759000  1.0 -0.5084632479
O  O3  1  0.42562000  0.51022000  0.19759000  1.0 -0.5084632479
O  O4  1  0.51022000  0.42562000  0.30241000  1.0 -0.5084632479
O  O5  1  0.69005000  0.47225000  0.84998000  1.0 -0.5291695856
O  O6  1  0.47225000  0.69005000  0.65002000  1.0 -0.5291695856
O  O7  1  0.30995000  0.52775000  0.15002000  1.0 -0.5291695856
O  O8  1  0.52775000  0.30995000  0.34998000  1.0 -0.5291695856
O  O9  1  0.70330000  0.12210000  0.81750000  1.0 -0.5291695856
O  O10  1  0.12210000  0.70330000  0.68250000  1.0 -0.5291695856
O  O11  1  0.29670000  0.87790000  0.18250000  1.0 -0.5291695856
O  O12  1  0.87790000  0.29670000  0.31750000  1.0 -0.5291695856
O  O13  1  0.59911000  0.13191000  0.84764000  1.0 -0.4957920276
O  O14  1  0.13191000  0.59911000  0.65236000  1.0 -0.4957920276
O  O15  1  0.40089000  0.86809000  0.15236000  1.0 -0.4957920276
O  O16  1  0.86809000  0.40089000  0.34764000  1.0 -0.4957920276
O  O17  1  0.83070000  0.33530000  0.86828000  1.0 -0.5084632479
O  O18  1  0.33530000  0.83070000  0.63172000  1.0 -0.5084632479
O  O19  1  0.16930000  0.66470000  0.13172000  1.0 -0.5084632479
O  O20  1  0.66470000  0.16930000  0.36828000  1.0 -0.5084632479
O  O21  1  0.82970000  0.24290000  0.82996000  1.0 -0.5084632479
O  O22  1  0.24290000  0.82970000  0.67004000  1.0 -0.5084632479
O  O23  1  0.17030000  0.75710000  0.17004000  1.0 -0.5084632479
O  O24  1  0.75710000  0.17030000  0.32996000  1.0 -0.5084632479
O  O25  1  0.45513000  0.36833000  0.80310000  1.0 -0.5084632479
O  O26  1  0.36833000  0.45513000  0.69690000  1.0 -0.5084632479
O  O27  1  0.54487000  0.63167000  0.19690000  1.0 -0.5084632479
O  O28  1  0.63167000  0.54487000  0.30310000  1.0 -0.5084632479
O  O29  1  0.48520000  0.26780000  0.85980000  1.0 -0.5291695856
O  O30  1  0.26780000  0.48520000  0.64020000  1.0 -0.5291695856
O  O31  1  0.51480000  0.73220000  0.14020000  1.0 -0.5291695856
O  O32  1  0.73220000  0.51480000  0.35980000  1.0 -0.5291695856
O  O33  1  0.68840000  0.27940000  0.75821000  1.0 -0.5232073926
O  O34  1  0.27940000  0.68840000  0.74179000  1.0 -0.5232073926
O  O35  1  0.31160000  0.72060000  0.24179000  1.0 -0.5232073926
O  O36  1  0.72060000  0.31160000  0.25821000  1.0 -0.5232073926
O  O37  1  0.57563000  0.37123000  0.74443000  1.0 -0.5232073926
O  O38  1  0.37123000  0.57563000  0.75557000  1.0 -0.5232073926
O  O39  1  0.42437000  0.62877000  0.25557000  1.0 -0.5232073926
O  O40  1  0.62877000  0.42437000  0.24443000  1.0 -0.5232073926
O  O41  1  0.64620000  0.28040000  0.43012000  1.0 -0.5084632479
O  O42  1  0.28040000  0.64620000  0.06988000  1.0 -0.5084632479
O  O43  1  0.35380000  0.71960000  0.56988000  1.0 -0.5084632479
O  O44  1  0.71960000  0.35380000  0.93012000  1.0 -0.5084632479
O  O45  1  0.70930000  0.38610000  0.42713000  1.0 -0.5474740677
O  O46  1  0.38610000  0.70930000  0.07287000  1.0 -0.5474740677
O  O47  1  0.29070000  0.61390000  0.57287000  1.0 -0.5474740677
O  O48  1  0.61390000  0.29070000  0.92713000  1.0 -0.5474740677
O  O49  1  0.64830000  0.30002000  0.84222000  1.0 -1.0025586747
O  O50  1  0.30002000  0.64830000  0.65778000  1.0 -1.0025586747
O  O51  1  0.35170000  0.69998000  0.15778000  1.0 -1.0025586747
O  O52  1  0.69998000  0.35170000  0.34222000  1.0 -1.0025586747
F  F1  1  0.44290000  0.76190000  0.73006000  1.0 -0.2018047825
F  F2  1  0.76190000  0.44290000  0.76994000  1.0 -0.2018047825
F  F3  1  0.55710000  0.23810000  0.26994000  1.0 -0.2018047825
F  F4  1  0.23810000  0.55710000  0.23006000  1.0 -0.2018047825
F  F5  1  0.43150000  0.83710000  0.77240000  1.0 -0.2087886701
F  F6  1  0.83710000  0.43150000  0.72760000  1.0 -0.2087886701
F  F7  1  0.56850000  0.16290000  0.22760000  1.0 -0.2087886701
F  F8  1  0.16290000  0.56850000  0.27240000  1.0 -0.2087886701
F  F9  1  0.51220000  0.85800000  0.73340000  1.0 -0.194320824
F  F10  1  0.85800000  0.51220000  0.76660000  1.0 -0.194320824
F  F11  1  0.48780000  0.14200000  0.26660000  1.0 -0.194320824
F  F12  1  0.14200000  0.48780000  0.23340000  1.0 -0.194320824
F  F13  1  0.76360000  0.91040000  0.75270000  1.0 -0.2087886701
F  F14  1  0.91040000  0.76360000  0.74730000  1.0 -0.2087886701
F  F15  1  0.23640000  0.08960000  0.24730000  1.0 -0.2018047825
F  F16  1  0.08960000  0.23640000  0.25270000  1.0 -0.2018047825
F  F17  1  0.79050000  0.79810000  0.80730000  1.0 -0.2407786046
F  F18  1  0.79810000  0.79050000  0.69270000  1.0 -0.2407786046
F  F19  1  0.20950000  0.20190000  0.19270000  1.0 -0.2407786046
F  F20  1  0.20190000  0.20950000  0.30730000  1.0 -0.2407786046
F  F21  1  0.68390000  0.82210000  0.74510000  1.0 -0.2311766103
F  F22  1  0.82210000  0.68390000  0.75490000  1.0 -0.2311766103
F  F23  1  0.31610000  0.17790000  0.25490000  1.0 -0.2311766103
F  F24  1  0.17790000  0.31610000  0.24510000  1.0 -0.2311766103
F  F25  1  0.16120000  0.35800000  0.92110000  1.0 -0.2311766103
F  F26  1  0.35800000  0.16120000  0.57890000  1.0 -0.2311766103
F  F27  1  0.83880000  0.64200000  0.07890000  1.0 -0.2311766103
F  F28  1  0.64200000  0.83880000  0.42110000  1.0 -0.2311766103
F  F29  1  0.14180000  0.46900000  0.86070000  1.0 -0.2591271364
F  F30  1  0.46900000  0.14180000  0.63930000  1.0 -0.2591271364
F  F31  1  0.85820000  0.53100000  0.13930000  1.0 -0.2591271364
F  F32  1  0.53100000  0.85820000  0.36070000  1.0 -0.2591271364
F  F33  1  0.05610000  0.45670000  0.90220000  1.0 -0.2087886701
F  F34  1  0.45670000  0.05610000  0.59780000  1.0 -0.2087886701
F  F35  1  0.94390000  0.54330000  0.09780000  1.0 -0.2087886701
F  F36  1  0.54330000  0.94390000  0.40220000  1.0 -0.2087886701
F  F37  1  0.18000000  0.50200000  0.74830000  1.0 -0.1626501643
F  F38  1  0.50200000  0.18000000  0.75170000  1.0 -0.1626501643
F  F39  1  0.82000000  0.49800000  0.25170000  1.0 -0.1626501643
F  F40  1  0.49800000  0.82000000  0.24830000  1.0 -0.1626501643
F  F41  1  0.11310000  0.41190000  0.74090000  1.0 -0.1109934225
F  F42  1  0.41190000  0.11310000  0.75910000  1.0 -0.1109934225
F  F43  1  0.88690000  0.58810000  0.25910000  1.0 -0.1109934225
F  F44  1  0.58810000  0.88690000  0.24090000  1.0 -0.1109934225
F  F45  1  0.11020000  0.50400000  0.79390000  1.0 -0.1185712837
F  F46  1  0.50400000  0.11020000  0.70610000  1.0 -0.1185712837
F  F47  1  0.88980000  0.49600000  0.20610000  1.0 -0.1185712837
F  F48  1  0.49600000  0.88980000  0.29390000  1.0 -0.1185712837
F  F49  1  0.46860000  0.52120000  0.60290000  1.0 -0.1521051936
F  F50  1  0.52120000  0.46860000  0.89710000  1.0 -0.1521051936
F  F51  1  0.53140000  0.47880000  0.39710000  1.0 -0.1521051936
F  F52  1  0.47880000  0.53140000  0.10290000  1.0 -0.1521051936
F  F53  1  0.53730000  0.52410000  0.56190000  1.0 -0.1299432852
F  F54  1  0.52410000  0.53730000  0.93810000  1.0 -0.1299432852
F  F55  1  0.46270000  0.47590000  0.43810000  1.0 -0.1299432852
F  F56  1  0.47590000  0.46270000  0.06190000  1.0 -0.1299432852
F  F57  1  0.44190000  0.43370000  0.57800000  1.0 -0.1109934225
F  F58  1  0.43370000  0.44190000  0.92200000  1.0 -0.1109934225
F  F59  1  0.55810000  0.56630000  0.42200000  1.0 -0.1109934225
F  F60  1  0.56630000  0.55810000  0.07800000  1.0 -0.1109934225
F  F61  1  0.77060000  0.51480000  0.53830000  1.0 -0.2311766103
F  F62  1  0.51480000  0.77060000  0.96170000  1.0 -0.2311766103
F  F63  1  0.22940000  0.48520000  0.46170000  1.0 -0.2311766103
F  F64  1  0.48520000  0.22940000  0.03830000  1.0 -0.2311766103
F  F65  1  0.80400000  0.41680000  0.59510000  1.0 -0.2311766103
F  F66  1  0.41680000  0.80400000  0.90490000  1.0 -0.2311766103
F  F67  1  0.19600000  0.58320000  0.40490000  1.0 -0.2311766103
F  F68  1  0.58320000  0.19600000  0.09510000  1.0 -0.2311766103
F  F69  1  0.69110000  0.51750000  0.57970000  1.0 -0.2311766103
F  F70  1  0.51750000  0.69110000  0.92030000  1.0 -0.2311766103
F  F71  1  0.30890000  0.48250000  0.42030000  1.0 -0.2311766103
F  F72  1  0.48250000  0.30890000  0.07970000  1.0 -0.2311766103
F  F73  1  0.08380000  0.46140000  0.76360000  1.0 0.1021519052
F  F74  1  0.46140000  0.08380000  0.73640000  1.0 0.1021519052
F  F75  1  0.91620000  0.53860000  0.23640000  1.0 0.1021519052
F  F76  1  0.53860000  0.91620000  0.26360000  1.0 0.1021519052
F  F77  1  0.49130000  0.46570000  0.55460000  1.0 0.0586853762
F  F78  1  0.46570000  0.49130000  0.94540000  1.0 0.0586853762
F  F79  1  0.50870000  0.53430000  0.44540000  1.0 0.0586853762
F  F80  1  0.53430000  0.50870000  0.05460000  1.0 0.0543211698
F  F81  1  0.50800000  0.20800000  0.53540000  1.0 -0.1354781874
F  F82  1  0.20800000  0.50800000  0.96460000  1.0 -0.1354781874
F  F83  1  0.49200000  0.79200000  0.46460000  1.0 -0.1354781874
F  F84  1  0.79200000  0.49200000  0.03540000  1.0 -0.1354781874
F  F85  1  0.63400000  0.18360000  0.59540000  1.0 -0.2018047825
F  F86  1  0.18360000  0.63400000  0.90460000  1.0 -0.2018047825
F  F87  1  0.36600000  0.81640000  0.40460000  1.0 -0.2018047825
F  F88  1  0.81640000  0.36600000  0.09540000  1.0 -0.2018047825
F  F89  1  0.50440000  0.26720000  0.57810000  1.0 -0.1706793197
F  F90  1  0.26720000  0.50440000  0.92190000  1.0 -0.1706793197
F  F91  1  0.49560000  0.73280000  0.42190000  1.0 -0.1706793197
F  F92  1  0.73280000  0.49560000  0.07810000  1.0 -0.1706793197
F  F93  1  0.05030000  0.18610000  0.76800000  1.0 -0.0998156645
F  F94  1  0.18610000  0.05030000  0.73200000  1.0 -0.0998156645
F  F95  1  0.94970000  0.81390000  0.23200000  1.0 -0.0998156645
F  F96  1  0.81390000  0.94970000  0.26800000  1.0 -0.0998156645
F  F97  1  0.12040000  0.26840000  0.75510000  1.0 -0.2018047825
F  F98  1  0.26840000  0.12040000  0.74490000  1.0 -0.2018047825
F  F99  1  0.87960000  0.73160000  0.24490000  1.0 -0.2018047825
F  F100  1  0.73160000  0.87960000  0.25510000  1.0 -0.2018047825
F  F101  1  0.14580000  0.15080000  0.81160000  1.0 -0.1801842191
F  F102  1  0.15080000  0.14580000  0.68840000  1.0 -0.1801842191
F  F103  1  0.85420000  0.84920000  0.18840000  1.0 -0.1801842191
F  F104  1  0.84920000  0.85420000  0.31160000  1.0 -0.1801842191
