# DDEC6 charges by PACMAN v1.1 (https://github.com/mtap-research/PACMAN-charge/)
data_WIKNOU_ASR_pacman
_symmetry_space_group_name_H-M   'P 1'
_cell_length_a   13.19410000
_cell_length_b   14.98970000
_cell_length_c   27.87460000
_cell_angle_alpha   90.00000000
_cell_angle_beta   90.00000000
_cell_angle_gamma   90.00000000
_symmetry_Int_Tables_number   1
_chemical_formula_structural   Na2Mn6H54C30N9O19
_chemical_formula_sum   'Na8 Mn24 H216 C120 N36 O76'
_cell_volume   5512.91576122
_cell_formula_units_Z   4
loop_
 _symmetry_equiv_pos_site_id
 _symmetry_equiv_pos_as_xyz
  1  'x, y, z'
loop_
 _atom_site_type_symbol
 _atom_site_label
 _atom_site_symmetry_multiplicity
 _atom_site_fract_x
 _atom_site_fract_y
 _atom_site_fract_z
 _atom_site_occupancy
 _atom_site_charge
Na  Na1  1  0.49480000  0.67151000  0.31181000  1.0 0.8154453173
Na  Na2  1  0.00520000  0.32849000  0.81181000  1.0 0.8148024216
Na  Na3  1  0.50520000  0.17151000  0.18819000  1.0 0.8154453173
Na  Na4  1  0.99480000  0.82849000  0.68819000  1.0 0.8148024216
Na  Na5  1  0.00255000  0.66520000  0.32471000  1.0 0.8016472891
Na  Na6  1  0.49745000  0.33480000  0.82471000  1.0 0.8016472891
Na  Na7  1  0.99745000  0.16520000  0.17529000  1.0 0.8016472891
Na  Na8  1  0.50255000  0.83480000  0.67529000  1.0 0.8016472891
Mn  Mn1  1  0.64389000  0.85370000  0.30886000  1.0 0.8463495507
Mn  Mn2  1  0.85611000  0.14630000  0.80886000  1.0 0.8463495507
Mn  Mn3  1  0.35611000  0.35370000  0.19114000  1.0 0.8463495507
Mn  Mn4  1  0.14389000  0.64630000  0.69114000  1.0 0.8436294332
Mn  Mn5  1  0.87106000  0.85707000  0.30685000  1.0 0.9884114101
Mn  Mn6  1  0.62894000  0.14293000  0.80685000  1.0 0.9848227635
Mn  Mn7  1  0.12894000  0.35707000  0.19315000  1.0 0.9884114101
Mn  Mn8  1  0.37106000  0.64293000  0.69315000  1.0 0.9848227635
Mn  Mn9  1  0.74643000  0.69006000  0.32565000  1.0 0.9324308917
Mn  Mn10  1  0.75357000  0.30994000  0.82565000  1.0 0.9324308917
Mn  Mn11  1  0.25357000  0.19006000  0.17435000  1.0 0.9324308917
Mn  Mn12  1  0.24643000  0.80994000  0.67435000  1.0 0.9324308917
Mn  Mn13  1  0.85611000  0.76514000  0.41227000  1.0 0.9712514713
Mn  Mn14  1  0.64389000  0.23486000  0.91227000  1.0 0.9712514713
Mn  Mn15  1  0.14389000  0.26514000  0.08773000  1.0 0.9712514713
Mn  Mn16  1  0.35611000  0.73486000  0.58773000  1.0 0.9712514713
Mn  Mn17  1  0.61950000  0.76888000  0.40528000  1.0 0.9614126742
Mn  Mn18  1  0.88050000  0.23112000  0.90528000  1.0 0.9614126742
Mn  Mn19  1  0.38050000  0.26888000  0.09472000  1.0 0.9614126742
Mn  Mn20  1  0.11950000  0.73112000  0.59472000  1.0 0.9614126742
Mn  Mn21  1  0.74298000  0.93806000  0.38851000  1.0 0.9614126742
Mn  Mn22  1  0.75702000  0.06194000  0.88851000  1.0 0.9614126742
Mn  Mn23  1  0.25702000  0.43806000  0.11149000  1.0 0.9614126742
Mn  Mn24  1  0.24298000  0.56194000  0.61149000  1.0 0.9614126742
H  H1  1  0.56212000  0.00472000  0.45278000  1.0 0.0618432654
H  H2  1  0.93788000  0.99528000  0.95278000  1.0 0.0618432654
H  H3  1  0.43788000  0.50472000  0.04722000  1.0 0.0618432654
H  H4  1  0.06212000  0.49528000  0.54722000  1.0 0.0618432654
H  H5  1  0.48807000  0.90549000  0.46155000  1.0 0.0618432654
H  H6  1  0.01193000  0.09451000  0.96155000  1.0 0.0618432654
H  H7  1  0.51193000  0.40549000  0.03845000  1.0 0.0618432654
H  H8  1  0.98807000  0.59451000  0.53845000  1.0 0.0618432654
H  H9  1  0.39631000  0.83746000  0.39072000  1.0 0.0618432654
H  H10  1  0.10369000  0.16254000  0.89072000  1.0 0.0618432654
H  H11  1  0.60369000  0.33746000  0.10928000  1.0 0.0618432654
H  H12  1  0.89631000  0.66254000  0.60928000  1.0 0.0618432654
H  H13  1  0.40949000  0.88830000  0.33265000  1.0 0.0697045676
H  H14  1  0.09051000  0.11170000  0.83265000  1.0 0.0697045676
H  H15  1  0.59051000  0.38830000  0.16735000  1.0 0.0697045676
H  H16  1  0.90949000  0.61170000  0.66735000  1.0 0.0697045676
H  H17  1  0.50364000  0.02733000  0.32298000  1.0 0.0618432654
H  H18  1  0.99636000  0.97267000  0.82298000  1.0 0.0618432654
H  H19  1  0.49636000  0.52733000  0.17702000  1.0 0.0697045676
H  H20  1  0.00364000  0.47267000  0.67702000  1.0 0.0697045676
H  H21  1  0.56573000  0.07851000  0.37323000  1.0 0.0523664085
H  H22  1  0.93427000  0.92149000  0.87323000  1.0 0.0523664085
H  H23  1  0.43427000  0.57851000  0.12677000  1.0 0.0523664085
H  H24  1  0.06573000  0.42149000  0.62677000  1.0 0.0523664085
H  H25  1  0.40856000  0.07381000  0.42081000  1.0 0.1034930687
H  H26  1  0.09144000  0.92619000  0.92081000  1.0 0.1034930687
H  H27  1  0.59144000  0.57381000  0.07919000  1.0 0.1034930687
H  H28  1  0.90856000  0.42619000  0.57919000  1.0 0.1034930687
H  H29  1  0.33700000  0.97052000  0.42397000  1.0 0.1034930687
H  H30  1  0.16300000  0.02948000  0.92397000  1.0 0.1034930687
H  H31  1  0.66300000  0.47052000  0.07603000  1.0 0.1034930687
H  H32  1  0.83700000  0.52948000  0.57603000  1.0 0.1034930687
H  H33  1  0.34857000  0.02886000  0.36741000  1.0 0.1107448314
H  H34  1  0.15143000  0.97114000  0.86741000  1.0 0.1107448314
H  H35  1  0.65143000  0.52886000  0.13259000  1.0 0.1107448314
H  H36  1  0.84857000  0.47114000  0.63259000  1.0 0.1107448314
H  H37  1  0.63516000  0.51914000  0.36981000  1.0 0.0697045676
H  H38  1  0.86484000  0.48086000  0.86981000  1.0 0.0697045676
H  H39  1  0.36484000  0.01914000  0.13019000  1.0 0.0697045676
H  H40  1  0.13516000  0.98086000  0.63019000  1.0 0.0697045676
H  H41  1  0.56504000  0.56891000  0.41829000  1.0 0.0618432654
H  H42  1  0.93496000  0.43109000  0.91829000  1.0 0.0618432654
H  H43  1  0.43496000  0.06891000  0.08171000  1.0 0.0618432654
H  H44  1  0.06504000  0.93109000  0.58171000  1.0 0.0618432654
H  H45  1  0.88827000  0.56253000  0.42552000  1.0 0.0697045676
H  H46  1  0.61173000  0.43747000  0.92552000  1.0 0.0697045676
H  H47  1  0.11173000  0.06253000  0.07448000  1.0 0.0697045676
H  H48  1  0.38827000  0.93747000  0.57448000  1.0 0.0697045676
H  H49  1  0.82486000  0.51174000  0.37529000  1.0 0.0618432654
H  H50  1  0.67514000  0.48826000  0.87529000  1.0 0.0618432654
H  H51  1  0.17514000  0.01174000  0.12471000  1.0 0.0618432654
H  H52  1  0.32486000  0.98826000  0.62471000  1.0 0.0618432654
H  H53  1  0.65320000  0.63326000  0.48806000  1.0 0.0618432654
H  H54  1  0.84680000  0.36674000  0.98806000  1.0 0.0618432654
H  H55  1  0.34680000  0.13326000  0.01194000  1.0 0.0618432654
H  H56  1  0.15320000  0.86674000  0.51194000  1.0 0.0618432654
H  H57  1  0.78933000  0.63318000  0.49061000  1.0 0.0618432654
H  H58  1  0.71067000  0.36682000  0.99061000  1.0 0.0618432654
H  H59  1  0.21067000  0.13318000  0.00939000  1.0 0.0618432654
H  H60  1  0.28933000  0.86682000  0.50939000  1.0 0.0618432654
H  H61  1  0.64739000  0.46896000  0.47212000  1.0 0.1107448314
H  H62  1  0.85261000  0.53104000  0.97212000  1.0 0.1107448314
H  H63  1  0.35261000  0.96896000  0.02788000  1.0 0.1107448314
H  H64  1  0.14739000  0.03104000  0.52788000  1.0 0.1107448314
H  H65  1  0.78307000  0.47271000  0.48099000  1.0 0.1034930687
H  H66  1  0.71693000  0.52729000  0.98099000  1.0 0.1034930687
H  H67  1  0.21693000  0.97271000  0.01901000  1.0 0.1034930687
H  H68  1  0.28307000  0.02729000  0.51901000  1.0 0.1034930687
H  H69  1  0.73142000  0.42239000  0.42748000  1.0 0.1107448314
H  H70  1  0.76858000  0.57761000  0.92748000  1.0 0.1107448314
H  H71  1  0.26858000  0.92239000  0.07252000  1.0 0.1107448314
H  H72  1  0.23142000  0.07761000  0.57252000  1.0 0.1107448314
H  H73  1  0.14004000  0.97172000  0.43893000  1.0 0.1214023108
H  H74  1  0.35996000  0.02828000  0.93893000  1.0 0.1214023108
H  H75  1  0.85996000  0.47172000  0.06107000  1.0 0.1214023108
H  H76  1  0.64004000  0.52828000  0.56107000  1.0 0.1214023108
H  H77  1  0.07490000  0.07547000  0.42517000  1.0 0.1214023108
H  H78  1  0.42510000  0.92453000  0.92517000  1.0 0.1214023108
H  H79  1  0.92510000  0.57547000  0.07483000  1.0 0.1214023108
H  H80  1  0.57490000  0.42453000  0.57483000  1.0 0.1214023108
H  H81  1  0.14819000  0.01892000  0.37915000  1.0 0.1257605836
H  H82  1  0.35181000  0.98108000  0.87915000  1.0 0.1214023108
H  H83  1  0.85181000  0.51892000  0.12085000  1.0 0.1214023108
H  H84  1  0.64819000  0.48108000  0.62085000  1.0 0.1257605836
H  H85  1  0.83199000  0.89281000  0.19920000  1.0 0.0618432654
H  H86  1  0.66801000  0.10719000  0.69920000  1.0 0.0618432654
H  H87  1  0.16801000  0.39281000  0.30080000  1.0 0.0618432654
H  H88  1  0.33199000  0.60719000  0.80080000  1.0 0.0618432654
H  H89  1  0.69594000  0.89128000  0.19876000  1.0 0.0618432654
H  H90  1  0.80406000  0.10872000  0.69876000  1.0 0.0618432654
H  H91  1  0.30406000  0.39128000  0.30124000  1.0 0.0618432654
H  H92  1  0.19594000  0.60872000  0.80124000  1.0 0.0618432654
H  H93  1  0.85736000  0.64899000  0.22560000  1.0 0.0618432654
H  H94  1  0.64264000  0.35101000  0.72560000  1.0 0.0618432654
H  H95  1  0.14264000  0.14899000  0.27440000  1.0 0.0618432654
H  H96  1  0.35736000  0.85101000  0.77440000  1.0 0.0618432654
H  H97  1  0.92672000  0.75055000  0.21596000  1.0 0.0618432654
H  H98  1  0.57328000  0.24945000  0.71596000  1.0 0.0618432654
H  H99  1  0.07328000  0.25055000  0.28404000  1.0 0.0618432654
H  H100  1  0.42672000  0.74945000  0.78404000  1.0 0.0618432654
H  H101  1  0.60333000  0.75609000  0.20958000  1.0 0.0697045676
H  H102  1  0.89667000  0.24391000  0.70958000  1.0 0.0697045676
H  H103  1  0.39667000  0.25609000  0.29042000  1.0 0.0697045676
H  H104  1  0.10333000  0.74391000  0.79042000  1.0 0.0697045676
H  H105  1  0.66613000  0.65082000  0.21801000  1.0 0.0618432654
H  H106  1  0.83387000  0.34918000  0.71801000  1.0 0.0618432654
H  H107  1  0.33387000  0.15082000  0.28199000  1.0 0.0618432654
H  H108  1  0.16613000  0.84918000  0.78199000  1.0 0.0618432654
H  H109  1  0.83480000  0.77949000  0.13907000  1.0 0.1107448314
H  H110  1  0.66520000  0.22051000  0.63907000  1.0 0.1107448314
H  H111  1  0.16520000  0.27949000  0.36093000  1.0 0.1107448314
H  H112  1  0.33480000  0.72051000  0.86093000  1.0 0.1107448314
H  H113  1  0.69872000  0.76333000  0.13792000  1.0 0.1107448314
H  H114  1  0.80128000  0.23667000  0.63792000  1.0 0.1107448314
H  H115  1  0.30128000  0.26333000  0.36208000  1.0 0.1107448314
H  H116  1  0.19872000  0.73667000  0.86208000  1.0 0.1107448314
H  H117  1  0.78202000  0.67030000  0.15025000  1.0 0.1034930687
H  H118  1  0.71798000  0.32970000  0.65025000  1.0 0.1034930687
H  H119  1  0.21798000  0.17030000  0.34975000  1.0 0.1034930687
H  H120  1  0.28202000  0.82970000  0.84975000  1.0 0.1034930687
H  H121  1  0.10036000  0.64727000  0.37843000  1.0 0.3283063605
H  H122  1  0.39964000  0.35273000  0.87843000  1.0 0.3283063605
H  H123  1  0.89964000  0.14727000  0.12157000  1.0 0.3283063605
H  H124  1  0.60036000  0.85273000  0.62157000  1.0 0.3283063605
H  H125  1  0.12974000  0.49102000  0.36851000  1.0 0.0523664085
H  H126  1  0.37026000  0.50898000  0.86851000  1.0 0.0523664085
H  H127  1  0.87026000  0.99102000  0.13149000  1.0 0.0523664085
H  H128  1  0.62974000  0.00898000  0.63149000  1.0 0.0523664085
H  H129  1  0.10886000  0.48889000  0.43266000  1.0 0.0618432654
H  H130  1  0.39114000  0.51111000  0.93266000  1.0 0.0618432654
H  H131  1  0.89114000  0.98889000  0.06734000  1.0 0.0618432654
H  H132  1  0.60886000  0.01111000  0.56734000  1.0 0.0618432654
H  H133  1  0.28368000  0.42267000  0.43865000  1.0 0.1107448314
H  H134  1  0.21632000  0.57733000  0.93865000  1.0 0.1107448314
H  H135  1  0.71632000  0.92267000  0.06135000  1.0 0.1107448314
H  H136  1  0.78368000  0.07733000  0.56135000  1.0 0.1107448314
H  H137  1  0.38971000  0.48568000  0.41471000  1.0 0.1214023108
H  H138  1  0.11029000  0.51432000  0.91471000  1.0 0.1214023108
H  H139  1  0.61029000  0.98568000  0.08529000  1.0 0.1214023108
H  H140  1  0.88971000  0.01432000  0.58529000  1.0 0.1214023108
H  H141  1  0.29926000  0.43596000  0.37401000  1.0 0.1107448314
H  H142  1  0.20074000  0.56404000  0.87401000  1.0 0.1107448314
H  H143  1  0.70074000  0.93596000  0.12599000  1.0 0.1107448314
H  H144  1  0.79926000  0.06404000  0.62599000  1.0 0.1107448314
H  H145  1  0.26362000  0.58421000  0.33600000  1.0 0.0618432654
H  H146  1  0.23638000  0.41579000  0.83600000  1.0 0.0618432654
H  H147  1  0.73638000  0.08421000  0.16400000  1.0 0.0618432654
H  H148  1  0.76362000  0.91579000  0.66400000  1.0 0.0618432654
H  H149  1  0.23421000  0.67947000  0.37457000  1.0 0.0523664085
H  H150  1  0.26579000  0.32053000  0.87457000  1.0 0.0523664085
H  H151  1  0.76579000  0.17947000  0.12543000  1.0 0.0523664085
H  H152  1  0.73421000  0.82053000  0.62543000  1.0 0.0523664085
H  H153  1  0.40430000  0.65398000  0.40473000  1.0 0.3283063605
H  H154  1  0.09570000  0.34602000  0.90473000  1.0 0.3283063605
H  H155  1  0.59570000  0.15398000  0.09527000  1.0 0.3283063605
H  H156  1  0.90430000  0.84602000  0.59527000  1.0 0.3283063605
H  H157  1  0.22875000  0.54841000  0.48779000  1.0 0.0618432654
H  H158  1  0.27125000  0.45159000  0.98779000  1.0 0.0618432654
H  H159  1  0.77125000  0.04841000  0.01221000  1.0 0.0618432654
H  H160  1  0.72875000  0.95159000  0.51221000  1.0 0.0618432654
H  H161  1  0.33998000  0.60679000  0.46771000  1.0 0.0417440295
H  H162  1  0.16002000  0.39321000  0.96771000  1.0 0.0417440295
H  H163  1  0.66002000  0.10679000  0.03229000  1.0 0.0417440295
H  H164  1  0.83998000  0.89321000  0.53229000  1.0 0.0417440295
H  H165  1  0.37934000  0.62987000  0.24180000  1.0 0.3283063605
H  H166  1  0.12066000  0.37013000  0.74180000  1.0 0.3283063605
H  H167  1  0.62066000  0.12987000  0.25820000  1.0 0.3283063605
H  H168  1  0.87934000  0.87013000  0.75820000  1.0 0.3283063605
H  H169  1  0.37397000  0.72775000  0.17070000  1.0 0.0523664085
H  H170  1  0.12603000  0.27225000  0.67070000  1.0 0.0523664085
H  H171  1  0.62603000  0.22775000  0.32930000  1.0 0.0523664085
H  H172  1  0.87397000  0.77225000  0.82930000  1.0 0.0523664085
H  H173  1  0.38821000  0.81263000  0.21652000  1.0 0.0697045676
H  H174  1  0.11179000  0.18737000  0.71652000  1.0 0.0697045676
H  H175  1  0.61179000  0.31263000  0.28348000  1.0 0.0697045676
H  H176  1  0.88821000  0.68737000  0.78348000  1.0 0.0697045676
H  H177  1  0.12129000  0.64912000  0.21072000  1.0 0.0697045676
H  H178  1  0.37871000  0.35088000  0.71072000  1.0 0.0697045676
H  H179  1  0.87871000  0.14912000  0.28928000  1.0 0.0697045676
H  H180  1  0.62129000  0.85088000  0.78928000  1.0 0.0697045676
H  H181  1  0.22592000  0.62954000  0.17028000  1.0 0.0523664085
H  H182  1  0.27408000  0.37046000  0.67028000  1.0 0.0523664085
H  H183  1  0.77408000  0.12954000  0.32972000  1.0 0.0523664085
H  H184  1  0.72592000  0.87046000  0.82972000  1.0 0.0523664085
H  H185  1  0.08370000  0.80055000  0.27278000  1.0 0.3283063605
H  H186  1  0.41630000  0.19945000  0.77278000  1.0 0.3283063605
H  H187  1  0.91630000  0.30055000  0.22722000  1.0 0.3283063605
H  H188  1  0.58370000  0.69945000  0.72722000  1.0 0.3283063605
H  H189  1  0.27344000  0.72018000  0.29369000  1.0 0.0618432654
H  H190  1  0.22656000  0.27982000  0.79369000  1.0 0.0618432654
H  H191  1  0.72656000  0.22018000  0.20631000  1.0 0.0618432654
H  H192  1  0.77344000  0.77982000  0.70631000  1.0 0.0618432654
H  H193  1  0.24855000  0.83379000  0.27723000  1.0 0.0618432654
H  H194  1  0.25145000  0.16621000  0.77723000  1.0 0.0618432654
H  H195  1  0.75145000  0.33379000  0.22277000  1.0 0.0618432654
H  H196  1  0.74855000  0.66621000  0.72277000  1.0 0.0618432654
H  H197  1  0.23452000  0.71212000  0.48714000  1.0 0.3283063605
H  H198  1  0.26548000  0.28788000  0.98714000  1.0 0.3283063605
H  H199  1  0.76548000  0.21212000  0.01286000  1.0 0.3283063605
H  H200  1  0.73452000  0.78788000  0.51286000  1.0 0.3283063605
H  H201  1  0.26950000  0.53465000  0.22256000  1.0 0.3420061081
H  H202  1  0.23050000  0.46535000  0.72256000  1.0 0.3420061081
H  H203  1  0.73050000  0.03465000  0.27744000  1.0 0.3420061081
H  H204  1  0.76950000  0.96535000  0.77744000  1.0 0.3420061081
H  H205  1  0.22411000  0.87596000  0.19282000  1.0 0.1214023108
H  H206  1  0.27589000  0.12404000  0.69282000  1.0 0.1214023108
H  H207  1  0.77589000  0.37596000  0.30718000  1.0 0.1214023108
H  H208  1  0.72411000  0.62404000  0.80718000  1.0 0.1214023108
H  H209  1  0.11350000  0.80503000  0.18804000  1.0 0.1214023108
H  H210  1  0.38650000  0.19497000  0.68804000  1.0 0.1214023108
H  H211  1  0.88650000  0.30503000  0.31196000  1.0 0.1214023108
H  H212  1  0.61350000  0.69497000  0.81196000  1.0 0.1214023108
H  H213  1  0.21715000  0.79167000  0.14621000  1.0 0.1034930687
H  H214  1  0.28285000  0.20833000  0.64621000  1.0 0.1034930687
H  H215  1  0.78285000  0.29167000  0.35379000  1.0 0.1034930687
H  H216  1  0.71715000  0.70833000  0.85379000  1.0 0.1034930687
C  C1  1  0.54184000  0.93943000  0.43692000  1.0 0.0167161528
C  C2  1  0.95816000  0.06057000  0.93692000  1.0 0.0167161528
C  C3  1  0.45816000  0.43943000  0.06308000  1.0 0.0167161528
C  C4  1  0.04184000  0.56057000  0.56308000  1.0 0.0167161528
C  C5  1  0.48661000  0.95652000  0.38947000  1.0 0.0697045676
C  C6  1  0.01339000  0.04348000  0.88947000  1.0 0.0697045676
C  C7  1  0.51339000  0.45652000  0.11053000  1.0 0.0697045676
C  C8  1  0.98661000  0.54348000  0.61053000  1.0 0.0697045676
C  C9  1  0.45042000  0.87001000  0.36577000  1.0 0.0117989153
C  C10  1  0.04958000  0.12999000  0.86577000  1.0 0.0117989153
C  C11  1  0.54958000  0.37001000  0.13423000  1.0 0.0117989153
C  C12  1  0.95042000  0.62999000  0.63423000  1.0 0.0117989153
C  C13  1  0.54998000  0.01384000  0.35523000  1.0 0.0117989153
C  C14  1  0.95002000  0.98616000  0.85523000  1.0 0.0117989153
C  C15  1  0.45002000  0.51384000  0.14477000  1.0 0.0117989153
C  C16  1  0.04998000  0.48616000  0.64477000  1.0 0.0117989153
C  C17  1  0.38981000  0.01074000  0.40115000  1.0 -0.3911433732
C  C18  1  0.11019000  0.98926000  0.90115000  1.0 -0.3911433732
C  C19  1  0.61019000  0.51074000  0.09885000  1.0 -0.3911433732
C  C20  1  0.88981000  0.48926000  0.59885000  1.0 -0.3911433732
C  C21  1  0.63321000  0.57559000  0.39525000  1.0 0.0117989153
C  C22  1  0.86679000  0.42441000  0.89525000  1.0 0.0117989153
C  C23  1  0.36679000  0.07559000  0.10475000  1.0 0.0117989153
C  C24  1  0.13321000  0.92441000  0.60475000  1.0 0.0117989153
C  C25  1  0.72610000  0.57049000  0.42776000  1.0 0.0781136094
C  C26  1  0.77390000  0.42951000  0.92776000  1.0 0.0781136094
C  C27  1  0.27390000  0.07049000  0.07224000  1.0 0.0781136094
C  C28  1  0.22610000  0.92951000  0.57224000  1.0 0.0781136094
C  C29  1  0.82560000  0.57066000  0.39968000  1.0 0.0167161528
C  C30  1  0.67440000  0.42934000  0.89968000  1.0 0.0167161528
C  C31  1  0.17440000  0.07066000  0.10032000  1.0 0.0167161528
C  C32  1  0.32560000  0.92934000  0.60032000  1.0 0.0167161528
C  C33  1  0.72358000  0.64282000  0.46686000  1.0 -0.0007473851
C  C34  1  0.77642000  0.35718000  0.96686000  1.0 -0.0007473851
C  C35  1  0.27642000  0.14282000  0.03314000  1.0 -0.0007473851
C  C36  1  0.22358000  0.85718000  0.53314000  1.0 -0.0007473851
C  C37  1  0.72152000  0.47847000  0.45364000  1.0 -0.3911433732
C  C38  1  0.77848000  0.52153000  0.95364000  1.0 -0.3911433732
C  C39  1  0.27848000  0.97847000  0.04636000  1.0 -0.3911433732
C  C40  1  0.22152000  0.02153000  0.54636000  1.0 -0.3911433732
C  C41  1  0.94343000  0.00757000  0.35832000  1.0 0.1214023108
C  C42  1  0.55657000  0.99243000  0.85832000  1.0 0.1214023108
C  C43  1  0.05657000  0.50757000  0.14168000  1.0 0.1214023108
C  C44  1  0.44343000  0.49243000  0.64168000  1.0 0.1214023108
C  C45  1  0.00378000  0.95581000  0.39575000  1.0 -0.0414582636
C  C46  1  0.49622000  0.04419000  0.89575000  1.0 -0.0414582636
C  C47  1  0.99622000  0.45581000  0.10425000  1.0 -0.0414582636
C  C48  1  0.50378000  0.54419000  0.60425000  1.0 -0.0414582636
C  C49  1  0.03346000  0.86642000  0.37611000  1.0 0.1214023108
C  C50  1  0.46654000  0.13358000  0.87611000  1.0 0.1214023108
C  C51  1  0.96654000  0.36642000  0.12389000  1.0 0.1214023108
C  C52  1  0.53346000  0.63358000  0.62389000  1.0 0.1214023108
C  C53  1  0.93221000  0.94501000  0.43963000  1.0 0.1034930687
C  C54  1  0.56779000  0.05499000  0.93963000  1.0 0.1034930687
C  C55  1  0.06779000  0.44501000  0.06037000  1.0 0.1034930687
C  C56  1  0.43221000  0.55499000  0.56037000  1.0 0.1034930687
C  C57  1  0.09796000  0.00917000  0.41082000  1.0 -0.3672887996
C  C58  1  0.40204000  0.99083000  0.91082000  1.0 -0.3672887996
C  C59  1  0.90204000  0.50917000  0.08918000  1.0 -0.3672887996
C  C60  1  0.59796000  0.49083000  0.58918000  1.0 -0.3672887996
C  C61  1  0.76393000  0.86539000  0.21730000  1.0 0.0117989153
C  C62  1  0.73607000  0.13461000  0.71730000  1.0 0.0117989153
C  C63  1  0.23607000  0.36539000  0.28270000  1.0 0.0117989153
C  C64  1  0.26393000  0.63461000  0.78270000  1.0 0.0117989153
C  C65  1  0.76506000  0.76387000  0.21104000  1.0 0.0781136094
C  C66  1  0.73494000  0.23613000  0.71104000  1.0 0.0781136094
C  C67  1  0.23494000  0.26387000  0.28896000  1.0 0.0781136094
C  C68  1  0.26506000  0.73613000  0.78896000  1.0 0.0781136094
C  C69  1  0.85894000  0.72108000  0.23352000  1.0 0.0117989153
C  C70  1  0.64106000  0.27892000  0.73352000  1.0 0.0117989153
C  C71  1  0.14106000  0.22108000  0.26648000  1.0 0.0117989153
C  C72  1  0.35894000  0.77892000  0.76648000  1.0 0.0117989153
C  C73  1  0.66590000  0.72219000  0.22844000  1.0 0.0117989153
C  C74  1  0.83410000  0.27781000  0.72844000  1.0 0.0117989153
C  C75  1  0.33410000  0.22219000  0.27156000  1.0 0.0117989153
C  C76  1  0.16590000  0.77781000  0.77156000  1.0 0.0117989153
C  C77  1  0.77039000  0.74340000  0.15646000  1.0 -0.3911433732
C  C78  1  0.72961000  0.25660000  0.65646000  1.0 -0.3911433732
C  C79  1  0.22961000  0.24340000  0.34354000  1.0 -0.3911433732
C  C80  1  0.27039000  0.75660000  0.84354000  1.0 -0.3911433732
C  C81  1  0.13436000  0.53044000  0.40216000  1.0 0.0288818862
C  C82  1  0.36564000  0.46956000  0.90216000  1.0 0.0288818862
C  C83  1  0.86564000  0.03044000  0.09784000  1.0 0.0288818862
C  C84  1  0.63436000  0.96956000  0.59784000  1.0 0.0288818862
C  C85  1  0.24571000  0.55491000  0.41081000  1.0 0.0618432654
C  C86  1  0.25429000  0.44509000  0.91081000  1.0 0.0618432654
C  C87  1  0.75429000  0.05491000  0.08919000  1.0 0.0618432654
C  C88  1  0.74571000  0.94509000  0.58919000  1.0 0.0618432654
C  C89  1  0.30873000  0.46829000  0.40956000  1.0 -0.4026480109
C  C90  1  0.19127000  0.53171000  0.90956000  1.0 -0.4026480109
C  C91  1  0.69127000  0.96829000  0.09044000  1.0 -0.4026480109
C  C92  1  0.80873000  0.03171000  0.59044000  1.0 -0.4026480109
C  C93  1  0.27996000  0.61788000  0.37073000  1.0 0.0288818862
C  C94  1  0.22004000  0.38212000  0.87073000  1.0 0.0288818862
C  C95  1  0.72004000  0.11788000  0.12927000  1.0 0.0288818862
C  C96  1  0.77996000  0.88212000  0.62927000  1.0 0.0288818862
C  C97  1  0.25763000  0.59741000  0.46070000  1.0 0.0288818862
C  C98  1  0.24237000  0.40259000  0.96070000  1.0 0.0288818862
C  C99  1  0.74237000  0.09741000  0.03930000  1.0 0.0288818862
C  C100  1  0.75763000  0.90259000  0.53930000  1.0 0.0288818862
C  C101  1  0.36210000  0.74360000  0.20944000  1.0 0.0417440295
C  C102  1  0.13790000  0.25640000  0.70944000  1.0 0.0417440295
C  C103  1  0.63790000  0.24360000  0.29056000  1.0 0.0417440295
C  C104  1  0.86210000  0.75640000  0.79056000  1.0 0.0417440295
C  C105  1  0.24742000  0.74000000  0.21873000  1.0 0.0618432654
C  C106  1  0.25258000  0.26000000  0.71873000  1.0 0.0618432654
C  C107  1  0.75258000  0.24000000  0.28127000  1.0 0.0618432654
C  C108  1  0.74742000  0.76000000  0.78127000  1.0 0.0618432654
C  C109  1  0.20524000  0.64754000  0.20766000  1.0 0.0288818862
C  C110  1  0.29476000  0.35246000  0.70766000  1.0 0.0288818862
C  C111  1  0.79476000  0.14754000  0.29234000  1.0 0.0288818862
C  C112  1  0.70524000  0.85246000  0.79234000  1.0 0.0288818862
C  C113  1  0.22582000  0.76359000  0.27139000  1.0 0.0288818862
C  C114  1  0.27418000  0.23641000  0.77139000  1.0 0.0288818862
C  C115  1  0.77418000  0.26359000  0.22861000  1.0 0.0288818862
C  C116  1  0.72582000  0.73641000  0.72861000  1.0 0.0288818862
C  C117  1  0.19710000  0.80756000  0.18414000  1.0 -0.4026480109
C  C118  1  0.30290000  0.19244000  0.68414000  1.0 -0.4026480109
C  C119  1  0.80290000  0.30756000  0.31586000  1.0 -0.4026480109
C  C120  1  0.69710000  0.69244000  0.81586000  1.0 -0.4026480109
N  N1  1  0.00237000  0.02850000  0.21524000  1.0 -0.5413756311
N  N2  1  0.49763000  0.97150000  0.71524000  1.0 -0.5413756311
N  N3  1  0.99763000  0.52850000  0.28476000  1.0 -0.5413756311
N  N4  1  0.50237000  0.47150000  0.78476000  1.0 -0.5413756311
N  N5  1  0.99047000  0.89491000  0.26199000  1.0 -0.5207654402
N  N6  1  0.50953000  0.10509000  0.76199000  1.0 -0.5207654402
N  N7  1  0.00953000  0.39491000  0.23801000  1.0 -0.5207654402
N  N8  1  0.49047000  0.60509000  0.73801000  1.0 -0.5207654402
N  N9  1  0.99587000  0.96302000  0.23893000  1.0 0.456550835
N  N10  1  0.50413000  0.03698000  0.73893000  1.0 0.456550835
N  N11  1  0.00413000  0.46302000  0.26107000  1.0 0.456550835
N  N12  1  0.49587000  0.53698000  0.76107000  1.0 0.456550835
N  N13  1  0.53686000  0.88801000  0.26037000  1.0 -0.4404578336
N  N14  1  0.96314000  0.11199000  0.76037000  1.0 -0.4404578336
N  N15  1  0.46314000  0.38801000  0.23963000  1.0 -0.4404578336
N  N16  1  0.03686000  0.61199000  0.73963000  1.0 -0.4404578336
N  N17  1  0.52966000  0.95412000  0.23590000  1.0 0.4420414999
N  N18  1  0.97034000  0.04588000  0.73590000  1.0 0.4420414999
N  N19  1  0.47034000  0.45412000  0.26410000  1.0 0.4420414999
N  N20  1  0.02966000  0.54588000  0.76410000  1.0 0.4420414999
N  N21  1  0.51707000  0.01697000  0.21084000  1.0 -0.5297737882
N  N22  1  0.98293000  0.98303000  0.71084000  1.0 -0.5297737882
N  N23  1  0.48293000  0.51697000  0.28916000  1.0 -0.5297737882
N  N24  1  0.01707000  0.48303000  0.78916000  1.0 -0.5297737882
N  N25  1  0.99927000  0.77341000  0.54822000  1.0 -0.501163658
N  N26  1  0.50073000  0.22659000  0.04822000  1.0 -0.501163658
N  N27  1  0.00073000  0.27341000  0.95178000  1.0 -0.501163658
N  N28  1  0.49927000  0.72659000  0.45178000  1.0 -0.501163658
N  N29  1  0.97619000  0.75211000  0.50661000  1.0 0.4459883407
N  N30  1  0.52381000  0.24789000  0.00661000  1.0 0.4420414999
N  N31  1  0.02381000  0.25211000  0.99339000  1.0 0.4420414999
N  N32  1  0.47619000  0.74789000  0.49339000  1.0 0.4420414999
N  N33  1  0.95340000  0.73205000  0.46714000  1.0 -0.4404578336
N  N34  1  0.54660000  0.26795000  0.96714000  1.0 -0.4404578336
N  N35  1  0.04660000  0.23205000  0.03286000  1.0 -0.4404578336
N  N36  1  0.45340000  0.76795000  0.53286000  1.0 -0.4404578336
O  O1  1  0.06640000  0.60661000  0.39926000  1.0 -0.4810500756
O  O2  1  0.43360000  0.39339000  0.89926000  1.0 -0.4810500756
O  O3  1  0.93360000  0.10661000  0.10074000  1.0 -0.4810500756
O  O4  1  0.56640000  0.89339000  0.60074000  1.0 -0.4810500756
O  O5  1  0.38686000  0.63875000  0.37260000  1.0 -0.547870034
O  O6  1  0.11314000  0.36125000  0.87260000  1.0 -0.547870034
O  O7  1  0.61314000  0.13875000  0.12740000  1.0 -0.5413756311
O  O8  1  0.88686000  0.86125000  0.62740000  1.0 -0.5413756311
O  O9  1  0.41960000  0.68261000  0.23937000  1.0 -0.547870034
O  O10  1  0.08040000  0.31739000  0.73937000  1.0 -0.547870034
O  O11  1  0.58040000  0.18261000  0.26063000  1.0 -0.547870034
O  O12  1  0.91960000  0.81739000  0.76063000  1.0 -0.547870034
O  O13  1  0.12029000  0.74993000  0.28397000  1.0 -0.547870034
O  O14  1  0.37971000  0.25007000  0.78397000  1.0 -0.547870034
O  O15  1  0.87971000  0.24993000  0.21603000  1.0 -0.5413756311
O  O16  1  0.62029000  0.75007000  0.71603000  1.0 -0.5413756311
O  O17  1  0.20250000  0.68078000  0.46152000  1.0 -0.4718673393
O  O18  1  0.29750000  0.31922000  0.96152000  1.0 -0.4718673393
O  O19  1  0.79750000  0.18078000  0.03848000  1.0 -0.4718673393
O  O20  1  0.70250000  0.81922000  0.53848000  1.0 -0.4718673393
O  O21  1  0.25058000  0.58427000  0.24197000  1.0 -0.4718673393
O  O22  1  0.24942000  0.41573000  0.74197000  1.0 -0.4718673393
O  O23  1  0.74942000  0.08427000  0.25803000  1.0 -0.4718673393
O  O24  1  0.75058000  0.91573000  0.75803000  1.0 -0.4718673393
O  O25  1  0.74024000  0.81243000  0.35484000  1.0 -0.782464461
O  O26  1  0.75976000  0.18757000  0.85484000  1.0 -0.782464461
O  O27  1  0.25976000  0.31243000  0.14516000  1.0 -0.782464461
O  O28  1  0.24024000  0.68757000  0.64516000  1.0 -0.782464461
O  O29  1  0.63307000  0.88889000  0.42958000  1.0 -0.5096222083
O  O30  1  0.86693000  0.11111000  0.92958000  1.0 -0.5096222083
O  O31  1  0.36693000  0.38889000  0.07042000  1.0 -0.5096222083
O  O32  1  0.13307000  0.61111000  0.57042000  1.0 -0.5096222083
O  O33  1  0.53386000  0.81199000  0.35424000  1.0 -0.5207654402
O  O34  1  0.96614000  0.18801000  0.85424000  1.0 -0.5207654402
O  O35  1  0.46614000  0.31199000  0.14576000  1.0 -0.5207654402
O  O36  1  0.03386000  0.68801000  0.64576000  1.0 -0.5207654402
O  O37  1  0.64426000  0.97256000  0.34153000  1.0 -0.501163658
O  O38  1  0.85574000  0.02744000  0.84153000  1.0 -0.501163658
O  O39  1  0.35574000  0.47256000  0.15847000  1.0 -0.501163658
O  O40  1  0.14426000  0.52744000  0.65847000  1.0 -0.501163658
O  O41  1  0.63242000  0.65793000  0.36864000  1.0 -0.5634549201
O  O42  1  0.86758000  0.34207000  0.86864000  1.0 -0.5634549201
O  O43  1  0.36758000  0.15793000  0.13136000  1.0 -0.5634549201
O  O44  1  0.13242000  0.84207000  0.63136000  1.0 -0.5634549201
O  O45  1  0.84160000  0.65248000  0.37315000  1.0 -0.5653848514
O  O46  1  0.65840000  0.34752000  0.87315000  1.0 -0.5634549201
O  O47  1  0.15840000  0.15248000  0.12685000  1.0 -0.5653848514
O  O48  1  0.34160000  0.84752000  0.62685000  1.0 -0.5634549201
O  O49  1  0.72936000  0.73227000  0.44697000  1.0 -0.5207654402
O  O50  1  0.77064000  0.26773000  0.94697000  1.0 -0.5207654402
O  O51  1  0.27064000  0.23227000  0.05303000  1.0 -0.5207654402
O  O52  1  0.22936000  0.76773000  0.55303000  1.0 -0.5207654402
O  O53  1  0.86027000  0.97012000  0.34302000  1.0 -0.4810500756
O  O54  1  0.63973000  0.02988000  0.84302000  1.0 -0.4810500756
O  O55  1  0.13973000  0.47012000  0.15698000  1.0 -0.4810500756
O  O56  1  0.36027000  0.52988000  0.65698000  1.0 -0.4810500756
O  O57  1  0.96289000  0.81331000  0.36024000  1.0 -0.5297737882
O  O58  1  0.53711000  0.18669000  0.86024000  1.0 -0.5297737882
O  O59  1  0.03711000  0.31331000  0.13976000  1.0 -0.5297737882
O  O60  1  0.46289000  0.68669000  0.63976000  1.0 -0.5297737882
O  O61  1  0.84954000  0.90067000  0.43238000  1.0 -0.5096222083
O  O62  1  0.65046000  0.09933000  0.93238000  1.0 -0.5096222083
O  O63  1  0.15046000  0.40067000  0.06762000  1.0 -0.5096222083
O  O64  1  0.34954000  0.59933000  0.56762000  1.0 -0.5096222083
O  O65  1  0.76105000  0.89051000  0.26724000  1.0 -0.4718673393
O  O66  1  0.73895000  0.10949000  0.76724000  1.0 -0.4646359846
O  O67  1  0.23895000  0.39051000  0.23276000  1.0 -0.4718673393
O  O68  1  0.26105000  0.60949000  0.73276000  1.0 -0.4718673393
O  O69  1  0.86114000  0.73367000  0.28485000  1.0 -0.5653848514
O  O70  1  0.63886000  0.26633000  0.78485000  1.0 -0.5634549201
O  O71  1  0.13886000  0.23367000  0.21515000  1.0 -0.5653848514
O  O72  1  0.36114000  0.76633000  0.71515000  1.0 -0.5634549201
O  O73  1  0.65157000  0.73169000  0.27922000  1.0 -0.5096222083
O  O74  1  0.84843000  0.26831000  0.77922000  1.0 -0.501163658
O  O75  1  0.34843000  0.23169000  0.22078000  1.0 -0.5096222083
O  O76  1  0.15157000  0.76831000  0.72078000  1.0 -0.5096222083
