# DDEC6 charges by PACMAN v1.1 (https://github.com/mtap-research/PACMAN-charge/)
data_WIKNOU_FSR_pacman
_symmetry_space_group_name_H-M   'P 1'
_cell_length_a   13.19410000
_cell_length_b   14.98970000
_cell_length_c   27.87460000
_cell_angle_alpha   90.00000000
_cell_angle_beta   90.00000000
_cell_angle_gamma   90.00000000
_symmetry_Int_Tables_number   1
_chemical_formula_structural   Na2Mn6H54C30N17O19
_chemical_formula_sum   'Na8 Mn24 H216 C120 N68 O76'
_cell_volume   5512.91576122
_cell_formula_units_Z   4
loop_
 _symmetry_equiv_pos_site_id
 _symmetry_equiv_pos_as_xyz
  1  'x, y, z'
loop_
 _atom_site_type_symbol
 _atom_site_label
 _atom_site_symmetry_multiplicity
 _atom_site_fract_x
 _atom_site_fract_y
 _atom_site_fract_z
 _atom_site_occupancy
 _atom_site_charge
Na  Na1  1  0.49374000  0.67064000  0.31167000  1.0 0.8111605924
Na  Na2  1  0.00626000  0.32936000  0.81167000  1.0 0.8111605924
Na  Na3  1  0.50626000  0.17064000  0.18833000  1.0 0.8111605924
Na  Na4  1  0.99374000  0.82936000  0.68833000  1.0 0.8111605924
Na  Na5  1  0.00737000  0.66425000  0.32647000  1.0 0.7916659992
Na  Na6  1  0.49263000  0.33575000  0.82647000  1.0 0.7916659992
Na  Na7  1  0.99263000  0.16425000  0.17353000  1.0 0.7916659992
Na  Na8  1  0.50737000  0.83575000  0.67353000  1.0 0.7916659992
Mn  Mn1  1  0.36068000  0.35716000  0.19358000  1.0 1.0003482979
Mn  Mn2  1  0.13932000  0.64284000  0.69358000  1.0 1.0003482979
Mn  Mn3  1  0.63932000  0.85716000  0.30642000  1.0 1.0003482979
Mn  Mn4  1  0.86068000  0.14284000  0.80642000  1.0 1.0003482979
Mn  Mn5  1  0.12565000  0.35683000  0.19240000  1.0 1.0412704032
Mn  Mn6  1  0.37435000  0.64317000  0.69240000  1.0 1.0412704032
Mn  Mn7  1  0.87435000  0.85683000  0.30760000  1.0 1.0412704032
Mn  Mn8  1  0.62565000  0.14317000  0.80760000  1.0 1.0412704032
Mn  Mn9  1  0.74682000  0.67626000  0.32195000  1.0 1.0003482979
Mn  Mn10  1  0.75318000  0.32374000  0.82195000  1.0 1.0003482979
Mn  Mn11  1  0.25318000  0.17626000  0.17805000  1.0 1.0003482979
Mn  Mn12  1  0.24682000  0.82374000  0.67805000  1.0 1.0003482979
Mn  Mn13  1  0.85877000  0.76663000  0.41230000  1.0 0.9671885353
Mn  Mn14  1  0.64123000  0.23337000  0.91230000  1.0 0.9671885353
Mn  Mn15  1  0.14123000  0.26663000  0.08770000  1.0 0.9671885353
Mn  Mn16  1  0.35877000  0.73337000  0.58770000  1.0 0.9671885353
Mn  Mn17  1  0.61772000  0.76826000  0.40577000  1.0 1.0219942611
Mn  Mn18  1  0.88228000  0.23174000  0.90577000  1.0 1.0219942611
Mn  Mn19  1  0.38228000  0.26826000  0.09423000  1.0 1.0219942611
Mn  Mn20  1  0.11772000  0.73174000  0.59423000  1.0 1.0219942611
Mn  Mn21  1  0.74360000  0.94881000  0.39095000  1.0 0.8893556279
Mn  Mn22  1  0.75640000  0.05119000  0.89095000  1.0 0.8893556279
Mn  Mn23  1  0.25640000  0.44881000  0.10905000  1.0 0.8893556279
Mn  Mn24  1  0.24360000  0.55119000  0.60905000  1.0 0.8893556279
H  H1  1  0.55880000  0.99670000  0.45100000  1.0 0.0898018789
H  H2  1  0.94120000  0.00330000  0.95100000  1.0 0.0898018789
H  H3  1  0.44120000  0.49670000  0.04900000  1.0 0.0898018789
H  H4  1  0.05880000  0.50330000  0.54900000  1.0 0.0898018789
H  H5  1  0.49380000  0.91050000  0.45870000  1.0 0.1092689354
H  H6  1  0.00620000  0.08950000  0.95870000  1.0 0.1092689354
H  H7  1  0.50620000  0.41050000  0.04130000  1.0 0.1092689354
H  H8  1  0.99380000  0.58950000  0.54130000  1.0 0.1092689354
H  H9  1  0.40130000  0.84230000  0.38760000  1.0 0.1021708359
H  H10  1  0.09870000  0.15770000  0.88760000  1.0 0.1021708359
H  H11  1  0.59870000  0.34230000  0.11240000  1.0 0.1021708359
H  H12  1  0.90130000  0.65770000  0.61240000  1.0 0.1021708359
H  H13  1  0.41320000  0.88640000  0.33700000  1.0 0.1092689354
H  H14  1  0.08680000  0.11360000  0.83700000  1.0 0.1092689354
H  H15  1  0.58680000  0.38640000  0.16300000  1.0 0.1092689354
H  H16  1  0.91320000  0.61360000  0.66300000  1.0 0.1092689354
H  H17  1  0.50880000  0.02640000  0.32710000  1.0 0.1092689354
H  H18  1  0.99120000  0.97360000  0.82710000  1.0 0.1092689354
H  H19  1  0.49120000  0.52640000  0.17290000  1.0 0.1092689354
H  H20  1  0.00880000  0.47360000  0.67290000  1.0 0.1092689354
H  H21  1  0.56280000  0.07120000  0.37090000  1.0 0.0898018789
H  H22  1  0.93720000  0.92880000  0.87090000  1.0 0.0898018789
H  H23  1  0.43720000  0.57120000  0.12910000  1.0 0.0898018789
H  H24  1  0.06280000  0.42880000  0.62910000  1.0 0.0898018789
H  H25  1  0.40540000  0.06530000  0.41820000  1.0 0.1387534375
H  H26  1  0.09460000  0.93470000  0.91820000  1.0 0.1387534375
H  H27  1  0.59460000  0.56530000  0.08180000  1.0 0.1387534375
H  H28  1  0.90540000  0.43470000  0.58180000  1.0 0.1387534375
H  H29  1  0.34350000  0.97620000  0.42100000  1.0 0.1387534375
H  H30  1  0.15650000  0.02380000  0.92100000  1.0 0.1387534375
H  H31  1  0.65650000  0.47620000  0.07900000  1.0 0.1387534375
H  H32  1  0.84350000  0.52380000  0.57900000  1.0 0.1387534375
H  H33  1  0.35360000  0.02670000  0.37200000  1.0 0.1387534375
H  H34  1  0.14640000  0.97330000  0.87200000  1.0 0.1387534375
H  H35  1  0.64640000  0.52670000  0.12800000  1.0 0.1387534375
H  H36  1  0.85360000  0.47330000  0.62800000  1.0 0.1387534375
H  H37  1  0.63460000  0.52550000  0.37340000  1.0 0.1092689354
H  H38  1  0.86540000  0.47450000  0.87340000  1.0 0.1092689354
H  H39  1  0.36540000  0.02550000  0.12660000  1.0 0.1092689354
H  H40  1  0.13460000  0.97450000  0.62660000  1.0 0.1092689354
H  H41  1  0.57340000  0.56840000  0.41570000  1.0 0.1092689354
H  H42  1  0.92660000  0.43160000  0.91570000  1.0 0.1092689354
H  H43  1  0.42660000  0.06840000  0.08430000  1.0 0.1092689354
H  H44  1  0.07340000  0.93160000  0.58430000  1.0 0.1092689354
H  H45  1  0.88000000  0.56250000  0.42240000  1.0 0.1092689354
H  H46  1  0.62000000  0.43750000  0.92240000  1.0 0.1092689354
H  H47  1  0.12000000  0.06250000  0.07760000  1.0 0.1092689354
H  H48  1  0.38000000  0.93750000  0.57760000  1.0 0.1092689354
H  H49  1  0.82530000  0.51820000  0.37870000  1.0 0.1092689354
H  H50  1  0.67470000  0.48180000  0.87870000  1.0 0.1092689354
H  H51  1  0.17470000  0.01820000  0.12130000  1.0 0.1092689354
H  H52  1  0.32530000  0.98180000  0.62130000  1.0 0.1092689354
H  H53  1  0.66200000  0.63360000  0.48610000  1.0 0.1092689354
H  H54  1  0.83800000  0.36640000  0.98610000  1.0 0.1092689354
H  H55  1  0.33800000  0.13360000  0.01390000  1.0 0.1092689354
H  H56  1  0.16200000  0.86640000  0.51390000  1.0 0.1092689354
H  H57  1  0.78050000  0.63410000  0.48810000  1.0 0.1021708359
H  H58  1  0.71950000  0.36590000  0.98810000  1.0 0.1021708359
H  H59  1  0.21950000  0.13410000  0.01190000  1.0 0.1021708359
H  H60  1  0.28050000  0.86590000  0.51190000  1.0 0.1021708359
H  H61  1  0.65730000  0.46930000  0.46980000  1.0 0.1387534375
H  H62  1  0.84270000  0.53070000  0.96980000  1.0 0.1387534375
H  H63  1  0.34270000  0.96930000  0.03020000  1.0 0.1387534375
H  H64  1  0.15730000  0.03070000  0.53020000  1.0 0.1387534375
H  H65  1  0.77490000  0.47260000  0.47760000  1.0 0.1311786901
H  H66  1  0.72510000  0.52740000  0.97760000  1.0 0.1311786901
H  H67  1  0.22510000  0.97260000  0.02240000  1.0 0.1311786901
H  H68  1  0.27490000  0.02740000  0.52240000  1.0 0.1311786901
H  H69  1  0.73020000  0.42860000  0.43120000  1.0 0.1464776378
H  H70  1  0.76980000  0.57140000  0.93120000  1.0 0.1464776378
H  H71  1  0.26980000  0.92860000  0.06880000  1.0 0.1464776378
H  H72  1  0.23020000  0.07140000  0.56880000  1.0 0.1464776378
H  H73  1  0.13510000  0.97730000  0.43520000  1.0 0.1311786901
H  H74  1  0.36490000  0.02270000  0.93520000  1.0 0.1311786901
H  H75  1  0.86490000  0.47730000  0.06480000  1.0 0.1311786901
H  H76  1  0.63510000  0.52270000  0.56480000  1.0 0.1311786901
H  H77  1  0.07900000  0.06680000  0.42330000  1.0 0.1311786901
H  H78  1  0.42100000  0.93320000  0.92330000  1.0 0.1311786901
H  H79  1  0.92100000  0.56680000  0.07670000  1.0 0.1311786901
H  H80  1  0.57900000  0.43320000  0.57670000  1.0 0.1311786901
H  H81  1  0.14230000  0.01810000  0.38360000  1.0 0.1311786901
H  H82  1  0.35770000  0.98190000  0.88360000  1.0 0.1311786901
H  H83  1  0.85770000  0.51810000  0.11640000  1.0 0.1311786901
H  H84  1  0.64230000  0.48190000  0.61640000  1.0 0.1311786901
H  H85  1  0.82310000  0.88920000  0.20070000  1.0 0.1021708359
H  H86  1  0.67690000  0.11080000  0.70070000  1.0 0.1021708359
H  H87  1  0.17690000  0.38920000  0.29930000  1.0 0.1021708359
H  H88  1  0.32310000  0.61080000  0.79930000  1.0 0.1021708359
H  H89  1  0.70450000  0.88810000  0.20040000  1.0 0.1021708359
H  H90  1  0.79550000  0.11190000  0.70040000  1.0 0.1021708359
H  H91  1  0.29550000  0.38810000  0.29960000  1.0 0.1021708359
H  H92  1  0.20450000  0.61190000  0.79960000  1.0 0.1021708359
H  H93  1  0.85790000  0.65800000  0.22600000  1.0 0.1092689354
H  H94  1  0.64210000  0.34200000  0.72600000  1.0 0.1092689354
H  H95  1  0.14210000  0.15800000  0.27400000  1.0 0.1092689354
H  H96  1  0.35790000  0.84200000  0.77400000  1.0 0.1092689354
H  H97  1  0.91850000  0.74640000  0.21740000  1.0 0.1092689354
H  H98  1  0.58150000  0.25360000  0.71740000  1.0 0.1092689354
H  H99  1  0.08150000  0.24640000  0.28260000  1.0 0.1092689354
H  H100  1  0.41850000  0.75360000  0.78260000  1.0 0.1092689354
H  H101  1  0.61110000  0.75170000  0.21130000  1.0 0.1092689354
H  H102  1  0.88890000  0.24830000  0.71130000  1.0 0.1092689354
H  H103  1  0.38890000  0.25170000  0.28870000  1.0 0.1092689354
H  H104  1  0.11110000  0.74830000  0.78870000  1.0 0.1092689354
H  H105  1  0.66600000  0.66020000  0.21860000  1.0 0.1092689354
H  H106  1  0.83400000  0.33980000  0.71860000  1.0 0.1092689354
H  H107  1  0.33400000  0.16020000  0.28140000  1.0 0.1092689354
H  H108  1  0.16600000  0.83980000  0.78140000  1.0 0.1092689354
H  H109  1  0.82610000  0.77450000  0.14100000  1.0 0.1387534375
H  H110  1  0.67390000  0.22550000  0.64100000  1.0 0.1387534375
H  H111  1  0.17390000  0.27450000  0.35900000  1.0 0.1387534375
H  H112  1  0.32610000  0.72550000  0.85900000  1.0 0.1387534375
H  H113  1  0.70840000  0.76030000  0.14000000  1.0 0.1387534375
H  H114  1  0.79160000  0.23970000  0.64000000  1.0 0.1387534375
H  H115  1  0.29160000  0.26030000  0.36000000  1.0 0.1387534375
H  H116  1  0.20840000  0.73970000  0.86000000  1.0 0.1387534375
H  H117  1  0.78050000  0.67960000  0.15060000  1.0 0.1387534375
H  H118  1  0.71950000  0.32040000  0.65060000  1.0 0.1387534375
H  H119  1  0.21950000  0.17960000  0.34940000  1.0 0.1387534375
H  H120  1  0.28050000  0.82040000  0.84940000  1.0 0.1387534375
H  H121  1  0.13010000  0.49590000  0.37310000  1.0 0.1021708359
H  H122  1  0.36990000  0.50410000  0.87310000  1.0 0.1021708359
H  H123  1  0.86990000  0.99590000  0.12690000  1.0 0.1021708359
H  H124  1  0.63010000  0.00410000  0.62690000  1.0 0.1021708359
H  H125  1  0.11200000  0.49370000  0.42870000  1.0 0.1092689354
H  H126  1  0.38800000  0.50630000  0.92870000  1.0 0.1092689354
H  H127  1  0.88800000  0.99370000  0.07130000  1.0 0.1092689354
H  H128  1  0.61200000  0.00630000  0.57130000  1.0 0.1092689354
H  H129  1  0.28730000  0.42940000  0.43440000  1.0 0.1387534375
H  H130  1  0.21270000  0.57060000  0.93440000  1.0 0.1387534375
H  H131  1  0.71270000  0.92940000  0.06560000  1.0 0.1387534375
H  H132  1  0.78730000  0.07060000  0.56560000  1.0 0.1387534375
H  H133  1  0.37940000  0.48350000  0.41400000  1.0 0.1387534375
H  H134  1  0.12060000  0.51650000  0.91400000  1.0 0.1387534375
H  H135  1  0.62060000  0.98350000  0.08600000  1.0 0.1387534375
H  H136  1  0.87940000  0.01650000  0.58600000  1.0 0.1387534375
H  H137  1  0.30070000  0.44020000  0.37880000  1.0 0.1311786901
H  H138  1  0.19930000  0.55980000  0.87880000  1.0 0.1311786901
H  H139  1  0.69930000  0.94020000  0.12120000  1.0 0.1311786901
H  H140  1  0.80070000  0.05980000  0.62120000  1.0 0.1311786901
H  H141  1  0.26590000  0.58940000  0.34100000  1.0 0.1092689354
H  H142  1  0.23410000  0.41060000  0.84100000  1.0 0.1092689354
H  H143  1  0.73410000  0.08940000  0.15900000  1.0 0.1092689354
H  H144  1  0.76590000  0.91060000  0.65900000  1.0 0.1092689354
H  H145  1  0.23980000  0.67070000  0.37400000  1.0 0.0898018789
H  H146  1  0.26020000  0.32930000  0.87400000  1.0 0.0898018789
H  H147  1  0.76020000  0.17070000  0.12600000  1.0 0.0898018789
H  H148  1  0.73980000  0.82930000  0.62600000  1.0 0.0898018789
H  H149  1  0.39930000  0.65050000  0.40150000  1.0 0.3315342553
H  H150  1  0.10070000  0.34950000  0.90150000  1.0 0.3315342553
H  H151  1  0.60070000  0.15050000  0.09850000  1.0 0.3315342553
H  H152  1  0.89930000  0.84950000  0.59850000  1.0 0.3315342553
H  H153  1  0.23230000  0.55510000  0.48460000  1.0 0.1021708359
H  H154  1  0.26770000  0.44490000  0.98460000  1.0 0.1021708359
H  H155  1  0.76770000  0.05510000  0.01540000  1.0 0.1021708359
H  H156  1  0.73230000  0.94490000  0.51540000  1.0 0.1021708359
H  H157  1  0.32970000  0.60550000  0.46690000  1.0 0.0898018789
H  H158  1  0.17030000  0.39450000  0.96690000  1.0 0.0898018789
H  H159  1  0.67030000  0.10550000  0.03310000  1.0 0.0898018789
H  H160  1  0.82970000  0.89450000  0.53310000  1.0 0.0898018789
H  H161  1  0.38300000  0.63550000  0.24110000  1.0 0.3131792192
H  H162  1  0.11700000  0.36450000  0.74110000  1.0 0.3131792192
H  H163  1  0.61700000  0.13550000  0.25890000  1.0 0.3131792192
H  H164  1  0.88300000  0.86450000  0.75890000  1.0 0.3131792192
H  H165  1  0.37310000  0.73000000  0.17550000  1.0 0.1021708359
H  H166  1  0.12690000  0.27000000  0.67550000  1.0 0.1021708359
H  H167  1  0.62690000  0.23000000  0.32450000  1.0 0.1021708359
H  H168  1  0.87310000  0.77000000  0.82450000  1.0 0.1021708359
H  H169  1  0.38430000  0.80300000  0.21540000  1.0 0.1092689354
H  H170  1  0.11570000  0.19700000  0.71540000  1.0 0.1092689354
H  H171  1  0.61570000  0.30300000  0.28460000  1.0 0.1092689354
H  H172  1  0.88430000  0.69700000  0.78460000  1.0 0.1092689354
H  H173  1  0.13280000  0.64900000  0.21030000  1.0 0.1092689354
H  H174  1  0.36720000  0.35100000  0.71030000  1.0 0.1092689354
H  H175  1  0.86720000  0.14900000  0.28970000  1.0 0.1092689354
H  H176  1  0.63280000  0.85100000  0.78970000  1.0 0.1092689354
H  H177  1  0.22280000  0.63200000  0.17470000  1.0 0.0836397242
H  H178  1  0.27720000  0.36800000  0.67470000  1.0 0.0836397242
H  H179  1  0.77720000  0.13200000  0.32530000  1.0 0.0836397242
H  H180  1  0.72280000  0.86800000  0.82530000  1.0 0.0836397242
H  H181  1  0.08920000  0.79580000  0.27330000  1.0 0.3315342553
H  H182  1  0.41080000  0.20420000  0.77330000  1.0 0.3315342553
H  H183  1  0.91080000  0.29580000  0.22670000  1.0 0.3315342553
H  H184  1  0.58920000  0.70420000  0.72670000  1.0 0.3315342553
H  H185  1  0.26780000  0.72580000  0.29120000  1.0 0.0898018789
H  H186  1  0.23220000  0.27420000  0.79120000  1.0 0.0898018789
H  H187  1  0.73220000  0.22580000  0.20880000  1.0 0.0898018789
H  H188  1  0.76780000  0.77420000  0.70880000  1.0 0.0898018789
H  H189  1  0.24690000  0.82520000  0.27660000  1.0 0.1021708359
H  H190  1  0.25310000  0.17480000  0.77660000  1.0 0.1021708359
H  H191  1  0.75310000  0.32520000  0.22340000  1.0 0.1021708359
H  H192  1  0.74690000  0.67480000  0.72340000  1.0 0.1021708359
H  H193  1  0.23400000  0.70820000  0.48410000  1.0 0.3315342553
H  H194  1  0.26600000  0.29180000  0.98410000  1.0 0.3315342553
H  H195  1  0.76600000  0.20820000  0.01590000  1.0 0.3315342553
H  H196  1  0.73400000  0.79180000  0.51590000  1.0 0.3315342553
H  H197  1  0.26840000  0.54200000  0.22370000  1.0 0.3315342553
H  H198  1  0.23160000  0.45800000  0.72370000  1.0 0.3315342553
H  H199  1  0.73160000  0.04200000  0.27630000  1.0 0.3315342553
H  H200  1  0.76840000  0.95800000  0.77630000  1.0 0.3315342553
H  H201  1  0.22020000  0.86710000  0.19150000  1.0 0.1387534375
H  H202  1  0.27980000  0.13290000  0.69150000  1.0 0.1387534375
H  H203  1  0.77980000  0.36710000  0.30850000  1.0 0.1387534375
H  H204  1  0.72020000  0.63290000  0.80850000  1.0 0.1387534375
H  H205  1  0.12440000  0.80570000  0.18740000  1.0 0.1387534375
H  H206  1  0.37560000  0.19430000  0.68740000  1.0 0.1387534375
H  H207  1  0.87560000  0.30570000  0.31260000  1.0 0.1387534375
H  H208  1  0.62440000  0.69430000  0.81260000  1.0 0.1387534375
H  H209  1  0.21430000  0.79430000  0.15120000  1.0 0.1311786901
H  H210  1  0.28570000  0.20570000  0.65120000  1.0 0.1311786901
H  H211  1  0.78570000  0.29430000  0.34880000  1.0 0.1311786901
H  H212  1  0.71430000  0.70570000  0.84880000  1.0 0.1311786901
H  H213  1  0.09400000  0.64150000  0.37820000  1.0 0.3155578654
H  H214  1  0.40600000  0.35850000  0.87820000  1.0 0.3155578654
H  H215  1  0.90600000  0.14150000  0.12180000  1.0 0.3155578654
H  H216  1  0.59400000  0.85850000  0.62180000  1.0 0.3155578654
C  C1  1  0.53950000  0.94030000  0.43666000  1.0 -0.0690925286
C  C2  1  0.96050000  0.05970000  0.93666000  1.0 -0.0690925286
C  C3  1  0.46050000  0.44030000  0.06334000  1.0 -0.0690925286
C  C4  1  0.03950000  0.55970000  0.56334000  1.0 -0.0690925286
C  C5  1  0.48260000  0.95920000  0.39012000  1.0 0.1387534375
C  C6  1  0.01740000  0.04080000  0.89012000  1.0 0.1387534375
C  C7  1  0.51740000  0.45920000  0.10988000  1.0 0.1387534375
C  C8  1  0.98260000  0.54080000  0.60988000  1.0 0.1387534375
C  C9  1  0.44890000  0.87210000  0.36642000  1.0 -0.0586712069
C  C10  1  0.05110000  0.12790000  0.86642000  1.0 -0.0586712069
C  C11  1  0.55110000  0.37210000  0.13358000  1.0 -0.0586712069
C  C12  1  0.94890000  0.62790000  0.63358000  1.0 -0.0586712069
C  C13  1  0.54790000  0.01430000  0.35580000  1.0 -0.0690925286
C  C14  1  0.95210000  0.98570000  0.85580000  1.0 -0.0690925286
C  C15  1  0.45210000  0.51430000  0.14420000  1.0 -0.0690925286
C  C16  1  0.04790000  0.48570000  0.64420000  1.0 -0.0690925286
C  C17  1  0.38760000  0.01160000  0.40130000  1.0 -0.4497172454
C  C18  1  0.11240000  0.98840000  0.90130000  1.0 -0.4497172454
C  C19  1  0.61240000  0.51160000  0.09870000  1.0 -0.4497172454
C  C20  1  0.88760000  0.48840000  0.59870000  1.0 -0.4497172454
C  C21  1  0.63390000  0.57440000  0.39616000  1.0 -0.0690925286
C  C22  1  0.86610000  0.42560000  0.89616000  1.0 -0.0690925286
C  C23  1  0.36610000  0.07440000  0.10384000  1.0 -0.0690925286
C  C24  1  0.13390000  0.92560000  0.60384000  1.0 -0.0690925286
C  C25  1  0.72610000  0.56720000  0.42810000  1.0 0.1311786901
C  C26  1  0.77390000  0.43280000  0.92810000  1.0 0.1311786901
C  C27  1  0.27390000  0.06720000  0.07190000  1.0 0.1311786901
C  C28  1  0.22610000  0.93280000  0.57190000  1.0 0.1311786901
C  C29  1  0.82410000  0.56920000  0.40007000  1.0 -0.0586712069
C  C30  1  0.67590000  0.43080000  0.90007000  1.0 -0.0498459361
C  C31  1  0.17590000  0.06920000  0.09993000  1.0 -0.0586712069
C  C32  1  0.32410000  0.93080000  0.59993000  1.0 -0.0586712069
C  C33  1  0.72280000  0.64160000  0.46695000  1.0 -0.0690925286
C  C34  1  0.77720000  0.35840000  0.96695000  1.0 -0.0690925286
C  C35  1  0.27720000  0.14160000  0.03305000  1.0 -0.0690925286
C  C36  1  0.22280000  0.85840000  0.53305000  1.0 -0.0690925286
C  C37  1  0.72170000  0.47570000  0.45420000  1.0 -0.4497172454
C  C38  1  0.77830000  0.52430000  0.95420000  1.0 -0.4497172454
C  C39  1  0.27830000  0.97570000  0.04580000  1.0 -0.4497172454
C  C40  1  0.22170000  0.02430000  0.54580000  1.0 -0.4497172454
C  C41  1  0.95020000  0.01200000  0.35784000  1.0 0.1092689354
C  C42  1  0.54980000  0.98800000  0.85784000  1.0 0.1092689354
C  C43  1  0.04980000  0.51200000  0.14216000  1.0 0.1092689354
C  C44  1  0.45020000  0.48800000  0.64216000  1.0 0.1092689354
C  C45  1  0.00400000  0.95660000  0.39579000  1.0 -0.0095514594
C  C46  1  0.49600000  0.04340000  0.89579000  1.0 -0.0095514594
C  C47  1  0.99600000  0.45660000  0.10421000  1.0 -0.0095514594
C  C48  1  0.50400000  0.54340000  0.60421000  1.0 -0.0095514594
C  C49  1  0.04220000  0.86790000  0.37619000  1.0 0.1182086859
C  C50  1  0.45780000  0.13210000  0.87619000  1.0 0.1182086859
C  C51  1  0.95780000  0.36790000  0.12381000  1.0 0.1182086859
C  C52  1  0.54220000  0.63210000  0.62381000  1.0 0.1182086859
C  C53  1  0.93730000  0.94800000  0.44180000  1.0 0.0672352314
C  C54  1  0.56270000  0.05200000  0.94180000  1.0 0.0672352314
C  C55  1  0.06270000  0.44800000  0.05820000  1.0 0.0672352314
C  C56  1  0.43730000  0.55200000  0.55820000  1.0 0.0672352314
C  C57  1  0.09910000  0.00970000  0.41090000  1.0 -0.4038282741
C  C58  1  0.40090000  0.99030000  0.91090000  1.0 -0.4038282741
C  C59  1  0.90090000  0.50970000  0.08910000  1.0 -0.4038282741
C  C60  1  0.59910000  0.49030000  0.58910000  1.0 -0.4038282741
C  C61  1  0.76400000  0.86400000  0.21626000  1.0 -0.0690925286
C  C62  1  0.73600000  0.13600000  0.71626000  1.0 -0.0690925286
C  C63  1  0.23600000  0.36400000  0.28374000  1.0 -0.0690925286
C  C64  1  0.26400000  0.63600000  0.78374000  1.0 -0.0690925286
C  C65  1  0.76530000  0.76320000  0.20890000  1.0 0.1387534375
C  C66  1  0.73470000  0.23680000  0.70890000  1.0 0.1387534375
C  C67  1  0.23470000  0.26320000  0.29110000  1.0 0.1387534375
C  C68  1  0.26530000  0.73680000  0.79110000  1.0 0.1387534375
C  C69  1  0.85830000  0.72170000  0.23228000  1.0 -0.0690925286
C  C70  1  0.64170000  0.27830000  0.73228000  1.0 -0.0690925286
C  C71  1  0.14170000  0.22170000  0.26772000  1.0 -0.0690925286
C  C72  1  0.35830000  0.77830000  0.76772000  1.0 -0.0690925286
C  C73  1  0.66740000  0.72280000  0.22742000  1.0 -0.0690925286
C  C74  1  0.83260000  0.27720000  0.72742000  1.0 -0.0690925286
C  C75  1  0.33260000  0.22280000  0.27258000  1.0 -0.0690925286
C  C76  1  0.16740000  0.77720000  0.77258000  1.0 -0.0690925286
C  C77  1  0.77050000  0.74250000  0.15514000  1.0 -0.4497172454
C  C78  1  0.72950000  0.25750000  0.65514000  1.0 -0.4497172454
C  C79  1  0.22950000  0.24250000  0.34486000  1.0 -0.4497172454
C  C80  1  0.27050000  0.75750000  0.84486000  1.0 -0.4497172454
C  C81  1  0.13570000  0.53060000  0.40240000  1.0 -0.0586712069
C  C82  1  0.36430000  0.46940000  0.90240000  1.0 -0.0586712069
C  C83  1  0.86430000  0.03060000  0.09760000  1.0 -0.0586712069
C  C84  1  0.63570000  0.96940000  0.59760000  1.0 -0.0586712069
C  C85  1  0.24630000  0.55360000  0.41071000  1.0 0.1092689354
C  C86  1  0.25370000  0.44640000  0.91071000  1.0 0.1092689354
C  C87  1  0.75370000  0.05360000  0.08929000  1.0 0.1092689354
C  C88  1  0.74630000  0.94640000  0.58929000  1.0 0.1092689354
C  C89  1  0.30920000  0.46890000  0.40930000  1.0 -0.4497172454
C  C90  1  0.19080000  0.53110000  0.90930000  1.0 -0.4497172454
C  C91  1  0.69080000  0.96890000  0.09070000  1.0 -0.4497172454
C  C92  1  0.80920000  0.03110000  0.59070000  1.0 -0.4497172454
C  C93  1  0.27980000  0.61660000  0.37186000  1.0 -0.0498459361
C  C94  1  0.22020000  0.38340000  0.87186000  1.0 -0.0498459361
C  C95  1  0.72020000  0.11660000  0.12814000  1.0 -0.0498459361
C  C96  1  0.77980000  0.88340000  0.62814000  1.0 -0.0498459361
C  C97  1  0.25830000  0.59580000  0.46046000  1.0 -0.0498459361
C  C98  1  0.24170000  0.40420000  0.96046000  1.0 -0.0498459361
C  C99  1  0.74170000  0.09580000  0.03954000  1.0 -0.0498459361
C  C100  1  0.75830000  0.90420000  0.53954000  1.0 -0.0498459361
C  C101  1  0.36010000  0.74310000  0.20905000  1.0 -0.0498459361
C  C102  1  0.13990000  0.25690000  0.70905000  1.0 -0.0498459361
C  C103  1  0.63990000  0.24310000  0.29095000  1.0 -0.0498459361
C  C104  1  0.86010000  0.75690000  0.79095000  1.0 -0.0498459361
C  C105  1  0.24670000  0.74010000  0.21779000  1.0 0.1092689354
C  C106  1  0.25330000  0.25990000  0.71779000  1.0 0.1092689354
C  C107  1  0.75330000  0.24010000  0.28221000  1.0 0.1092689354
C  C108  1  0.74670000  0.75990000  0.78221000  1.0 0.1092689354
C  C109  1  0.20600000  0.64840000  0.20738000  1.0 -0.0586712069
C  C110  1  0.29400000  0.35160000  0.70738000  1.0 -0.0586712069
C  C111  1  0.79400000  0.14840000  0.29262000  1.0 -0.0586712069
C  C112  1  0.70600000  0.85160000  0.79262000  1.0 -0.0586712069
C  C113  1  0.22670000  0.76380000  0.27084000  1.0 -0.0432940069
C  C114  1  0.27330000  0.23620000  0.77084000  1.0 -0.0432940069
C  C115  1  0.77330000  0.26380000  0.22916000  1.0 -0.0432940069
C  C116  1  0.72670000  0.73620000  0.72916000  1.0 -0.0432940069
C  C117  1  0.19670000  0.80820000  0.18380000  1.0 -0.4497172454
C  C118  1  0.30330000  0.19180000  0.68380000  1.0 -0.4497172454
C  C119  1  0.80330000  0.30820000  0.31620000  1.0 -0.4497172454
C  C120  1  0.69670000  0.69180000  0.81620000  1.0 -0.4497172454
N  N1  1  0.74550000  0.55240000  0.29384000  1.0 -0.4797812868
N  N2  1  0.75450000  0.44760000  0.79384000  1.0 -0.4746412951
N  N3  1  0.25450000  0.05240000  0.20616000  1.0 -0.4746412951
N  N4  1  0.24550000  0.94760000  0.70616000  1.0 -0.4746412951
N  N5  1  0.74700000  0.52420000  0.25434000  1.0 0.4059704971
N  N6  1  0.75300000  0.47580000  0.75434000  1.0 0.4048674982
N  N7  1  0.25300000  0.02420000  0.24566000  1.0 0.4048674982
N  N8  1  0.24700000  0.97580000  0.74566000  1.0 0.4059704971
N  N9  1  0.74810000  0.49440000  0.21608000  1.0 -0.4038282741
N  N10  1  0.75190000  0.50560000  0.71608000  1.0 -0.4038282741
N  N11  1  0.25190000  0.99440000  0.28392000  1.0 -0.4060566742
N  N12  1  0.24810000  0.00560000  0.78392000  1.0 -0.4060566742
N  N13  1  0.99850000  0.52810000  0.28430000  1.0 -0.4987829346
N  N14  1  0.50150000  0.47190000  0.78430000  1.0 -0.4987829346
N  N15  1  0.00150000  0.02810000  0.21570000  1.0 -0.488697997
N  N16  1  0.49850000  0.97190000  0.71570000  1.0 -0.488697997
N  N17  1  0.00670000  0.39720000  0.23951000  1.0 -0.5097116638
N  N18  1  0.49330000  0.60280000  0.73951000  1.0 -0.5097116638
N  N19  1  0.99330000  0.89720000  0.26049000  1.0 -0.5097116638
N  N20  1  0.50670000  0.10280000  0.76049000  1.0 -0.5097116638
N  N21  1  0.00260000  0.46410000  0.26236000  1.0 0.4393941816
N  N22  1  0.49740000  0.53590000  0.76236000  1.0 0.4393941816
N  N23  1  0.99740000  0.96410000  0.23764000  1.0 0.4393941816
N  N24  1  0.50260000  0.03590000  0.73764000  1.0 0.4393941816
N  N25  1  0.46470000  0.38880000  0.24011000  1.0 -0.5097116638
N  N26  1  0.03530000  0.61120000  0.74011000  1.0 -0.5097116638
N  N27  1  0.53530000  0.88880000  0.25989000  1.0 -0.5097116638
N  N28  1  0.96470000  0.11120000  0.75989000  1.0 -0.5097116638
N  N29  1  0.46950000  0.45440000  0.26452000  1.0 0.4341683369
N  N30  1  0.03050000  0.54560000  0.76452000  1.0 0.4341683369
N  N31  1  0.53050000  0.95440000  0.23548000  1.0 0.4341683369
N  N32  1  0.96950000  0.04560000  0.73548000  1.0 0.4341683369
N  N33  1  0.48250000  0.51590000  0.28810000  1.0 -0.4797812868
N  N34  1  0.01750000  0.48410000  0.78810000  1.0 -0.4797812868
N  N35  1  0.51750000  0.01590000  0.21190000  1.0 -0.4797812868
N  N36  1  0.98250000  0.98410000  0.71190000  1.0 -0.4797812868
N  N37  1  0.99310000  0.77670000  0.54703000  1.0 -0.488697997
N  N38  1  0.50690000  0.22330000  0.04703000  1.0 -0.488697997
N  N39  1  0.00690000  0.27670000  0.95297000  1.0 -0.488697997
N  N40  1  0.49310000  0.72330000  0.45297000  1.0 -0.488697997
N  N41  1  0.97600000  0.75270000  0.50755000  1.0 0.4393941816
N  N42  1  0.52400000  0.24730000  0.00755000  1.0 0.4393941816
N  N43  1  0.02400000  0.25270000  0.99245000  1.0 0.4393941816
N  N44  1  0.47600000  0.74730000  0.49245000  1.0 0.4393941816
N  N45  1  0.95960000  0.72750000  0.46808000  1.0 -0.488697997
N  N46  1  0.54040000  0.27250000  0.96808000  1.0 -0.488697997
N  N47  1  0.04040000  0.22750000  0.03192000  1.0 -0.488697997
N  N48  1  0.45960000  0.77250000  0.53192000  1.0 -0.488697997
N  N49  1  0.74350000  0.07000000  0.42150000  1.0 -0.129031958
N  N50  1  0.75650000  0.93000000  0.92150000  1.0 -0.129031958
N  N51  1  0.25650000  0.57000000  0.07850000  1.0 -0.129031958
N  N52  1  0.24350000  0.43000000  0.57850000  1.0 -0.129031958
N  N53  1  0.71970000  0.13070000  0.42350000  1.0 0.3579487335
N  N54  1  0.78030000  0.86930000  0.92350000  1.0 0.3579487335
N  N55  1  0.28030000  0.63070000  0.07650000  1.0 0.3579487335
N  N56  1  0.21970000  0.36930000  0.57650000  1.0 0.3579487335
N  N57  1  0.68550000  0.21040000  0.41940000  1.0 -0.4497172454
N  N58  1  0.81450000  0.78960000  0.91940000  1.0 -0.4497172454
N  N59  1  0.31450000  0.71040000  0.08060000  1.0 -0.4497172454
N  N60  1  0.18550000  0.28960000  0.58060000  1.0 -0.4497172454
N  N61  1  0.73590000  0.09870000  0.44760000  1.0 0.3131792192
N  N62  1  0.76410000  0.90130000  0.94760000  1.0 0.3131792192
N  N63  1  0.26410000  0.59870000  0.05240000  1.0 0.3131792192
N  N64  1  0.23590000  0.40130000  0.55240000  1.0 0.3131792192
N  N65  1  0.71570000  0.13040000  0.48820000  1.0 -0.3508405406
N  N66  1  0.78430000  0.86960000  0.98820000  1.0 -0.3508405406
N  N67  1  0.28430000  0.63040000  0.01180000  1.0 -0.3508405406
N  N68  1  0.21570000  0.36960000  0.51180000  1.0 -0.3508405406
O  O1  1  0.07120000  0.60740000  0.39854000  1.0 -0.4555517528
O  O2  1  0.42880000  0.39260000  0.89854000  1.0 -0.4555517528
O  O3  1  0.92880000  0.10740000  0.10146000  1.0 -0.4555517528
O  O4  1  0.57120000  0.89260000  0.60146000  1.0 -0.4555517528
O  O5  1  0.38330000  0.63960000  0.37373000  1.0 -0.488697997
O  O6  1  0.11670000  0.36040000  0.87373000  1.0 -0.488697997
O  O7  1  0.61670000  0.13960000  0.12627000  1.0 -0.488697997
O  O8  1  0.88330000  0.86040000  0.62627000  1.0 -0.488697997
O  O9  1  0.41560000  0.68170000  0.23805000  1.0 -0.5097116638
O  O10  1  0.08440000  0.31830000  0.73805000  1.0 -0.5097116638
O  O11  1  0.58440000  0.18170000  0.26195000  1.0 -0.5097116638
O  O12  1  0.91560000  0.81830000  0.76195000  1.0 -0.5097116638
O  O13  1  0.12180000  0.75320000  0.28350000  1.0 -0.4987829346
O  O14  1  0.37820000  0.24680000  0.78350000  1.0 -0.4987829346
O  O15  1  0.87820000  0.25320000  0.21650000  1.0 -0.4987829346
O  O16  1  0.62180000  0.74680000  0.71650000  1.0 -0.4987829346
O  O17  1  0.20690000  0.67680000  0.46371000  1.0 -0.4038282741
O  O18  1  0.29310000  0.32320000  0.96371000  1.0 -0.4038282741
O  O19  1  0.79310000  0.17680000  0.03629000  1.0 -0.4038282741
O  O20  1  0.70690000  0.82320000  0.53629000  1.0 -0.4038282741
O  O21  1  0.24640000  0.58430000  0.23908000  1.0 -0.418118732
O  O22  1  0.25360000  0.41570000  0.73908000  1.0 -0.418118732
O  O23  1  0.75360000  0.08430000  0.26092000  1.0 -0.418118732
O  O24  1  0.74640000  0.91570000  0.76092000  1.0 -0.418118732
O  O25  1  0.26190000  0.31590000  0.14584000  1.0 -0.7389532197
O  O26  1  0.23810000  0.68410000  0.64584000  1.0 -0.7389532197
O  O27  1  0.73810000  0.81590000  0.35416000  1.0 -0.7389532197
O  O28  1  0.76190000  0.18410000  0.85416000  1.0 -0.7389532197
O  O29  1  0.62850000  0.88660000  0.43124000  1.0 -0.5097116638
O  O30  1  0.87150000  0.11340000  0.93124000  1.0 -0.5097116638
O  O31  1  0.37150000  0.38660000  0.06876000  1.0 -0.5097116638
O  O32  1  0.12850000  0.61340000  0.56876000  1.0 -0.5097116638
O  O33  1  0.53000000  0.81090000  0.35528000  1.0 -0.5400523065
O  O34  1  0.97000000  0.18910000  0.85528000  1.0 -0.5400523065
O  O35  1  0.47000000  0.31090000  0.14472000  1.0 -0.5400523065
O  O36  1  0.03000000  0.68910000  0.64472000  1.0 -0.5400523065
O  O37  1  0.64150000  0.97340000  0.34206000  1.0 -0.5290652234
O  O38  1  0.85850000  0.02660000  0.84206000  1.0 -0.5290652234
O  O39  1  0.35850000  0.47340000  0.15794000  1.0 -0.5290652234
O  O40  1  0.14150000  0.52660000  0.65794000  1.0 -0.5290652234
O  O41  1  0.62890000  0.65790000  0.37013000  1.0 -0.5603632498
O  O42  1  0.87110000  0.34210000  0.87013000  1.0 -0.5603632498
O  O43  1  0.37110000  0.15790000  0.12987000  1.0 -0.5603632498
O  O44  1  0.12890000  0.84210000  0.62987000  1.0 -0.5603632498
O  O45  1  0.84070000  0.64760000  0.37249000  1.0 -0.5513966326
O  O46  1  0.65930000  0.35240000  0.87249000  1.0 -0.5513966326
O  O47  1  0.15930000  0.14760000  0.12751000  1.0 -0.5513966326
O  O48  1  0.34070000  0.85240000  0.62751000  1.0 -0.5513966326
O  O49  1  0.72370000  0.73040000  0.44885000  1.0 -0.5097116638
O  O50  1  0.77630000  0.26960000  0.94885000  1.0 -0.5097116638
O  O51  1  0.27630000  0.23040000  0.05115000  1.0 -0.5097116638
O  O52  1  0.22370000  0.76960000  0.55115000  1.0 -0.5097116638
O  O53  1  0.85860000  0.96890000  0.34070000  1.0 -0.5400523065
O  O54  1  0.64140000  0.03110000  0.84070000  1.0 -0.5400523065
O  O55  1  0.14140000  0.46890000  0.15930000  1.0 -0.5400523065
O  O56  1  0.35860000  0.53110000  0.65930000  1.0 -0.5400523065
O  O57  1  0.96000000  0.81190000  0.35846000  1.0 -0.587784024
O  O58  1  0.54000000  0.18810000  0.85846000  1.0 -0.587784024
O  O59  1  0.04000000  0.31190000  0.14154000  1.0 -0.587784024
O  O60  1  0.46000000  0.68810000  0.64154000  1.0 -0.587784024
O  O61  1  0.84370000  0.89930000  0.43278000  1.0 -0.57637945
O  O62  1  0.65630000  0.10070000  0.93278000  1.0 -0.57637945
O  O63  1  0.15630000  0.39930000  0.06722000  1.0 -0.57637945
O  O64  1  0.34370000  0.60070000  0.56722000  1.0 -0.57637945
O  O65  1  0.76310000  0.89250000  0.26536000  1.0 -0.488697997
O  O66  1  0.73690000  0.10750000  0.76536000  1.0 -0.488697997
O  O67  1  0.23690000  0.39250000  0.23464000  1.0 -0.488697997
O  O68  1  0.26310000  0.60750000  0.73464000  1.0 -0.4797812868
O  O69  1  0.86460000  0.73550000  0.28358000  1.0 -0.5513966326
O  O70  1  0.63540000  0.26450000  0.78358000  1.0 -0.5513966326
O  O71  1  0.13540000  0.23550000  0.21642000  1.0 -0.5513966326
O  O72  1  0.36460000  0.76450000  0.71642000  1.0 -0.5513966326
O  O73  1  0.65130000  0.72950000  0.27860000  1.0 -0.5400523065
O  O74  1  0.84870000  0.27050000  0.77860000  1.0 -0.5400523065
O  O75  1  0.34870000  0.22950000  0.22140000  1.0 -0.5400523065
O  O76  1  0.15130000  0.77050000  0.72140000  1.0 -0.5400523065
