# DDEC6 charges by PACMAN v1.1 (https://github.com/mtap-research/PACMAN-charge/)
data_WIKXUJ_ion_pacman
_symmetry_space_group_name_H-M   'P 1'
_cell_length_a   15.36000000
_cell_length_b   22.49300000
_cell_length_c   23.83000000
_cell_angle_alpha   90.00000000
_cell_angle_beta   90.00000000
_cell_angle_gamma   90.00000000
_symmetry_Int_Tables_number   1
_chemical_formula_structural   Li2CoPH94C63N14Cl2O17
_chemical_formula_sum   'Li8 Co4 P4 H376 C252 N56 Cl8 O68'
_cell_volume   8233.08579840
_cell_formula_units_Z   4
loop_
 _symmetry_equiv_pos_site_id
 _symmetry_equiv_pos_as_xyz
  1  'x, y, z'
loop_
 _atom_site_type_symbol
 _atom_site_label
 _atom_site_symmetry_multiplicity
 _atom_site_fract_x
 _atom_site_fract_y
 _atom_site_fract_z
 _atom_site_occupancy
 _atom_site_charge
Li  Li1  1  0.23370000  0.36470000  0.42850000  1.0 0.8067050277
Li  Li2  1  0.26630000  0.63530000  0.92850000  1.0 0.8067050277
Li  Li3  1  0.76630000  0.86470000  0.07150000  1.0 0.8067050277
Li  Li4  1  0.73370000  0.13530000  0.57150000  1.0 0.8067050277
Li  Li5  1  0.80310000  0.23220000  0.23790000  1.0 0.7932907938
Li  Li6  1  0.69690000  0.76780000  0.73790000  1.0 0.7932907938
Li  Li7  1  0.19690000  0.73220000  0.26210000  1.0 0.7932907938
Li  Li8  1  0.30310000  0.26780000  0.76210000  1.0 0.7932907938
Co  Co1  1  0.29304000  0.09881000  0.21879000  1.0 0.4239842295
Co  Co2  1  0.20696000  0.90119000  0.71879000  1.0 0.4260515718
Co  Co3  1  0.70696000  0.59881000  0.28121000  1.0 0.4239842295
Co  Co4  1  0.79304000  0.40119000  0.78121000  1.0 0.4260515718
P  P1  1  0.59742000  0.22042000  0.52579000  1.0 1.3864200412
P  P2  1  0.90258000  0.77958000  0.02579000  1.0 1.3864200412
P  P3  1  0.40258000  0.72042000  0.97421000  1.0 1.3864200412
P  P4  1  0.09742000  0.27958000  0.47421000  1.0 1.3864200412
H  H1  1  0.99030000  0.15090000  0.25130000  1.0 0.0992949599
H  H2  1  0.50970000  0.84910000  0.75130000  1.0 0.0992949599
H  H3  1  0.00970000  0.65090000  0.24870000  1.0 0.0992949599
H  H4  1  0.49030000  0.34910000  0.74870000  1.0 0.0992949599
H  H5  1  0.24150000  0.89430000  0.15700000  1.0 0.108366489
H  H6  1  0.25850000  0.10570000  0.65700000  1.0 0.108366489
H  H7  1  0.75850000  0.39430000  0.34300000  1.0 0.108366489
H  H8  1  0.74150000  0.60570000  0.84300000  1.0 0.108366489
H  H9  1  0.39300000  0.93420000  0.17050000  1.0 0.1577085712
H  H10  1  0.10700000  0.06580000  0.67050000  1.0 0.1577085712
H  H11  1  0.60700000  0.43420000  0.32950000  1.0 0.1577085712
H  H12  1  0.89300000  0.56580000  0.82950000  1.0 0.1577085712
H  H13  1  0.59070000  0.09600000  0.14190000  1.0 0.0992949599
H  H14  1  0.90930000  0.90400000  0.64190000  1.0 0.0992949599
H  H15  1  0.40930000  0.59600000  0.35810000  1.0 0.0992949599
H  H16  1  0.09070000  0.40400000  0.85810000  1.0 0.0992949599
H  H17  1  0.32040000  0.26990000  0.30060000  1.0 0.0915093625
H  H18  1  0.17960000  0.73010000  0.80060000  1.0 0.0915093625
H  H19  1  0.67960000  0.76990000  0.19940000  1.0 0.0915093625
H  H20  1  0.82040000  0.23010000  0.69940000  1.0 0.0915093625
H  H21  1  0.23580000  0.23060000  0.20000000  1.0 0.0992949599
H  H22  1  0.26420000  0.76940000  0.70000000  1.0 0.0992949599
H  H23  1  0.76420000  0.73060000  0.30000000  1.0 0.0992949599
H  H24  1  0.73580000  0.26940000  0.80000000  1.0 0.0992949599
H  H25  1  0.18750000  0.15790000  0.35630000  1.0 0.1388999255
H  H26  1  0.31250000  0.84210000  0.85630000  1.0 0.1388999255
H  H27  1  0.81250000  0.65790000  0.14370000  1.0 0.1388999255
H  H28  1  0.68750000  0.34210000  0.64370000  1.0 0.1388999255
H  H29  1  0.21850000  0.22570000  0.35310000  1.0 0.1495390016
H  H30  1  0.28150000  0.77430000  0.85310000  1.0 0.1495390016
H  H31  1  0.78150000  0.72570000  0.14690000  1.0 0.1495390016
H  H32  1  0.71850000  0.27430000  0.64690000  1.0 0.1495390016
H  H33  1  0.28430000  0.17350000  0.33640000  1.0 0.1313927167
H  H34  1  0.21570000  0.82650000  0.83640000  1.0 0.1313927167
H  H35  1  0.71570000  0.67350000  0.16360000  1.0 0.1313927167
H  H36  1  0.78430000  0.32650000  0.66360000  1.0 0.1313927167
H  H37  1  0.09690000  0.29460000  0.30350000  1.0 0.1388999255
H  H38  1  0.40310000  0.70540000  0.80350000  1.0 0.1388999255
H  H39  1  0.90310000  0.79460000  0.19650000  1.0 0.1388999255
H  H40  1  0.59690000  0.20540000  0.69650000  1.0 0.1388999255
H  H41  1  0.08150000  0.24350000  0.34920000  1.0 0.1388999255
H  H42  1  0.41850000  0.75650000  0.84920000  1.0 0.1388999255
H  H43  1  0.91850000  0.74350000  0.15080000  1.0 0.1388999255
H  H44  1  0.58150000  0.25650000  0.65080000  1.0 0.1388999255
H  H45  1  0.00360000  0.26340000  0.30880000  1.0 0.1313927167
H  H46  1  0.49640000  0.73660000  0.80880000  1.0 0.1313927167
H  H47  1  0.99640000  0.76340000  0.19120000  1.0 0.1313927167
H  H48  1  0.50360000  0.23660000  0.69120000  1.0 0.1313927167
H  H49  1  0.11370000  0.26960000  0.20110000  1.0 0.1313927167
H  H50  1  0.38630000  0.73040000  0.70110000  1.0 0.1313927167
H  H51  1  0.88630000  0.76960000  0.29890000  1.0 0.1313927167
H  H52  1  0.61370000  0.23040000  0.79890000  1.0 0.1313927167
H  H53  1  0.09130000  0.20380000  0.18010000  1.0 0.1495390016
H  H54  1  0.40870000  0.79620000  0.68010000  1.0 0.1495390016
H  H55  1  0.90870000  0.70380000  0.31990000  1.0 0.1495390016
H  H56  1  0.59130000  0.29620000  0.81990000  1.0 0.1495390016
H  H57  1  0.91470000  0.32300000  0.18440000  1.0 0.3322341392
H  H58  1  0.58530000  0.67700000  0.68440000  1.0 0.3322341392
H  H59  1  0.08530000  0.82300000  0.31560000  1.0 0.3322341392
H  H60  1  0.41470000  0.17700000  0.81560000  1.0 0.3322341392
H  H61  1  0.01200000  0.33160000  0.17500000  1.0 0.3207391972
H  H62  1  0.48800000  0.66840000  0.67500000  1.0 0.3207391972
H  H63  1  0.98800000  0.83160000  0.32500000  1.0 0.3207391972
H  H64  1  0.51200000  0.16840000  0.82500000  1.0 0.3207391972
H  H65  1  0.07660000  0.10920000  0.35120000  1.0 0.0915093625
H  H66  1  0.42340000  0.89080000  0.85120000  1.0 0.0915093625
H  H67  1  0.92340000  0.60920000  0.14880000  1.0 0.0915093625
H  H68  1  0.57660000  0.39080000  0.64880000  1.0 0.0915093625
H  H69  1  0.01000000  0.16330000  0.35820000  1.0 0.108366489
H  H70  1  0.49000000  0.83670000  0.85820000  1.0 0.108366489
H  H71  1  0.99000000  0.66330000  0.14180000  1.0 0.108366489
H  H72  1  0.51000000  0.33670000  0.64180000  1.0 0.108366489
H  H73  1  0.96870000  0.04610000  0.32290000  1.0 0.1210995076
H  H74  1  0.53130000  0.95390000  0.82290000  1.0 0.1210995076
H  H75  1  0.03130000  0.54610000  0.17710000  1.0 0.1210995076
H  H76  1  0.46870000  0.45390000  0.67710000  1.0 0.1210995076
H  H77  1  0.90140000  0.09970000  0.31430000  1.0 0.1388999255
H  H78  1  0.59860000  0.90030000  0.81430000  1.0 0.1388999255
H  H79  1  0.09860000  0.59970000  0.18570000  1.0 0.1388999255
H  H80  1  0.40140000  0.40030000  0.68570000  1.0 0.1388999255
H  H81  1  0.87220000  0.01500000  0.44610000  1.0 0.3207391972
H  H82  1  0.62780000  0.98500000  0.94610000  1.0 0.3207391972
H  H83  1  0.12780000  0.51500000  0.05390000  1.0 0.3207391972
H  H84  1  0.37220000  0.48500000  0.55390000  1.0 0.3207391972
H  H85  1  0.89630000  0.99290000  0.38770000  1.0 0.3207391972
H  H86  1  0.60370000  0.00710000  0.88770000  1.0 0.3207391972
H  H87  1  0.10370000  0.49290000  0.11230000  1.0 0.3207391972
H  H88  1  0.39630000  0.50710000  0.61230000  1.0 0.3207391972
H  H89  1  0.98510000  0.02690000  0.16410000  1.0 0.1313927167
H  H90  1  0.51490000  0.97310000  0.66410000  1.0 0.1313927167
H  H91  1  0.01490000  0.52690000  0.33590000  1.0 0.1313927167
H  H92  1  0.48510000  0.47310000  0.83590000  1.0 0.1313927167
H  H93  1  0.96040000  0.08330000  0.20190000  1.0 0.1388999255
H  H94  1  0.53960000  0.91670000  0.70190000  1.0 0.1388999255
H  H95  1  0.03960000  0.58330000  0.29810000  1.0 0.1388999255
H  H96  1  0.46040000  0.41670000  0.79810000  1.0 0.1388999255
H  H97  1  0.96450000  0.01840000  0.22940000  1.0 0.1388999255
H  H98  1  0.53550000  0.98160000  0.72940000  1.0 0.1388999255
H  H99  1  0.03550000  0.51840000  0.27060000  1.0 0.1388999255
H  H100  1  0.46450000  0.48160000  0.77060000  1.0 0.1388999255
H  H101  1  0.04360000  0.91870000  0.21890000  1.0 0.1388999255
H  H102  1  0.45640000  0.08130000  0.71890000  1.0 0.1313927167
H  H103  1  0.95640000  0.41870000  0.28110000  1.0 0.1388999255
H  H104  1  0.54360000  0.58130000  0.78110000  1.0 0.1313927167
H  H105  1  0.06630000  0.87660000  0.16680000  1.0 0.1495390016
H  H106  1  0.43370000  0.12340000  0.66680000  1.0 0.1495390016
H  H107  1  0.93370000  0.37660000  0.33320000  1.0 0.1495390016
H  H108  1  0.56630000  0.62340000  0.83320000  1.0 0.1495390016
H  H109  1  0.00650000  0.93410000  0.15780000  1.0 0.1313927167
H  H110  1  0.49350000  0.06590000  0.65780000  1.0 0.1313927167
H  H111  1  0.99350000  0.43410000  0.34220000  1.0 0.1313927167
H  H112  1  0.50650000  0.56590000  0.84220000  1.0 0.1313927167
H  H113  1  0.20230000  0.98600000  0.09470000  1.0 0.1388999255
H  H114  1  0.29770000  0.01400000  0.59470000  1.0 0.1388999255
H  H115  1  0.79770000  0.48600000  0.40530000  1.0 0.1388999255
H  H116  1  0.70230000  0.51400000  0.90530000  1.0 0.1388999255
H  H117  1  0.15170000  0.92530000  0.08310000  1.0 0.1495390016
H  H118  1  0.34830000  0.07470000  0.58310000  1.0 0.1495390016
H  H119  1  0.84830000  0.42530000  0.41690000  1.0 0.1495390016
H  H120  1  0.65170000  0.57470000  0.91690000  1.0 0.1495390016
H  H121  1  0.04280000  0.07810000  0.05080000  1.0 0.3322341392
H  H122  1  0.45720000  0.92190000  0.55080000  1.0 0.3322341392
H  H123  1  0.95720000  0.57810000  0.44920000  1.0 0.3322341392
H  H124  1  0.54280000  0.42190000  0.94920000  1.0 0.3322341392
H  H125  1  0.12790000  0.07530000  0.08360000  1.0 0.3207391972
H  H126  1  0.37210000  0.92470000  0.58360000  1.0 0.3207391972
H  H127  1  0.87210000  0.57530000  0.41640000  1.0 0.3207391972
H  H128  1  0.62790000  0.42470000  0.91640000  1.0 0.3207391972
H  H129  1  0.17980000  0.91780000  0.26980000  1.0 0.0915093625
H  H130  1  0.32020000  0.08220000  0.76980000  1.0 0.0915093625
H  H131  1  0.82020000  0.41780000  0.23020000  1.0 0.0915093625
H  H132  1  0.67980000  0.58220000  0.73020000  1.0 0.0915093625
H  H133  1  0.17840000  0.85460000  0.23910000  1.0 0.0915093625
H  H134  1  0.32160000  0.14540000  0.73910000  1.0 0.0915093625
H  H135  1  0.82160000  0.35460000  0.26090000  1.0 0.0915093625
H  H136  1  0.67840000  0.64540000  0.76090000  1.0 0.0915093625
H  H137  1  0.33820000  0.85860000  0.24160000  1.0 0.1313927167
H  H138  1  0.16180000  0.14140000  0.74160000  1.0 0.1313927167
H  H139  1  0.66180000  0.35860000  0.25840000  1.0 0.1313927167
H  H140  1  0.83820000  0.64140000  0.75840000  1.0 0.1313927167
H  H141  1  0.32770000  0.91310000  0.28410000  1.0 0.1210995076
H  H142  1  0.17230000  0.08690000  0.78410000  1.0 0.1210995076
H  H143  1  0.67230000  0.41310000  0.21590000  1.0 0.1210995076
H  H144  1  0.82770000  0.58690000  0.71590000  1.0 0.1210995076
H  H145  1  0.34370000  0.81620000  0.39100000  1.0 0.3382736618
H  H146  1  0.15630000  0.18380000  0.89100000  1.0 0.3382736618
H  H147  1  0.65630000  0.31620000  0.10900000  1.0 0.3382736618
H  H148  1  0.84370000  0.68380000  0.60900000  1.0 0.3382736618
H  H149  1  0.37960000  0.87270000  0.36440000  1.0 0.3109567537
H  H150  1  0.12040000  0.12730000  0.86440000  1.0 0.3109567537
H  H151  1  0.62040000  0.37270000  0.13560000  1.0 0.3109567537
H  H152  1  0.87960000  0.62730000  0.63560000  1.0 0.3109567537
H  H153  1  0.46520000  0.99350000  0.06800000  1.0 0.1388999255
H  H154  1  0.03480000  0.00650000  0.56800000  1.0 0.1388999255
H  H155  1  0.53480000  0.49350000  0.43200000  1.0 0.1388999255
H  H156  1  0.96520000  0.50650000  0.93200000  1.0 0.1388999255
H  H157  1  0.55270000  0.03180000  0.06320000  1.0 0.1495390016
H  H158  1  0.94730000  0.96820000  0.56320000  1.0 0.1495390016
H  H159  1  0.44730000  0.53180000  0.43680000  1.0 0.1495390016
H  H160  1  0.05270000  0.46820000  0.93680000  1.0 0.1495390016
H  H161  1  0.46230000  0.06390000  0.07740000  1.0 0.1495390016
H  H162  1  0.03770000  0.93610000  0.57740000  1.0 0.1495390016
H  H163  1  0.53770000  0.56390000  0.42260000  1.0 0.1495390016
H  H164  1  0.96230000  0.43610000  0.92260000  1.0 0.1495390016
H  H165  1  0.57040000  0.95270000  0.19590000  1.0 0.1313927167
H  H166  1  0.92960000  0.04730000  0.69590000  1.0 0.1313927167
H  H167  1  0.42960000  0.45270000  0.30410000  1.0 0.1313927167
H  H168  1  0.07040000  0.54730000  0.80410000  1.0 0.1313927167
H  H169  1  0.62100000  0.96290000  0.13790000  1.0 0.1495390016
H  H170  1  0.87900000  0.03710000  0.63790000  1.0 0.1495390016
H  H171  1  0.37900000  0.46290000  0.36210000  1.0 0.1495390016
H  H172  1  0.12100000  0.53710000  0.86210000  1.0 0.1495390016
H  H173  1  0.53060000  0.92740000  0.13860000  1.0 0.1313927167
H  H174  1  0.96940000  0.07260000  0.63860000  1.0 0.1313927167
H  H175  1  0.46940000  0.42740000  0.36140000  1.0 0.1313927167
H  H176  1  0.03060000  0.57260000  0.86140000  1.0 0.1313927167
H  H177  1  0.59600000  0.02930000  0.24350000  1.0 0.0992949599
H  H178  1  0.90400000  0.97070000  0.74350000  1.0 0.0992949599
H  H179  1  0.40400000  0.52930000  0.25650000  1.0 0.0992949599
H  H180  1  0.09600000  0.47070000  0.75650000  1.0 0.0992949599
H  H181  1  0.61330000  0.09930000  0.24770000  1.0 0.0992949599
H  H182  1  0.88670000  0.90070000  0.74770000  1.0 0.0992949599
H  H183  1  0.38670000  0.59930000  0.25230000  1.0 0.0992949599
H  H184  1  0.11330000  0.40070000  0.75230000  1.0 0.0992949599
H  H185  1  0.74390000  0.03450000  0.23670000  1.0 0.1388999255
H  H186  1  0.75610000  0.96550000  0.73670000  1.0 0.1388999255
H  H187  1  0.25610000  0.53450000  0.26330000  1.0 0.1388999255
H  H188  1  0.24390000  0.46550000  0.76330000  1.0 0.1388999255
H  H189  1  0.71550000  0.02870000  0.17220000  1.0 0.1210995076
H  H190  1  0.78450000  0.97130000  0.67220000  1.0 0.1210995076
H  H191  1  0.28450000  0.52870000  0.32780000  1.0 0.1210995076
H  H192  1  0.21550000  0.47130000  0.82780000  1.0 0.1210995076
H  H193  1  0.80820000  0.15600000  0.13190000  1.0 0.3382736618
H  H194  1  0.69180000  0.84400000  0.63190000  1.0 0.3382736618
H  H195  1  0.19180000  0.65600000  0.36810000  1.0 0.3382736618
H  H196  1  0.30820000  0.34400000  0.86810000  1.0 0.3382736618
H  H197  1  0.77580000  0.09430000  0.11550000  1.0 0.3207391972
H  H198  1  0.72420000  0.90570000  0.61550000  1.0 0.3207391972
H  H199  1  0.22420000  0.59430000  0.38450000  1.0 0.3207391972
H  H200  1  0.27580000  0.40570000  0.88450000  1.0 0.3207391972
H  H201  1  0.59470000  0.20920000  0.23360000  1.0 0.1388999255
H  H202  1  0.90530000  0.79080000  0.73360000  1.0 0.1388999255
H  H203  1  0.40530000  0.70920000  0.26640000  1.0 0.1388999255
H  H204  1  0.09470000  0.29080000  0.76640000  1.0 0.1388999255
H  H205  1  0.55920000  0.24200000  0.17860000  1.0 0.1313927167
H  H206  1  0.94080000  0.75800000  0.67860000  1.0 0.1313927167
H  H207  1  0.44080000  0.74200000  0.32140000  1.0 0.1313927167
H  H208  1  0.05920000  0.25800000  0.82140000  1.0 0.1313927167
H  H209  1  0.60870000  0.17960000  0.17320000  1.0 0.1313927167
H  H210  1  0.89130000  0.82040000  0.67320000  1.0 0.1313927167
H  H211  1  0.39130000  0.67960000  0.32680000  1.0 0.1313927167
H  H212  1  0.10870000  0.32040000  0.82680000  1.0 0.1313927167
H  H213  1  0.45320000  0.28520000  0.15010000  1.0 0.1210995076
H  H214  1  0.04680000  0.71480000  0.65010000  1.0 0.1210995076
H  H215  1  0.54680000  0.78520000  0.34990000  1.0 0.1210995076
H  H216  1  0.95320000  0.21480000  0.84990000  1.0 0.1210995076
H  H217  1  0.40070000  0.34150000  0.17330000  1.0 0.1313927167
H  H218  1  0.09930000  0.65850000  0.67330000  1.0 0.1313927167
H  H219  1  0.59930000  0.84150000  0.32670000  1.0 0.1313927167
H  H220  1  0.90070000  0.15850000  0.82670000  1.0 0.1313927167
H  H221  1  0.34900000  0.28510000  0.14960000  1.0 0.1388999255
H  H222  1  0.15100000  0.71490000  0.64960000  1.0 0.1388999255
H  H223  1  0.65100000  0.78510000  0.35040000  1.0 0.1388999255
H  H224  1  0.84900000  0.21490000  0.85040000  1.0 0.1388999255
H  H225  1  0.52460000  0.30290000  0.24740000  1.0 0.0992949599
H  H226  1  0.97540000  0.69710000  0.74740000  1.0 0.0992949599
H  H227  1  0.47540000  0.80290000  0.25260000  1.0 0.0992949599
H  H228  1  0.02460000  0.19710000  0.75260000  1.0 0.0992949599
H  H229  1  0.44980000  0.34080000  0.27700000  1.0 0.108366489
H  H230  1  0.05020000  0.65920000  0.77700000  1.0 0.108366489
H  H231  1  0.55020000  0.84080000  0.22300000  1.0 0.108366489
H  H232  1  0.94980000  0.15920000  0.72300000  1.0 0.108366489
H  H233  1  0.43170000  0.26150000  0.34480000  1.0 0.1210995076
H  H234  1  0.06830000  0.73850000  0.84480000  1.0 0.1210995076
H  H235  1  0.56830000  0.76150000  0.15520000  1.0 0.1210995076
H  H236  1  0.93170000  0.23850000  0.65520000  1.0 0.1210995076
H  H237  1  0.51250000  0.22780000  0.31670000  1.0 0.1313927167
H  H238  1  0.98750000  0.77220000  0.81670000  1.0 0.1313927167
H  H239  1  0.48750000  0.72780000  0.18330000  1.0 0.1313927167
H  H240  1  0.01250000  0.27220000  0.68330000  1.0 0.1313927167
H  H241  1  0.46340000  0.31450000  0.41980000  1.0 0.3027101158
H  H242  1  0.03660000  0.68550000  0.91980000  1.0 0.3027101158
H  H243  1  0.53660000  0.81450000  0.08020000  1.0 0.3027101158
H  H244  1  0.96340000  0.18550000  0.58020000  1.0 0.3027101158
H  H245  1  0.21450000  0.33090000  0.22770000  1.0 0.1313927167
H  H246  1  0.28550000  0.66910000  0.72770000  1.0 0.1313927167
H  H247  1  0.78550000  0.83090000  0.27230000  1.0 0.1313927167
H  H248  1  0.71450000  0.16910000  0.77230000  1.0 0.1313927167
H  H249  1  0.30700000  0.36320000  0.23260000  1.0 0.1388999255
H  H250  1  0.19300000  0.63680000  0.73260000  1.0 0.1388999255
H  H251  1  0.69300000  0.86320000  0.26740000  1.0 0.1388999255
H  H252  1  0.80700000  0.13680000  0.76740000  1.0 0.1388999255
H  H253  1  0.16370000  0.42590000  0.33400000  1.0 0.3322341392
H  H254  1  0.33630000  0.57410000  0.83400000  1.0 0.3322341392
H  H255  1  0.83630000  0.92590000  0.16600000  1.0 0.3322341392
H  H256  1  0.66370000  0.07410000  0.66600000  1.0 0.3322341392
H  H257  1  0.16040000  0.41750000  0.27060000  1.0 0.3207391972
H  H258  1  0.33960000  0.58250000  0.77060000  1.0 0.3207391972
H  H259  1  0.83960000  0.91750000  0.22940000  1.0 0.3207391972
H  H260  1  0.66040000  0.08250000  0.72940000  1.0 0.3207391972
H  H261  1  0.53030000  0.38280000  0.47260000  1.0 0.1313927167
H  H262  1  0.96970000  0.61720000  0.97260000  1.0 0.1313927167
H  H263  1  0.46970000  0.88280000  0.02740000  1.0 0.1313927167
H  H264  1  0.03030000  0.11720000  0.52740000  1.0 0.1313927167
H  H265  1  0.60210000  0.38970000  0.42460000  1.0 0.108366489
H  H266  1  0.89790000  0.61030000  0.92460000  1.0 0.108366489
H  H267  1  0.39790000  0.88970000  0.07540000  1.0 0.108366489
H  H268  1  0.10210000  0.11030000  0.57540000  1.0 0.108366489
H  H269  1  0.67110000  0.30050000  0.45890000  1.0 0.0714413607
H  H270  1  0.82890000  0.69950000  0.95890000  1.0 0.0714413607
H  H271  1  0.32890000  0.80050000  0.04110000  1.0 0.0714413607
H  H272  1  0.17110000  0.19950000  0.54110000  1.0 0.0714413607
H  H273  1  0.65740000  0.39220000  0.54270000  1.0 0.1577085712
H  H274  1  0.84260000  0.60780000  0.04270000  1.0 0.1577085712
H  H275  1  0.34260000  0.89220000  0.95730000  1.0 0.1577085712
H  H276  1  0.15740000  0.10780000  0.45730000  1.0 0.1577085712
H  H277  1  0.72560000  0.39400000  0.49200000  1.0 0.1388999255
H  H278  1  0.77440000  0.60600000  0.99200000  1.0 0.1388999255
H  H279  1  0.27440000  0.89400000  0.00800000  1.0 0.1388999255
H  H280  1  0.22560000  0.10600000  0.50800000  1.0 0.1388999255
H  H281  1  0.73420000  0.34430000  0.53970000  1.0 0.1577085712
H  H282  1  0.76580000  0.65570000  0.03970000  1.0 0.1577085712
H  H283  1  0.26580000  0.84430000  0.96030000  1.0 0.1577085712
H  H284  1  0.23420000  0.15570000  0.46030000  1.0 0.1577085712
H  H285  1  0.49930000  0.02980000  0.43280000  1.0 0.108366489
H  H286  1  0.00070000  0.97020000  0.93280000  1.0 0.108366489
H  H287  1  0.50070000  0.52980000  0.06720000  1.0 0.108366489
H  H288  1  0.99930000  0.47020000  0.56720000  1.0 0.108366489
H  H289  1  0.44850000  0.11300000  0.47870000  1.0 0.0915093625
H  H290  1  0.05150000  0.88700000  0.97870000  1.0 0.0915093625
H  H291  1  0.55150000  0.61300000  0.02130000  1.0 0.0915093625
H  H292  1  0.94850000  0.38700000  0.52130000  1.0 0.0915093625
H  H293  1  0.60170000  0.11740000  0.47800000  1.0 0.0915093625
H  H294  1  0.89830000  0.88260000  0.97800000  1.0 0.0915093625
H  H295  1  0.39830000  0.61740000  0.02200000  1.0 0.0915093625
H  H296  1  0.10170000  0.38260000  0.52200000  1.0 0.0915093625
H  H297  1  0.59680000  0.15980000  0.36340000  1.0 0.0846071839
H  H298  1  0.90320000  0.84020000  0.86340000  1.0 0.0846071839
H  H299  1  0.40320000  0.65980000  0.13660000  1.0 0.0846071839
H  H300  1  0.09680000  0.34020000  0.63660000  1.0 0.0846071839
H  H301  1  0.73730000  0.15440000  0.40090000  1.0 0.0992949599
H  H302  1  0.76270000  0.84560000  0.90090000  1.0 0.0992949599
H  H303  1  0.26270000  0.65440000  0.09910000  1.0 0.0992949599
H  H304  1  0.23730000  0.34560000  0.59910000  1.0 0.0992949599
H  H305  1  0.72060000  0.08780000  0.42210000  1.0 0.108366489
H  H306  1  0.77940000  0.91220000  0.92210000  1.0 0.108366489
H  H307  1  0.27940000  0.58780000  0.07790000  1.0 0.108366489
H  H308  1  0.22060000  0.41220000  0.57790000  1.0 0.108366489
H  H309  1  0.40260000  0.18600000  0.42920000  1.0 0.3495644926
H  H310  1  0.09740000  0.81400000  0.92920000  1.0 0.3495644926
H  H311  1  0.59740000  0.68600000  0.07080000  1.0 0.3495644926
H  H312  1  0.90260000  0.31400000  0.57080000  1.0 0.3495644926
H  H313  1  0.74710000  0.12250000  0.31700000  1.0 0.3382736618
H  H314  1  0.75290000  0.87750000  0.81700000  1.0 0.3382736618
H  H315  1  0.25290000  0.62250000  0.18300000  1.0 0.3382736618
H  H316  1  0.24710000  0.37750000  0.68300000  1.0 0.3382736618
H  H317  1  0.44960000  0.10430000  0.30010000  1.0 0.1210995076
H  H318  1  0.05040000  0.89570000  0.80010000  1.0 0.1210995076
H  H319  1  0.55040000  0.60430000  0.19990000  1.0 0.1210995076
H  H320  1  0.94960000  0.39570000  0.69990000  1.0 0.1210995076
H  H321  1  0.16360000  0.01800000  0.30970000  1.0 0.1388999255
H  H322  1  0.33640000  0.98200000  0.80970000  1.0 0.1388999255
H  H323  1  0.83640000  0.51800000  0.19030000  1.0 0.1388999255
H  H324  1  0.66360000  0.48200000  0.69030000  1.0 0.1388999255
H  H325  1  0.36140000  0.98450000  0.45890000  1.0 0.1313927167
H  H326  1  0.13860000  0.01550000  0.95890000  1.0 0.1313927167
H  H327  1  0.63860000  0.48450000  0.04110000  1.0 0.1313927167
H  H328  1  0.86140000  0.51550000  0.54110000  1.0 0.1313927167
H  H329  1  0.05630000  0.96610000  0.41660000  1.0 0.1495390016
H  H330  1  0.44370000  0.03390000  0.91660000  1.0 0.1495390016
H  H331  1  0.94370000  0.46610000  0.08340000  1.0 0.1495390016
H  H332  1  0.55630000  0.53390000  0.58340000  1.0 0.1495390016
H  H333  1  0.09750000  0.90520000  0.39430000  1.0 0.1388999255
H  H334  1  0.40250000  0.09480000  0.89430000  1.0 0.1388999255
H  H335  1  0.90250000  0.40520000  0.10570000  1.0 0.1388999255
H  H336  1  0.59750000  0.59480000  0.60570000  1.0 0.1388999255
H  H337  1  0.06270000  0.95370000  0.35060000  1.0 0.1313927167
H  H338  1  0.43730000  0.04630000  0.85060000  1.0 0.1313927167
H  H339  1  0.93730000  0.45370000  0.14940000  1.0 0.1313927167
H  H340  1  0.56270000  0.54630000  0.64940000  1.0 0.1313927167
H  H341  1  0.26210000  0.91990000  0.50380000  1.0 0.1313927167
H  H342  1  0.23790000  0.08010000  0.00380000  1.0 0.1313927167
H  H343  1  0.73790000  0.41990000  0.99620000  1.0 0.1313927167
H  H344  1  0.76210000  0.58010000  0.49620000  1.0 0.1313927167
H  H345  1  0.18750000  0.89020000  0.46620000  1.0 0.1388999255
H  H346  1  0.31250000  0.10980000  0.96620000  1.0 0.1388999255
H  H347  1  0.81250000  0.39020000  0.03380000  1.0 0.1388999255
H  H348  1  0.68750000  0.60980000  0.53380000  1.0 0.1388999255
H  H349  1  0.16700000  0.94890000  0.50180000  1.0 0.1388999255
H  H350  1  0.33300000  0.05110000  0.00180000  1.0 0.1388999255
H  H351  1  0.83300000  0.44890000  0.99820000  1.0 0.1388999255
H  H352  1  0.66700000  0.55110000  0.49820000  1.0 0.1388999255
H  H353  1  0.81270000  0.24850000  0.34930000  1.0 0.3974357885
H  H354  1  0.68730000  0.75150000  0.84930000  1.0 0.3974357885
H  H355  1  0.18730000  0.74850000  0.15070000  1.0 0.3904519942
H  H356  1  0.31270000  0.25150000  0.65070000  1.0 0.3974357885
H  H357  1  0.72560000  0.26550000  0.32690000  1.0 0.3904519942
H  H358  1  0.77440000  0.73450000  0.82690000  1.0 0.3904519942
H  H359  1  0.27440000  0.76550000  0.17310000  1.0 0.3904519942
H  H360  1  0.22560000  0.23450000  0.67310000  1.0 0.3904519942
H  H361  1  0.32540000  0.44240000  0.46590000  1.0 0.3654511793
H  H362  1  0.17460000  0.55760000  0.96590000  1.0 0.3654511793
H  H363  1  0.67460000  0.94240000  0.03410000  1.0 0.3654511793
H  H364  1  0.82540000  0.05760000  0.53410000  1.0 0.3654511793
H  H365  1  0.36270000  0.39050000  0.49690000  1.0 0.3904519942
H  H366  1  0.13730000  0.60950000  0.99690000  1.0 0.3904519942
H  H367  1  0.63730000  0.89050000  0.00310000  1.0 0.3904519942
H  H368  1  0.86270000  0.10950000  0.50310000  1.0 0.3904519942
H  H369  1  0.18240000  0.46650000  0.43900000  1.0 0.3634324371
H  H370  1  0.31760000  0.53350000  0.93900000  1.0 0.3634324371
H  H371  1  0.81760000  0.96650000  0.06100000  1.0 0.3634324371
H  H372  1  0.68240000  0.03350000  0.56100000  1.0 0.3634324371
H  H373  1  0.09410000  0.44360000  0.42470000  1.0 0.3974357885
H  H374  1  0.40590000  0.55640000  0.92470000  1.0 0.3974357885
H  H375  1  0.90590000  0.94360000  0.07530000  1.0 0.3974357885
H  H376  1  0.59410000  0.05640000  0.57530000  1.0 0.3974357885
C  C1  1  0.26120000  0.12333000  0.14593000  1.0 -0.0845979676
C  C2  1  0.23880000  0.87667000  0.64593000  1.0 -0.0852184594
C  C3  1  0.73880000  0.62333000  0.35407000  1.0 -0.0852184594
C  C4  1  0.76120000  0.37667000  0.85407000  1.0 -0.0852184594
C  C5  1  0.19160000  0.19000000  0.27380000  1.0 0.2190071595
C  C6  1  0.30840000  0.81000000  0.77380000  1.0 0.2190071595
C  C7  1  0.80840000  0.69000000  0.22620000  1.0 0.2190071595
C  C8  1  0.69160000  0.31000000  0.72620000  1.0 0.2190071595
C  C9  1  0.09450000  0.21006000  0.26838000  1.0 0.177501615
C  C10  1  0.40550000  0.78994000  0.76838000  1.0 0.177501615
C  C11  1  0.90550000  0.71006000  0.23162000  1.0 0.177501615
C  C12  1  0.59450000  0.28994000  0.73162000  1.0 0.177501615
C  C13  1  0.04540000  0.14915000  0.27361000  1.0 -0.1180212219
C  C14  1  0.45460000  0.85085000  0.77361000  1.0 -0.1180212219
C  C15  1  0.95460000  0.64915000  0.22639000  1.0 -0.1180212219
C  C16  1  0.54540000  0.35085000  0.72639000  1.0 -0.1180212219
C  C17  1  0.10940000  0.10875000  0.24432000  1.0 0.2190071595
C  C18  1  0.39060000  0.89125000  0.74432000  1.0 0.2190071595
C  C19  1  0.89060000  0.60875000  0.25568000  1.0 0.2190071595
C  C20  1  0.60940000  0.39125000  0.75568000  1.0 0.2190071595
C  C21  1  0.08560000  0.05407000  0.21487000  1.0 0.0041857305
C  C22  1  0.41440000  0.94593000  0.71487000  1.0 0.0041857305
C  C23  1  0.91440000  0.55407000  0.28513000  1.0 0.0041857305
C  C24  1  0.58560000  0.44593000  0.78513000  1.0 0.0041857305
C  C25  1  0.14820000  0.01523000  0.19726000  1.0 0.0915093625
C  C26  1  0.35180000  0.98477000  0.69726000  1.0 0.0915093625
C  C27  1  0.85180000  0.51523000  0.30274000  1.0 0.0915093625
C  C28  1  0.64820000  0.48477000  0.80274000  1.0 0.0915093625
C  C29  1  0.13670000  0.95475000  0.16647000  1.0 0.1935338675
C  C30  1  0.36330000  0.04525000  0.66647000  1.0 0.1935338675
C  C31  1  0.86330000  0.45475000  0.33353000  1.0 0.1935338675
C  C32  1  0.63670000  0.54525000  0.83353000  1.0 0.1935338675
C  C33  1  0.22110000  0.92311000  0.18615000  1.0 -0.1073560119
C  C34  1  0.27890000  0.07689000  0.68615000  1.0 -0.1073560119
C  C35  1  0.77890000  0.42311000  0.31385000  1.0 -0.1073560119
C  C36  1  0.72110000  0.57689000  0.81385000  1.0 -0.1073560119
C  C37  1  0.28280000  0.97520000  0.18987000  1.0 0.2190071595
C  C38  1  0.21720000  0.02480000  0.68987000  1.0 0.2190071595
C  C39  1  0.71720000  0.47520000  0.31013000  1.0 0.2190071595
C  C40  1  0.78280000  0.52480000  0.81013000  1.0 0.2190071595
C  C41  1  0.36920000  0.97237000  0.17782000  1.0 -0.3237921895
C  C42  1  0.13080000  0.02763000  0.67782000  1.0 -0.3237921895
C  C43  1  0.63080000  0.47237000  0.32218000  1.0 -0.3237921895
C  C44  1  0.86920000  0.52763000  0.82218000  1.0 -0.3237921895
C  C45  1  0.42540000  0.02049000  0.17538000  1.0 0.2190071595
C  C46  1  0.07460000  0.97951000  0.67538000  1.0 0.2190071595
C  C47  1  0.57460000  0.52049000  0.32462000  1.0 0.2190071595
C  C48  1  0.92540000  0.47951000  0.82462000  1.0 0.2190071595
C  C49  1  0.51410000  0.01854000  0.14683000  1.0 0.202562671
C  C50  1  0.98590000  0.98146000  0.64683000  1.0 0.202562671
C  C51  1  0.48590000  0.51854000  0.35317000  1.0 0.202562671
C  C52  1  0.01410000  0.48146000  0.85317000  1.0 0.202562671
C  C53  1  0.55750000  0.07478000  0.17199000  1.0 -0.101120703
C  C54  1  0.94250000  0.92522000  0.67199000  1.0 -0.101120703
C  C55  1  0.44250000  0.57478000  0.32801000  1.0 -0.101120703
C  C56  1  0.05750000  0.42522000  0.82801000  1.0 -0.101120703
C  C57  1  0.47980000  0.11178000  0.18880000  1.0 0.1210995076
C  C58  1  0.02020000  0.88822000  0.68880000  1.0 0.1210995076
C  C59  1  0.52020000  0.61178000  0.31120000  1.0 0.1210995076
C  C60  1  0.97980000  0.38822000  0.81120000  1.0 0.1210995076
C  C61  1  0.48320000  0.17092000  0.20226000  1.0 -0.009663008
C  C62  1  0.01680000  0.82908000  0.70226000  1.0 -0.009663008
C  C63  1  0.51680000  0.67092000  0.29774000  1.0 -0.009663008
C  C64  1  0.98320000  0.32908000  0.79774000  1.0 -0.009663008
C  C65  1  0.40800000  0.20257000  0.22203000  1.0 0.177501615
C  C66  1  0.09200000  0.79743000  0.72203000  1.0 0.177501615
C  C67  1  0.59200000  0.70257000  0.27797000  1.0 0.177501615
C  C68  1  0.90800000  0.29743000  0.77797000  1.0 0.177501615
C  C69  1  0.40020000  0.27048000  0.22937000  1.0 0.1388999255
C  C70  1  0.09980000  0.72952000  0.72937000  1.0 0.1388999255
C  C71  1  0.59980000  0.77048000  0.27063000  1.0 0.1388999255
C  C72  1  0.90020000  0.22952000  0.77063000  1.0 0.1388999255
C  C73  1  0.31030000  0.27583000  0.25949000  1.0 -0.0298450441
C  C74  1  0.18970000  0.72417000  0.75949000  1.0 -0.0298450441
C  C75  1  0.68970000  0.77583000  0.24051000  1.0 -0.0298450441
C  C76  1  0.81030000  0.22417000  0.74051000  1.0 -0.0298450441
C  C77  1  0.26140000  0.22101000  0.23751000  1.0 -0.009663008
C  C78  1  0.23860000  0.77899000  0.73751000  1.0 -0.009663008
C  C79  1  0.73860000  0.72101000  0.26249000  1.0 -0.009663008
C  C80  1  0.76140000  0.27899000  0.76249000  1.0 -0.009663008
C  C81  1  0.22340000  0.18647000  0.33561000  1.0 -0.4778201581
C  C82  1  0.27660000  0.81353000  0.83561000  1.0 -0.4778201581
C  C83  1  0.77660000  0.68647000  0.16439000  1.0 -0.4778201581
C  C84  1  0.72340000  0.31353000  0.66439000  1.0 -0.4778201581
C  C85  1  0.06660000  0.25717000  0.31138000  1.0 -0.461003657
C  C86  1  0.43340000  0.74283000  0.81138000  1.0 -0.461003657
C  C87  1  0.93340000  0.75717000  0.18862000  1.0 -0.461003657
C  C88  1  0.56660000  0.24283000  0.68862000  1.0 -0.461003657
C  C89  1  0.07580000  0.23471000  0.20796000  1.0 -0.4090162715
C  C90  1  0.42420000  0.76529000  0.70796000  1.0 -0.4090162715
C  C91  1  0.92420000  0.73471000  0.29204000  1.0 -0.4090162715
C  C92  1  0.57580000  0.26529000  0.79204000  1.0 -0.4090162715
C  C93  1  0.98210000  0.25282000  0.19900000  1.0 0.6069671064
C  C94  1  0.51790000  0.74718000  0.69900000  1.0 0.6069671064
C  C95  1  0.01790000  0.75282000  0.30100000  1.0 0.6069671064
C  C96  1  0.48210000  0.24718000  0.80100000  1.0 0.6069671064
C  C97  1  0.02410000  0.12808000  0.33500000  1.0 -0.1383495481
C  C98  1  0.47590000  0.87192000  0.83500000  1.0 -0.1383495481
C  C99  1  0.97590000  0.62808000  0.16500000  1.0 -0.1383495481
C  C100  1  0.52410000  0.37192000  0.66500000  1.0 -0.1383495481
C  C101  1  0.94970000  0.08502000  0.33803000  1.0 -0.3417257444
C  C102  1  0.55030000  0.91498000  0.83803000  1.0 -0.3417257444
C  C103  1  0.05030000  0.58502000  0.16197000  1.0 -0.3417257444
C  C104  1  0.44970000  0.41498000  0.66197000  1.0 -0.3417257444
C  C105  1  0.91690000  0.07656000  0.39809000  1.0 0.5816520601
C  C106  1  0.58310000  0.92344000  0.89809000  1.0 0.5816520601
C  C107  1  0.08310000  0.57656000  0.10191000  1.0 0.5816520601
C  C108  1  0.41690000  0.42344000  0.60191000  1.0 0.5816520601
C  C109  1  0.99060000  0.04487000  0.20138000  1.0 -0.41975098
C  C110  1  0.50940000  0.95513000  0.70138000  1.0 -0.41975098
C  C111  1  0.00940000  0.54487000  0.29862000  1.0 -0.41975098
C  C112  1  0.49060000  0.45513000  0.79862000  1.0 -0.4090162715
C  C113  1  0.05610000  0.91776000  0.17855000  1.0 -0.4694162847
C  C114  1  0.44390000  0.08224000  0.67855000  1.0 -0.4694162847
C  C115  1  0.94390000  0.41776000  0.32145000  1.0 -0.4694162847
C  C116  1  0.55610000  0.58224000  0.82145000  1.0 -0.4694162847
C  C117  1  0.14680000  0.96477000  0.10124000  1.0 -0.4090162715
C  C118  1  0.35320000  0.03523000  0.60124000  1.0 -0.4090162715
C  C119  1  0.85320000  0.46477000  0.39876000  1.0 -0.4090162715
C  C120  1  0.64680000  0.53523000  0.89876000  1.0 -0.4090162715
C  C121  1  0.07530000  0.99885000  0.07189000  1.0 0.5902004241
C  C122  1  0.42470000  0.00115000  0.57189000  1.0 0.5902004241
C  C123  1  0.92470000  0.49885000  0.42811000  1.0 0.5902004241
C  C124  1  0.57530000  0.50115000  0.92811000  1.0 0.5902004241
C  C125  1  0.21250000  0.89159000  0.24398000  1.0 -0.1499189437
C  C126  1  0.28750000  0.10841000  0.74398000  1.0 -0.1499189437
C  C127  1  0.78750000  0.39159000  0.25602000  1.0 -0.1499189437
C  C128  1  0.71250000  0.60841000  0.75602000  1.0 -0.1499189437
C  C129  1  0.29990000  0.87605000  0.27066000  1.0 -0.3644591273
C  C130  1  0.20010000  0.12395000  0.77066000  1.0 -0.3660719693
C  C131  1  0.70010000  0.37605000  0.22934000  1.0 -0.3644591273
C  C132  1  0.79990000  0.62395000  0.72934000  1.0 -0.3644591273
C  C133  1  0.29320000  0.83348000  0.31850000  1.0 0.6069671064
C  C134  1  0.20680000  0.16652000  0.81850000  1.0 0.6069671064
C  C135  1  0.70680000  0.33348000  0.18150000  1.0 0.6069671064
C  C136  1  0.79320000  0.66652000  0.68150000  1.0 0.6069671064
C  C137  1  0.49700000  0.02781000  0.08291000  1.0 -0.461003657
C  C138  1  0.00300000  0.97219000  0.58291000  1.0 -0.461003657
C  C139  1  0.50300000  0.52781000  0.41709000  1.0 -0.461003657
C  C140  1  0.99700000  0.47219000  0.91709000  1.0 -0.461003657
C  C141  1  0.56350000  0.96013000  0.15560000  1.0 -0.4694162847
C  C142  1  0.93650000  0.03987000  0.65560000  1.0 -0.4694162847
C  C143  1  0.43650000  0.46013000  0.34440000  1.0 -0.4694162847
C  C144  1  0.06350000  0.53987000  0.84440000  1.0 -0.4694162847
C  C145  1  0.61690000  0.06448000  0.22243000  1.0 -0.1499189437
C  C146  1  0.88310000  0.93552000  0.72243000  1.0 -0.1499189437
C  C147  1  0.38310000  0.56448000  0.27757000  1.0 -0.1499189437
C  C148  1  0.11690000  0.43552000  0.77757000  1.0 -0.1499189437
C  C149  1  0.71270000  0.05461000  0.20569000  1.0 -0.3307614961
C  C150  1  0.78730000  0.94539000  0.70569000  1.0 -0.3307614961
C  C151  1  0.28730000  0.55461000  0.29431000  1.0 -0.3307614961
C  C152  1  0.21270000  0.44539000  0.79431000  1.0 -0.3307614961
C  C153  1  0.75630000  0.11326000  0.19302000  1.0 0.5984773039
C  C154  1  0.74370000  0.88674000  0.69302000  1.0 0.5984773039
C  C155  1  0.24370000  0.61326000  0.30698000  1.0 0.5984773039
C  C156  1  0.25630000  0.38674000  0.80698000  1.0 0.5984773039
C  C157  1  0.56900000  0.20328000  0.19638000  1.0 -0.41975098
C  C158  1  0.93100000  0.79672000  0.69638000  1.0 -0.41975098
C  C159  1  0.43100000  0.70328000  0.30362000  1.0 -0.41975098
C  C160  1  0.06900000  0.29672000  0.80362000  1.0 -0.41975098
C  C161  1  0.40080000  0.29810000  0.17023000  1.0 -0.461003657
C  C162  1  0.09920000  0.70190000  0.67023000  1.0 -0.461003657
C  C163  1  0.59920000  0.79810000  0.32977000  1.0 -0.461003657
C  C164  1  0.90080000  0.20190000  0.82977000  1.0 -0.461003657
C  C165  1  0.46920000  0.29983000  0.26838000  1.0 -0.1877408103
C  C166  1  0.03080000  0.70017000  0.76838000  1.0 -0.1877408103
C  C167  1  0.53080000  0.79983000  0.23162000  1.0 -0.1877408103
C  C168  1  0.96920000  0.20017000  0.73162000  1.0 -0.1877408103
C  C169  1  0.48730000  0.26745000  0.32451000  1.0 -0.3500598446
C  C170  1  0.01270000  0.73255000  0.82451000  1.0 -0.3500598446
C  C171  1  0.51270000  0.76745000  0.17549000  1.0 -0.3500598446
C  C172  1  0.98730000  0.23255000  0.67549000  1.0 -0.3500598446
C  C173  1  0.54920000  0.30242000  0.36099000  1.0 0.5238459706
C  C174  1  0.95080000  0.69758000  0.86099000  1.0 0.5238459706
C  C175  1  0.45080000  0.80242000  0.13901000  1.0 0.5238459706
C  C176  1  0.04920000  0.19758000  0.63901000  1.0 0.5238459706
C  C177  1  0.26630000  0.33584000  0.25193000  1.0 -0.3758759798
C  C178  1  0.23370000  0.66416000  0.75193000  1.0 -0.3758759798
C  C179  1  0.73370000  0.83584000  0.24807000  1.0 -0.3758759798
C  C180  1  0.76630000  0.16416000  0.74807000  1.0 -0.3758759798
C  C181  1  0.23840000  0.36370000  0.30751000  1.0 0.6069671064
C  C182  1  0.26160000  0.63630000  0.80751000  1.0 0.6069671064
C  C183  1  0.76160000  0.86370000  0.19249000  1.0 0.6069671064
C  C184  1  0.73840000  0.13630000  0.69249000  1.0 0.6069671064
C  C185  1  0.56980000  0.36040000  0.44757000  1.0 -0.1499189437
C  C186  1  0.93020000  0.63960000  0.94757000  1.0 -0.1499189437
C  C187  1  0.43020000  0.86040000  0.05243000  1.0 -0.1499189437
C  C188  1  0.06980000  0.13960000  0.55243000  1.0 -0.1499189437
C  C189  1  0.63440000  0.32649000  0.48338000  1.0 0.2475245892
C  C190  1  0.86560000  0.67351000  0.98338000  1.0 0.2475245892
C  C191  1  0.36560000  0.82649000  0.01662000  1.0 0.2475245892
C  C192  1  0.13440000  0.17351000  0.51662000  1.0 0.2475245892
C  C193  1  0.69320000  0.36800000  0.51753000  1.0 -0.5037276447
C  C194  1  0.80680000  0.63200000  0.01753000  1.0 -0.5037276447
C  C195  1  0.30680000  0.86800000  0.98247000  1.0 -0.5037276447
C  C196  1  0.19320000  0.13200000  0.48247000  1.0 -0.5037276447
C  C197  1  0.49160000  0.06456000  0.40716000  1.0 0.1577085712
C  C198  1  0.00840000  0.93544000  0.90716000  1.0 0.1577085712
C  C199  1  0.50840000  0.56456000  0.09284000  1.0 0.1577085712
C  C200  1  0.99160000  0.43544000  0.59284000  1.0 0.1577085712
C  C201  1  0.47710000  0.12120000  0.44185000  1.0 0.0376896895
C  C202  1  0.02290000  0.87880000  0.94185000  1.0 0.0376896895
C  C203  1  0.52290000  0.62120000  0.05815000  1.0 0.0376896895
C  C204  1  0.97710000  0.37880000  0.55815000  1.0 0.0376896895
C  C205  1  0.57200000  0.14145000  0.44835000  1.0 0.0915093625
C  C206  1  0.92800000  0.85855000  0.94835000  1.0 0.0992949599
C  C207  1  0.42800000  0.64145000  0.05165000  1.0 0.0992949599
C  C208  1  0.07200000  0.35855000  0.55165000  1.0 0.0915093625
C  C209  1  0.61100000  0.12740000  0.39066000  1.0 0.0714413607
C  C210  1  0.88900000  0.87260000  0.89066000  1.0 0.0714413607
C  C211  1  0.38900000  0.62740000  0.10934000  1.0 0.0714413607
C  C212  1  0.11100000  0.37260000  0.60934000  1.0 0.0714413607
C  C213  1  0.70710000  0.11667000  0.39197000  1.0 -0.0641316064
C  C214  1  0.79290000  0.88333000  0.89197000  1.0 -0.0641316064
C  C215  1  0.29290000  0.61667000  0.10803000  1.0 -0.0641316064
C  C216  1  0.20710000  0.38333000  0.60803000  1.0 -0.0641316064
C  C217  1  0.40710000  0.08017000  0.31797000  1.0 0.1495390016
C  C218  1  0.09290000  0.91983000  0.81797000  1.0 0.1495390016
C  C219  1  0.59290000  0.58017000  0.18203000  1.0 0.1495390016
C  C220  1  0.90710000  0.41983000  0.68203000  1.0 0.1495390016
C  C221  1  0.20370000  0.01099000  0.33928000  1.0 -0.2692871765
C  C222  1  0.29630000  0.98901000  0.83928000  1.0 -0.2692871765
C  C223  1  0.79630000  0.51099000  0.16072000  1.0 -0.2692871765
C  C224  1  0.70370000  0.48901000  0.66072000  1.0 -0.2692871765
C  C225  1  0.17960000  0.97613000  0.38582000  1.0 0.1210995076
C  C226  1  0.32040000  0.02387000  0.88582000  1.0 0.1210995076
C  C227  1  0.82040000  0.47613000  0.11418000  1.0 0.1210995076
C  C228  1  0.67960000  0.52387000  0.61418000  1.0 0.1210995076
C  C229  1  0.23870000  0.96596000  0.43065000  1.0 0.1313927167
C  C230  1  0.26130000  0.03404000  0.93065000  1.0 0.1313927167
C  C231  1  0.76130000  0.46596000  0.06935000  1.0 0.1313927167
C  C232  1  0.73870000  0.53404000  0.56935000  1.0 0.1313927167
C  C233  1  0.32130000  0.99055000  0.42906000  1.0 -0.2916275487
C  C234  1  0.17870000  0.00945000  0.92906000  1.0 -0.2916275487
C  C235  1  0.67870000  0.49055000  0.07094000  1.0 -0.2916275487
C  C236  1  0.82130000  0.50945000  0.57094000  1.0 -0.2916275487
C  C237  1  0.34350000  0.02424000  0.38246000  1.0 0.0846071839
C  C238  1  0.15650000  0.97576000  0.88246000  1.0 0.0846071839
C  C239  1  0.65650000  0.52424000  0.11754000  1.0 0.0846071839
C  C240  1  0.84350000  0.47576000  0.61754000  1.0 0.0846071839
C  C241  1  0.28610000  0.03485000  0.33725000  1.0 0.1313927167
C  C242  1  0.21390000  0.96515000  0.83725000  1.0 0.1313927167
C  C243  1  0.71390000  0.53485000  0.16275000  1.0 0.1313927167
C  C244  1  0.78610000  0.46515000  0.66275000  1.0 0.1313927167
C  C245  1  0.09140000  0.94780000  0.38700000  1.0 -0.461003657
C  C246  1  0.40860000  0.05220000  0.88700000  1.0 -0.461003657
C  C247  1  0.90860000  0.44780000  0.11300000  1.0 -0.461003657
C  C248  1  0.59140000  0.55220000  0.61300000  1.0 -0.461003657
C  C249  1  0.21140000  0.92790000  0.48000000  1.0 -0.461003657
C  C250  1  0.28860000  0.07210000  0.98000000  1.0 -0.461003657
C  C251  1  0.78860000  0.42790000  0.02000000  1.0 -0.461003657
C  C252  1  0.71140000  0.57210000  0.52000000  1.0 -0.461003657
N  N1  1  0.23950000  0.13900000  0.10166000  1.0 -0.3899960817
N  N2  1  0.26050000  0.86100000  0.60166000  1.0 -0.3899960817
N  N3  1  0.76050000  0.63900000  0.39834000  1.0 -0.3899960817
N  N4  1  0.73950000  0.36100000  0.89834000  1.0 -0.3899960817
N  N5  1  0.18804000  0.12894000  0.24776000  1.0 -0.300870806
N  N6  1  0.31196000  0.87106000  0.74776000  1.0 -0.300870806
N  N7  1  0.81196000  0.62894000  0.25224000  1.0 -0.300870806
N  N8  1  0.68804000  0.37106000  0.75224000  1.0 -0.300870806
N  N9  1  0.23760000  0.02439000  0.20411000  1.0 -0.300870806
N  N10  1  0.26240000  0.97561000  0.70411000  1.0 -0.300870806
N  N11  1  0.76240000  0.52439000  0.29589000  1.0 -0.300870806
N  N12  1  0.73760000  0.47561000  0.79589000  1.0 -0.300870806
N  N13  1  0.40608000  0.07509000  0.19266000  1.0 -0.2916275487
N  N14  1  0.09392000  0.92491000  0.69266000  1.0 -0.2916275487
N  N15  1  0.59392000  0.57509000  0.30734000  1.0 -0.2916275487
N  N16  1  0.90608000  0.42491000  0.80734000  1.0 -0.2916275487
N  N17  1  0.33248000  0.17717000  0.23001000  1.0 -0.2576279715
N  N18  1  0.16752000  0.82283000  0.73001000  1.0 -0.2576279715
N  N19  1  0.66752000  0.67717000  0.26999000  1.0 -0.2576279715
N  N20  1  0.83248000  0.32283000  0.76999000  1.0 -0.2576279715
N  N21  1  0.96800000  0.30870000  0.18450000  1.0 -0.5802122951
N  N22  1  0.53200000  0.69130000  0.68450000  1.0 -0.5802122951
N  N23  1  0.03200000  0.80870000  0.31550000  1.0 -0.5802122951
N  N24  1  0.46800000  0.19130000  0.81550000  1.0 -0.5802122951
N  N25  1  0.89240000  0.02202000  0.41221000  1.0 -0.6004752965
N  N26  1  0.60760000  0.97798000  0.91221000  1.0 -0.6004752965
N  N27  1  0.10760000  0.52202000  0.08779000  1.0 -0.6004752965
N  N28  1  0.39240000  0.47798000  0.58779000  1.0 -0.6004752965
N  N29  1  0.08280000  0.05725000  0.06836000  1.0 -0.5802122951
N  N30  1  0.41720000  0.94275000  0.56836000  1.0 -0.5802122951
N  N31  1  0.91720000  0.55725000  0.43164000  1.0 -0.5802122951
N  N32  1  0.58280000  0.44275000  0.93164000  1.0 -0.5802122951
N  N33  1  0.34470000  0.84170000  0.36300000  1.0 -0.6004752965
N  N34  1  0.15530000  0.15830000  0.86300000  1.0 -0.6004752965
N  N35  1  0.65530000  0.34170000  0.13700000  1.0 -0.6004752965
N  N36  1  0.84470000  0.65830000  0.63700000  1.0 -0.6004752965
N  N37  1  0.78310000  0.12219000  0.14101000  1.0 -0.5802122951
N  N38  1  0.71690000  0.87781000  0.64101000  1.0 -0.5802122951
N  N39  1  0.21690000  0.62219000  0.35899000  1.0 -0.5802122951
N  N40  1  0.28310000  0.37781000  0.85899000  1.0 -0.5802122951
N  N41  1  0.51710000  0.32337000  0.41018000  1.0 -0.3307614961
N  N42  1  0.98290000  0.67663000  0.91018000  1.0 -0.3307614961
N  N43  1  0.48290000  0.82337000  0.08982000  1.0 -0.3307614961
N  N44  1  0.01710000  0.17663000  0.58982000  1.0 -0.3307614961
N  N45  1  0.18120000  0.40717000  0.30358000  1.0 -0.6004752965
N  N46  1  0.31880000  0.59283000  0.80358000  1.0 -0.6004752965
N  N47  1  0.81880000  0.90717000  0.19642000  1.0 -0.6004752965
N  N48  1  0.68120000  0.09283000  0.69642000  1.0 -0.6004752965
N  N49  1  0.42040000  0.05301000  0.36842000  1.0 -0.0706677438
N  N50  1  0.07960000  0.94699000  0.86842000  1.0 -0.0706677438
N  N51  1  0.57960000  0.55301000  0.13158000  1.0 -0.0706677438
N  N52  1  0.92040000  0.44699000  0.63158000  1.0 -0.0706677438
N  N53  1  0.32976000  0.06980000  0.29641000  1.0 -0.2916275487
N  N54  1  0.17024000  0.93020000  0.79641000  1.0 -0.2916275487
N  N55  1  0.67024000  0.56980000  0.20359000  1.0 -0.2916275487
N  N56  1  0.82976000  0.43020000  0.70359000  1.0 -0.2916275487
Cl  Cl1  1  0.22645000  0.46224000  0.96941000  1.0 -0.6513254494
Cl  Cl2  1  0.27355000  0.53776000  0.46941000  1.0 -0.6513254494
Cl  Cl3  1  0.77355000  0.96224000  0.53059000  1.0 -0.6513254494
Cl  Cl4  1  0.72645000  0.03776000  0.03059000  1.0 -0.6513254494
Cl  Cl5  1  0.60912000  0.08405000  0.82271000  1.0 -0.65944466
Cl  Cl6  1  0.89088000  0.91595000  0.32271000  1.0 -0.65944466
Cl  Cl7  1  0.39088000  0.58405000  0.67729000  1.0 -0.65944466
Cl  Cl8  1  0.10912000  0.41595000  0.17729000  1.0 -0.65944466
O  O1  1  0.92054000  0.22183000  0.21202000  1.0 -0.5802122951
O  O2  1  0.57946000  0.77817000  0.71202000  1.0 -0.5802122951
O  O3  1  0.07946000  0.72183000  0.28798000  1.0 -0.5802122951
O  O4  1  0.42054000  0.27817000  0.78798000  1.0 -0.5802122951
O  O5  1  0.91237000  0.11930000  0.43175000  1.0 -0.5496532844
O  O6  1  0.58763000  0.88070000  0.93175000  1.0 -0.5496532844
O  O7  1  0.08763000  0.61930000  0.06825000  1.0 -0.5496532844
O  O8  1  0.41237000  0.38070000  0.56825000  1.0 -0.5496532844
O  O9  1  0.01220000  0.97220000  0.05072000  1.0 -0.5496532844
O  O10  1  0.48780000  0.02780000  0.55072000  1.0 -0.5496532844
O  O11  1  0.98780000  0.47220000  0.44928000  1.0 -0.5496532844
O  O12  1  0.51220000  0.52780000  0.94928000  1.0 -0.5496532844
O  O13  1  0.24290000  0.78931000  0.31604000  1.0 -0.6422884465
O  O14  1  0.25710000  0.21069000  0.81604000  1.0 -0.6422884465
O  O15  1  0.75710000  0.28931000  0.18396000  1.0 -0.6422884465
O  O16  1  0.74290000  0.71069000  0.68396000  1.0 -0.6422884465
O  O17  1  0.76441000  0.15054000  0.23125000  1.0 -0.6165813358
O  O18  1  0.73559000  0.84946000  0.73125000  1.0 -0.6165813358
O  O19  1  0.23559000  0.65054000  0.26875000  1.0 -0.6165813358
O  O20  1  0.26441000  0.34946000  0.76875000  1.0 -0.6165813358
O  O21  1  0.62426000  0.31334000  0.34548000  1.0 -0.5265995414
O  O22  1  0.87574000  0.68666000  0.84548000  1.0 -0.5265995414
O  O23  1  0.37574000  0.81334000  0.15452000  1.0 -0.5265995414
O  O24  1  0.12426000  0.18666000  0.65452000  1.0 -0.5265995414
O  O25  1  0.26978000  0.34735000  0.35300000  1.0 -0.5869653226
O  O26  1  0.23022000  0.65265000  0.85300000  1.0 -0.5869653226
O  O27  1  0.73022000  0.84735000  0.14700000  1.0 -0.5869653226
O  O28  1  0.76978000  0.15265000  0.64700000  1.0 -0.5869653226
O  O29  1  0.57985000  0.20307000  0.46053000  1.0 -0.4694162847
O  O30  1  0.92015000  0.79693000  0.96053000  1.0 -0.4694162847
O  O31  1  0.42015000  0.70307000  0.03947000  1.0 -0.4694162847
O  O32  1  0.07985000  0.29693000  0.53947000  1.0 -0.461003657
O  O33  1  0.58485000  0.28983000  0.52243000  1.0 -0.4439193806
O  O34  1  0.91515000  0.71017000  0.02243000  1.0 -0.4473083914
O  O35  1  0.41515000  0.78983000  0.97757000  1.0 -0.4439193806
O  O36  1  0.08485000  0.21017000  0.47757000  1.0 -0.4439193806
O  O37  1  0.68948000  0.20553000  0.53912000  1.0 -0.8385549784
O  O38  1  0.81052000  0.79447000  0.03912000  1.0 -0.8385549784
O  O39  1  0.31052000  0.70553000  0.96088000  1.0 -0.8385549784
O  O40  1  0.18948000  0.29447000  0.46088000  1.0 -0.8385549784
O  O41  1  0.52861000  0.19567000  0.56306000  1.0 -0.7264549733
O  O42  1  0.97139000  0.80433000  0.06306000  1.0 -0.7264549733
O  O43  1  0.47139000  0.69567000  0.93694000  1.0 -0.7247173191
O  O44  1  0.02861000  0.30433000  0.43694000  1.0 -0.7247173191
O  O45  1  0.56820000  0.07260000  0.37429000  1.0 -0.2535288409
O  O46  1  0.93180000  0.92740000  0.87429000  1.0 -0.2535288409
O  O47  1  0.43180000  0.57260000  0.12571000  1.0 -0.2535288409
O  O48  1  0.06820000  0.42740000  0.62571000  1.0 -0.2535288409
O  O49  1  0.42877000  0.16169000  0.40831000  1.0 -0.4694162847
O  O50  1  0.07123000  0.83831000  0.90831000  1.0 -0.4694162847
O  O51  1  0.57123000  0.66169000  0.09169000  1.0 -0.4694162847
O  O52  1  0.92877000  0.33831000  0.59169000  1.0 -0.4694162847
O  O53  1  0.73926000  0.09412000  0.33934000  1.0 -0.4473083914
O  O54  1  0.76074000  0.90588000  0.83934000  1.0 -0.4473083914
O  O55  1  0.26074000  0.59412000  0.16066000  1.0 -0.4473083914
O  O56  1  0.23926000  0.40588000  0.66066000  1.0 -0.4473083914
O  O57  1  0.77940000  0.25165000  0.31737000  1.0 -0.8238621156
O  O58  1  0.72060000  0.74835000  0.81737000  1.0 -0.8238621156
O  O59  1  0.22060000  0.75165000  0.18263000  1.0 -0.8259542585
O  O60  1  0.27940000  0.24835000  0.68263000  1.0 -0.8238621156
O  O61  1  0.33088000  0.40199000  0.46608000  1.0 -0.8385549784
O  O62  1  0.16912000  0.59801000  0.96608000  1.0 -0.8385549784
O  O63  1  0.66912000  0.90199000  0.03392000  1.0 -0.8385549784
O  O64  1  0.83088000  0.09801000  0.53392000  1.0 -0.8385549784
O  O65  1  0.15230000  0.43545000  0.42372000  1.0 -0.8385549784
O  O66  1  0.34770000  0.56455000  0.92372000  1.0 -0.8385549784
O  O67  1  0.84770000  0.93545000  0.07628000  1.0 -0.8385549784
O  O68  1  0.65230000  0.06455000  0.57628000  1.0 -0.8385549784
