# DDEC6 charges by PACMAN v1.1 (https://github.com/mtap-research/PACMAN-charge/)
data_WIKYAQ_ASR_pacman
_symmetry_space_group_name_H-M   'P 1'
_cell_length_a   16.01500000
_cell_length_b   21.14600000
_cell_length_c   23.84300000
_cell_angle_alpha   90.00000000
_cell_angle_beta   90.00000000
_cell_angle_gamma   90.00000000
_symmetry_Int_Tables_number   1
_chemical_formula_structural   KCoPH88C63N14ClO14
_chemical_formula_sum   'K4 Co4 P4 H352 C252 N56 Cl4 O56'
_cell_volume   8074.50800917
_cell_formula_units_Z   4
loop_
 _symmetry_equiv_pos_site_id
 _symmetry_equiv_pos_as_xyz
  1  'x, y, z'
loop_
 _atom_site_type_symbol
 _atom_site_label
 _atom_site_symmetry_multiplicity
 _atom_site_fract_x
 _atom_site_fract_y
 _atom_site_fract_z
 _atom_site_occupancy
 _atom_site_charge
K  K1  1  0.88099000  0.90540000  0.07163000  1.0 0.8596914633
K  K2  1  0.61901000  0.09460000  0.57163000  1.0 0.8596914633
K  K3  1  0.11901000  0.40540000  0.42837000  1.0 0.8596914633
K  K4  1  0.38099000  0.59460000  0.92837000  1.0 0.8596914633
Co  Co1  1  0.26692000  0.11980000  0.21419000  1.0 0.4244569017
Co  Co2  1  0.23308000  0.88020000  0.71419000  1.0 0.4264431967
Co  Co3  1  0.73308000  0.61980000  0.28581000  1.0 0.4244569017
Co  Co4  1  0.76692000  0.38020000  0.78581000  1.0 0.4244569017
P  P1  1  0.50268000  0.25978000  0.54234000  1.0 1.3693040385
P  P2  1  0.99732000  0.74022000  0.04234000  1.0 1.3693040385
P  P3  1  0.49732000  0.75978000  0.95766000  1.0 1.3693040385
P  P4  1  0.00268000  0.24022000  0.45766000  1.0 1.3693040385
H  H1  1  0.96670000  0.14420000  0.21250000  1.0 0.099980051
H  H2  1  0.53330000  0.85580000  0.71250000  1.0 0.099980051
H  H3  1  0.03330000  0.64420000  0.28750000  1.0 0.099980051
H  H4  1  0.46670000  0.35580000  0.78750000  1.0 0.099980051
H  H5  1  0.27630000  0.89770000  0.15520000  1.0 0.1085452306
H  H6  1  0.22370000  0.10230000  0.65520000  1.0 0.1085452306
H  H7  1  0.72370000  0.39770000  0.34480000  1.0 0.1085452306
H  H8  1  0.77630000  0.60230000  0.84480000  1.0 0.1085452306
H  H9  1  0.40660000  0.96070000  0.17050000  1.0 0.1590412506
H  H10  1  0.09340000  0.03930000  0.67050000  1.0 0.1590412506
H  H11  1  0.59340000  0.46070000  0.32950000  1.0 0.1590412506
H  H12  1  0.90660000  0.53930000  0.82950000  1.0 0.1590412506
H  H13  1  0.56830000  0.15240000  0.17220000  1.0 0.099980051
H  H14  1  0.93170000  0.84760000  0.67220000  1.0 0.099980051
H  H15  1  0.43170000  0.65240000  0.32780000  1.0 0.099980051
H  H16  1  0.06830000  0.34760000  0.82780000  1.0 0.099980051
H  H17  1  0.23660000  0.30090000  0.30260000  1.0 0.090008073
H  H18  1  0.26340000  0.69910000  0.80260000  1.0 0.090008073
H  H19  1  0.76340000  0.80090000  0.19740000  1.0 0.090008073
H  H20  1  0.73660000  0.19910000  0.69740000  1.0 0.090008073
H  H21  1  0.18930000  0.25390000  0.19240000  1.0 0.090008073
H  H22  1  0.31070000  0.74610000  0.69240000  1.0 0.090008073
H  H23  1  0.81070000  0.75390000  0.30760000  1.0 0.090008073
H  H24  1  0.68930000  0.24610000  0.80760000  1.0 0.090008073
H  H25  1  0.21780000  0.19050000  0.32940000  1.0 0.1385911208
H  H26  1  0.28220000  0.80950000  0.82940000  1.0 0.1385911208
H  H27  1  0.78220000  0.69050000  0.17060000  1.0 0.1385911208
H  H28  1  0.71780000  0.30950000  0.67060000  1.0 0.1385911208
H  H29  1  0.12540000  0.16380000  0.33930000  1.0 0.1484910401
H  H30  1  0.37460000  0.83620000  0.83930000  1.0 0.1484910401
H  H31  1  0.87460000  0.66380000  0.16070000  1.0 0.1484910401
H  H32  1  0.62540000  0.33620000  0.66070000  1.0 0.1484910401
H  H33  1  0.14260000  0.23840000  0.34150000  1.0 0.1590412506
H  H34  1  0.35740000  0.76160000  0.84150000  1.0 0.1590412506
H  H35  1  0.85740000  0.73840000  0.15850000  1.0 0.1590412506
H  H36  1  0.64260000  0.26160000  0.65850000  1.0 0.1590412506
H  H37  1  0.03190000  0.29630000  0.29400000  1.0 0.1295944394
H  H38  1  0.46810000  0.70370000  0.79400000  1.0 0.1295944394
H  H39  1  0.96810000  0.79630000  0.20600000  1.0 0.1295944394
H  H40  1  0.53190000  0.20370000  0.70600000  1.0 0.1295944394
H  H41  1  0.99810000  0.23430000  0.32500000  1.0 0.1484910401
H  H42  1  0.50190000  0.76570000  0.82500000  1.0 0.1484910401
H  H43  1  0.00190000  0.73430000  0.17500000  1.0 0.1484910401
H  H44  1  0.49810000  0.26570000  0.67500000  1.0 0.1484910401
H  H45  1  0.94420000  0.26620000  0.27610000  1.0 0.1385911208
H  H46  1  0.55580000  0.73380000  0.77610000  1.0 0.1385911208
H  H47  1  0.05580000  0.76620000  0.22390000  1.0 0.1385911208
H  H48  1  0.44420000  0.23380000  0.72390000  1.0 0.1385911208
H  H49  1  0.06190000  0.28750000  0.18620000  1.0 0.1385911208
H  H50  1  0.43810000  0.71250000  0.68620000  1.0 0.1385911208
H  H51  1  0.93810000  0.78750000  0.31380000  1.0 0.1385911208
H  H52  1  0.56190000  0.21250000  0.81380000  1.0 0.1385911208
H  H53  1  0.07240000  0.21880000  0.15900000  1.0 0.1295944394
H  H54  1  0.42760000  0.78120000  0.65900000  1.0 0.1295944394
H  H55  1  0.92760000  0.71880000  0.34100000  1.0 0.1295944394
H  H56  1  0.57240000  0.28120000  0.84100000  1.0 0.1295944394
H  H57  1  0.89190000  0.24110000  0.09550000  1.0 0.3132048621
H  H58  1  0.60810000  0.75890000  0.59550000  1.0 0.3132048621
H  H59  1  0.10810000  0.74110000  0.40450000  1.0 0.3132048621
H  H60  1  0.39190000  0.25890000  0.90450000  1.0 0.3132048621
H  H61  1  0.98520000  0.22800000  0.08990000  1.0 0.3006130046
H  H62  1  0.51480000  0.77200000  0.58990000  1.0 0.3006130046
H  H63  1  0.01480000  0.72800000  0.41010000  1.0 0.3006130046
H  H64  1  0.48520000  0.27200000  0.91010000  1.0 0.3006130046
H  H65  1  0.00990000  0.12960000  0.32780000  1.0 0.099980051
H  H66  1  0.49010000  0.87040000  0.82780000  1.0 0.099980051
H  H67  1  0.99010000  0.62960000  0.17220000  1.0 0.099980051
H  H68  1  0.50990000  0.37040000  0.67220000  1.0 0.099980051
H  H69  1  0.98720000  0.06780000  0.29230000  1.0 0.090008073
H  H70  1  0.51280000  0.93220000  0.79230000  1.0 0.090008073
H  H71  1  0.01280000  0.56780000  0.20770000  1.0 0.090008073
H  H72  1  0.48720000  0.43220000  0.70770000  1.0 0.090008073
H  H73  1  0.87490000  0.17170000  0.31200000  1.0 0.1295944394
H  H74  1  0.62510000  0.82830000  0.81200000  1.0 0.1295944394
H  H75  1  0.12510000  0.67170000  0.18800000  1.0 0.1295944394
H  H76  1  0.37490000  0.32830000  0.68800000  1.0 0.1295944394
H  H77  1  0.85190000  0.11330000  0.27200000  1.0 0.1204823476
H  H78  1  0.64810000  0.88670000  0.77200000  1.0 0.1204823476
H  H79  1  0.14810000  0.61330000  0.22800000  1.0 0.1204823476
H  H80  1  0.35190000  0.38670000  0.72800000  1.0 0.1204823476
H  H81  1  0.83340000  0.09790000  0.43410000  1.0 0.3168777837
H  H82  1  0.66666667  0.90210000  0.93410000  1.0 0.3168777837
H  H83  1  0.16660000  0.59790000  0.06590000  1.0 0.3168777837
H  H84  1  0.33340000  0.40210000  0.56590000  1.0 0.3168777837
H  H85  1  0.87030000  0.15720000  0.40740000  1.0 0.3272826596
H  H86  1  0.62970000  0.84280000  0.90740000  1.0 0.3272826596
H  H87  1  0.12970000  0.65720000  0.09260000  1.0 0.3272826596
H  H88  1  0.37030000  0.34280000  0.59260000  1.0 0.3272826596
H  H89  1  0.00040000  0.98960000  0.15090000  1.0 0.1204823476
H  H90  1  0.49960000  0.01040000  0.65090000  1.0 0.1204823476
H  H91  1  0.99960000  0.48960000  0.34910000  1.0 0.1204823476
H  H92  1  0.50040000  0.51040000  0.84910000  1.0 0.1204823476
H  H93  1  0.96630000  0.06050000  0.15600000  1.0 0.1385911208
H  H94  1  0.53370000  0.93950000  0.65600000  1.0 0.1385911208
H  H95  1  0.03370000  0.56050000  0.34400000  1.0 0.1385911208
H  H96  1  0.46630000  0.43950000  0.84400000  1.0 0.1385911208
H  H97  1  0.96280000  0.01430000  0.20910000  1.0 0.1385911208
H  H98  1  0.53720000  0.98570000  0.70910000  1.0 0.1385911208
H  H99  1  0.03720000  0.51430000  0.29090000  1.0 0.1385911208
H  H100  1  0.46280000  0.48570000  0.79090000  1.0 0.1385911208
H  H101  1  0.07150000  0.90580000  0.20990000  1.0 0.1385911208
H  H102  1  0.42850000  0.09420000  0.70990000  1.0 0.1385911208
H  H103  1  0.92850000  0.40580000  0.29010000  1.0 0.1385911208
H  H104  1  0.57150000  0.59420000  0.79010000  1.0 0.1385911208
H  H105  1  0.11710000  0.85560000  0.17010000  1.0 0.1484910401
H  H106  1  0.38290000  0.14440000  0.67010000  1.0 0.1484910401
H  H107  1  0.88290000  0.35560000  0.32990000  1.0 0.1484910401
H  H108  1  0.61710000  0.64440000  0.82990000  1.0 0.1484910401
H  H109  1  0.04800000  0.90220000  0.14480000  1.0 0.1295944394
H  H110  1  0.45200000  0.09780000  0.64480000  1.0 0.1295944394
H  H111  1  0.95200000  0.40220000  0.35520000  1.0 0.1295944394
H  H112  1  0.54800000  0.59780000  0.85520000  1.0 0.1295944394
H  H113  1  0.22570000  0.98040000  0.08760000  1.0 0.1295944394
H  H114  1  0.27430000  0.01960000  0.58760000  1.0 0.1295944394
H  H115  1  0.77430000  0.48040000  0.41240000  1.0 0.1295944394
H  H116  1  0.72570000  0.51960000  0.91240000  1.0 0.1295944394
H  H117  1  0.18500000  0.91230000  0.07800000  1.0 0.1484910401
H  H118  1  0.31500000  0.08770000  0.57800000  1.0 0.1484910401
H  H119  1  0.81500000  0.41230000  0.42200000  1.0 0.1484910401
H  H120  1  0.68500000  0.58770000  0.92200000  1.0 0.1484910401
H  H121  1  0.06590000  0.06400000  0.03320000  1.0 0.3272826596
H  H122  1  0.43410000  0.93600000  0.53320000  1.0 0.3272826596
H  H123  1  0.93410000  0.56400000  0.46680000  1.0 0.3272826596
H  H124  1  0.56590000  0.43600000  0.96680000  1.0 0.3272826596
H  H125  1  0.15240000  0.06620000  0.05980000  1.0 0.3168777837
H  H126  1  0.34760000  0.93380000  0.55980000  1.0 0.3168777837
H  H127  1  0.84760000  0.56620000  0.44020000  1.0 0.3168777837
H  H128  1  0.65240000  0.43380000  0.94020000  1.0 0.3168777837
H  H129  1  0.19980000  0.91790000  0.26390000  1.0 0.099980051
H  H130  1  0.30020000  0.08210000  0.76390000  1.0 0.099980051
H  H131  1  0.80020000  0.41790000  0.23610000  1.0 0.099980051
H  H132  1  0.69980000  0.58210000  0.73610000  1.0 0.099980051
H  H133  1  0.22010000  0.85060000  0.23630000  1.0 0.090008073
H  H134  1  0.27990000  0.14940000  0.73630000  1.0 0.090008073
H  H135  1  0.77990000  0.35060000  0.26370000  1.0 0.090008073
H  H136  1  0.72010000  0.64940000  0.76370000  1.0 0.090008073
H  H137  1  0.34440000  0.93730000  0.27540000  1.0 0.1295944394
H  H138  1  0.15560000  0.06270000  0.77540000  1.0 0.1295944394
H  H139  1  0.65560000  0.43730000  0.22460000  1.0 0.1295944394
H  H140  1  0.84440000  0.56270000  0.72460000  1.0 0.1295944394
H  H141  1  0.36550000  0.87100000  0.24690000  1.0 0.1385911208
H  H142  1  0.13450000  0.12900000  0.74690000  1.0 0.1385911208
H  H143  1  0.63450000  0.37100000  0.25310000  1.0 0.1385911208
H  H144  1  0.86550000  0.62900000  0.75310000  1.0 0.1385911208
H  H145  1  0.26470000  0.80750000  0.37770000  1.0 0.3168777837
H  H146  1  0.23530000  0.19250000  0.87770000  1.0 0.3168777837
H  H147  1  0.73530000  0.30750000  0.12230000  1.0 0.3168777837
H  H148  1  0.76470000  0.69250000  0.62230000  1.0 0.3168777837
H  H149  1  0.22100000  0.82060000  0.32210000  1.0 0.3006130046
H  H150  1  0.27900000  0.17940000  0.82210000  1.0 0.3006130046
H  H151  1  0.77900000  0.32060000  0.17790000  1.0 0.3006130046
H  H152  1  0.72100000  0.67940000  0.67790000  1.0 0.3006130046
H  H153  1  0.56340000  0.08590000  0.08780000  1.0 0.1484910401
H  H154  1  0.93660000  0.91410000  0.58780000  1.0 0.1484910401
H  H155  1  0.43660000  0.58590000  0.41220000  1.0 0.1484910401
H  H156  1  0.06340000  0.41410000  0.91220000  1.0 0.1484910401
H  H157  1  0.47090000  0.11390000  0.09330000  1.0 0.1385911208
H  H158  1  0.02910000  0.88610000  0.59330000  1.0 0.1385911208
H  H159  1  0.52910000  0.61390000  0.40670000  1.0 0.1385911208
H  H160  1  0.97090000  0.38610000  0.90670000  1.0 0.1385911208
H  H161  1  0.48440000  0.04030000  0.08080000  1.0 0.1385911208
H  H162  1  0.01560000  0.95970000  0.58080000  1.0 0.1385911208
H  H163  1  0.51560000  0.54030000  0.41920000  1.0 0.1385911208
H  H164  1  0.98440000  0.45970000  0.91920000  1.0 0.1385911208
H  H165  1  0.55020000  0.98760000  0.21410000  1.0 0.1385911208
H  H166  1  0.94980000  0.01240000  0.71410000  1.0 0.1385911208
H  H167  1  0.44980000  0.48760000  0.28590000  1.0 0.1385911208
H  H168  1  0.05020000  0.51240000  0.78590000  1.0 0.1385911208
H  H169  1  0.62300000  0.01810000  0.17680000  1.0 0.1484910401
H  H170  1  0.87700000  0.98190000  0.67680000  1.0 0.1484910401
H  H171  1  0.37700000  0.51810000  0.32320000  1.0 0.1484910401
H  H172  1  0.12300000  0.48190000  0.82320000  1.0 0.1484910401
H  H173  1  0.55510000  0.97270000  0.14830000  1.0 0.1385911208
H  H174  1  0.94490000  0.02730000  0.64830000  1.0 0.1385911208
H  H175  1  0.44490000  0.47270000  0.35170000  1.0 0.1385911208
H  H176  1  0.05510000  0.52730000  0.85170000  1.0 0.1385911208
H  H177  1  0.55880000  0.15690000  0.27610000  1.0 0.090008073
H  H178  1  0.94120000  0.84310000  0.77610000  1.0 0.090008073
H  H179  1  0.44120000  0.65690000  0.22390000  1.0 0.090008073
H  H180  1  0.05880000  0.34310000  0.72390000  1.0 0.090008073
H  H181  1  0.53700000  0.08330000  0.27430000  1.0 0.099980051
H  H182  1  0.96300000  0.91670000  0.77430000  1.0 0.099980051
H  H183  1  0.46300000  0.58330000  0.22570000  1.0 0.099980051
H  H184  1  0.03700000  0.41670000  0.72570000  1.0 0.099980051
H  H185  1  0.68070000  0.10850000  0.29640000  1.0 0.1204823476
H  H186  1  0.81930000  0.89150000  0.79640000  1.0 0.1204823476
H  H187  1  0.31930000  0.60850000  0.20360000  1.0 0.1204823476
H  H188  1  0.18070000  0.39150000  0.70360000  1.0 0.1204823476
H  H189  1  0.66780000  0.05570000  0.24950000  1.0 0.1295944394
H  H190  1  0.83220000  0.94430000  0.74950000  1.0 0.1295944394
H  H191  1  0.33220000  0.55570000  0.25050000  1.0 0.1295944394
H  H192  1  0.16780000  0.44430000  0.75050000  1.0 0.1295944394
H  H193  1  0.75760000  0.21650000  0.20880000  1.0 0.3168777837
H  H194  1  0.74240000  0.78350000  0.70880000  1.0 0.3168777837
H  H195  1  0.24240000  0.71650000  0.29120000  1.0 0.3168777837
H  H196  1  0.25760000  0.28350000  0.79120000  1.0 0.3168777837
H  H197  1  0.69720000  0.21180000  0.25800000  1.0 0.3132048621
H  H198  1  0.80280000  0.78820000  0.75800000  1.0 0.3132048621
H  H199  1  0.30280000  0.71180000  0.24200000  1.0 0.3132048621
H  H200  1  0.19720000  0.28820000  0.74200000  1.0 0.3132048621
H  H201  1  0.55730000  0.24040000  0.19930000  1.0 0.1295944394
H  H202  1  0.94270000  0.75960000  0.69930000  1.0 0.1295944394
H  H203  1  0.44270000  0.74040000  0.30070000  1.0 0.1295944394
H  H204  1  0.05730000  0.25960000  0.80070000  1.0 0.1295944394
H  H205  1  0.52570000  0.27050000  0.25710000  1.0 0.1385911208
H  H206  1  0.97430000  0.72950000  0.75710000  1.0 0.1385911208
H  H207  1  0.47430000  0.77050000  0.24290000  1.0 0.1385911208
H  H208  1  0.02570000  0.22950000  0.74290000  1.0 0.1385911208
H  H209  1  0.49680000  0.30060000  0.19870000  1.0 0.1484910401
H  H210  1  0.00320000  0.69940000  0.69870000  1.0 0.1484910401
H  H211  1  0.50320000  0.80060000  0.30130000  1.0 0.1484910401
H  H212  1  0.99680000  0.19940000  0.80130000  1.0 0.1484910401
H  H213  1  0.38470000  0.33560000  0.16130000  1.0 0.1385911208
H  H214  1  0.11530000  0.66440000  0.66130000  1.0 0.1385911208
H  H215  1  0.61530000  0.83560000  0.33870000  1.0 0.1385911208
H  H216  1  0.88470000  0.16440000  0.83870000  1.0 0.1385911208
H  H217  1  0.32850000  0.39190000  0.18540000  1.0 0.1385911208
H  H218  1  0.17150000  0.60810000  0.68540000  1.0 0.1385911208
H  H219  1  0.67150000  0.89190000  0.31460000  1.0 0.1385911208
H  H220  1  0.82850000  0.10810000  0.81460000  1.0 0.1385911208
H  H221  1  0.28510000  0.33160000  0.15730000  1.0 0.1295944394
H  H222  1  0.21490000  0.66840000  0.65730000  1.0 0.1295944394
H  H223  1  0.71490000  0.83160000  0.34270000  1.0 0.1295944394
H  H224  1  0.78510000  0.16840000  0.84270000  1.0 0.1295944394
H  H225  1  0.35820000  0.39050000  0.28690000  1.0 0.099980051
H  H226  1  0.14180000  0.60950000  0.78690000  1.0 0.099980051
H  H227  1  0.64180000  0.89050000  0.21310000  1.0 0.099980051
H  H228  1  0.85820000  0.10950000  0.71310000  1.0 0.099980051
H  H229  1  0.43890000  0.35710000  0.26130000  1.0 0.099980051
H  H230  1  0.06110000  0.64290000  0.76130000  1.0 0.099980051
H  H231  1  0.56110000  0.85710000  0.23870000  1.0 0.099980051
H  H232  1  0.93890000  0.14290000  0.73870000  1.0 0.099980051
H  H233  1  0.35200000  0.32190000  0.36140000  1.0 0.1295944394
H  H234  1  0.14800000  0.67810000  0.86140000  1.0 0.1295944394
H  H235  1  0.64800000  0.82190000  0.13860000  1.0 0.1295944394
H  H236  1  0.85200000  0.17810000  0.63860000  1.0 0.1295944394
H  H237  1  0.41010000  0.27080000  0.33100000  1.0 0.1204823476
H  H238  1  0.08990000  0.72920000  0.83100000  1.0 0.1204823476
H  H239  1  0.58990000  0.77080000  0.16900000  1.0 0.1204823476
H  H240  1  0.91010000  0.22920000  0.66900000  1.0 0.1204823476
H  H241  1  0.41660000  0.36750000  0.43170000  1.0 0.2826126291
H  H242  1  0.08340000  0.63250000  0.93170000  1.0 0.2826126291
H  H243  1  0.58340000  0.86750000  0.06830000  1.0 0.2826126291
H  H244  1  0.91660000  0.13250000  0.56830000  1.0 0.2826126291
H  H245  1  0.19630000  0.38100000  0.20640000  1.0 0.1295944394
H  H246  1  0.30370000  0.61900000  0.70640000  1.0 0.1295944394
H  H247  1  0.80370000  0.88100000  0.29360000  1.0 0.1295944394
H  H248  1  0.69630000  0.11900000  0.79360000  1.0 0.1295944394
H  H249  1  0.12120000  0.35430000  0.24400000  1.0 0.1295944394
H  H250  1  0.37880000  0.64570000  0.74400000  1.0 0.1295944394
H  H251  1  0.87880000  0.85430000  0.25600000  1.0 0.1295944394
H  H252  1  0.62120000  0.14570000  0.75600000  1.0 0.1295944394
H  H253  1  0.20420000  0.50890000  0.28430000  1.0 0.3366406633
H  H254  1  0.29580000  0.49110000  0.78430000  1.0 0.3366406633
H  H255  1  0.79580000  0.00890000  0.21570000  1.0 0.3366406633
H  H256  1  0.70420000  0.99110000  0.71570000  1.0 0.3366406633
H  H257  1  0.19420000  0.48000000  0.22610000  1.0 0.3272826596
H  H258  1  0.30580000  0.52000000  0.72610000  1.0 0.3272826596
H  H259  1  0.80580000  0.98000000  0.27390000  1.0 0.3272826596
H  H260  1  0.69420000  0.02000000  0.77390000  1.0 0.3272826596
H  H261  1  0.57950000  0.41210000  0.42120000  1.0 0.1085452306
H  H262  1  0.92050000  0.58790000  0.92120000  1.0 0.1085452306
H  H263  1  0.42050000  0.91210000  0.07880000  1.0 0.1085452306
H  H264  1  0.07950000  0.08790000  0.57880000  1.0 0.1085452306
H  H265  1  0.51660000  0.43290000  0.46990000  1.0 0.1204823476
H  H266  1  0.98340000  0.56710000  0.96990000  1.0 0.1204823476
H  H267  1  0.48340000  0.93290000  0.03010000  1.0 0.1204823476
H  H268  1  0.01660000  0.06710000  0.53010000  1.0 0.1204823476
H  H269  1  0.59970000  0.31410000  0.46590000  1.0 0.0721018602
H  H270  1  0.90030000  0.68590000  0.96590000  1.0 0.0721018602
H  H271  1  0.40030000  0.81410000  0.03410000  1.0 0.0721018602
H  H272  1  0.09970000  0.18590000  0.53410000  1.0 0.0721018602
H  H273  1  0.63160000  0.42540000  0.53300000  1.0 0.1484910401
H  H274  1  0.86840000  0.57460000  0.03300000  1.0 0.1484910401
H  H275  1  0.36840000  0.92540000  0.96700000  1.0 0.1484910401
H  H276  1  0.13160000  0.07460000  0.46700000  1.0 0.1484910401
H  H277  1  0.69790000  0.39040000  0.49360000  1.0 0.1385911208
H  H278  1  0.80210000  0.60960000  0.99360000  1.0 0.1385911208
H  H279  1  0.30210000  0.89040000  0.00640000  1.0 0.1385911208
H  H280  1  0.19790000  0.10960000  0.50640000  1.0 0.1385911208
H  H281  1  0.66780000  0.35770000  0.55060000  1.0 0.1590412506
H  H282  1  0.83220000  0.64230000  0.05060000  1.0 0.1590412506
H  H283  1  0.33220000  0.85770000  0.94940000  1.0 0.1590412506
H  H284  1  0.16780000  0.14230000  0.44940000  1.0 0.1590412506
H  H285  1  0.43320000  0.05170000  0.44010000  1.0 0.1085452306
H  H286  1  0.06680000  0.94830000  0.94010000  1.0 0.1085452306
H  H287  1  0.56680000  0.55170000  0.05990000  1.0 0.1085452306
H  H288  1  0.93320000  0.44830000  0.55990000  1.0 0.1085452306
H  H289  1  0.35820000  0.13240000  0.47990000  1.0 0.090008073
H  H290  1  0.14180000  0.86760000  0.97990000  1.0 0.090008073
H  H291  1  0.64180000  0.63240000  0.02010000  1.0 0.090008073
H  H292  1  0.85820000  0.36760000  0.52010000  1.0 0.090008073
H  H293  1  0.49920000  0.14600000  0.49890000  1.0 0.0778532847
H  H294  1  0.00080000  0.85400000  0.99890000  1.0 0.0778532847
H  H295  1  0.50080000  0.64600000  0.00110000  1.0 0.0778532847
H  H296  1  0.99920000  0.35400000  0.50110000  1.0 0.0778532847
H  H297  1  0.52690000  0.19850000  0.38860000  1.0 0.099980051
H  H298  1  0.97310000  0.80150000  0.88860000  1.0 0.099980051
H  H299  1  0.47310000  0.69850000  0.11140000  1.0 0.099980051
H  H300  1  0.02690000  0.30150000  0.61140000  1.0 0.099980051
H  H301  1  0.65440000  0.14510000  0.39030000  1.0 0.1085452306
H  H302  1  0.84560000  0.85490000  0.89030000  1.0 0.1085452306
H  H303  1  0.34560000  0.64510000  0.10970000  1.0 0.1085452306
H  H304  1  0.15440000  0.35490000  0.60970000  1.0 0.1085452306
H  H305  1  0.64790000  0.18940000  0.44460000  1.0 0.1204823476
H  H306  1  0.85210000  0.81060000  0.94460000  1.0 0.1204823476
H  H307  1  0.35210000  0.68940000  0.05540000  1.0 0.1204823476
H  H308  1  0.14790000  0.31060000  0.55540000  1.0 0.1204823476
H  H309  1  0.32630000  0.21320000  0.42930000  1.0 0.3557237758
H  H310  1  0.17370000  0.78680000  0.92930000  1.0 0.3557237758
H  H311  1  0.67370000  0.71320000  0.07070000  1.0 0.3557237758
H  H312  1  0.82630000  0.28680000  0.57070000  1.0 0.3557237758
H  H313  1  0.68600000  0.09740000  0.47170000  1.0 0.3168777837
H  H314  1  0.81400000  0.90260000  0.97170000  1.0 0.3168777837
H  H315  1  0.31400000  0.59740000  0.02830000  1.0 0.3168777837
H  H316  1  0.18600000  0.40260000  0.52830000  1.0 0.3168777837
H  H317  1  0.39650000  0.13340000  0.30790000  1.0 0.1204823476
H  H318  1  0.10350000  0.86660000  0.80790000  1.0 0.1204823476
H  H319  1  0.60350000  0.63340000  0.19210000  1.0 0.1204823476
H  H320  1  0.89650000  0.36660000  0.69210000  1.0 0.1204823476
H  H321  1  0.13150000  0.02610000  0.29480000  1.0 0.1295944394
H  H322  1  0.36850000  0.97390000  0.79480000  1.0 0.1295944394
H  H323  1  0.86850000  0.52610000  0.20520000  1.0 0.1295944394
H  H324  1  0.63150000  0.47390000  0.70520000  1.0 0.1295944394
H  H325  1  0.30430000  0.98680000  0.45120000  1.0 0.1295944394
H  H326  1  0.19570000  0.01320000  0.95120000  1.0 0.1295944394
H  H327  1  0.69570000  0.48680000  0.04880000  1.0 0.1295944394
H  H328  1  0.80430000  0.51320000  0.54880000  1.0 0.1295944394
H  H329  1  0.02960000  0.95800000  0.32650000  1.0 0.1385911208
H  H330  1  0.47040000  0.04200000  0.82650000  1.0 0.1385911208
H  H331  1  0.97040000  0.45800000  0.17350000  1.0 0.1385911208
H  H332  1  0.52960000  0.54200000  0.67350000  1.0 0.1385911208
H  H333  1  0.02130000  0.95660000  0.39340000  1.0 0.1484910401
H  H334  1  0.47870000  0.04340000  0.89340000  1.0 0.1484910401
H  H335  1  0.97870000  0.45660000  0.10660000  1.0 0.1484910401
H  H336  1  0.52130000  0.54340000  0.60660000  1.0 0.1484910401
H  H337  1  0.06400000  0.89860000  0.36110000  1.0 0.1295944394
H  H338  1  0.43600000  0.10140000  0.86110000  1.0 0.1295944394
H  H339  1  0.93600000  0.39860000  0.13890000  1.0 0.1295944394
H  H340  1  0.56400000  0.60140000  0.63890000  1.0 0.1295944394
H  H341  1  0.20660000  0.91960000  0.49080000  1.0 0.1385911208
H  H342  1  0.29340000  0.08040000  0.99080000  1.0 0.1385911208
H  H343  1  0.79340000  0.41960000  0.00920000  1.0 0.1385911208
H  H344  1  0.70660000  0.58040000  0.50920000  1.0 0.1385911208
H  H345  1  0.15500000  0.87840000  0.44640000  1.0 0.1295944394
H  H346  1  0.34500000  0.12160000  0.94640000  1.0 0.1295944394
H  H347  1  0.84500000  0.37840000  0.05360000  1.0 0.1295944394
H  H348  1  0.65500000  0.62160000  0.55360000  1.0 0.1295944394
H  H349  1  0.11170000  0.93730000  0.47680000  1.0 0.1385911208
H  H350  1  0.38830000  0.06270000  0.97680000  1.0 0.1385911208
H  H351  1  0.88830000  0.43730000  0.02320000  1.0 0.1385911208
H  H352  1  0.61170000  0.56270000  0.52320000  1.0 0.1385911208
C  C1  1  0.24950000  0.14070000  0.13900000  1.0 -0.0829542132
C  C2  1  0.25050000  0.85930000  0.63900000  1.0 -0.0829542132
C  C3  1  0.75050000  0.64070000  0.36100000  1.0 -0.0829542132
C  C4  1  0.74950000  0.35930000  0.86100000  1.0 -0.0829542132
C  C5  1  0.14070000  0.20320000  0.25910000  1.0 0.2066604587
C  C6  1  0.35930000  0.79680000  0.75910000  1.0 0.2066604587
C  C7  1  0.85930000  0.70320000  0.24090000  1.0 0.2066604587
C  C8  1  0.64070000  0.29680000  0.74090000  1.0 0.2066604587
C  C9  1  0.04600000  0.21470000  0.24520000  1.0 0.1813241298
C  C10  1  0.45400000  0.78530000  0.74520000  1.0 0.1813241298
C  C11  1  0.95400000  0.71470000  0.25480000  1.0 0.1813241298
C  C12  1  0.54600000  0.28530000  0.75480000  1.0 0.1813241298
C  C13  1  0.01110000  0.14580000  0.24200000  1.0 -0.1066385062
C  C14  1  0.48890000  0.85420000  0.74200000  1.0 -0.1066385062
C  C15  1  0.98890000  0.64580000  0.25800000  1.0 -0.1066385062
C  C16  1  0.51110000  0.35420000  0.75800000  1.0 -0.1066385062
C  C17  1  0.08700000  0.10990000  0.22080000  1.0 0.1813241298
C  C18  1  0.41300000  0.89010000  0.72080000  1.0 0.1813241298
C  C19  1  0.91300000  0.60990000  0.27920000  1.0 0.1813241298
C  C20  1  0.58700000  0.39010000  0.77920000  1.0 0.1813241298
C  C21  1  0.08410000  0.04920000  0.19410000  1.0 0.0072346021
C  C22  1  0.41590000  0.95080000  0.69410000  1.0 0.0072346021
C  C23  1  0.91590000  0.54920000  0.30590000  1.0 0.0072346021
C  C24  1  0.58410000  0.45080000  0.80590000  1.0 0.0072346021
C  C25  1  0.15200000  0.01360000  0.18410000  1.0 0.0778532847
C  C26  1  0.34800000  0.98640000  0.68410000  1.0 0.0778532847
C  C27  1  0.84800000  0.51360000  0.31590000  1.0 0.0778532847
C  C28  1  0.65200000  0.48640000  0.81590000  1.0 0.0778532847
C  C29  1  0.16210000  0.94750000  0.15880000  1.0 0.1860525439
C  C30  1  0.33790000  0.05250000  0.65880000  1.0 0.1860525439
C  C31  1  0.83790000  0.44750000  0.34120000  1.0 0.1860525439
C  C32  1  0.66210000  0.55250000  0.84120000  1.0 0.1860525439
C  C33  1  0.24680000  0.92590000  0.18240000  1.0 -0.0988459961
C  C34  1  0.25320000  0.07410000  0.68240000  1.0 -0.0988459961
C  C35  1  0.75320000  0.42590000  0.31760000  1.0 -0.0988459961
C  C36  1  0.74680000  0.57410000  0.81760000  1.0 -0.0988459961
C  C37  1  0.29060000  0.98960000  0.18710000  1.0 0.2368624135
C  C38  1  0.20940000  0.01040000  0.68710000  1.0 0.2368624135
C  C39  1  0.70940000  0.48960000  0.31290000  1.0 0.2368624135
C  C40  1  0.79060000  0.51040000  0.81290000  1.0 0.2368624135
C  C41  1  0.37510000  0.99750000  0.17920000  1.0 -0.338055571
C  C42  1  0.12490000  0.00250000  0.67920000  1.0 -0.338055571
C  C43  1  0.62490000  0.49750000  0.32080000  1.0 -0.338055571
C  C44  1  0.87510000  0.50250000  0.82080000  1.0 -0.338055571
C  C45  1  0.41840000  0.05340000  0.18270000  1.0 0.2003470807
C  C46  1  0.08160000  0.94660000  0.68270000  1.0 0.2003470807
C  C47  1  0.58160000  0.55340000  0.31730000  1.0 0.2003470807
C  C48  1  0.91840000  0.44660000  0.81730000  1.0 0.2003470807
C  C49  1  0.50760000  0.06340000  0.16480000  1.0 0.2066604587
C  C50  1  0.99240000  0.93660000  0.66480000  1.0 0.2066604587
C  C51  1  0.49240000  0.56340000  0.33520000  1.0 0.2066604587
C  C52  1  0.00760000  0.43660000  0.83520000  1.0 0.2066604587
C  C53  1  0.53120000  0.12540000  0.19600000  1.0 -0.0888007936
C  C54  1  0.96880000  0.87460000  0.69600000  1.0 -0.0888007936
C  C55  1  0.46880000  0.62540000  0.30400000  1.0 -0.0888007936
C  C56  1  0.03120000  0.37460000  0.80400000  1.0 -0.0888007936
C  C57  1  0.44450000  0.15620000  0.20290000  1.0 0.1204823476
C  C58  1  0.05550000  0.84380000  0.70290000  1.0 0.1204823476
C  C59  1  0.55550000  0.65620000  0.29710000  1.0 0.1204823476
C  C60  1  0.94450000  0.34380000  0.79710000  1.0 0.1204823476
C  C61  1  0.43440000  0.21730000  0.21740000  1.0 -0.0024191381
C  C62  1  0.06560000  0.78270000  0.71740000  1.0 -0.0024191381
C  C63  1  0.56560000  0.71730000  0.28260000  1.0 -0.0024191381
C  C64  1  0.93440000  0.28270000  0.78260000  1.0 -0.0024191381
C  C65  1  0.35050000  0.24310000  0.22930000  1.0 0.1860525439
C  C66  1  0.14950000  0.75690000  0.72930000  1.0 0.1860525439
C  C67  1  0.64950000  0.74310000  0.27070000  1.0 0.1860525439
C  C68  1  0.85050000  0.25690000  0.77070000  1.0 0.1860525439
C  C69  1  0.32920000  0.31280000  0.23830000  1.0 0.1295944394
C  C70  1  0.17080000  0.68720000  0.73830000  1.0 0.1295944394
C  C71  1  0.67080000  0.81280000  0.26170000  1.0 0.1295944394
C  C72  1  0.82920000  0.18720000  0.76170000  1.0 0.1295944394
C  C73  1  0.23630000  0.30660000  0.26100000  1.0 -0.0123359581
C  C74  1  0.26370000  0.69340000  0.76100000  1.0 -0.0152413399
C  C75  1  0.76370000  0.80660000  0.23900000  1.0 -0.0152413399
C  C76  1  0.73630000  0.19340000  0.73900000  1.0 -0.0123359581
C  C77  1  0.20720000  0.24390000  0.23160000  1.0 -0.0123359581
C  C78  1  0.29280000  0.75610000  0.73160000  1.0 -0.0123359581
C  C79  1  0.79280000  0.74390000  0.26840000  1.0 -0.0123359581
C  C80  1  0.70720000  0.25610000  0.76840000  1.0 -0.0123359581
C  C81  1  0.15830000  0.19850000  0.32330000  1.0 -0.4696588741
C  C82  1  0.34170000  0.80150000  0.82330000  1.0 -0.4696588741
C  C83  1  0.84170000  0.69850000  0.17670000  1.0 -0.4696588741
C  C84  1  0.65830000  0.30150000  0.67670000  1.0 -0.4696588741
C  C85  1  0.00090000  0.25670000  0.28910000  1.0 -0.4825778704
C  C86  1  0.49910000  0.74330000  0.78910000  1.0 -0.4825778704
C  C87  1  0.99910000  0.75670000  0.21090000  1.0 -0.4825778704
C  C88  1  0.50090000  0.24330000  0.71090000  1.0 -0.4825778704
C  C89  1  0.03830000  0.24420000  0.18530000  1.0 -0.4194456936
C  C90  1  0.46170000  0.75580000  0.68530000  1.0 -0.4194456936
C  C91  1  0.96170000  0.74420000  0.31470000  1.0 -0.4194456936
C  C92  1  0.53830000  0.25580000  0.81470000  1.0 -0.4194456936
C  C93  1  0.95110000  0.24760000  0.16340000  1.0 0.527538888
C  C94  1  0.54890000  0.75240000  0.66340000  1.0 0.527538888
C  C95  1  0.04890000  0.74760000  0.33660000  1.0 0.527538888
C  C96  1  0.45110000  0.25240000  0.83660000  1.0 0.527538888
C  C97  1  0.97780000  0.11390000  0.29520000  1.0 -0.1507318245
C  C98  1  0.52220000  0.88610000  0.79520000  1.0 -0.1507318245
C  C99  1  0.02220000  0.61390000  0.20480000  1.0 -0.1507318245
C  C100  1  0.47780000  0.38610000  0.70480000  1.0 -0.1507318245
C  C101  1  0.88420000  0.12600000  0.30560000  1.0 -0.3323967979
C  C102  1  0.61580000  0.87400000  0.80560000  1.0 -0.3323967979
C  C103  1  0.11580000  0.62600000  0.19440000  1.0 -0.3323967979
C  C104  1  0.38420000  0.37400000  0.69440000  1.0 -0.3323967979
C  C105  1  0.85460000  0.08920000  0.35530000  1.0 0.5803022707
C  C106  1  0.64540000  0.91080000  0.85530000  1.0 0.5803022707
C  C107  1  0.14540000  0.58920000  0.14470000  1.0 0.5803022707
C  C108  1  0.35460000  0.41080000  0.64470000  1.0 0.5803022707
C  C109  1  0.99510000  0.02630000  0.17580000  1.0 -0.4194456936
C  C110  1  0.50490000  0.97370000  0.67580000  1.0 -0.4194456936
C  C111  1  0.00490000  0.52630000  0.32420000  1.0 -0.4194456936
C  C112  1  0.49510000  0.47370000  0.82420000  1.0 -0.4194456936
C  C113  1  0.09340000  0.89820000  0.17210000  1.0 -0.4696588741
C  C114  1  0.40660000  0.10180000  0.67210000  1.0 -0.4696588741
C  C115  1  0.90660000  0.39820000  0.32790000  1.0 -0.4696588741
C  C116  1  0.59340000  0.60180000  0.82790000  1.0 -0.4696588741
C  C117  1  0.17480000  0.95480000  0.09410000  1.0 -0.399661176
C  C118  1  0.32520000  0.04520000  0.59410000  1.0 -0.399661176
C  C119  1  0.82520000  0.45480000  0.40590000  1.0 -0.399661176
C  C120  1  0.67480000  0.54520000  0.90590000  1.0 -0.399661176
C  C121  1  0.10220000  0.98550000  0.06180000  1.0 0.5720531716
C  C122  1  0.39780000  0.01450000  0.56180000  1.0 0.5720531716
C  C123  1  0.89780000  0.48550000  0.43820000  1.0 0.5720531716
C  C124  1  0.60220000  0.51450000  0.93820000  1.0 0.5720531716
C  C125  1  0.24080000  0.89440000  0.24080000  1.0 -0.1669700668
C  C126  1  0.25920000  0.10560000  0.74080000  1.0 -0.1669700668
C  C127  1  0.75920000  0.39440000  0.25920000  1.0 -0.1669700668
C  C128  1  0.74080000  0.60560000  0.75920000  1.0 -0.1669700668
C  C129  1  0.32490000  0.89310000  0.27130000  1.0 -0.338055571
C  C130  1  0.17510000  0.10690000  0.77130000  1.0 -0.338055571
C  C131  1  0.67510000  0.39310000  0.22870000  1.0 -0.338055571
C  C132  1  0.82490000  0.60690000  0.72870000  1.0 -0.338055571
C  C133  1  0.32710000  0.86190000  0.32900000  1.0 0.5803022707
C  C134  1  0.17290000  0.13810000  0.82900000  1.0 0.5803022707
C  C135  1  0.67290000  0.36190000  0.17100000  1.0 0.5803022707
C  C136  1  0.82710000  0.63810000  0.67100000  1.0 0.5803022707
C  C137  1  0.50650000  0.07710000  0.10080000  1.0 -0.451138828
C  C138  1  0.99350000  0.92290000  0.60080000  1.0 -0.451138828
C  C139  1  0.49350000  0.57710000  0.39920000  1.0 -0.451138828
C  C140  1  0.00650000  0.42290000  0.89920000  1.0 -0.451138828
C  C141  1  0.56420000  0.00500000  0.17710000  1.0 -0.4594490548
C  C142  1  0.93580000  0.99500000  0.67710000  1.0 -0.4594490548
C  C143  1  0.43580000  0.50500000  0.32290000  1.0 -0.4594490548
C  C144  1  0.06420000  0.49500000  0.82290000  1.0 -0.4594490548
C  C145  1  0.56820000  0.11730000  0.25490000  1.0 -0.1614966319
C  C146  1  0.93180000  0.88270000  0.75490000  1.0 -0.1614966319
C  C147  1  0.43180000  0.61730000  0.24510000  1.0 -0.1614966319
C  C148  1  0.06820000  0.38270000  0.74510000  1.0 -0.1614966319
C  C149  1  0.66140000  0.10140000  0.25750000  1.0 -0.3633865491
C  C150  1  0.83860000  0.89860000  0.75750000  1.0 -0.3633865491
C  C151  1  0.33860000  0.60140000  0.24250000  1.0 -0.3633865491
C  C152  1  0.16140000  0.39860000  0.74250000  1.0 -0.3633865491
C  C153  1  0.71570000  0.13510000  0.22100000  1.0 0.5037900283
C  C154  1  0.78430000  0.86490000  0.72100000  1.0 0.5037900283
C  C155  1  0.28430000  0.63510000  0.27900000  1.0 0.5037900283
C  C156  1  0.21570000  0.36490000  0.77900000  1.0 0.5037900283
C  C157  1  0.51040000  0.26120000  0.21820000  1.0 -0.4284211622
C  C158  1  0.98960000  0.73880000  0.71820000  1.0 -0.4284211622
C  C159  1  0.48960000  0.76120000  0.28180000  1.0 -0.4284211622
C  C160  1  0.01040000  0.23880000  0.78180000  1.0 -0.4284211622
C  C161  1  0.33220000  0.34600000  0.18020000  1.0 -0.451138828
C  C162  1  0.16780000  0.65400000  0.68020000  1.0 -0.451138828
C  C163  1  0.66780000  0.84600000  0.31980000  1.0 -0.451138828
C  C164  1  0.83220000  0.15400000  0.81980000  1.0 -0.451138828
C  C165  1  0.38450000  0.34900000  0.27960000  1.0 -0.1850350724
C  C166  1  0.11550000  0.65100000  0.77960000  1.0 -0.1850350724
C  C167  1  0.61550000  0.84900000  0.22040000  1.0 -0.1850350724
C  C168  1  0.88450000  0.15100000  0.72040000  1.0 -0.1846079753
C  C169  1  0.40150000  0.31660000  0.33700000  1.0 -0.338055571
C  C170  1  0.09850000  0.68340000  0.83700000  1.0 -0.338055571
C  C171  1  0.59850000  0.81660000  0.16300000  1.0 -0.338055571
C  C172  1  0.90150000  0.18340000  0.66300000  1.0 -0.338055571
C  C173  1  0.47630000  0.34360000  0.36560000  1.0 0.5037900283
C  C174  1  0.02370000  0.65640000  0.86560000  1.0 0.5037900283
C  C175  1  0.52370000  0.84360000  0.13440000  1.0 0.5037900283
C  C176  1  0.97630000  0.15640000  0.63440000  1.0 0.5037900283
C  C177  1  0.18090000  0.36630000  0.24450000  1.0 -0.380440347
C  C178  1  0.31910000  0.63370000  0.74450000  1.0 -0.380440347
C  C179  1  0.81910000  0.86630000  0.25550000  1.0 -0.380440347
C  C180  1  0.68090000  0.13370000  0.75550000  1.0 -0.380440347
C  C181  1  0.19430000  0.41810000  0.28540000  1.0 0.5803022707
C  C182  1  0.30570000  0.58190000  0.78540000  1.0 0.5803022707
C  C183  1  0.80570000  0.91810000  0.21460000  1.0 0.5803022707
C  C184  1  0.69430000  0.08190000  0.71460000  1.0 0.5803022707
C  C185  1  0.53740000  0.39620000  0.44820000  1.0 -0.1507318245
C  C186  1  0.96260000  0.60380000  0.94820000  1.0 -0.1507318245
C  C187  1  0.46260000  0.89620000  0.05180000  1.0 -0.1507318245
C  C188  1  0.03740000  0.10380000  0.55180000  1.0 -0.1507318245
C  C189  1  0.57830000  0.35160000  0.48700000  1.0 0.2278724088
C  C190  1  0.92170000  0.64840000  0.98700000  1.0 0.2278724088
C  C191  1  0.42170000  0.85160000  0.01300000  1.0 0.2278724088
C  C192  1  0.07830000  0.14840000  0.51300000  1.0 0.2278724088
C  C193  1  0.65050000  0.38430000  0.51900000  1.0 -0.4953314588
C  C194  1  0.84950000  0.61570000  0.01900000  1.0 -0.4953314588
C  C195  1  0.34950000  0.88430000  0.98100000  1.0 -0.4953314588
C  C196  1  0.15050000  0.11570000  0.48100000  1.0 -0.4953314588
C  C197  1  0.42400000  0.08840000  0.41430000  1.0 0.1484910401
C  C198  1  0.07600000  0.91160000  0.91430000  1.0 0.1484910401
C  C199  1  0.57600000  0.58840000  0.08570000  1.0 0.1484910401
C  C200  1  0.92400000  0.41160000  0.58570000  1.0 0.1484910401
C  C201  1  0.39440000  0.14490000  0.44760000  1.0 0.0415726154
C  C202  1  0.10560000  0.85510000  0.94760000  1.0 0.0415726154
C  C203  1  0.60560000  0.64490000  0.05240000  1.0 0.0415726154
C  C204  1  0.89440000  0.35510000  0.55240000  1.0 0.0415726154
C  C205  1  0.47730000  0.17130000  0.46660000  1.0 0.090008073
C  C206  1  0.02270000  0.82870000  0.96660000  1.0 0.090008073
C  C207  1  0.52270000  0.67130000  0.03340000  1.0 0.090008073
C  C208  1  0.97730000  0.32870000  0.53340000  1.0 0.090008073
C  C209  1  0.53370000  0.16180000  0.41460000  1.0 0.0721018602
C  C210  1  0.96630000  0.83820000  0.91460000  1.0 0.0721018602
C  C211  1  0.46630000  0.66180000  0.08540000  1.0 0.0721018602
C  C212  1  0.03370000  0.33820000  0.58540000  1.0 0.0721018602
C  C213  1  0.62430000  0.15150000  0.42610000  1.0 -0.0492852992
C  C214  1  0.87570000  0.84850000  0.92610000  1.0 -0.0492852992
C  C215  1  0.37570000  0.65150000  0.07390000  1.0 -0.0492852992
C  C216  1  0.12430000  0.34850000  0.57390000  1.0 -0.0492852992
C  C217  1  0.35700000  0.10320000  0.32070000  1.0 0.1484910401
C  C218  1  0.14300000  0.89680000  0.82070000  1.0 0.1484910401
C  C219  1  0.64300000  0.60320000  0.17930000  1.0 0.1484910401
C  C220  1  0.85700000  0.39680000  0.67930000  1.0 0.1484910401
C  C221  1  0.16680000  0.01760000  0.32590000  1.0 -0.2521005535
C  C222  1  0.33320000  0.98240000  0.82590000  1.0 -0.2521005535
C  C223  1  0.83320000  0.51760000  0.17410000  1.0 -0.2521005535
C  C224  1  0.66680000  0.48240000  0.67410000  1.0 -0.2521005535
C  C225  1  0.14080000  0.97660000  0.36670000  1.0 0.1204823476
C  C226  1  0.35920000  0.02340000  0.86670000  1.0 0.1204823476
C  C227  1  0.85920000  0.47660000  0.13330000  1.0 0.1204823476
C  C228  1  0.64080000  0.52340000  0.63330000  1.0 0.1204823476
C  C229  1  0.19320000  0.96380000  0.41470000  1.0 0.1295944394
C  C230  1  0.30680000  0.03620000  0.91470000  1.0 0.1295944394
C  C231  1  0.80680000  0.46380000  0.08530000  1.0 0.1295944394
C  C232  1  0.69320000  0.53620000  0.58530000  1.0 0.1295944394
C  C233  1  0.26960000  0.99400000  0.41950000  1.0 -0.2610128597
C  C234  1  0.23040000  0.00600000  0.91950000  1.0 -0.2610128597
C  C235  1  0.73040000  0.49400000  0.08050000  1.0 -0.2610128597
C  C236  1  0.76960000  0.50600000  0.58050000  1.0 -0.2610128597
C  C237  1  0.29480000  0.03540000  0.37680000  1.0 0.099980051
C  C238  1  0.20520000  0.96460000  0.87680000  1.0 0.099980051
C  C239  1  0.70520000  0.53540000  0.12320000  1.0 0.099980051
C  C240  1  0.79480000  0.46460000  0.62320000  1.0 0.099980051
C  C241  1  0.24520000  0.04750000  0.32950000  1.0 0.1295944394
C  C242  1  0.25480000  0.95250000  0.82950000  1.0 0.1295944394
C  C243  1  0.75480000  0.54750000  0.17050000  1.0 0.1295944394
C  C244  1  0.74520000  0.45250000  0.67050000  1.0 0.1295944394
C  C245  1  0.05650000  0.94460000  0.36140000  1.0 -0.4594490548
C  C246  1  0.44350000  0.05540000  0.86140000  1.0 -0.4594490548
C  C247  1  0.94350000  0.44460000  0.13860000  1.0 -0.4594490548
C  C248  1  0.55650000  0.55540000  0.63860000  1.0 -0.4594490548
C  C249  1  0.16410000  0.92100000  0.46120000  1.0 -0.4594490548
C  C250  1  0.33590000  0.07900000  0.96120000  1.0 -0.4594490548
C  C251  1  0.83590000  0.42100000  0.03880000  1.0 -0.4594490548
C  C252  1  0.66410000  0.57900000  0.53880000  1.0 -0.4594490548
N  N1  1  0.23570000  0.15010000  0.09300000  1.0 -0.399661176
N  N2  1  0.26430000  0.84990000  0.59300000  1.0 -0.399661176
N  N3  1  0.76430000  0.65010000  0.40700000  1.0 -0.399661176
N  N4  1  0.73570000  0.34990000  0.90700000  1.0 -0.399661176
N  N5  1  0.15670000  0.13980000  0.23200000  1.0 -0.2894734518
N  N6  1  0.34330000  0.86020000  0.73200000  1.0 -0.2894734518
N  N7  1  0.84330000  0.63980000  0.26800000  1.0 -0.2894734518
N  N8  1  0.65670000  0.36020000  0.76800000  1.0 -0.2894734518
N  N9  1  0.23520000  0.03560000  0.19570000  1.0 -0.2991239243
N  N10  1  0.26480000  0.96440000  0.69570000  1.0 -0.2991239243
N  N11  1  0.76480000  0.53560000  0.30430000  1.0 -0.2991239243
N  N12  1  0.73520000  0.46440000  0.80430000  1.0 -0.2991239243
N  N13  1  0.38310000  0.10930000  0.19930000  1.0 -0.3099603132
N  N14  1  0.11690000  0.89070000  0.69930000  1.0 -0.3099603132
N  N15  1  0.61690000  0.60930000  0.30070000  1.0 -0.3099603132
N  N16  1  0.88310000  0.39070000  0.80070000  1.0 -0.3099603132
N  N17  1  0.28510000  0.20670000  0.22960000  1.0 -0.2610128597
N  N18  1  0.21490000  0.79330000  0.72960000  1.0 -0.2610128597
N  N19  1  0.71490000  0.70670000  0.27040000  1.0 -0.2610128597
N  N20  1  0.78510000  0.29330000  0.77040000  1.0 -0.2610128597
N  N21  1  0.94180000  0.23790000  0.11080000  1.0 -0.4825778704
N  N22  1  0.55820000  0.76210000  0.61080000  1.0 -0.4825778704
N  N23  1  0.05820000  0.73790000  0.38920000  1.0 -0.4825778704
N  N24  1  0.44180000  0.26210000  0.88920000  1.0 -0.4825778704
N  N25  1  0.85250000  0.11800000  0.40440000  1.0 -0.5895100758
N  N26  1  0.64750000  0.88200000  0.90440000  1.0 -0.5895100758
N  N27  1  0.14750000  0.61800000  0.09560000  1.0 -0.5895100758
N  N28  1  0.35250000  0.38200000  0.59560000  1.0 -0.5895100758
N  N29  1  0.10740000  0.04480000  0.05040000  1.0 -0.5430816636
N  N30  1  0.39260000  0.95520000  0.55040000  1.0 -0.5486029214
N  N31  1  0.89260000  0.54480000  0.44960000  1.0 -0.5486029214
N  N32  1  0.60740000  0.45520000  0.94960000  1.0 -0.5486029214
N  N33  1  0.26390000  0.82600000  0.34470000  1.0 -0.6233196781
N  N34  1  0.23610000  0.17400000  0.84470000  1.0 -0.6233196781
N  N35  1  0.73610000  0.32600000  0.15530000  1.0 -0.6233196781
N  N36  1  0.76390000  0.67400000  0.65530000  1.0 -0.6233196781
N  N37  1  0.72440000  0.19380000  0.23020000  1.0 -0.5486029214
N  N38  1  0.77560000  0.80620000  0.73020000  1.0 -0.5486029214
N  N39  1  0.27560000  0.69380000  0.26980000  1.0 -0.5486029214
N  N40  1  0.22440000  0.30620000  0.76980000  1.0 -0.5486029214
N  N41  1  0.46650000  0.36800000  0.41630000  1.0 -0.2991239243
N  N42  1  0.03350000  0.63200000  0.91630000  1.0 -0.2991239243
N  N43  1  0.53350000  0.86800000  0.08370000  1.0 -0.2991239243
N  N44  1  0.96650000  0.13200000  0.58370000  1.0 -0.2991239243
N  N45  1  0.19800000  0.47550000  0.26270000  1.0 -0.5895100758
N  N46  1  0.30200000  0.52450000  0.76270000  1.0 -0.5895100758
N  N47  1  0.80200000  0.97550000  0.23730000  1.0 -0.5895100758
N  N48  1  0.69800000  0.02450000  0.73730000  1.0 -0.5895100758
N  N49  1  0.36590000  0.07040000  0.36980000  1.0 -0.0630024673
N  N50  1  0.13410000  0.92960000  0.86980000  1.0 -0.0630024673
N  N51  1  0.63410000  0.57040000  0.13020000  1.0 -0.0630024673
N  N52  1  0.86590000  0.42960000  0.63020000  1.0 -0.0630024673
N  N53  1  0.28930000  0.08910000  0.29340000  1.0 -0.2800948248
N  N54  1  0.21070000  0.91090000  0.79340000  1.0 -0.2800948248
N  N55  1  0.71070000  0.58910000  0.20660000  1.0 -0.2800948248
N  N56  1  0.78930000  0.41090000  0.70660000  1.0 -0.2800948248
Cl  Cl1  1  0.69800000  0.91740000  0.03250000  1.0 -0.7040294037
Cl  Cl2  1  0.80200000  0.08260000  0.53250000  1.0 -0.7040294037
Cl  Cl3  1  0.30200000  0.41740000  0.46750000  1.0 -0.7054565177
Cl  Cl4  1  0.19800000  0.58260000  0.96750000  1.0 -0.7040294037
O  O1  1  0.88750000  0.26100000  0.18910000  1.0 -0.4825778704
O  O2  1  0.61250000  0.73900000  0.68910000  1.0 -0.4825778704
O  O3  1  0.11250000  0.76100000  0.31090000  1.0 -0.4825778704
O  O4  1  0.38750000  0.23900000  0.81090000  1.0 -0.4825778704
O  O5  1  0.83030000  0.03260000  0.34690000  1.0 -0.5707000719
O  O6  1  0.66970000  0.96740000  0.84690000  1.0 -0.5707000719
O  O7  1  0.16970000  0.53260000  0.15310000  1.0 -0.5707000719
O  O8  1  0.33030000  0.46740000  0.65310000  1.0 -0.5707000719
O  O9  1  0.03950000  0.95280000  0.04930000  1.0 -0.6065632031
O  O10  1  0.46050000  0.04720000  0.54930000  1.0 -0.6065632031
O  O11  1  0.96050000  0.45280000  0.45070000  1.0 -0.6065632031
O  O12  1  0.53950000  0.54720000  0.95070000  1.0 -0.6065632031
O  O13  1  0.38920000  0.87090000  0.35970000  1.0 -0.5486029214
O  O14  1  0.11080000  0.12910000  0.85970000  1.0 -0.5486029214
O  O15  1  0.61080000  0.37090000  0.14030000  1.0 -0.5486029214
O  O16  1  0.88920000  0.62910000  0.64030000  1.0 -0.5486029214
O  O17  1  0.75190000  0.10120000  0.18110000  1.0 -0.5895100758
O  O18  1  0.74810000  0.89880000  0.68110000  1.0 -0.5895100758
O  O19  1  0.24810000  0.60120000  0.31890000  1.0 -0.5895100758
O  O20  1  0.25190000  0.39880000  0.81890000  1.0 -0.5895100758
O  O21  1  0.54650000  0.34270000  0.34220000  1.0 -0.5486029214
O  O22  1  0.95350000  0.65730000  0.84220000  1.0 -0.5486029214
O  O23  1  0.45350000  0.84270000  0.15780000  1.0 -0.5486029214
O  O24  1  0.04650000  0.15730000  0.65780000  1.0 -0.5486029214
O  O25  1  0.19910000  0.40730000  0.33640000  1.0 -0.5707000719
O  O26  1  0.30090000  0.59270000  0.83640000  1.0 -0.5707000719
O  O27  1  0.80090000  0.90730000  0.16360000  1.0 -0.5707000719
O  O28  1  0.69910000  0.09270000  0.66360000  1.0 -0.5707000719
O  O29  1  0.47340000  0.23620000  0.48140000  1.0 -0.451138828
O  O30  1  0.02660000  0.76380000  0.98140000  1.0 -0.451138828
O  O31  1  0.52660000  0.73620000  0.01860000  1.0 -0.451138828
O  O32  1  0.97340000  0.26380000  0.51860000  1.0 -0.451138828
O  O33  1  0.51770000  0.33180000  0.52890000  1.0 -0.4594490548
O  O34  1  0.98230000  0.66820000  0.02890000  1.0 -0.4594490548
O  O35  1  0.48230000  0.83180000  0.97110000  1.0 -0.4594490548
O  O36  1  0.01770000  0.16820000  0.47110000  1.0 -0.4594490548
O  O37  1  0.58180000  0.22680000  0.55770000  1.0 -0.8139030562
O  O38  1  0.91820000  0.77320000  0.05770000  1.0 -0.8139030562
O  O39  1  0.41820000  0.72680000  0.94230000  1.0 -0.8139030562
O  O40  1  0.08180000  0.27320000  0.44230000  1.0 -0.8139030562
O  O41  1  0.43140000  0.25860000  0.58290000  1.0 -0.7386684493
O  O42  1  0.06860000  0.74140000  0.08290000  1.0 -0.7386684493
O  O43  1  0.56860000  0.75860000  0.91710000  1.0 -0.7386684493
O  O44  1  0.93140000  0.24140000  0.41710000  1.0 -0.7386684493
O  O45  1  0.50030000  0.10510000  0.38810000  1.0 -0.2521005535
O  O46  1  0.99970000  0.89490000  0.88810000  1.0 -0.2521005535
O  O47  1  0.49970000  0.60510000  0.11190000  1.0 -0.2521005535
O  O48  1  0.00030000  0.39490000  0.61190000  1.0 -0.2521005535
O  O49  1  0.35340000  0.18640000  0.41070000  1.0 -0.451138828
O  O50  1  0.14660000  0.81360000  0.91070000  1.0 -0.451138828
O  O51  1  0.64660000  0.68640000  0.08930000  1.0 -0.451138828
O  O52  1  0.85340000  0.31360000  0.58930000  1.0 -0.451138828
O  O53  1  0.63610000  0.09850000  0.46070000  1.0 -0.4401151166
O  O54  1  0.86390000  0.90150000  0.96070000  1.0 -0.4401151166
O  O55  1  0.36390000  0.59850000  0.03930000  1.0 -0.4401151166
O  O56  1  0.13610000  0.40150000  0.53930000  1.0 -0.4401151166
