# DDEC6 charges by PACMAN v1.1 (https://github.com/mtap-research/PACMAN-charge/)
data_WILDUR_ASR_pacman
_symmetry_space_group_name_H-M   'P 1'
_cell_length_a   17.00760000
_cell_length_b   17.00760000
_cell_length_c   7.85910000
_cell_angle_alpha   90.00000000
_cell_angle_beta   90.00000000
_cell_angle_gamma   90.00000000
_symmetry_Int_Tables_number   1
_chemical_formula_structural   Ag2H10(C3N2)5
_chemical_formula_sum   'Ag8 H40 C60 N40'
_cell_volume   2273.31114538
_cell_formula_units_Z   4
loop_
 _symmetry_equiv_pos_site_id
 _symmetry_equiv_pos_as_xyz
  1  'x, y, z'
loop_
 _atom_site_type_symbol
 _atom_site_label
 _atom_site_symmetry_multiplicity
 _atom_site_fract_x
 _atom_site_fract_y
 _atom_site_fract_z
 _atom_site_occupancy
 _atom_site_charge
Ag  Ag1  1  0.31265000  0.68735000  0.25893000  1.0 0.2107266505
Ag  Ag2  1  0.18735000  0.18735000  0.75893000  1.0 0.2107266505
Ag  Ag3  1  0.81265000  0.81265000  0.75893000  1.0 0.2107266505
Ag  Ag4  1  0.68735000  0.31265000  0.74107000  1.0 0.2107266505
Ag  Ag5  1  0.68735000  0.31265000  0.25893000  1.0 0.2107266505
Ag  Ag6  1  0.81265000  0.81265000  0.24107000  1.0 0.2107266505
Ag  Ag7  1  0.18735000  0.18735000  0.24107000  1.0 0.2107266505
Ag  Ag8  1  0.31265000  0.68735000  0.74107000  1.0 0.2107266505
H  H1  1  0.44700000  0.55300000  0.21300000  1.0 0.1018268866
H  H2  1  0.05300000  0.05300000  0.71300000  1.0 0.1018268866
H  H3  1  0.94700000  0.94700000  0.71300000  1.0 0.1018268866
H  H4  1  0.55300000  0.44700000  0.78700000  1.0 0.1018268866
H  H5  1  0.55300000  0.44700000  0.21300000  1.0 0.1018268866
H  H6  1  0.94700000  0.94700000  0.28700000  1.0 0.1018268866
H  H7  1  0.05300000  0.05300000  0.28700000  1.0 0.1018268866
H  H8  1  0.44700000  0.55300000  0.78700000  1.0 0.1018268866
H  H9  1  0.12190000  0.68790000  0.21140000  1.0 0.1018268866
H  H10  1  0.18790000  0.37810000  0.71140000  1.0 0.1018268866
H  H11  1  0.81210000  0.62190000  0.71140000  1.0 0.1018268866
H  H12  1  0.68790000  0.12190000  0.78860000  1.0 0.1018268866
H  H13  1  0.87810000  0.31210000  0.21140000  1.0 0.1018268866
H  H14  1  0.62190000  0.81210000  0.28860000  1.0 0.1018268866
H  H15  1  0.37810000  0.18790000  0.28860000  1.0 0.1018268866
H  H16  1  0.31210000  0.87810000  0.78860000  1.0 0.1018268866
H  H17  1  0.87810000  0.31210000  0.78860000  1.0 0.1018268866
H  H18  1  0.81210000  0.62190000  0.28860000  1.0 0.1018268866
H  H19  1  0.18790000  0.37810000  0.28860000  1.0 0.1018268866
H  H20  1  0.31210000  0.87810000  0.21140000  1.0 0.1018268866
H  H21  1  0.12190000  0.68790000  0.78860000  1.0 0.1018268866
H  H22  1  0.37810000  0.18790000  0.71140000  1.0 0.1018268866
H  H23  1  0.62190000  0.81210000  0.71140000  1.0 0.1018268866
H  H24  1  0.68790000  0.12190000  0.21140000  1.0 0.1018268866
H  H25  1  0.97830000  0.73290000  0.21180000  1.0 0.1018268866
H  H26  1  0.23290000  0.52170000  0.71180000  1.0 0.1018268866
H  H27  1  0.76710000  0.47830000  0.71180000  1.0 0.1018268866
H  H28  1  0.73290000  0.97830000  0.78820000  1.0 0.1018268866
H  H29  1  0.02170000  0.26710000  0.21180000  1.0 0.1018268866
H  H30  1  0.47830000  0.76710000  0.28820000  1.0 0.1018268866
H  H31  1  0.52170000  0.23290000  0.28820000  1.0 0.1018268866
H  H32  1  0.26710000  0.02170000  0.78820000  1.0 0.1018268866
H  H33  1  0.02170000  0.26710000  0.78820000  1.0 0.1018268866
H  H34  1  0.76710000  0.47830000  0.28820000  1.0 0.1018268866
H  H35  1  0.23290000  0.52170000  0.28820000  1.0 0.1018268866
H  H36  1  0.26710000  0.02170000  0.21180000  1.0 0.1018268866
H  H37  1  0.97830000  0.73290000  0.78820000  1.0 0.1018268866
H  H38  1  0.52170000  0.23290000  0.71180000  1.0 0.1018268866
H  H39  1  0.47830000  0.76710000  0.71180000  1.0 0.1018268866
H  H40  1  0.73290000  0.97830000  0.21180000  1.0 0.1018268866
C  C1  1  0.44780000  0.55220000  0.33260000  1.0 -0.0028427653
C  C2  1  0.05220000  0.05220000  0.83260000  1.0 -0.0028427653
C  C3  1  0.94780000  0.94780000  0.83260000  1.0 -0.0028427653
C  C4  1  0.55220000  0.44780000  0.66740000  1.0 -0.0028427653
C  C5  1  0.55220000  0.44780000  0.33260000  1.0 -0.0028427653
C  C6  1  0.94780000  0.94780000  0.16740000  1.0 -0.0028427653
C  C7  1  0.05220000  0.05220000  0.16740000  1.0 -0.0028427653
C  C8  1  0.44780000  0.55220000  0.66740000  1.0 -0.0028427653
C  C9  1  0.50000000  0.50000000  0.41340000  1.0 0.0168357614
C  C10  1  0.00000000  0.00000000  0.91340000  1.0 0.0168357614
C  C11  1  0.50000000  0.50000000  0.58660000  1.0 0.0168357614
C  C12  1  0.00000000  0.00000000  0.08660000  1.0 0.0168357614
C  C13  1  0.12130000  0.69030000  0.33090000  1.0 0.0031172532
C  C14  1  0.19030000  0.37870000  0.83090000  1.0 0.0031172532
C  C15  1  0.80970000  0.62130000  0.83090000  1.0 0.0031172532
C  C16  1  0.69030000  0.12130000  0.66910000  1.0 0.0031172532
C  C17  1  0.87870000  0.30970000  0.33090000  1.0 0.0031172532
C  C18  1  0.62130000  0.80970000  0.16910000  1.0 0.0031172532
C  C19  1  0.37870000  0.19030000  0.16910000  1.0 0.0031172532
C  C20  1  0.30970000  0.87870000  0.66910000  1.0 0.0031172532
C  C21  1  0.87870000  0.30970000  0.66910000  1.0 0.0031172532
C  C22  1  0.80970000  0.62130000  0.16910000  1.0 0.0031172532
C  C23  1  0.19030000  0.37870000  0.16910000  1.0 0.0031172532
C  C24  1  0.30970000  0.87870000  0.33090000  1.0 0.0031172532
C  C25  1  0.12130000  0.69030000  0.66910000  1.0 0.0031172532
C  C26  1  0.37870000  0.19030000  0.83090000  1.0 0.0031172532
C  C27  1  0.62130000  0.80970000  0.83090000  1.0 0.0031172532
C  C28  1  0.69030000  0.12130000  0.33090000  1.0 0.0031172532
C  C29  1  0.05045000  0.71020000  0.41190000  1.0 0.0168357614
C  C30  1  0.21020000  0.44955000  0.91190000  1.0 0.0168357614
C  C31  1  0.78980000  0.55045000  0.91190000  1.0 0.0168357614
C  C32  1  0.71020000  0.05045000  0.58810000  1.0 0.0168357614
C  C33  1  0.94955000  0.28980000  0.41190000  1.0 0.0168357614
C  C34  1  0.55045000  0.78980000  0.08810000  1.0 0.0168357614
C  C35  1  0.44955000  0.21020000  0.08810000  1.0 0.0168357614
C  C36  1  0.28980000  0.94955000  0.58810000  1.0 0.0168357614
C  C37  1  0.94955000  0.28980000  0.58810000  1.0 0.0168357614
C  C38  1  0.78980000  0.55045000  0.08810000  1.0 0.0168357614
C  C39  1  0.21020000  0.44955000  0.08810000  1.0 0.0168357614
C  C40  1  0.28980000  0.94955000  0.41190000  1.0 0.0168357614
C  C41  1  0.05045000  0.71020000  0.58810000  1.0 0.0168357614
C  C42  1  0.44955000  0.21020000  0.91190000  1.0 0.0168357614
C  C43  1  0.55045000  0.78980000  0.91190000  1.0 0.0168357614
C  C44  1  0.71020000  0.05045000  0.41190000  1.0 0.0168357614
C  C45  1  0.97980000  0.73340000  0.33140000  1.0 -0.0028427653
C  C46  1  0.23340000  0.52020000  0.83140000  1.0 -0.0028427653
C  C47  1  0.76660000  0.47980000  0.83140000  1.0 -0.0028427653
C  C48  1  0.73340000  0.97980000  0.66860000  1.0 -0.0028427653
C  C49  1  0.02020000  0.26660000  0.33140000  1.0 -0.0028427653
C  C50  1  0.47980000  0.76660000  0.16860000  1.0 -0.0028427653
C  C51  1  0.52020000  0.23340000  0.16860000  1.0 -0.0028427653
C  C52  1  0.26660000  0.02020000  0.66860000  1.0 -0.0028427653
C  C53  1  0.02020000  0.26660000  0.66860000  1.0 -0.0028427653
C  C54  1  0.76660000  0.47980000  0.16860000  1.0 -0.0028427653
C  C55  1  0.23340000  0.52020000  0.16860000  1.0 -0.0028427653
C  C56  1  0.26660000  0.02020000  0.33140000  1.0 -0.0028427653
C  C57  1  0.97980000  0.73340000  0.66860000  1.0 -0.0028427653
C  C58  1  0.52020000  0.23340000  0.83140000  1.0 -0.0028427653
C  C59  1  0.47980000  0.76660000  0.83140000  1.0 -0.0028427653
C  C60  1  0.73340000  0.97980000  0.33140000  1.0 -0.0028427653
N  N1  1  0.40036000  0.59964000  0.41350000  1.0 -0.1519313394
N  N2  1  0.09964000  0.09964000  0.91350000  1.0 -0.1519313394
N  N3  1  0.90036000  0.90036000  0.91350000  1.0 -0.1519313394
N  N4  1  0.59964000  0.40036000  0.58650000  1.0 -0.1519313394
N  N5  1  0.59964000  0.40036000  0.41350000  1.0 -0.1519313394
N  N6  1  0.90036000  0.90036000  0.08650000  1.0 -0.1519313394
N  N7  1  0.09964000  0.09964000  0.08650000  1.0 -0.1519313394
N  N8  1  0.40036000  0.59964000  0.58650000  1.0 -0.1519313394
N  N9  1  0.18619000  0.67510000  0.41240000  1.0 -0.1519313394
N  N10  1  0.17510000  0.31381000  0.91240000  1.0 -0.1519313394
N  N11  1  0.82490000  0.68619000  0.91240000  1.0 -0.1519313394
N  N12  1  0.67510000  0.18619000  0.58760000  1.0 -0.1519313394
N  N13  1  0.81381000  0.32490000  0.41240000  1.0 -0.1519313394
N  N14  1  0.68619000  0.82490000  0.08760000  1.0 -0.1519313394
N  N15  1  0.31381000  0.17510000  0.08760000  1.0 -0.1519313394
N  N16  1  0.32490000  0.81381000  0.58760000  1.0 -0.1519313394
N  N17  1  0.81381000  0.32490000  0.58760000  1.0 -0.1519313394
N  N18  1  0.82490000  0.68619000  0.08760000  1.0 -0.1519313394
N  N19  1  0.17510000  0.31381000  0.08760000  1.0 -0.1519313394
N  N20  1  0.32490000  0.81381000  0.41240000  1.0 -0.1519313394
N  N21  1  0.18619000  0.67510000  0.58760000  1.0 -0.1519313394
N  N22  1  0.31381000  0.17510000  0.91240000  1.0 -0.1519313394
N  N23  1  0.68619000  0.82490000  0.91240000  1.0 -0.1519313394
N  N24  1  0.67510000  0.18619000  0.41240000  1.0 -0.1519313394
N  N25  1  0.91647000  0.75562000  0.41260000  1.0 -0.1519313394
N  N26  1  0.25562000  0.58353000  0.91260000  1.0 -0.1519313394
N  N27  1  0.74438000  0.41647000  0.91260000  1.0 -0.1519313394
N  N28  1  0.75562000  0.91647000  0.58740000  1.0 -0.1519313394
N  N29  1  0.08353000  0.24438000  0.41260000  1.0 -0.1519313394
N  N30  1  0.41647000  0.74438000  0.08740000  1.0 -0.1519313394
N  N31  1  0.58353000  0.25562000  0.08740000  1.0 -0.1519313394
N  N32  1  0.24438000  0.08353000  0.58740000  1.0 -0.1519313394
N  N33  1  0.08353000  0.24438000  0.58740000  1.0 -0.1519313394
N  N34  1  0.74438000  0.41647000  0.08740000  1.0 -0.1519313394
N  N35  1  0.25562000  0.58353000  0.08740000  1.0 -0.1519313394
N  N36  1  0.24438000  0.08353000  0.41260000  1.0 -0.1519313394
N  N37  1  0.91647000  0.75562000  0.58740000  1.0 -0.1519313394
N  N38  1  0.58353000  0.25562000  0.91260000  1.0 -0.1519313394
N  N39  1  0.41647000  0.74438000  0.91260000  1.0 -0.1519313394
N  N40  1  0.75562000  0.91647000  0.41260000  1.0 -0.1519313394
