# DDEC6 charges by PACMAN v1.1 (https://github.com/mtap-research/PACMAN-charge/)
data_WILGUV_ASR_pacman
_symmetry_space_group_name_H-M   'P 1'
_cell_length_a   8.20470000
_cell_length_b   15.47100000
_cell_length_c   24.13220000
_cell_angle_alpha   90.00000000
_cell_angle_beta   90.00000000
_cell_angle_gamma   90.00000000
_symmetry_Int_Tables_number   1
_chemical_formula_structural   Ni2H46C51N8(O4F3)2
_chemical_formula_sum   'Ni4 H92 C102 N16 O16 F12'
_cell_volume   3063.21872439
_cell_formula_units_Z   2
loop_
 _symmetry_equiv_pos_site_id
 _symmetry_equiv_pos_as_xyz
  1  'x, y, z'
loop_
 _atom_site_type_symbol
 _atom_site_label
 _atom_site_symmetry_multiplicity
 _atom_site_fract_x
 _atom_site_fract_y
 _atom_site_fract_z
 _atom_site_occupancy
 _atom_site_charge
Ni  Ni1  1  0.58155000  0.02134000  0.81435000  1.0 0.7446732749
Ni  Ni2  1  0.41845000  0.02134000  0.18565000  1.0 0.7446732749
Ni  Ni3  1  0.08155000  0.97866000  0.68565000  1.0 0.7446732749
Ni  Ni4  1  0.91845000  0.97866000  0.31435000  1.0 0.7446732749
H  H1  1  0.83890000  0.89760000  0.98240000  1.0 0.1277798195
H  H2  1  0.16110000  0.89760000  0.01760000  1.0 0.1277798195
H  H3  1  0.33890000  0.10240000  0.51760000  1.0 0.1277798195
H  H4  1  0.66110000  0.10240000  0.48240000  1.0 0.1277798195
H  H5  1  0.09080000  0.82310000  0.81820000  1.0 0.1194609187
H  H6  1  0.90920000  0.82310000  0.18180000  1.0 0.1194609187
H  H7  1  0.59080000  0.17690000  0.68180000  1.0 0.1194609187
H  H8  1  0.40920000  0.17690000  0.31820000  1.0 0.1194609187
H  H9  1  0.11350000  0.73460000  0.89330000  1.0 0.1194609187
H  H10  1  0.88650000  0.73460000  0.10670000  1.0 0.1194609187
H  H11  1  0.61350000  0.26540000  0.60670000  1.0 0.1194609187
H  H12  1  0.38650000  0.26540000  0.39330000  1.0 0.1194609187
H  H13  1  0.36300000  0.47350000  0.82340000  1.0 0.0808988405
H  H14  1  0.63700000  0.47350000  0.17660000  1.0 0.0808988405
H  H15  1  0.86300000  0.52650000  0.67660000  1.0 0.0808988405
H  H16  1  0.13700000  0.52650000  0.32340000  1.0 0.0808988405
H  H17  1  0.44150000  0.44610000  0.87990000  1.0 0.1077355616
H  H18  1  0.55850000  0.44610000  0.12010000  1.0 0.1077355616
H  H19  1  0.94150000  0.55390000  0.62010000  1.0 0.1077355616
H  H20  1  0.05850000  0.55390000  0.37990000  1.0 0.1077355616
H  H21  1  0.59030000  0.56800000  0.88420000  1.0 0.1077355616
H  H22  1  0.40970000  0.56800000  0.11580000  1.0 0.1077355616
H  H23  1  0.09030000  0.43200000  0.61580000  1.0 0.1077355616
H  H24  1  0.90970000  0.43200000  0.38420000  1.0 0.1077355616
H  H25  1  0.41020000  0.59530000  0.87170000  1.0 0.1077355616
H  H26  1  0.58980000  0.59530000  0.12830000  1.0 0.1077355616
H  H27  1  0.91020000  0.40470000  0.62830000  1.0 0.1077355616
H  H28  1  0.08980000  0.40470000  0.37170000  1.0 0.1077355616
H  H29  1  0.76620000  0.60130000  0.75900000  1.0 0.1077355616
H  H30  1  0.23380000  0.60130000  0.24100000  1.0 0.1077355616
H  H31  1  0.26620000  0.39870000  0.74100000  1.0 0.1077355616
H  H32  1  0.73380000  0.39870000  0.25900000  1.0 0.1077355616
H  H33  1  0.78710000  0.55820000  0.81810000  1.0 0.0903181331
H  H34  1  0.21290000  0.55820000  0.18190000  1.0 0.0903181331
H  H35  1  0.28710000  0.44180000  0.68190000  1.0 0.0903181331
H  H36  1  0.71290000  0.44180000  0.31810000  1.0 0.0903181331
H  H37  1  0.72000000  0.44490000  0.74290000  1.0 0.1010237862
H  H38  1  0.28000000  0.44490000  0.25710000  1.0 0.1010237862
H  H39  1  0.22000000  0.55510000  0.75710000  1.0 0.1010237862
H  H40  1  0.78000000  0.55510000  0.24290000  1.0 0.1010237862
H  H41  1  0.54470000  0.48690000  0.73950000  1.0 0.0718629663
H  H42  1  0.45530000  0.48690000  0.26050000  1.0 0.0718629663
H  H43  1  0.04470000  0.51310000  0.76050000  1.0 0.0718629663
H  H44  1  0.95530000  0.51310000  0.23950000  1.0 0.0718629663
H  H45  1  0.40210000  0.17380000  0.86530000  1.0 0.1194609187
H  H46  1  0.59790000  0.17380000  0.13470000  1.0 0.1194609187
H  H47  1  0.90210000  0.82620000  0.63470000  1.0 0.1194609187
H  H48  1  0.09790000  0.82620000  0.36530000  1.0 0.1194609187
H  H49  1  0.38930000  0.32050000  0.86480000  1.0 0.1405619499
H  H50  1  0.61070000  0.32050000  0.13520000  1.0 0.1405619499
H  H51  1  0.88930000  0.67950000  0.63520000  1.0 0.1405619499
H  H52  1  0.11070000  0.67950000  0.36480000  1.0 0.1405619499
H  H53  1  0.78350000  0.32040000  0.76630000  1.0 0.1277798195
H  H54  1  0.21650000  0.32040000  0.23370000  1.0 0.1277798195
H  H55  1  0.28350000  0.67960000  0.73370000  1.0 0.1277798195
H  H56  1  0.71650000  0.67960000  0.26630000  1.0 0.1277798195
H  H57  1  0.77910000  0.17270000  0.76960000  1.0 0.1194609187
H  H58  1  0.22090000  0.17270000  0.23040000  1.0 0.1194609187
H  H59  1  0.27910000  0.82730000  0.73040000  1.0 0.1194609187
H  H60  1  0.72090000  0.82730000  0.26960000  1.0 0.1194609187
H  H61  1  0.47350000  0.87190000  0.88280000  1.0 0.1194609187
H  H62  1  0.52650000  0.87190000  0.11720000  1.0 0.1194609187
H  H63  1  0.97350000  0.12810000  0.61720000  1.0 0.1194609187
H  H64  1  0.02650000  0.12810000  0.38280000  1.0 0.1194609187
H  H65  1  0.46820000  0.72500000  0.88520000  1.0 0.1405619499
H  H66  1  0.53180000  0.72500000  0.11480000  1.0 0.1405619499
H  H67  1  0.96820000  0.27500000  0.61480000  1.0 0.1405619499
H  H68  1  0.03180000  0.27500000  0.38520000  1.0 0.1405619499
H  H69  1  0.66380000  0.72400000  0.73300000  1.0 0.1277798195
H  H70  1  0.33620000  0.72400000  0.26700000  1.0 0.1277798195
H  H71  1  0.16380000  0.27600000  0.76700000  1.0 0.1277798195
H  H72  1  0.83620000  0.27600000  0.23300000  1.0 0.1277798195
H  H73  1  0.67070000  0.87020000  0.73630000  1.0 0.1194609187
H  H74  1  0.32930000  0.87020000  0.26370000  1.0 0.1194609187
H  H75  1  0.17070000  0.12980000  0.76370000  1.0 0.1194609187
H  H76  1  0.82930000  0.12980000  0.23630000  1.0 0.1194609187
H  H77  1  0.76830000  0.59460000  0.76770000  1.0 0.1077355616
H  H78  1  0.23170000  0.59460000  0.23230000  1.0 0.1077355616
H  H79  1  0.26830000  0.40540000  0.73230000  1.0 0.1077355616
H  H80  1  0.73170000  0.40540000  0.26770000  1.0 0.1077355616
H  H81  1  0.61520000  0.57170000  0.73210000  1.0 0.0903181331
H  H82  1  0.38480000  0.57170000  0.26790000  1.0 0.0903181331
H  H83  1  0.11520000  0.42830000  0.76790000  1.0 0.0903181331
H  H84  1  0.88480000  0.42830000  0.23210000  1.0 0.0903181331
H  H85  1  0.79790000  0.47160000  0.79400000  1.0 0.0903181331
H  H86  1  0.20210000  0.47160000  0.20600000  1.0 0.0903181331
H  H87  1  0.29790000  0.52840000  0.70600000  1.0 0.0903181331
H  H88  1  0.70210000  0.52840000  0.29400000  1.0 0.0903181331
H  H89  1  0.68540000  0.44770000  0.74450000  1.0 0.1010237862
H  H90  1  0.31460000  0.44770000  0.25550000  1.0 0.1010237862
H  H91  1  0.18540000  0.55230000  0.75550000  1.0 0.1010237862
H  H92  1  0.81460000  0.55230000  0.24450000  1.0 0.1010237862
C  C1  1  0.98220000  0.80750000  0.94740000  1.0 0.0808988405
C  C2  1  0.01780000  0.80750000  0.05260000  1.0 0.0808988405
C  C3  1  0.48220000  0.19250000  0.55260000  1.0 0.0808988405
C  C4  1  0.51780000  0.19250000  0.44740000  1.0 0.0808988405
C  C5  1  0.89030000  0.88300000  0.94930000  1.0 -0.1467334847
C  C6  1  0.10970000  0.88300000  0.05070000  1.0 -0.1467334847
C  C7  1  0.39030000  0.11700000  0.55070000  1.0 -0.1467334847
C  C8  1  0.60970000  0.11700000  0.44930000  1.0 -0.1467334847
C  C9  1  0.87190000  0.93720000  0.90440000  1.0 -0.0132977036
C  C10  1  0.12810000  0.93720000  0.09560000  1.0 -0.0132977036
C  C11  1  0.37190000  0.06280000  0.59560000  1.0 -0.0132977036
C  C12  1  0.62810000  0.06280000  0.40440000  1.0 -0.0132977036
C  C13  1  0.94740000  0.91490000  0.85300000  1.0 -0.0691552675
C  C14  1  0.05260000  0.91490000  0.14700000  1.0 -0.0691552675
C  C15  1  0.44740000  0.08510000  0.64700000  1.0 -0.0691552675
C  C16  1  0.55260000  0.08510000  0.35300000  1.0 -0.0691552675
C  C17  1  0.03910000  0.83840000  0.85110000  1.0 -0.0967394984
C  C18  1  0.96090000  0.83840000  0.14890000  1.0 -0.0967394984
C  C19  1  0.53910000  0.16160000  0.64890000  1.0 -0.0967394984
C  C20  1  0.46090000  0.16160000  0.35110000  1.0 -0.0967394984
C  C21  1  0.05440000  0.78560000  0.89630000  1.0 -0.1788637112
C  C22  1  0.94560000  0.78560000  0.10370000  1.0 -0.1788637112
C  C23  1  0.55440000  0.21440000  0.60370000  1.0 -0.1788637112
C  C24  1  0.44560000  0.21440000  0.39630000  1.0 -0.1788637112
C  C25  1  0.00000000  0.75160000  0.00000000  1.0 -0.2762977551
C  C26  1  0.50000000  0.24840000  0.50000000  1.0 -0.2762977551
C  C27  1  0.84570000  0.69290000  0.00080000  1.0 0.6716053714
C  C28  1  0.15430000  0.69290000  0.99920000  1.0 0.6716053714
C  C29  1  0.34570000  0.30710000  0.49920000  1.0 0.6716053714
C  C30  1  0.65430000  0.30710000  0.50080000  1.0 0.6716053714
C  C31  1  0.77500000  0.02020000  0.91350000  1.0 0.5686399271
C  C32  1  0.22500000  0.02020000  0.08650000  1.0 0.5686399271
C  C33  1  0.27500000  0.97980000  0.58650000  1.0 0.5686399271
C  C34  1  0.72500000  0.97980000  0.41350000  1.0 0.5686399271
C  C35  1  0.94170000  0.97070000  0.80340000  1.0 0.5686399271
C  C36  1  0.05830000  0.97070000  0.19660000  1.0 0.5686399271
C  C37  1  0.44170000  0.02930000  0.69660000  1.0 0.5686399271
C  C38  1  0.55830000  0.02930000  0.30340000  1.0 0.5686399271
C  C39  1  0.46260000  0.47520000  0.84510000  1.0 -0.2005205659
C  C40  1  0.53740000  0.47520000  0.15490000  1.0 -0.2005205659
C  C41  1  0.96260000  0.52480000  0.65490000  1.0 -0.2005205659
C  C42  1  0.03740000  0.52480000  0.34510000  1.0 -0.2005205659
C  C43  1  0.50490000  0.56630000  0.85640000  1.0 -0.1896214555
C  C44  1  0.49510000  0.56630000  0.14360000  1.0 -0.1896214555
C  C45  1  0.00490000  0.43370000  0.64360000  1.0 -0.1896214555
C  C46  1  0.99510000  0.43370000  0.35640000  1.0 -0.1896214555
C  C47  1  0.71200000  0.56830000  0.78780000  1.0 -0.0567850168
C  C48  1  0.28800000  0.56830000  0.21220000  1.0 -0.0567850168
C  C49  1  0.21200000  0.43170000  0.71220000  1.0 -0.0567850168
C  C50  1  0.78800000  0.43170000  0.28780000  1.0 -0.0567850168
C  C51  1  0.63780000  0.47670000  0.76330000  1.0 -0.0691552675
C  C52  1  0.36220000  0.47670000  0.23670000  1.0 -0.0691552675
C  C53  1  0.13780000  0.52330000  0.73670000  1.0 -0.0691552675
C  C54  1  0.86220000  0.52330000  0.26330000  1.0 -0.0691552675
C  C55  1  0.47920000  0.20370000  0.84460000  1.0 0.1077355616
C  C56  1  0.52080000  0.20370000  0.15540000  1.0 0.1077355616
C  C57  1  0.97920000  0.79630000  0.65540000  1.0 0.1077355616
C  C58  1  0.02080000  0.79630000  0.34460000  1.0 0.1077355616
C  C59  1  0.47040000  0.29230000  0.84480000  1.0 -0.2471060227
C  C60  1  0.52960000  0.29230000  0.15520000  1.0 -0.2471060227
C  C61  1  0.97040000  0.70770000  0.65520000  1.0 -0.2471060227
C  C62  1  0.02960000  0.70770000  0.34480000  1.0 -0.2471060227
C  C63  1  0.58520000  0.33950000  0.81460000  1.0 0.1194609187
C  C64  1  0.41480000  0.33950000  0.18540000  1.0 0.1194609187
C  C65  1  0.08520000  0.66050000  0.68540000  1.0 0.1194609187
C  C66  1  0.91480000  0.66050000  0.31460000  1.0 0.1194609187
C  C67  1  0.70290000  0.29230000  0.78650000  1.0 -0.3630393516
C  C68  1  0.29710000  0.29230000  0.21350000  1.0 -0.3630393516
C  C69  1  0.20290000  0.70770000  0.71350000  1.0 -0.3630393516
C  C70  1  0.79710000  0.70770000  0.28650000  1.0 -0.3630393516
C  C71  1  0.69930000  0.20300000  0.78890000  1.0 0.1077355616
C  C72  1  0.30070000  0.20300000  0.21110000  1.0 0.1077355616
C  C73  1  0.19930000  0.79700000  0.71110000  1.0 0.1077355616
C  C74  1  0.80070000  0.79700000  0.28890000  1.0 0.1077355616
C  C75  1  0.51400000  0.84170000  0.85240000  1.0 0.1194609187
C  C76  1  0.48600000  0.84170000  0.14760000  1.0 0.1194609187
C  C77  1  0.01400000  0.15830000  0.64760000  1.0 0.1194609187
C  C78  1  0.98600000  0.15830000  0.35240000  1.0 0.1194609187
C  C79  1  0.51000000  0.75270000  0.85410000  1.0 -0.2350964914
C  C80  1  0.49000000  0.75270000  0.14590000  1.0 -0.2350964914
C  C81  1  0.01000000  0.24730000  0.64590000  1.0 -0.2350964914
C  C82  1  0.99000000  0.24730000  0.35410000  1.0 -0.2350964914
C  C83  1  0.56750000  0.70360000  0.81000000  1.0 0.1010237862
C  C84  1  0.43250000  0.70360000  0.19000000  1.0 0.1010237862
C  C85  1  0.06750000  0.29640000  0.69000000  1.0 0.1010237862
C  C86  1  0.93250000  0.29640000  0.31000000  1.0 0.1010237862
C  C87  1  0.62630000  0.75230000  0.76450000  1.0 -0.3150341581
C  C88  1  0.37370000  0.75230000  0.23550000  1.0 -0.3150341581
C  C89  1  0.12630000  0.24770000  0.73550000  1.0 -0.3150341581
C  C90  1  0.87370000  0.24770000  0.26450000  1.0 -0.3150341581
C  C91  1  0.62840000  0.84030000  0.76650000  1.0 0.0903181331
C  C92  1  0.37160000  0.84030000  0.23350000  1.0 0.0903181331
C  C93  1  0.12840000  0.15970000  0.73350000  1.0 0.0903181331
C  C94  1  0.87160000  0.15970000  0.26650000  1.0 0.0903181331
C  C95  1  0.66300000  0.56650000  0.76870000  1.0 -0.0691552675
C  C96  1  0.33700000  0.56650000  0.23130000  1.0 -0.0691552675
C  C97  1  0.16300000  0.43350000  0.73130000  1.0 -0.0691552675
C  C98  1  0.83700000  0.43350000  0.26870000  1.0 -0.0691552675
C  C99  1  0.68800000  0.47700000  0.78000000  1.0 -0.0691552675
C  C100  1  0.31200000  0.47700000  0.22000000  1.0 -0.0691552675
C  C101  1  0.18800000  0.52300000  0.72000000  1.0 -0.0691552675
C  C102  1  0.81200000  0.52300000  0.28000000  1.0 -0.0691552675
N  N1  1  0.58830000  0.42900000  0.81560000  1.0 -0.0967394984
N  N2  1  0.41170000  0.42900000  0.18440000  1.0 -0.0967394984
N  N3  1  0.08830000  0.57100000  0.68440000  1.0 -0.0967394984
N  N4  1  0.91170000  0.57100000  0.31560000  1.0 -0.0967394984
N  N5  1  0.55960000  0.61340000  0.80750000  1.0 -0.1368379141
N  N6  1  0.44040000  0.61340000  0.19250000  1.0 -0.1368379141
N  N7  1  0.05960000  0.38660000  0.69250000  1.0 -0.1368379141
N  N8  1  0.94040000  0.38660000  0.30750000  1.0 -0.1368379141
N  N9  1  0.58830000  0.15740000  0.81720000  1.0 -0.2005205659
N  N10  1  0.41170000  0.15740000  0.18280000  1.0 -0.2005205659
N  N11  1  0.08830000  0.84260000  0.68280000  1.0 -0.2005205659
N  N12  1  0.91170000  0.84260000  0.31720000  1.0 -0.2005205659
N  N13  1  0.57200000  0.88670000  0.81020000  1.0 -0.2251062165
N  N14  1  0.42800000  0.88670000  0.18980000  1.0 -0.2251062165
N  N15  1  0.07200000  0.11330000  0.68980000  1.0 -0.2251062165
N  N16  1  0.92800000  0.11330000  0.31020000  1.0 -0.2251062165
O  O1  1  0.62460000  0.02020000  0.89870000  1.0 -0.5823795567
O  O2  1  0.37540000  0.02020000  0.10130000  1.0 -0.5823795567
O  O3  1  0.12460000  0.97980000  0.60130000  1.0 -0.5823795567
O  O4  1  0.87540000  0.97980000  0.39870000  1.0 -0.5823795567
O  O5  1  0.84670000  0.07790000  0.93780000  1.0 -0.4701419841
O  O6  1  0.15330000  0.07790000  0.06220000  1.0 -0.4701419841
O  O7  1  0.34670000  0.92210000  0.56220000  1.0 -0.4701419841
O  O8  1  0.65330000  0.92210000  0.43780000  1.0 -0.4701419841
O  O9  1  0.82520000  0.02140000  0.79526000  1.0 -0.5235502194
O  O10  1  0.17480000  0.02140000  0.20474000  1.0 -0.5235502194
O  O11  1  0.32520000  0.97860000  0.70474000  1.0 -0.5235502194
O  O12  1  0.67480000  0.97860000  0.29526000  1.0 -0.5235502194
O  O13  1  0.06060000  0.96370000  0.77048000  1.0 -0.5280436049
O  O14  1  0.93940000  0.96370000  0.22952000  1.0 -0.5280436049
O  O15  1  0.56060000  0.03630000  0.72952000  1.0 -0.5280436049
O  O16  1  0.43940000  0.03630000  0.27048000  1.0 -0.5280436049
F  F1  1  0.81960000  0.65630000  0.95179000  1.0 -0.2005205659
F  F2  1  0.18040000  0.65630000  0.04821000  1.0 -0.2005205659
F  F3  1  0.31960000  0.34370000  0.54821000  1.0 -0.2005205659
F  F4  1  0.68040000  0.34370000  0.45179000  1.0 -0.2005205659
F  F5  1  0.71350000  0.73840000  0.01346000  1.0 -0.1896214555
F  F6  1  0.28650000  0.73840000  0.98654000  1.0 -0.1896214555
F  F7  1  0.21350000  0.26160000  0.48654000  1.0 -0.1896214555
F  F8  1  0.78650000  0.26160000  0.51346000  1.0 -0.1896214555
F  F9  1  0.85540000  0.62780000  0.03753000  1.0 -0.2147936891
F  F10  1  0.14460000  0.62780000  0.96247000  1.0 -0.2147936891
F  F11  1  0.35540000  0.37220000  0.46247000  1.0 -0.2147936891
F  F12  1  0.64460000  0.37220000  0.53753000  1.0 -0.2147936891
