# DDEC6 charges by PACMAN v1.1 (https://github.com/mtap-research/PACMAN-charge/)
data_WILNEL02_ion_pacman
_symmetry_space_group_name_H-M   'P 1'
_cell_length_a   12.35190000
_cell_length_b   12.35190000
_cell_length_c   12.35190000
_cell_angle_alpha   90.87930000
_cell_angle_beta   90.87930000
_cell_angle_gamma   90.87930000
_symmetry_Int_Tables_number   1
_chemical_formula_structural   FeH42C18N24(ClO4)2
_chemical_formula_sum   'Fe2 H84 C36 N48 Cl4 O16'
_cell_volume   1883.84974276
_cell_formula_units_Z   2
loop_
 _symmetry_equiv_pos_site_id
 _symmetry_equiv_pos_as_xyz
  1  'x, y, z'
loop_
 _atom_site_type_symbol
 _atom_site_label
 _atom_site_symmetry_multiplicity
 _atom_site_fract_x
 _atom_site_fract_y
 _atom_site_fract_z
 _atom_site_occupancy
 _atom_site_charge
Fe  Fe1  1  0.27688000  0.27688000  0.27688000  1.0 0.5595248514
Fe  Fe2  1  0.77648000  0.77648000  0.77648000  1.0 0.5875186497
H  H1  1  0.91190000  0.75110000  0.01910000  1.0 0.1808009221
H  H2  1  0.75110000  0.01910000  0.91190000  1.0 0.1808009221
H  H3  1  0.01910000  0.91190000  0.75110000  1.0 0.1808009221
H  H4  1  0.55080000  0.28550000  0.21190000  1.0 0.1738813195
H  H5  1  0.28550000  0.21190000  0.55080000  1.0 0.1738813195
H  H6  1  0.21190000  0.55080000  0.28550000  1.0 0.1738813195
H  H7  1  0.79620000  0.53650000  0.64180000  1.0 0.1808009221
H  H8  1  0.53650000  0.64180000  0.79620000  1.0 0.1808009221
H  H9  1  0.64180000  0.79620000  0.53650000  1.0 0.1808009221
H  H10  1  0.27720000  0.32960000  0.00760000  1.0 0.1808009221
H  H11  1  0.32960000  0.00760000  0.27720000  1.0 0.1808009221
H  H12  1  0.00760000  0.27720000  0.32960000  1.0 0.1808009221
H  H13  1  0.63550000  0.83720000  0.24930000  1.0 0.0771751933
H  H14  1  0.83720000  0.24930000  0.63550000  1.0 0.0771751933
H  H15  1  0.24930000  0.63550000  0.83720000  1.0 0.0771751933
H  H16  1  0.54540000  0.83230000  0.15800000  1.0 0.0318543029
H  H17  1  0.83230000  0.15800000  0.54540000  1.0 0.0318543029
H  H18  1  0.15800000  0.54540000  0.83230000  1.0 0.0318543029
H  H19  1  0.64010000  0.64100000  0.24110000  1.0 0.110722035
H  H20  1  0.64100000  0.24110000  0.64010000  1.0 0.110722035
H  H21  1  0.24110000  0.64010000  0.64100000  1.0 0.110722035
H  H22  1  0.53020000  0.68490000  0.28490000  1.0 0.110722035
H  H23  1  0.68490000  0.28490000  0.53020000  1.0 0.110722035
H  H24  1  0.28490000  0.53020000  0.68490000  1.0 0.110722035
H  H25  1  0.55660000  0.62290000  0.06310000  1.0 0.0771751933
H  H26  1  0.62290000  0.06310000  0.55660000  1.0 0.0771751933
H  H27  1  0.06310000  0.55660000  0.62290000  1.0 0.0771751933
H  H28  1  0.44600000  0.65690000  0.11360000  1.0 0.0771751933
H  H29  1  0.65690000  0.11360000  0.44600000  1.0 0.0771751933
H  H30  1  0.11360000  0.44600000  0.65690000  1.0 0.0771751933
H  H31  1  0.72980000  0.39920000  0.01110000  1.0 0.0601288551
H  H32  1  0.39920000  0.01110000  0.72980000  1.0 0.0601288551
H  H33  1  0.01110000  0.72980000  0.39920000  1.0 0.0601288551
H  H34  1  0.72190000  0.30610000  0.92280000  1.0 0.0771751933
H  H35  1  0.30610000  0.92280000  0.72190000  1.0 0.0771751933
H  H36  1  0.92280000  0.72190000  0.30610000  1.0 0.0771751933
H  H37  1  0.91130000  0.31020000  0.90870000  1.0 0.1030081106
H  H38  1  0.31020000  0.90870000  0.91130000  1.0 0.1030081106
H  H39  1  0.90870000  0.91130000  0.31020000  1.0 0.1030081106
H  H40  1  0.87590000  0.27910000  0.02560000  1.0 0.1030081106
H  H41  1  0.27910000  0.02560000  0.87590000  1.0 0.1030081106
H  H42  1  0.02560000  0.87590000  0.27910000  1.0 0.1030081106
H  H43  1  0.91170000  0.45660000  0.08440000  1.0 0.049238406
H  H44  1  0.45660000  0.08440000  0.91170000  1.0 0.049238406
H  H45  1  0.08440000  0.91170000  0.45660000  1.0 0.049238406
H  H46  1  0.94970000  0.48570000  0.96780000  1.0 0.0698342384
H  H47  1  0.48570000  0.96780000  0.94970000  1.0 0.0698342384
H  H48  1  0.96780000  0.94970000  0.48570000  1.0 0.0698342384
H  H49  1  0.63230000  0.76000000  0.25240000  1.0 0.0357909934
H  H50  1  0.76000000  0.25240000  0.63230000  1.0 0.0357909934
H  H51  1  0.25240000  0.63230000  0.76000000  1.0 0.0357909934
H  H52  1  0.59520000  0.87110000  0.20510000  1.0 0.0771751933
H  H53  1  0.87110000  0.20510000  0.59520000  1.0 0.0771751933
H  H54  1  0.20510000  0.59520000  0.87110000  1.0 0.0771751933
H  H55  1  0.48480000  0.77430000  0.07570000  1.0 0.1030081106
H  H56  1  0.77430000  0.07570000  0.48480000  1.0 0.1030081106
H  H57  1  0.07570000  0.48480000  0.77430000  1.0 0.1030081106
H  H58  1  0.44670000  0.75650000  0.19460000  1.0 0.110722035
H  H59  1  0.75650000  0.19460000  0.44670000  1.0 0.110722035
H  H60  1  0.19460000  0.44670000  0.75650000  1.0 0.110722035
H  H61  1  0.59210000  0.61780000  0.12220000  1.0 0.0913932322
H  H62  1  0.61780000  0.12220000  0.59210000  1.0 0.0913932322
H  H63  1  0.12220000  0.59210000  0.61780000  1.0 0.0913932322
H  H64  1  0.48800000  0.61600000  0.05380000  1.0 0.0771751933
H  H65  1  0.61600000  0.05380000  0.48800000  1.0 0.0771751933
H  H66  1  0.05380000  0.48800000  0.61600000  1.0 0.0771751933
H  H67  1  0.68930000  0.35650000  0.96830000  1.0 0.0771751933
H  H68  1  0.35650000  0.96830000  0.68930000  1.0 0.0771751933
H  H69  1  0.96830000  0.68930000  0.35650000  1.0 0.0771751933
H  H70  1  0.79150000  0.30170000  0.91910000  1.0 0.0698342384
H  H71  1  0.30170000  0.91910000  0.79150000  1.0 0.0698342384
H  H72  1  0.91910000  0.79150000  0.30170000  1.0 0.0698342384
H  H73  1  0.82720000  0.34790000  0.09970000  1.0 0.1030081106
H  H74  1  0.34790000  0.09970000  0.82720000  1.0 0.1030081106
H  H75  1  0.09970000  0.82720000  0.34790000  1.0 0.1030081106
H  H76  1  0.79880000  0.46900000  0.07780000  1.0 0.0913932322
H  H77  1  0.46900000  0.07780000  0.79880000  1.0 0.0913932322
H  H78  1  0.07780000  0.79880000  0.46900000  1.0 0.0913932322
H  H79  1  0.95020000  0.50600000  0.03070000  1.0 0.0771751933
H  H80  1  0.50600000  0.03070000  0.95020000  1.0 0.0771751933
H  H81  1  0.03070000  0.95020000  0.50600000  1.0 0.0771751933
H  H82  1  0.94560000  0.41730000  0.94220000  1.0 0.0698342384
H  H83  1  0.41730000  0.94220000  0.94560000  1.0 0.0698342384
H  H84  1  0.94220000  0.94560000  0.41730000  1.0 0.0698342384
C  C1  1  0.83910000  0.76360000  0.03170000  1.0 0.1469145193
C  C2  1  0.76360000  0.03170000  0.83910000  1.0 0.1469145193
C  C3  1  0.03170000  0.83910000  0.76360000  1.0 0.1469145193
C  C4  1  0.51870000  0.35190000  0.19920000  1.0 0.1408749246
C  C5  1  0.35190000  0.19920000  0.51870000  1.0 0.1408749246
C  C6  1  0.19920000  0.51870000  0.35190000  1.0 0.1408749246
C  C7  1  0.78480000  0.52380000  0.71480000  1.0 0.1287007206
C  C8  1  0.52380000  0.71480000  0.78480000  1.0 0.1287007206
C  C9  1  0.71480000  0.78480000  0.52380000  1.0 0.1287007206
C  C10  1  0.20930000  0.34590000  0.03490000  1.0 0.1287007206
C  C11  1  0.34590000  0.03490000  0.20930000  1.0 0.1287007206
C  C12  1  0.03490000  0.20930000  0.34590000  1.0 0.1287007206
C  C13  1  0.60810000  0.79570000  0.18710000  1.0 -0.1299863285
C  C14  1  0.79570000  0.18710000  0.60810000  1.0 -0.1299863285
C  C15  1  0.18710000  0.60810000  0.79570000  1.0 -0.1299863285
C  C16  1  0.57570000  0.68090000  0.22180000  1.0 -0.1130826417
C  C17  1  0.68090000  0.22180000  0.57570000  1.0 -0.1130826417
C  C18  1  0.22180000  0.57570000  0.68090000  1.0 -0.1130826417
C  C19  1  0.51390000  0.62120000  0.12820000  1.0 -0.1395969069
C  C20  1  0.62120000  0.12820000  0.51390000  1.0 -0.1395969069
C  C21  1  0.12820000  0.51390000  0.62120000  1.0 -0.1395969069
C  C22  1  0.76360000  0.36930000  0.94720000  1.0 -0.1395969069
C  C23  1  0.36930000  0.94720000  0.76360000  1.0 -0.1395969069
C  C24  1  0.94720000  0.76360000  0.36930000  1.0 -0.1395969069
C  C25  1  0.87780000  0.33750000  0.97400000  1.0 -0.1130826417
C  C26  1  0.33750000  0.97400000  0.87780000  1.0 -0.1130826417
C  C27  1  0.97400000  0.87780000  0.33750000  1.0 -0.1130826417
C  C28  1  0.94620000  0.42810000  0.02020000  1.0 -0.1299863285
C  C29  1  0.42810000  0.02020000  0.94620000  1.0 -0.1299863285
C  C30  1  0.02020000  0.94620000  0.42810000  1.0 -0.1299863285
C  C31  1  0.50430000  0.74230000  0.14430000  1.0 -0.1130826417
C  C32  1  0.74230000  0.14430000  0.50430000  1.0 -0.1130826417
C  C33  1  0.14430000  0.50430000  0.74230000  1.0 -0.1130826417
C  C34  1  0.83010000  0.40470000  0.04630000  1.0 -0.1030711955
C  C35  1  0.40470000  0.04630000  0.83010000  1.0 -0.1030711955
C  C36  1  0.04630000  0.83010000  0.40470000  1.0 -0.1030711955
N  N1  1  0.79500000  0.75820000  0.12770000  1.0 -0.2234763678
N  N2  1  0.75820000  0.12770000  0.79500000  1.0 -0.2234763678
N  N3  1  0.12770000  0.79500000  0.75820000  1.0 -0.2234763678
N  N4  1  0.69170000  0.78870000  0.10480000  1.0 0.0357909934
N  N5  1  0.78870000  0.10480000  0.69170000  1.0 0.0318543029
N  N6  1  0.10480000  0.69170000  0.78870000  1.0 0.0318543029
N  N7  1  0.67330000  0.80530000  0.00220000  1.0 -0.0470740188
N  N8  1  0.80530000  0.00220000  0.67330000  1.0 -0.0470740188
N  N9  1  0.00220000  0.67330000  0.80530000  1.0 -0.0470740188
N  N10  1  0.76650000  0.78960000  0.95320000  1.0 -0.2024247971
N  N11  1  0.78960000  0.95320000  0.76650000  1.0 -0.2024247971
N  N12  1  0.95320000  0.76650000  0.78960000  1.0 -0.2024247971
N  N13  1  0.56940000  0.43410000  0.15870000  1.0 -0.2234763678
N  N14  1  0.43410000  0.15870000  0.56940000  1.0 -0.2234763678
N  N15  1  0.15870000  0.56940000  0.43410000  1.0 -0.2234763678
N  N16  1  0.49310000  0.50920000  0.15900000  1.0 0.0601288551
N  N17  1  0.50920000  0.15900000  0.49310000  1.0 0.0601288551
N  N18  1  0.15900000  0.49310000  0.50920000  1.0 0.0601288551
N  N19  1  0.40010000  0.47430000  0.19510000  1.0 -0.0431809762
N  N20  1  0.47430000  0.19510000  0.40010000  1.0 -0.0431809762
N  N21  1  0.19510000  0.40010000  0.47430000  1.0 -0.0431809762
N  N22  1  0.41460000  0.37270000  0.22070000  1.0 -0.1858704812
N  N23  1  0.37270000  0.22070000  0.41460000  1.0 -0.1858704812
N  N24  1  0.22070000  0.41460000  0.37270000  1.0 -0.1858704812
N  N25  1  0.78670000  0.42760000  0.75840000  1.0 -0.228134451
N  N26  1  0.42760000  0.75840000  0.78670000  1.0 -0.228134451
N  N27  1  0.75840000  0.78670000  0.42760000  1.0 -0.228134451
N  N28  1  0.76590000  0.45050000  0.86130000  1.0 0.049238406
N  N29  1  0.45050000  0.86130000  0.76590000  1.0 0.049238406
N  N30  1  0.86130000  0.76590000  0.45050000  1.0 0.049238406
N  N31  1  0.75470000  0.55260000  0.88170000  1.0 -0.0431809762
N  N32  1  0.55260000  0.88170000  0.75470000  1.0 -0.0431809762
N  N33  1  0.88170000  0.75470000  0.55260000  1.0 -0.0431809762
N  N34  1  0.76480000  0.60080000  0.78770000  1.0 -0.2024247971
N  N35  1  0.60080000  0.78770000  0.76480000  1.0 -0.2024247971
N  N36  1  0.78770000  0.76480000  0.60080000  1.0 -0.2024247971
N  N37  1  0.12830000  0.38310000  0.97640000  1.0 -0.1790503414
N  N38  1  0.38310000  0.97640000  0.12830000  1.0 -0.1790503414
N  N39  1  0.97640000  0.12830000  0.38310000  1.0 -0.1790503414
N  N40  1  0.05490000  0.39720000  0.04860000  1.0 0.049238406
N  N41  1  0.39720000  0.04860000  0.05490000  1.0 0.049238406
N  N42  1  0.04860000  0.05490000  0.39720000  1.0 0.049238406
N  N43  1  0.08280000  0.36830000  0.14770000  1.0 -0.0588804684
N  N44  1  0.36830000  0.14770000  0.08280000  1.0 -0.0588804684
N  N45  1  0.14770000  0.08280000  0.36830000  1.0 -0.0588804684
N  N46  1  0.18170000  0.33440000  0.13940000  1.0 -0.1790503414
N  N47  1  0.33440000  0.13940000  0.18170000  1.0 -0.1790503414
N  N48  1  0.13940000  0.18170000  0.33440000  1.0 -0.1790503414
Cl  Cl1  1  0.51092000  0.51092000  0.51092000  1.0 1.2010962539
Cl  Cl2  1  0.16119000  0.70434000  0.09719000  1.0 0.8844320351
Cl  Cl3  1  0.09719000  0.16119000  0.70434000  1.0 0.8844320351
Cl  Cl4  1  0.70434000  0.09719000  0.16119000  1.0 0.8844320351
O  O1  1  0.57477000  0.57477000  0.57477000  1.0 -0.4100883559
O  O2  1  0.56170000  0.47460000  0.42070000  1.0 -0.4100883559
O  O3  1  0.47460000  0.42070000  0.56170000  1.0 -0.4100883559
O  O4  1  0.42070000  0.56170000  0.47460000  1.0 -0.4100883559
O  O5  1  0.20330000  0.75830000  0.19030000  1.0 -0.4322371608
O  O6  1  0.12060000  0.77140000  0.01750000  1.0 -0.4100883559
O  O7  1  0.22940000  0.62490000  0.06030000  1.0 -0.4322371608
O  O8  1  0.06520000  0.65050000  0.14340000  1.0 -0.4322371608
O  O9  1  0.19030000  0.20330000  0.75830000  1.0 -0.4322371608
O  O10  1  0.01750000  0.12060000  0.77140000  1.0 -0.4100883559
O  O11  1  0.06030000  0.22940000  0.62490000  1.0 -0.4322371608
O  O12  1  0.14340000  0.06520000  0.65050000  1.0 -0.4322371608
O  O13  1  0.75830000  0.19030000  0.20330000  1.0 -0.4322371608
O  O14  1  0.77140000  0.01750000  0.12060000  1.0 -0.4100883559
O  O15  1  0.62490000  0.06030000  0.22940000  1.0 -0.4322371608
O  O16  1  0.65050000  0.14340000  0.06520000  1.0 -0.4322371608
