# DDEC6 charges by PACMAN v1.1 (https://github.com/mtap-research/PACMAN-charge/)
data_WILREO_ASR_pacman
_symmetry_space_group_name_H-M   'P 1'
_cell_length_a   15.76200000
_cell_length_b   15.76200000
_cell_length_c   15.76200000
_cell_angle_alpha   90.00000000
_cell_angle_beta   90.00000000
_cell_angle_gamma   90.00000000
_symmetry_Int_Tables_number   1
_chemical_formula_structural   Cd2C5N3
_chemical_formula_sum   'Cd16 C40 N24'
_cell_volume   3915.92143073
_cell_formula_units_Z   8
loop_
 _symmetry_equiv_pos_site_id
 _symmetry_equiv_pos_as_xyz
  1  'x, y, z'
loop_
 _atom_site_type_symbol
 _atom_site_label
 _atom_site_symmetry_multiplicity
 _atom_site_fract_x
 _atom_site_fract_y
 _atom_site_fract_z
 _atom_site_occupancy
 _atom_site_charge
Cd  Cd1  1  0.25000000  0.50000000  0.00000000  1.0 0.909860312
Cd  Cd2  1  0.00000000  0.25000000  0.50000000  1.0 0.909860312
Cd  Cd3  1  0.75000000  0.50000000  0.00000000  1.0 0.909860312
Cd  Cd4  1  0.00000000  0.75000000  0.50000000  1.0 0.909860312
Cd  Cd5  1  0.50000000  0.00000000  0.25000000  1.0 0.909860312
Cd  Cd6  1  0.50000000  0.00000000  0.75000000  1.0 0.909860312
Cd  Cd7  1  0.00000000  0.00000000  0.00000000  1.0 0.8286406587
Cd  Cd8  1  0.50000000  0.50000000  0.50000000  1.0 0.8126493286
Cd  Cd9  1  0.20687000  0.20687000  0.20687000  1.0 0.3407350819
Cd  Cd10  1  0.70687000  0.29313000  0.29313000  1.0 0.3105644625
Cd  Cd11  1  0.20687000  0.79313000  0.79313000  1.0 0.3329540383
Cd  Cd12  1  0.79313000  0.79313000  0.20687000  1.0 0.3329540383
Cd  Cd13  1  0.29313000  0.29313000  0.70687000  1.0 0.3156592738
Cd  Cd14  1  0.29313000  0.70687000  0.29313000  1.0 0.3105644625
Cd  Cd15  1  0.79313000  0.20687000  0.79313000  1.0 0.3407350819
Cd  Cd16  1  0.70687000  0.70687000  0.70687000  1.0 0.2995724868
C  C1  1  0.23010000  0.31900000  0.12380000  1.0 0.2315063184
C  C2  1  0.81900000  0.26990000  0.37620000  1.0 0.2315063184
C  C3  1  0.23010000  0.68100000  0.87620000  1.0 0.2315063184
C  C4  1  0.12380000  0.23010000  0.31900000  1.0 0.2315063184
C  C5  1  0.76990000  0.68100000  0.12380000  1.0 0.2315063184
C  C6  1  0.18100000  0.26990000  0.62380000  1.0 0.2315063184
C  C7  1  0.73010000  0.37620000  0.18100000  1.0 0.2315063184
C  C8  1  0.18100000  0.73010000  0.37620000  1.0 0.2315063184
C  C9  1  0.76990000  0.31900000  0.87620000  1.0 0.2315063184
C  C10  1  0.87620000  0.76990000  0.31900000  1.0 0.2315063184
C  C11  1  0.81900000  0.73010000  0.62380000  1.0 0.2315063184
C  C12  1  0.26990000  0.62380000  0.18100000  1.0 0.2315063184
C  C13  1  0.12380000  0.76990000  0.68100000  1.0 0.2315063184
C  C14  1  0.73010000  0.62380000  0.81900000  1.0 0.2315063184
C  C15  1  0.87620000  0.23010000  0.68100000  1.0 0.2315063184
C  C16  1  0.26990000  0.37620000  0.81900000  1.0 0.2243429314
C  C17  1  0.31900000  0.12380000  0.23010000  1.0 0.2315063184
C  C18  1  0.62380000  0.18100000  0.26990000  1.0 0.2315063184
C  C19  1  0.37620000  0.18100000  0.73010000  1.0 0.2315063184
C  C20  1  0.31900000  0.87620000  0.76990000  1.0 0.2315063184
C  C21  1  0.62380000  0.81900000  0.73010000  1.0 0.2243429314
C  C22  1  0.68100000  0.12380000  0.76990000  1.0 0.2315063184
C  C23  1  0.68100000  0.87620000  0.23010000  1.0 0.2315063184
C  C24  1  0.37620000  0.81900000  0.26990000  1.0 0.2243429314
C  C25  1  0.08250000  0.08250000  0.08250000  1.0 -0.3073032755
C  C26  1  0.58250000  0.41750000  0.41750000  1.0 -0.2944365848
C  C27  1  0.08250000  0.91750000  0.91750000  1.0 -0.3073032755
C  C28  1  0.91750000  0.91750000  0.08250000  1.0 -0.3073032755
C  C29  1  0.41750000  0.41750000  0.58250000  1.0 -0.2944365848
C  C30  1  0.41750000  0.58250000  0.41750000  1.0 -0.2944365848
C  C31  1  0.91750000  0.08250000  0.91750000  1.0 -0.3073032755
C  C32  1  0.58250000  0.58250000  0.58250000  1.0 -0.2944365848
C  C33  1  0.12380000  0.12380000  0.12380000  1.0 -0.0621148155
C  C34  1  0.62380000  0.37620000  0.37620000  1.0 -0.0693686709
C  C35  1  0.12380000  0.87620000  0.87620000  1.0 -0.0621148155
C  C36  1  0.87620000  0.87620000  0.12380000  1.0 -0.0621148155
C  C37  1  0.37620000  0.37620000  0.62380000  1.0 -0.0693686709
C  C38  1  0.37620000  0.62380000  0.37620000  1.0 -0.0693686709
C  C39  1  0.87620000  0.12380000  0.87620000  1.0 -0.0621148155
C  C40  1  0.62380000  0.62380000  0.62380000  1.0 -0.0693686709
N  N1  1  0.23850000  0.37580000  0.08260000  1.0 -0.5180278281
N  N2  1  0.87580000  0.26150000  0.41740000  1.0 -0.5002800583
N  N3  1  0.23850000  0.62420000  0.91740000  1.0 -0.5180278281
N  N4  1  0.08260000  0.23850000  0.37580000  1.0 -0.5180278281
N  N5  1  0.76150000  0.62420000  0.08260000  1.0 -0.5180278281
N  N6  1  0.12420000  0.26150000  0.58260000  1.0 -0.5113240986
N  N7  1  0.73850000  0.41740000  0.12420000  1.0 -0.5113240986
N  N8  1  0.12420000  0.73850000  0.41740000  1.0 -0.5113240986
N  N9  1  0.76150000  0.37580000  0.91740000  1.0 -0.5180278281
N  N10  1  0.91740000  0.76150000  0.37580000  1.0 -0.5180278281
N  N11  1  0.87580000  0.73850000  0.58260000  1.0 -0.5002800583
N  N12  1  0.26150000  0.58260000  0.12420000  1.0 -0.5113240986
N  N13  1  0.08260000  0.76150000  0.62420000  1.0 -0.5180278281
N  N14  1  0.73850000  0.58260000  0.87580000  1.0 -0.5002800583
N  N15  1  0.91740000  0.23850000  0.62420000  1.0 -0.5180278281
N  N16  1  0.26150000  0.41740000  0.87580000  1.0 -0.5002800583
N  N17  1  0.37580000  0.08260000  0.23850000  1.0 -0.5180278281
N  N18  1  0.58260000  0.12420000  0.26150000  1.0 -0.5113240986
N  N19  1  0.41740000  0.12420000  0.73850000  1.0 -0.5113240986
N  N20  1  0.37580000  0.91740000  0.76150000  1.0 -0.5180278281
N  N21  1  0.58260000  0.87580000  0.73850000  1.0 -0.5002800583
N  N22  1  0.62420000  0.08260000  0.76150000  1.0 -0.5180278281
N  N23  1  0.62420000  0.91740000  0.23850000  1.0 -0.5180278281
N  N24  1  0.41740000  0.87580000  0.26150000  1.0 -0.5002800583
