# DDEC6 charges by PACMAN v1.1 (https://github.com/mtap-research/PACMAN-charge/)
data_WILREO_FSR_pacman
_symmetry_space_group_name_H-M   'P 1'
_cell_length_a   15.76200000
_cell_length_b   15.76200000
_cell_length_c   15.76200000
_cell_angle_alpha   90.00000000
_cell_angle_beta   90.00000000
_cell_angle_gamma   90.00000000
_symmetry_Int_Tables_number   1
_chemical_formula_structural   Cd4C10(N2O)3
_chemical_formula_sum   'Cd16 C40 N24 O12'
_cell_volume   3915.92143073
_cell_formula_units_Z   4
loop_
 _symmetry_equiv_pos_site_id
 _symmetry_equiv_pos_as_xyz
  1  'x, y, z'
loop_
 _atom_site_type_symbol
 _atom_site_label
 _atom_site_symmetry_multiplicity
 _atom_site_fract_x
 _atom_site_fract_y
 _atom_site_fract_z
 _atom_site_occupancy
 _atom_site_charge
Cd  Cd1  1  0.25000000  0.50000000  0.00000000  1.0 1.1973183002
Cd  Cd2  1  0.00000000  0.25000000  0.50000000  1.0 1.1973183002
Cd  Cd3  1  0.75000000  0.50000000  0.00000000  1.0 1.1973183002
Cd  Cd4  1  0.00000000  0.75000000  0.50000000  1.0 1.1973183002
Cd  Cd5  1  0.50000000  0.00000000  0.25000000  1.0 1.1973183002
Cd  Cd6  1  0.50000000  0.00000000  0.75000000  1.0 1.1973183002
Cd  Cd7  1  0.00000000  0.00000000  0.00000000  1.0 0.8726048118
Cd  Cd8  1  0.50000000  0.50000000  0.50000000  1.0 0.853857184
Cd  Cd9  1  0.20687000  0.20687000  0.20687000  1.0 0.3972095376
Cd  Cd10  1  0.70687000  0.29313000  0.29313000  1.0 0.3972095376
Cd  Cd11  1  0.20687000  0.79313000  0.79313000  1.0 0.3972095376
Cd  Cd12  1  0.79313000  0.79313000  0.20687000  1.0 0.3936287409
Cd  Cd13  1  0.29313000  0.29313000  0.70687000  1.0 0.3972095376
Cd  Cd14  1  0.29313000  0.70687000  0.29313000  1.0 0.3936287409
Cd  Cd15  1  0.79313000  0.20687000  0.79313000  1.0 0.3972095376
Cd  Cd16  1  0.70687000  0.70687000  0.70687000  1.0 0.3802806085
C  C1  1  0.23010000  0.31900000  0.12380000  1.0 0.2686933341
C  C2  1  0.81900000  0.26990000  0.37620000  1.0 0.2640099769
C  C3  1  0.23010000  0.68100000  0.87620000  1.0 0.2686933341
C  C4  1  0.12380000  0.23010000  0.31900000  1.0 0.2686933341
C  C5  1  0.76990000  0.68100000  0.12380000  1.0 0.2686933341
C  C6  1  0.18100000  0.26990000  0.62380000  1.0 0.2686933341
C  C7  1  0.73010000  0.37620000  0.18100000  1.0 0.2686933341
C  C8  1  0.18100000  0.73010000  0.37620000  1.0 0.2686933341
C  C9  1  0.76990000  0.31900000  0.87620000  1.0 0.2686933341
C  C10  1  0.87620000  0.76990000  0.31900000  1.0 0.2686933341
C  C11  1  0.81900000  0.73010000  0.62380000  1.0 0.2640099769
C  C12  1  0.26990000  0.62380000  0.18100000  1.0 0.2686933341
C  C13  1  0.12380000  0.76990000  0.68100000  1.0 0.2686933341
C  C14  1  0.73010000  0.62380000  0.81900000  1.0 0.2640099769
C  C15  1  0.87620000  0.23010000  0.68100000  1.0 0.2686933341
C  C16  1  0.26990000  0.37620000  0.81900000  1.0 0.2640099769
C  C17  1  0.31900000  0.12380000  0.23010000  1.0 0.2686933341
C  C18  1  0.62380000  0.18100000  0.26990000  1.0 0.2686933341
C  C19  1  0.37620000  0.18100000  0.73010000  1.0 0.2686933341
C  C20  1  0.31900000  0.87620000  0.76990000  1.0 0.2686933341
C  C21  1  0.62380000  0.81900000  0.73010000  1.0 0.2640099769
C  C22  1  0.68100000  0.12380000  0.76990000  1.0 0.2686933341
C  C23  1  0.68100000  0.87620000  0.23010000  1.0 0.2686933341
C  C24  1  0.37620000  0.81900000  0.26990000  1.0 0.2640099769
C  C25  1  0.08250000  0.08250000  0.08250000  1.0 -0.2205191756
C  C26  1  0.58250000  0.41750000  0.41750000  1.0 -0.1969684267
C  C27  1  0.08250000  0.91750000  0.91750000  1.0 -0.2205191756
C  C28  1  0.91750000  0.91750000  0.08250000  1.0 -0.2205191756
C  C29  1  0.41750000  0.41750000  0.58250000  1.0 -0.1969684267
C  C30  1  0.41750000  0.58250000  0.41750000  1.0 -0.1926826814
C  C31  1  0.91750000  0.08250000  0.91750000  1.0 -0.2205191756
C  C32  1  0.58250000  0.58250000  0.58250000  1.0 -0.1926826814
C  C33  1  0.12380000  0.12380000  0.12380000  1.0 0.0106001154
C  C34  1  0.62380000  0.37620000  0.37620000  1.0 -0.0071380192
C  C35  1  0.12380000  0.87620000  0.87620000  1.0 0.0106001154
C  C36  1  0.87620000  0.87620000  0.12380000  1.0 0.0106001154
C  C37  1  0.37620000  0.37620000  0.62380000  1.0 -0.0071380192
C  C38  1  0.37620000  0.62380000  0.37620000  1.0 -0.0071380192
C  C39  1  0.87620000  0.12380000  0.87620000  1.0 0.0106001154
C  C40  1  0.62380000  0.62380000  0.62380000  1.0 -0.0071380192
N  N1  1  0.23850000  0.37580000  0.08260000  1.0 -0.5303053396
N  N2  1  0.87580000  0.26150000  0.41740000  1.0 -0.5176299765
N  N3  1  0.23850000  0.62420000  0.91740000  1.0 -0.5303053396
N  N4  1  0.08260000  0.23850000  0.37580000  1.0 -0.5303053396
N  N5  1  0.76150000  0.62420000  0.08260000  1.0 -0.5303053396
N  N6  1  0.12420000  0.26150000  0.58260000  1.0 -0.5303053396
N  N7  1  0.73850000  0.41740000  0.12420000  1.0 -0.5303053396
N  N8  1  0.12420000  0.73850000  0.41740000  1.0 -0.5303053396
N  N9  1  0.76150000  0.37580000  0.91740000  1.0 -0.5303053396
N  N10  1  0.91740000  0.76150000  0.37580000  1.0 -0.5303053396
N  N11  1  0.87580000  0.73850000  0.58260000  1.0 -0.5176299765
N  N12  1  0.26150000  0.58260000  0.12420000  1.0 -0.5303053396
N  N13  1  0.08260000  0.76150000  0.62420000  1.0 -0.5303053396
N  N14  1  0.73850000  0.58260000  0.87580000  1.0 -0.5176299765
N  N15  1  0.91740000  0.23850000  0.62420000  1.0 -0.5303053396
N  N16  1  0.26150000  0.41740000  0.87580000  1.0 -0.5176299765
N  N17  1  0.37580000  0.08260000  0.23850000  1.0 -0.5303053396
N  N18  1  0.58260000  0.12420000  0.26150000  1.0 -0.5303053396
N  N19  1  0.41740000  0.12420000  0.73850000  1.0 -0.5303053396
N  N20  1  0.37580000  0.91740000  0.76150000  1.0 -0.5303053396
N  N21  1  0.58260000  0.87580000  0.73850000  1.0 -0.5176299765
N  N22  1  0.62420000  0.08260000  0.76150000  1.0 -0.5303053396
N  N23  1  0.62420000  0.91740000  0.23850000  1.0 -0.5303053396
N  N24  1  0.41740000  0.87580000  0.26150000  1.0 -0.5176299765
O  O1  1  0.39400000  0.50000000  0.00000000  1.0 -0.3433386439
O  O2  1  0.00000000  0.10600000  0.50000000  1.0 -0.3458058366
O  O3  1  0.00000000  0.39400000  0.50000000  1.0 -0.3433386439
O  O4  1  0.60600000  0.50000000  0.00000000  1.0 -0.3619247928
O  O5  1  0.89400000  0.50000000  0.00000000  1.0 -0.3433386439
O  O6  1  0.00000000  0.89400000  0.50000000  1.0 -0.3458058366
O  O7  1  0.00000000  0.60600000  0.50000000  1.0 -0.3619247928
O  O8  1  0.10600000  0.50000000  0.00000000  1.0 -0.3458058366
O  O9  1  0.50000000  0.00000000  0.39400000  1.0 -0.3433386439
O  O10  1  0.50000000  0.00000000  0.10600000  1.0 -0.3458058366
O  O11  1  0.50000000  0.00000000  0.89400000  1.0 -0.3433386439
O  O12  1  0.50000000  0.00000000  0.60600000  1.0 -0.3619247928
