# DDEC6 charges by PACMAN v1.1 (https://github.com/mtap-research/PACMAN-charge/)
data_WILRAK_ASR_pacman
_symmetry_space_group_name_H-M   'P 1'
_cell_length_a   15.66100000
_cell_length_b   15.66100000
_cell_length_c   15.66100000
_cell_angle_alpha   90.00000000
_cell_angle_beta   90.00000000
_cell_angle_gamma   90.00000000
_symmetry_Int_Tables_number   1
_chemical_formula_structural   Cd2C5N3
_chemical_formula_sum   'Cd16 C40 N24'
_cell_volume   3841.12524978
_cell_formula_units_Z   8
loop_
 _symmetry_equiv_pos_site_id
 _symmetry_equiv_pos_as_xyz
  1  'x, y, z'
loop_
 _atom_site_type_symbol
 _atom_site_label
 _atom_site_symmetry_multiplicity
 _atom_site_fract_x
 _atom_site_fract_y
 _atom_site_fract_z
 _atom_site_occupancy
 _atom_site_charge
Cd  Cd1  1  0.25000000  0.50000000  0.00000000  1.0 0.9744442926
Cd  Cd2  1  0.00000000  0.25000000  0.50000000  1.0 0.9744442926
Cd  Cd3  1  0.75000000  0.50000000  0.00000000  1.0 0.9774170147
Cd  Cd4  1  0.00000000  0.75000000  0.50000000  1.0 0.9774170147
Cd  Cd5  1  0.50000000  0.00000000  0.25000000  1.0 0.9744442926
Cd  Cd6  1  0.50000000  0.00000000  0.75000000  1.0 0.9774170147
Cd  Cd7  1  0.00000000  0.00000000  0.00000000  1.0 0.8602319585
Cd  Cd8  1  0.50000000  0.50000000  0.50000000  1.0 0.8654235826
Cd  Cd9  1  0.20754000  0.20754000  0.20754000  1.0 0.0164969192
Cd  Cd10  1  0.70754000  0.29246000  0.29246000  1.0 0.0565167518
Cd  Cd11  1  0.20754000  0.79246000  0.79246000  1.0 -0.0009807552
Cd  Cd12  1  0.79246000  0.79246000  0.20754000  1.0 0.0044071974
Cd  Cd13  1  0.29246000  0.29246000  0.70754000  1.0 0.0565167518
Cd  Cd14  1  0.29246000  0.70754000  0.29246000  1.0 0.0479766504
Cd  Cd15  1  0.79246000  0.20754000  0.79246000  1.0 0.0087313802
Cd  Cd16  1  0.70754000  0.70754000  0.70754000  1.0 -0.0009807552
C  C1  1  0.23170000  0.32330000  0.12370000  1.0 0.3185125665
C  C2  1  0.82330000  0.26830000  0.37630000  1.0 0.2994599269
C  C3  1  0.23170000  0.67670000  0.87630000  1.0 0.3081229872
C  C4  1  0.12370000  0.23170000  0.32330000  1.0 0.3185125665
C  C5  1  0.76830000  0.67670000  0.12370000  1.0 0.3081229872
C  C6  1  0.17670000  0.26830000  0.62370000  1.0 0.3081229872
C  C7  1  0.73170000  0.37630000  0.17670000  1.0 0.3081229872
C  C8  1  0.17670000  0.73170000  0.37630000  1.0 0.3081229872
C  C9  1  0.76830000  0.32330000  0.87630000  1.0 0.3185125665
C  C10  1  0.87630000  0.76830000  0.32330000  1.0 0.3185125665
C  C11  1  0.82330000  0.73170000  0.62370000  1.0 0.3081229872
C  C12  1  0.26830000  0.62370000  0.17670000  1.0 0.3081229872
C  C13  1  0.12370000  0.76830000  0.67670000  1.0 0.3081229872
C  C14  1  0.73170000  0.62370000  0.82330000  1.0 0.3081229872
C  C15  1  0.87630000  0.23170000  0.67670000  1.0 0.3081229872
C  C16  1  0.26830000  0.37630000  0.82330000  1.0 0.2994599269
C  C17  1  0.32330000  0.12370000  0.23170000  1.0 0.3185125665
C  C18  1  0.62370000  0.17670000  0.26830000  1.0 0.3081229872
C  C19  1  0.37630000  0.17670000  0.73170000  1.0 0.3081229872
C  C20  1  0.32330000  0.87630000  0.76830000  1.0 0.3185125665
C  C21  1  0.62370000  0.82330000  0.73170000  1.0 0.3081229872
C  C22  1  0.67670000  0.12370000  0.76830000  1.0 0.3081229872
C  C23  1  0.67670000  0.87630000  0.23170000  1.0 0.3081229872
C  C24  1  0.37630000  0.82330000  0.26830000  1.0 0.2994599269
C  C25  1  0.08127000  0.08127000  0.08127000  1.0 -0.3677929653
C  C26  1  0.58127000  0.41873000  0.41873000  1.0 -0.3782264763
C  C27  1  0.08127000  0.91873000  0.91873000  1.0 -0.3677929653
C  C28  1  0.91873000  0.91873000  0.08127000  1.0 -0.3677929653
C  C29  1  0.41873000  0.41873000  0.58127000  1.0 -0.3782264763
C  C30  1  0.41873000  0.58127000  0.41873000  1.0 -0.3782264763
C  C31  1  0.91873000  0.08127000  0.91873000  1.0 -0.3677929653
C  C32  1  0.58127000  0.58127000  0.58127000  1.0 -0.3677929653
C  C33  1  0.12520000  0.12520000  0.12520000  1.0 -0.0172175447
C  C34  1  0.62520000  0.37480000  0.37480000  1.0 -0.0172175447
C  C35  1  0.12520000  0.87480000  0.87480000  1.0 -0.0172175447
C  C36  1  0.87480000  0.87480000  0.12520000  1.0 -0.0172175447
C  C37  1  0.37480000  0.37480000  0.62520000  1.0 -0.0172175447
C  C38  1  0.37480000  0.62520000  0.37480000  1.0 -0.0172175447
C  C39  1  0.87480000  0.12520000  0.87480000  1.0 -0.0172175447
C  C40  1  0.62520000  0.62520000  0.62520000  1.0 -0.0172175447
N  N1  1  0.24010000  0.37840000  0.08440000  1.0 -0.5092981183
N  N2  1  0.87840000  0.25990000  0.41560000  1.0 -0.4981884632
N  N3  1  0.24010000  0.62160000  0.91560000  1.0 -0.4981884632
N  N4  1  0.08440000  0.24010000  0.37840000  1.0 -0.5092981183
N  N5  1  0.75990000  0.62160000  0.08440000  1.0 -0.4981884632
N  N6  1  0.12160000  0.25990000  0.58440000  1.0 -0.5092981183
N  N7  1  0.74010000  0.41560000  0.12160000  1.0 -0.5092981183
N  N8  1  0.12160000  0.74010000  0.41560000  1.0 -0.5092981183
N  N9  1  0.75990000  0.37840000  0.91560000  1.0 -0.5092981183
N  N10  1  0.91560000  0.75990000  0.37840000  1.0 -0.5092981183
N  N11  1  0.87840000  0.74010000  0.58440000  1.0 -0.4981884632
N  N12  1  0.25990000  0.58440000  0.12160000  1.0 -0.5092981183
N  N13  1  0.08440000  0.75990000  0.62160000  1.0 -0.4981884632
N  N14  1  0.74010000  0.58440000  0.87840000  1.0 -0.4981884632
N  N15  1  0.91560000  0.24010000  0.62160000  1.0 -0.4981884632
N  N16  1  0.25990000  0.41560000  0.87840000  1.0 -0.4981884632
N  N17  1  0.37840000  0.08440000  0.24010000  1.0 -0.5092981183
N  N18  1  0.58440000  0.12160000  0.25990000  1.0 -0.5092981183
N  N19  1  0.41560000  0.12160000  0.74010000  1.0 -0.5092981183
N  N20  1  0.37840000  0.91560000  0.75990000  1.0 -0.5092981183
N  N21  1  0.58440000  0.87840000  0.74010000  1.0 -0.4981884632
N  N22  1  0.62160000  0.08440000  0.75990000  1.0 -0.4981884632
N  N23  1  0.62160000  0.91560000  0.24010000  1.0 -0.4981884632
N  N24  1  0.41560000  0.87840000  0.25990000  1.0 -0.4981884632
