# DDEC6 charges by PACMAN v1.1 (https://github.com/mtap-research/PACMAN-charge/)
data_WINHOU_ion_pacman
_symmetry_space_group_name_H-M   'P 1'
_cell_length_a   15.52100000
_cell_length_b   21.92000000
_cell_length_c   25.66680000
_cell_angle_alpha   90.00000000
_cell_angle_beta   115.26300000
_cell_angle_gamma   90.00000000
_symmetry_Int_Tables_number   1
_chemical_formula_structural   Zn3BH50C66N11(O9F2)2
_chemical_formula_sum   'Zn12 B4 H200 C264 N44 O72 F16'
_cell_volume   7897.18881447
_cell_formula_units_Z   4
loop_
 _symmetry_equiv_pos_site_id
 _symmetry_equiv_pos_as_xyz
  1  'x, y, z'
loop_
 _atom_site_type_symbol
 _atom_site_label
 _atom_site_symmetry_multiplicity
 _atom_site_fract_x
 _atom_site_fract_y
 _atom_site_fract_z
 _atom_site_occupancy
 _atom_site_charge
Zn  Zn1  1  0.56025000  0.93181000  0.38541000  1.0 0.7297312101
Zn  Zn2  1  0.55214000  0.91772000  0.88561000  1.0 0.6809575637
Zn  Zn3  1  0.43975000  0.43181000  0.11459000  1.0 0.7297312101
Zn  Zn4  1  0.44786000  0.41772000  0.61439000  1.0 0.6809575637
Zn  Zn5  1  0.43975000  0.06819000  0.61459000  1.0 0.7297312101
Zn  Zn6  1  0.44786000  0.08228000  0.11439000  1.0 0.6809575637
Zn  Zn7  1  0.56025000  0.56819000  0.88541000  1.0 0.7297312101
Zn  Zn8  1  0.55214000  0.58228000  0.38561000  1.0 0.6809575637
Zn  Zn9  1  0.37595000  0.73692000  0.70651000  1.0 0.7888268312
Zn  Zn10  1  0.37595000  0.76308000  0.20651000  1.0 0.7888268312
Zn  Zn11  1  0.62405000  0.23692000  0.79349000  1.0 0.7888268312
Zn  Zn12  1  0.62405000  0.26308000  0.29349000  1.0 0.7888268312
B  B1  1  0.04310000  0.25370000  0.40380000  1.0 1.04891752
B  B2  1  0.95690000  0.75370000  0.09620000  1.0 1.0430863579
B  B3  1  0.95690000  0.74630000  0.59620000  1.0 1.04891752
B  B4  1  0.04310000  0.24630000  0.90380000  1.0 1.04891752
H  H1  1  0.26241000  0.91192000  0.38249000  1.0 0.1186388596
H  H2  1  0.09914000  0.91076000  0.34585000  1.0 0.1110698108
H  H3  1  0.24695000  0.94500000  0.22562000  1.0 0.1110698108
H  H4  1  0.94932000  0.93462000  0.31160000  1.0 0.1186388596
H  H5  1  0.94333000  0.91445000  0.15501000  1.0 0.1301059363
H  H6  1  0.86156000  0.91262000  0.35812000  1.0 0.1301059363
H  H7  1  0.77090000  0.91350000  0.40690000  1.0 0.0995144876
H  H8  1  0.63520000  0.95506000  0.21387000  1.0 0.1110698108
H  H9  1  0.74222000  0.86250000  0.97369000  1.0 0.1110698108
H  H10  1  0.55830000  0.96838000  0.99386000  1.0 0.0826134807
H  H11  1  0.64559000  0.97016000  0.09130000  1.0 0.1186388596
H  H12  1  0.25360000  0.91392000  0.88646000  1.0 0.1110698108
H  H13  1  0.09001000  0.91260000  0.84914000  1.0 0.1110698108
H  H14  1  0.07971000  0.88723000  0.69265000  1.0 0.1186388596
H  H15  1  0.24267000  0.89308000  0.73042000  1.0 0.1110698108
H  H16  1  0.94149000  0.90102000  0.81368000  1.0 0.1110698108
H  H17  1  0.93691000  0.89968000  0.65645000  1.0 0.1301059363
H  H18  1  0.85516000  0.93129000  0.85940000  1.0 0.1388251413
H  H19  1  0.75866000  0.93924000  0.90533000  1.0 0.0914194277
H  H20  1  0.53897000  0.89044000  0.76816000  1.0 0.0914194277
H  H21  1  0.62570000  0.88724000  0.71657000  1.0 0.1301059363
H  H22  1  0.65254000  0.96937000  0.59540000  1.0 0.1301059363
H  H23  1  0.57045000  0.97801000  0.49735000  1.0 0.1110698108
H  H24  1  0.54414000  0.81303000  0.40392000  1.0 0.3008484323
H  H25  1  0.54367000  0.81517000  0.35147000  1.0 0.3349874993
H  H26  1  0.53919000  0.79965000  0.91359000  1.0 0.3567211707
H  H27  1  0.53091000  0.79775000  0.85578000  1.0 0.374614202
H  H28  1  0.73060000  0.85570000  0.47460000  1.0 0.1110698108
H  H29  1  0.83670000  0.86300000  0.07170000  1.0 0.1497723688
H  H30  1  0.81960000  0.84630000  0.57060000  1.0 0.1497723688
H  H31  1  0.08080000  0.94830000  0.18680000  1.0 0.1110698108
H  H32  1  0.54300000  0.95520000  0.26200000  1.0 0.0914194277
H  H33  1  0.73759000  0.41192000  0.11751000  1.0 0.1186388596
H  H34  1  0.90086000  0.41076000  0.15415000  1.0 0.1110698108
H  H35  1  0.75305000  0.44500000  0.27438000  1.0 0.1110698108
H  H36  1  0.05068000  0.43462000  0.18840000  1.0 0.1186388596
H  H37  1  0.05667000  0.41445000  0.34499000  1.0 0.1301059363
H  H38  1  0.13844000  0.41262000  0.14188000  1.0 0.1301059363
H  H39  1  0.22910000  0.41350000  0.09310000  1.0 0.0995144876
H  H40  1  0.36480000  0.45506000  0.28613000  1.0 0.1110698108
H  H41  1  0.25778000  0.36250000  0.52631000  1.0 0.1110698108
H  H42  1  0.44170000  0.46838000  0.50614000  1.0 0.0826134807
H  H43  1  0.35441000  0.47016000  0.40870000  1.0 0.1186388596
H  H44  1  0.74640000  0.41392000  0.61354000  1.0 0.1110698108
H  H45  1  0.90999000  0.41260000  0.65086000  1.0 0.1110698108
H  H46  1  0.92029000  0.38723000  0.80735000  1.0 0.1186388596
H  H47  1  0.75733000  0.39308000  0.76958000  1.0 0.1110698108
H  H48  1  0.05851000  0.40102000  0.68632000  1.0 0.1110698108
H  H49  1  0.06309000  0.39968000  0.84355000  1.0 0.1301059363
H  H50  1  0.14484000  0.43129000  0.64060000  1.0 0.1388251413
H  H51  1  0.24134000  0.43924000  0.59467000  1.0 0.0914194277
H  H52  1  0.46103000  0.39044000  0.73184000  1.0 0.0914194277
H  H53  1  0.37430000  0.38724000  0.78343000  1.0 0.1301059363
H  H54  1  0.34746000  0.46937000  0.90460000  1.0 0.1301059363
H  H55  1  0.42955000  0.47801000  0.00265000  1.0 0.1110698108
H  H56  1  0.45586000  0.31303000  0.09608000  1.0 0.3008484323
H  H57  1  0.45633000  0.31517000  0.14853000  1.0 0.3349874993
H  H58  1  0.46081000  0.29965000  0.58641000  1.0 0.3567211707
H  H59  1  0.46909000  0.29775000  0.64422000  1.0 0.374614202
H  H60  1  0.26940000  0.35570000  0.02540000  1.0 0.1110698108
H  H61  1  0.16330000  0.36300000  0.42830000  1.0 0.1497723688
H  H62  1  0.18040000  0.34630000  0.92940000  1.0 0.1497723688
H  H63  1  0.91920000  0.44830000  0.31320000  1.0 0.1110698108
H  H64  1  0.45700000  0.45520000  0.23800000  1.0 0.0914194277
H  H65  1  0.73759000  0.08808000  0.61751000  1.0 0.1186388596
H  H66  1  0.90086000  0.08924000  0.65415000  1.0 0.1110698108
H  H67  1  0.75305000  0.05500000  0.77438000  1.0 0.1110698108
H  H68  1  0.05068000  0.06538000  0.68840000  1.0 0.1186388596
H  H69  1  0.05667000  0.08555000  0.84499000  1.0 0.1301059363
H  H70  1  0.13844000  0.08738000  0.64188000  1.0 0.1301059363
H  H71  1  0.22910000  0.08650000  0.59310000  1.0 0.0995144876
H  H72  1  0.36480000  0.04494000  0.78613000  1.0 0.1110698108
H  H73  1  0.25778000  0.13750000  0.02631000  1.0 0.1110698108
H  H74  1  0.44170000  0.03162000  0.00614000  1.0 0.0826134807
H  H75  1  0.35441000  0.02984000  0.90870000  1.0 0.1186388596
H  H76  1  0.74640000  0.08608000  0.11354000  1.0 0.1110698108
H  H77  1  0.90999000  0.08740000  0.15086000  1.0 0.1110698108
H  H78  1  0.92029000  0.11277000  0.30735000  1.0 0.1186388596
H  H79  1  0.75733000  0.10692000  0.26958000  1.0 0.1110698108
H  H80  1  0.05851000  0.09898000  0.18632000  1.0 0.1110698108
H  H81  1  0.06309000  0.10032000  0.34355000  1.0 0.1301059363
H  H82  1  0.14484000  0.06871000  0.14060000  1.0 0.1388251413
H  H83  1  0.24134000  0.06076000  0.09467000  1.0 0.0914194277
H  H84  1  0.46103000  0.10956000  0.23184000  1.0 0.0914194277
H  H85  1  0.37430000  0.11276000  0.28343000  1.0 0.1301059363
H  H86  1  0.34746000  0.03063000  0.40460000  1.0 0.1301059363
H  H87  1  0.42955000  0.02199000  0.50265000  1.0 0.1110698108
H  H88  1  0.45586000  0.18697000  0.59608000  1.0 0.3008484323
H  H89  1  0.45633000  0.18483000  0.64853000  1.0 0.3349874993
H  H90  1  0.46081000  0.20035000  0.08641000  1.0 0.3567211707
H  H91  1  0.46909000  0.20225000  0.14422000  1.0 0.374614202
H  H92  1  0.26940000  0.14430000  0.52540000  1.0 0.1110698108
H  H93  1  0.16330000  0.13700000  0.92830000  1.0 0.1497723688
H  H94  1  0.18040000  0.15370000  0.42940000  1.0 0.1497723688
H  H95  1  0.91920000  0.05170000  0.81320000  1.0 0.1110698108
H  H96  1  0.45700000  0.04480000  0.73800000  1.0 0.0914194277
H  H97  1  0.26241000  0.58808000  0.88249000  1.0 0.1186388596
H  H98  1  0.09914000  0.58924000  0.84585000  1.0 0.1110698108
H  H99  1  0.24695000  0.55500000  0.72562000  1.0 0.1110698108
H  H100  1  0.94932000  0.56538000  0.81160000  1.0 0.1186388596
H  H101  1  0.94333000  0.58555000  0.65501000  1.0 0.1301059363
H  H102  1  0.86156000  0.58738000  0.85812000  1.0 0.1301059363
H  H103  1  0.77090000  0.58650000  0.90690000  1.0 0.0995144876
H  H104  1  0.63520000  0.54494000  0.71387000  1.0 0.1110698108
H  H105  1  0.74222000  0.63750000  0.47369000  1.0 0.1110698108
H  H106  1  0.55830000  0.53162000  0.49386000  1.0 0.0826134807
H  H107  1  0.64559000  0.52984000  0.59130000  1.0 0.1186388596
H  H108  1  0.25360000  0.58608000  0.38646000  1.0 0.1110698108
H  H109  1  0.09001000  0.58740000  0.34914000  1.0 0.1110698108
H  H110  1  0.07971000  0.61277000  0.19265000  1.0 0.1186388596
H  H111  1  0.24267000  0.60692000  0.23042000  1.0 0.1110698108
H  H112  1  0.94149000  0.59898000  0.31368000  1.0 0.1110698108
H  H113  1  0.93691000  0.60032000  0.15645000  1.0 0.1301059363
H  H114  1  0.85516000  0.56871000  0.35940000  1.0 0.1388251413
H  H115  1  0.75866000  0.56076000  0.40533000  1.0 0.0914194277
H  H116  1  0.53897000  0.60956000  0.26816000  1.0 0.0914194277
H  H117  1  0.62570000  0.61276000  0.21657000  1.0 0.1301059363
H  H118  1  0.65254000  0.53063000  0.09540000  1.0 0.1301059363
H  H119  1  0.57045000  0.52199000  0.99735000  1.0 0.1110698108
H  H120  1  0.54414000  0.68697000  0.90392000  1.0 0.3008484323
H  H121  1  0.54367000  0.68483000  0.85147000  1.0 0.3349874993
H  H122  1  0.53919000  0.70035000  0.41359000  1.0 0.3567211707
H  H123  1  0.53091000  0.70225000  0.35578000  1.0 0.374614202
H  H124  1  0.73060000  0.64430000  0.97460000  1.0 0.1110698108
H  H125  1  0.83670000  0.63700000  0.57170000  1.0 0.1497723688
H  H126  1  0.81960000  0.65370000  0.07060000  1.0 0.1497723688
H  H127  1  0.08080000  0.55170000  0.68680000  1.0 0.1110698108
H  H128  1  0.54300000  0.54480000  0.76200000  1.0 0.0914194277
H  H129  1  0.37898000  0.85667000  0.68436000  1.0 0.2898838599
H  H130  1  0.37898000  0.64333000  0.18436000  1.0 0.2898838599
H  H131  1  0.38686000  0.85412000  0.73862000  1.0 0.312745132
H  H132  1  0.38686000  0.64588000  0.23862000  1.0 0.312745132
H  H133  1  0.40085000  0.62443000  0.68531000  1.0 0.284426861
H  H134  1  0.40085000  0.87557000  0.18531000  1.0 0.284426861
H  H135  1  0.38883000  0.62261000  0.73418000  1.0 0.3173235734
H  H136  1  0.38883000  0.87739000  0.23418000  1.0 0.3173235734
H  H137  1  0.67648000  0.72222000  0.70748000  1.0 0.1186388596
H  H138  1  0.67648000  0.77778000  0.20748000  1.0 0.1186388596
H  H139  1  0.68830000  0.75267000  0.86343000  1.0 0.1110698108
H  H140  1  0.68830000  0.74733000  0.36343000  1.0 0.1110698108
H  H141  1  0.83988000  0.72427000  0.74490000  1.0 0.1186388596
H  H142  1  0.83988000  0.77573000  0.24490000  1.0 0.1186388596
H  H143  1  0.85230000  0.75731000  0.90081000  1.0 0.1186388596
H  H144  1  0.85230000  0.74269000  0.40081000  1.0 0.1186388596
H  H145  1  0.98890000  0.74051000  0.77958000  1.0 0.1301059363
H  H146  1  0.98890000  0.75949000  0.27958000  1.0 0.1301059363
H  H147  1  0.99260000  0.74687000  0.93624000  1.0 0.1301059363
H  H148  1  0.99260000  0.75313000  0.43624000  1.0 0.1301059363
H  H149  1  0.07680000  0.71315000  0.73493000  1.0 0.1388251413
H  H150  1  0.07680000  0.78685000  0.23493000  1.0 0.1388251413
H  H151  1  0.30340000  0.76180000  0.87240000  1.0 0.1301059363
H  H152  1  0.30340000  0.73820000  0.37240000  1.0 0.1301059363
H  H153  1  0.29769000  0.78557000  0.99678000  1.0 0.1301059363
H  H154  1  0.29769000  0.71443000  0.49678000  1.0 0.1301059363
H  H155  1  0.08505000  0.71503000  0.02445000  1.0 0.1388251413
H  H156  1  0.08505000  0.78497000  0.52445000  1.0 0.1388251413
H  H157  1  0.17330000  0.70664000  0.68845000  1.0 0.1110698108
H  H158  1  0.17330000  0.79336000  0.18845000  1.0 0.1110698108
H  H159  1  0.39080000  0.75944000  0.82565000  1.0 0.0914194277
H  H160  1  0.39080000  0.74056000  0.32565000  1.0 0.0914194277
H  H161  1  0.38940000  0.79050000  0.09740000  1.0 0.0995144876
H  H162  1  0.38940000  0.70950000  0.59740000  1.0 0.0995144876
H  H163  1  0.18083000  0.71890000  0.12178000  1.0 0.1110698108
H  H164  1  0.18083000  0.78110000  0.62178000  1.0 0.1110698108
H  H165  1  0.62102000  0.35667000  0.81564000  1.0 0.2898838599
H  H166  1  0.62102000  0.14333000  0.31564000  1.0 0.2898838599
H  H167  1  0.61314000  0.35412000  0.76138000  1.0 0.312745132
H  H168  1  0.61314000  0.14588000  0.26138000  1.0 0.312745132
H  H169  1  0.59915000  0.12443000  0.81469000  1.0 0.284426861
H  H170  1  0.59915000  0.37557000  0.31469000  1.0 0.284426861
H  H171  1  0.61117000  0.12261000  0.76582000  1.0 0.3173235734
H  H172  1  0.61117000  0.37739000  0.26582000  1.0 0.3173235734
H  H173  1  0.32352000  0.22222000  0.79252000  1.0 0.1186388596
H  H174  1  0.32352000  0.27778000  0.29252000  1.0 0.1186388596
H  H175  1  0.31170000  0.25267000  0.63657000  1.0 0.1110698108
H  H176  1  0.31170000  0.24733000  0.13657000  1.0 0.1110698108
H  H177  1  0.16012000  0.22427000  0.75510000  1.0 0.1186388596
H  H178  1  0.16012000  0.27573000  0.25510000  1.0 0.1186388596
H  H179  1  0.14770000  0.25731000  0.59919000  1.0 0.1186388596
H  H180  1  0.14770000  0.24269000  0.09919000  1.0 0.1186388596
H  H181  1  0.01110000  0.24051000  0.72042000  1.0 0.1301059363
H  H182  1  0.01110000  0.25949000  0.22042000  1.0 0.1301059363
H  H183  1  0.00740000  0.24687000  0.56376000  1.0 0.1301059363
H  H184  1  0.00740000  0.25313000  0.06376000  1.0 0.1301059363
H  H185  1  0.92320000  0.21315000  0.76507000  1.0 0.1388251413
H  H186  1  0.92320000  0.28685000  0.26507000  1.0 0.1388251413
H  H187  1  0.69660000  0.26180000  0.62760000  1.0 0.1301059363
H  H188  1  0.69660000  0.23820000  0.12760000  1.0 0.1301059363
H  H189  1  0.70231000  0.28557000  0.50322000  1.0 0.1301059363
H  H190  1  0.70231000  0.21443000  0.00322000  1.0 0.1301059363
H  H191  1  0.91495000  0.21503000  0.47555000  1.0 0.1388251413
H  H192  1  0.91495000  0.28497000  0.97555000  1.0 0.1388251413
H  H193  1  0.82670000  0.20664000  0.81155000  1.0 0.1110698108
H  H194  1  0.82670000  0.29336000  0.31155000  1.0 0.1110698108
H  H195  1  0.60920000  0.25944000  0.67435000  1.0 0.0914194277
H  H196  1  0.60920000  0.24056000  0.17435000  1.0 0.0914194277
H  H197  1  0.61060000  0.29050000  0.40260000  1.0 0.0995144876
H  H198  1  0.61060000  0.20950000  0.90260000  1.0 0.0995144876
H  H199  1  0.81917000  0.21890000  0.37822000  1.0 0.1110698108
H  H200  1  0.81917000  0.28110000  0.87822000  1.0 0.1110698108
C  C1  1  0.37855000  0.93026000  0.33205000  1.0 0.5409616907
C  C2  1  0.27151000  0.92884000  0.30811000  1.0 -0.0267423815
C  C3  1  0.22623000  0.91854000  0.34333000  1.0 -0.1089309971
C  C4  1  0.12830000  0.91790000  0.32140000  1.0 -0.1496317196
C  C5  1  0.07233000  0.92788000  0.26283000  1.0 0.0686697286
C  C6  1  0.11884000  0.93846000  0.22794000  1.0 -0.1496317196
C  C7  1  0.21733000  0.93850000  0.24993000  1.0 -0.1089309971
C  C8  1  0.96613000  0.92605000  0.23793000  1.0 0.1110698108
C  C9  1  0.91641000  0.93099000  0.27181000  1.0 -0.2308143149
C  C10  1  0.81774000  0.93049000  0.24604000  1.0 0.200744278
C  C11  1  0.81430000  0.92125000  0.15590000  1.0 0.2093407721
C  C12  1  0.91292000  0.91972000  0.17902000  1.0 -0.2228748719
C  C13  1  0.75981000  0.93246000  0.27991000  1.0 0.0914194277
C  C14  1  0.79695000  0.92080000  0.33765000  1.0 -0.1774586062
C  C15  1  0.73801000  0.92130000  0.36541000  1.0 0.0686697286
C  C16  1  0.60983000  0.94430000  0.28363000  1.0 0.0416080975
C  C17  1  0.66349000  0.94550000  0.25289000  1.0 -0.1703249584
C  C18  1  0.75460000  0.91902000  0.09260000  1.0 0.0995144876
C  C19  1  0.78262000  0.88707000  0.05582000  1.0 -0.1703249584
C  C20  1  0.72373000  0.88572000  0.99753000  1.0 0.0826134807
C  C21  1  0.61549000  0.94699000  0.00959000  1.0 0.0599975613
C  C22  1  0.66802000  0.94893000  0.06822000  1.0 -0.1703249584
C  C23  1  0.37207000  0.90662000  0.83747000  1.0 0.5229464252
C  C24  1  0.26502000  0.90494000  0.81272000  1.0 -0.0399526073
C  C25  1  0.21830000  0.90970000  0.84690000  1.0 -0.0990243102
C  C26  1  0.11992000  0.90830000  0.82472000  1.0 -0.1496317196
C  C27  1  0.06563000  0.90055000  0.76573000  1.0 0.0686697286
C  C28  1  0.11417000  0.89390000  0.73197000  1.0 -0.1324950899
C  C29  1  0.21220000  0.89670000  0.75460000  1.0 -0.1089309971
C  C30  1  0.95950000  0.90031000  0.74020000  1.0 0.1186388596
C  C31  1  0.90893000  0.90213000  0.77373000  1.0 -0.2391598257
C  C32  1  0.80989000  0.90560000  0.74779000  1.0 0.200744278
C  C33  1  0.80779000  0.90529000  0.65769000  1.0 0.2161322017
C  C34  1  0.90640000  0.90146000  0.68070000  1.0 -0.2308143149
C  C35  1  0.75256000  0.90864000  0.78136000  1.0 0.0995144876
C  C36  1  0.79023000  0.92380000  0.83923000  1.0 -0.1936550806
C  C37  1  0.73159000  0.92760000  0.86679000  1.0 0.0599975613
C  C38  1  0.60343000  0.90010000  0.78663000  1.0 0.0599975613
C  C39  1  0.65541000  0.89710000  0.75551000  1.0 -0.1703249584
C  C40  1  0.74992000  0.90916000  0.59402000  1.0 0.0914194277
C  C41  1  0.67150000  0.94704000  0.57130000  1.0 -0.1625024272
C  C42  1  0.62185000  0.95128000  0.51225000  1.0 0.0686697286
C  C43  1  0.71664000  0.88071000  0.49774000  1.0 0.0686697286
C  C44  1  0.77281000  0.87534000  0.55641000  1.0 -0.1703249584
C  C45  1  0.62145000  0.43026000  0.16795000  1.0 0.5409616907
C  C46  1  0.72849000  0.42884000  0.19189000  1.0 -0.0267423815
C  C47  1  0.77377000  0.41854000  0.15667000  1.0 -0.1089309971
C  C48  1  0.87170000  0.41790000  0.17860000  1.0 -0.1496317196
C  C49  1  0.92767000  0.42788000  0.23717000  1.0 0.0686697286
C  C50  1  0.88116000  0.43846000  0.27206000  1.0 -0.1496317196
C  C51  1  0.78267000  0.43850000  0.25007000  1.0 -0.1089309971
C  C52  1  0.03387000  0.42605000  0.26207000  1.0 0.1110698108
C  C53  1  0.08359000  0.43099000  0.22819000  1.0 -0.2308143149
C  C54  1  0.18226000  0.43049000  0.25396000  1.0 0.200744278
C  C55  1  0.18570000  0.42125000  0.34410000  1.0 0.2093407721
C  C56  1  0.08708000  0.41972000  0.32098000  1.0 -0.2228748719
C  C57  1  0.24019000  0.43246000  0.22009000  1.0 0.0914194277
C  C58  1  0.20305000  0.42080000  0.16235000  1.0 -0.1774586062
C  C59  1  0.26199000  0.42130000  0.13459000  1.0 0.0686697286
C  C60  1  0.39017000  0.44430000  0.21637000  1.0 0.0416080975
C  C61  1  0.33651000  0.44550000  0.24711000  1.0 -0.1703249584
C  C62  1  0.24540000  0.41902000  0.40740000  1.0 0.0995144876
C  C63  1  0.21738000  0.38707000  0.44418000  1.0 -0.1625024272
C  C64  1  0.27627000  0.38572000  0.50247000  1.0 0.0826134807
C  C65  1  0.38451000  0.44699000  0.49041000  1.0 0.0599975613
C  C66  1  0.33198000  0.44893000  0.43178000  1.0 -0.1703249584
C  C67  1  0.62793000  0.40662000  0.66253000  1.0 0.5229464252
C  C68  1  0.73498000  0.40494000  0.68728000  1.0 -0.0399526073
C  C69  1  0.78170000  0.40970000  0.65310000  1.0 -0.0990243102
C  C70  1  0.88008000  0.40830000  0.67528000  1.0 -0.1496317196
C  C71  1  0.93437000  0.40055000  0.73427000  1.0 0.0686697286
C  C72  1  0.88583000  0.39390000  0.76803000  1.0 -0.1324950899
C  C73  1  0.78780000  0.39670000  0.74540000  1.0 -0.1089309971
C  C74  1  0.04050000  0.40031000  0.75980000  1.0 0.1186388596
C  C75  1  0.09107000  0.40213000  0.72627000  1.0 -0.2391598257
C  C76  1  0.19011000  0.40560000  0.75221000  1.0 0.200744278
C  C77  1  0.19221000  0.40529000  0.84231000  1.0 0.2161322017
C  C78  1  0.09360000  0.40146000  0.81930000  1.0 -0.2308143149
C  C79  1  0.24744000  0.40864000  0.71864000  1.0 0.0995144876
C  C80  1  0.20977000  0.42380000  0.66077000  1.0 -0.1936550806
C  C81  1  0.26841000  0.42760000  0.63321000  1.0 0.0599975613
C  C82  1  0.39657000  0.40010000  0.71337000  1.0 0.0599975613
C  C83  1  0.34459000  0.39710000  0.74449000  1.0 -0.1703249584
C  C84  1  0.25008000  0.40916000  0.90598000  1.0 0.0914194277
C  C85  1  0.32850000  0.44704000  0.92870000  1.0 -0.1625024272
C  C86  1  0.37815000  0.45128000  0.98775000  1.0 0.0686697286
C  C87  1  0.28336000  0.38071000  0.00226000  1.0 0.0686697286
C  C88  1  0.22719000  0.37534000  0.94359000  1.0 -0.1703249584
C  C89  1  0.62145000  0.06974000  0.66795000  1.0 0.5409616907
C  C90  1  0.72849000  0.07116000  0.69189000  1.0 -0.0267423815
C  C91  1  0.77377000  0.08146000  0.65667000  1.0 -0.1089309971
C  C92  1  0.87170000  0.08210000  0.67860000  1.0 -0.1496317196
C  C93  1  0.92767000  0.07212000  0.73717000  1.0 0.0686697286
C  C94  1  0.88116000  0.06154000  0.77206000  1.0 -0.1496317196
C  C95  1  0.78267000  0.06150000  0.75007000  1.0 -0.1089309971
C  C96  1  0.03387000  0.07395000  0.76207000  1.0 0.1110698108
C  C97  1  0.08359000  0.06901000  0.72819000  1.0 -0.2308143149
C  C98  1  0.18226000  0.06951000  0.75396000  1.0 0.200744278
C  C99  1  0.18570000  0.07875000  0.84410000  1.0 0.2093407721
C  C100  1  0.08708000  0.08028000  0.82098000  1.0 -0.2228748719
C  C101  1  0.24019000  0.06754000  0.72009000  1.0 0.0914194277
C  C102  1  0.20305000  0.07920000  0.66235000  1.0 -0.1774586062
C  C103  1  0.26199000  0.07870000  0.63459000  1.0 0.0686697286
C  C104  1  0.39017000  0.05570000  0.71637000  1.0 0.0416080975
C  C105  1  0.33651000  0.05450000  0.74711000  1.0 -0.1703249584
C  C106  1  0.24540000  0.08098000  0.90740000  1.0 0.0995144876
C  C107  1  0.21738000  0.11293000  0.94418000  1.0 -0.1625024272
C  C108  1  0.27627000  0.11428000  0.00247000  1.0 0.0826134807
C  C109  1  0.38451000  0.05301000  0.99041000  1.0 0.0599975613
C  C110  1  0.33198000  0.05107000  0.93178000  1.0 -0.1703249584
C  C111  1  0.62793000  0.09338000  0.16253000  1.0 0.5229464252
C  C112  1  0.73498000  0.09506000  0.18728000  1.0 -0.0399526073
C  C113  1  0.78170000  0.09030000  0.15310000  1.0 -0.0990243102
C  C114  1  0.88008000  0.09170000  0.17528000  1.0 -0.1496317196
C  C115  1  0.93437000  0.09945000  0.23427000  1.0 0.0686697286
C  C116  1  0.88583000  0.10610000  0.26803000  1.0 -0.1324950899
C  C117  1  0.78780000  0.10330000  0.24540000  1.0 -0.1089309971
C  C118  1  0.04050000  0.09969000  0.25980000  1.0 0.1186388596
C  C119  1  0.09107000  0.09787000  0.22627000  1.0 -0.2391598257
C  C120  1  0.19011000  0.09440000  0.25221000  1.0 0.200744278
C  C121  1  0.19221000  0.09471000  0.34231000  1.0 0.2161322017
C  C122  1  0.09360000  0.09854000  0.31930000  1.0 -0.2308143149
C  C123  1  0.24744000  0.09136000  0.21864000  1.0 0.0995144876
C  C124  1  0.20977000  0.07620000  0.16077000  1.0 -0.1936550806
C  C125  1  0.26841000  0.07240000  0.13321000  1.0 0.0599975613
C  C126  1  0.39657000  0.09990000  0.21337000  1.0 0.0599975613
C  C127  1  0.34459000  0.10290000  0.24449000  1.0 -0.1703249584
C  C128  1  0.25008000  0.09084000  0.40598000  1.0 0.0914194277
C  C129  1  0.32850000  0.05296000  0.42870000  1.0 -0.1625024272
C  C130  1  0.37815000  0.04872000  0.48775000  1.0 0.0686697286
C  C131  1  0.28336000  0.11929000  0.50226000  1.0 0.0686697286
C  C132  1  0.22719000  0.12466000  0.44359000  1.0 -0.1625024272
C  C133  1  0.37855000  0.56974000  0.83205000  1.0 0.5409616907
C  C134  1  0.27151000  0.57116000  0.80811000  1.0 -0.0267423815
C  C135  1  0.22623000  0.58146000  0.84333000  1.0 -0.1089309971
C  C136  1  0.12830000  0.58210000  0.82140000  1.0 -0.1496317196
C  C137  1  0.07233000  0.57212000  0.76283000  1.0 0.0686697286
C  C138  1  0.11884000  0.56154000  0.72794000  1.0 -0.1496317196
C  C139  1  0.21733000  0.56150000  0.74993000  1.0 -0.1089309971
C  C140  1  0.96613000  0.57395000  0.73793000  1.0 0.1110698108
C  C141  1  0.91641000  0.56901000  0.77181000  1.0 -0.2308143149
C  C142  1  0.81774000  0.56951000  0.74604000  1.0 0.200744278
C  C143  1  0.81430000  0.57875000  0.65590000  1.0 0.2093407721
C  C144  1  0.91292000  0.58028000  0.67902000  1.0 -0.2228748719
C  C145  1  0.75981000  0.56754000  0.77991000  1.0 0.0914194277
C  C146  1  0.79695000  0.57920000  0.83765000  1.0 -0.1774586062
C  C147  1  0.73801000  0.57870000  0.86541000  1.0 0.0686697286
C  C148  1  0.60983000  0.55570000  0.78363000  1.0 0.0416080975
C  C149  1  0.66349000  0.55450000  0.75289000  1.0 -0.1703249584
C  C150  1  0.75460000  0.58098000  0.59260000  1.0 0.0995144876
C  C151  1  0.78262000  0.61293000  0.55582000  1.0 -0.1703249584
C  C152  1  0.72373000  0.61428000  0.49753000  1.0 0.0826134807
C  C153  1  0.61549000  0.55301000  0.50959000  1.0 0.0599975613
C  C154  1  0.66802000  0.55107000  0.56822000  1.0 -0.1703249584
C  C155  1  0.37207000  0.59338000  0.33747000  1.0 0.5229464252
C  C156  1  0.26502000  0.59506000  0.31272000  1.0 -0.0399526073
C  C157  1  0.21830000  0.59030000  0.34690000  1.0 -0.0990243102
C  C158  1  0.11992000  0.59170000  0.32472000  1.0 -0.1496317196
C  C159  1  0.06563000  0.59945000  0.26573000  1.0 0.0686697286
C  C160  1  0.11417000  0.60610000  0.23197000  1.0 -0.1324950899
C  C161  1  0.21220000  0.60330000  0.25460000  1.0 -0.1089309971
C  C162  1  0.95950000  0.59969000  0.24020000  1.0 0.1186388596
C  C163  1  0.90893000  0.59787000  0.27373000  1.0 -0.2391598257
C  C164  1  0.80989000  0.59440000  0.24779000  1.0 0.200744278
C  C165  1  0.80779000  0.59471000  0.15769000  1.0 0.2161322017
C  C166  1  0.90640000  0.59854000  0.18070000  1.0 -0.2308143149
C  C167  1  0.75256000  0.59136000  0.28136000  1.0 0.0995144876
C  C168  1  0.79023000  0.57620000  0.33923000  1.0 -0.1936550806
C  C169  1  0.73159000  0.57240000  0.36679000  1.0 0.0599975613
C  C170  1  0.60343000  0.59990000  0.28663000  1.0 0.0599975613
C  C171  1  0.65541000  0.60290000  0.25551000  1.0 -0.1703249584
C  C172  1  0.74992000  0.59084000  0.09402000  1.0 0.0914194277
C  C173  1  0.67150000  0.55296000  0.07130000  1.0 -0.1625024272
C  C174  1  0.62185000  0.54872000  0.01225000  1.0 0.0686697286
C  C175  1  0.71664000  0.61929000  0.99774000  1.0 0.0686697286
C  C176  1  0.77281000  0.62466000  0.05641000  1.0 -0.1703249584
C  C177  1  0.55848000  0.73860000  0.75628000  1.0 0.5573089798
C  C178  1  0.55848000  0.76140000  0.25628000  1.0 0.5573089798
C  C179  1  0.66455000  0.73895000  0.78105000  1.0 -0.0399526073
C  C180  1  0.66455000  0.76105000  0.28105000  1.0 -0.0399526073
C  C181  1  0.71171000  0.72960000  0.74661000  1.0 -0.0932837143
C  C182  1  0.71171000  0.77040000  0.24661000  1.0 -0.0932837143
C  C183  1  0.71831000  0.74800000  0.83911000  1.0 -0.1089309971
C  C184  1  0.71831000  0.75200000  0.33911000  1.0 -0.1089309971
C  C185  1  0.81005000  0.73090000  0.76905000  1.0 -0.1496317196
C  C186  1  0.81005000  0.76910000  0.26905000  1.0 -0.1496317196
C  C187  1  0.81722000  0.75020000  0.86162000  1.0 -0.1625024272
C  C188  1  0.81722000  0.74980000  0.36162000  1.0 -0.1625024272
C  C189  1  0.86470000  0.74205000  0.82710000  1.0 0.0599975613
C  C190  1  0.86470000  0.75795000  0.32710000  1.0 0.0599975613
C  C191  1  0.97136000  0.74333000  0.85326000  1.0 0.1110698108
C  C192  1  0.97136000  0.75667000  0.35326000  1.0 0.1110698108
C  C193  1  0.02142000  0.74192000  0.81952000  1.0 -0.2308143149
C  C194  1  0.02142000  0.75808000  0.31952000  1.0 -0.2308143149
C  C195  1  0.02367000  0.74580000  0.91227000  1.0 -0.2308143149
C  C196  1  0.02367000  0.75420000  0.41227000  1.0 -0.2308143149
C  C197  1  0.12041000  0.74262000  0.84591000  1.0 0.200744278
C  C198  1  0.12041000  0.75738000  0.34591000  1.0 0.200744278
C  C199  1  0.12167000  0.74669000  0.93577000  1.0 0.2093407721
C  C200  1  0.12167000  0.75331000  0.43577000  1.0 0.2093407721
C  C201  1  0.17803000  0.73946000  0.81263000  1.0 0.0914194277
C  C202  1  0.17803000  0.76054000  0.31263000  1.0 0.0914194277
C  C203  1  0.18023000  0.74964000  0.99893000  1.0 0.0914194277
C  C204  1  0.18023000  0.75036000  0.49893000  1.0 0.0914194277
C  C205  1  0.14122000  0.72247000  0.75472000  1.0 -0.1703249584
C  C206  1  0.14122000  0.77753000  0.25472000  1.0 -0.1703249584
C  C207  1  0.27468000  0.75178000  0.83858000  1.0 -0.1703249584
C  C208  1  0.27468000  0.74822000  0.33858000  1.0 -0.1703249584
C  C209  1  0.27148000  0.77263000  0.02138000  1.0 -0.1703249584
C  C210  1  0.27148000  0.72737000  0.52138000  1.0 -0.1703249584
C  C211  1  0.14659000  0.73037000  0.03759000  1.0 -0.1703249584
C  C212  1  0.14659000  0.76963000  0.53759000  1.0 -0.1703249584
C  C213  1  0.19946000  0.71940000  0.72666000  1.0 0.0826134807
C  C214  1  0.19946000  0.78060000  0.22666000  1.0 0.0826134807
C  C215  1  0.32649000  0.74944000  0.80709000  1.0 0.0599975613
C  C216  1  0.32649000  0.75056000  0.30709000  1.0 0.0599975613
C  C217  1  0.32412000  0.77660000  0.08032000  1.0 0.0826134807
C  C218  1  0.32412000  0.72340000  0.58032000  1.0 0.0826134807
C  C219  1  0.20430000  0.73368000  0.09640000  1.0 0.0914194277
C  C220  1  0.20430000  0.76632000  0.59640000  1.0 0.0995144876
C  C221  1  0.44152000  0.23860000  0.74372000  1.0 0.5573089798
C  C222  1  0.44152000  0.26140000  0.24372000  1.0 0.5573089798
C  C223  1  0.33545000  0.23895000  0.71895000  1.0 -0.0399526073
C  C224  1  0.33545000  0.26105000  0.21895000  1.0 -0.0399526073
C  C225  1  0.28829000  0.22960000  0.75339000  1.0 -0.0932837143
C  C226  1  0.28829000  0.27040000  0.25339000  1.0 -0.0932837143
C  C227  1  0.28169000  0.24800000  0.66089000  1.0 -0.1089309971
C  C228  1  0.28169000  0.25200000  0.16089000  1.0 -0.1089309971
C  C229  1  0.18995000  0.23090000  0.73095000  1.0 -0.1496317196
C  C230  1  0.18995000  0.26910000  0.23095000  1.0 -0.1496317196
C  C231  1  0.18278000  0.25020000  0.63838000  1.0 -0.1625024272
C  C232  1  0.18278000  0.24980000  0.13838000  1.0 -0.1625024272
C  C233  1  0.13530000  0.24205000  0.67290000  1.0 0.0599975613
C  C234  1  0.13530000  0.25795000  0.17290000  1.0 0.0599975613
C  C235  1  0.02864000  0.24333000  0.64674000  1.0 0.1110698108
C  C236  1  0.02864000  0.25667000  0.14674000  1.0 0.1110698108
C  C237  1  0.97858000  0.24192000  0.68048000  1.0 -0.2308143149
C  C238  1  0.97858000  0.25808000  0.18048000  1.0 -0.2308143149
C  C239  1  0.97633000  0.24580000  0.58773000  1.0 -0.2308143149
C  C240  1  0.97633000  0.25420000  0.08773000  1.0 -0.2308143149
C  C241  1  0.87959000  0.24262000  0.65409000  1.0 0.200744278
C  C242  1  0.87959000  0.25738000  0.15409000  1.0 0.200744278
C  C243  1  0.87833000  0.24669000  0.56423000  1.0 0.2093407721
C  C244  1  0.87833000  0.25331000  0.06423000  1.0 0.2093407721
C  C245  1  0.82197000  0.23946000  0.68737000  1.0 0.0914194277
C  C246  1  0.82197000  0.26054000  0.18737000  1.0 0.0914194277
C  C247  1  0.81977000  0.24964000  0.50107000  1.0 0.0914194277
C  C248  1  0.81977000  0.25036000  0.00107000  1.0 0.0914194277
C  C249  1  0.85878000  0.22247000  0.74528000  1.0 -0.1703249584
C  C250  1  0.85878000  0.27753000  0.24528000  1.0 -0.1703249584
C  C251  1  0.72532000  0.25178000  0.66142000  1.0 -0.1703249584
C  C252  1  0.72532000  0.24822000  0.16142000  1.0 -0.1703249584
C  C253  1  0.72852000  0.27263000  0.47862000  1.0 -0.1703249584
C  C254  1  0.72852000  0.22737000  0.97862000  1.0 -0.1703249584
C  C255  1  0.85341000  0.23037000  0.46241000  1.0 -0.1703249584
C  C256  1  0.85341000  0.26963000  0.96241000  1.0 -0.1703249584
C  C257  1  0.80054000  0.21940000  0.77334000  1.0 0.0826134807
C  C258  1  0.80054000  0.28060000  0.27334000  1.0 0.0826134807
C  C259  1  0.67351000  0.24944000  0.69291000  1.0 0.0599975613
C  C260  1  0.67351000  0.25056000  0.19291000  1.0 0.0599975613
C  C261  1  0.67588000  0.27660000  0.41968000  1.0 0.0826134807
C  C262  1  0.67588000  0.22340000  0.91968000  1.0 0.0826134807
C  C263  1  0.79570000  0.23368000  0.40360000  1.0 0.0995144876
C  C264  1  0.79570000  0.26632000  0.90360000  1.0 0.0995144876
N  N1  1  0.76631000  0.92724000  0.18873000  1.0 -0.3533681999
N  N2  1  0.64506000  0.93206000  0.33999000  1.0 -0.2515210381
N  N3  1  0.64165000  0.91623000  0.97386000  1.0 -0.2799367826
N  N4  1  0.75930000  0.90809000  0.69022000  1.0 -0.3383076186
N  N5  1  0.63911000  0.91590000  0.84207000  1.0 -0.2717998604
N  N6  1  0.64360000  0.91890000  0.47519000  1.0 -0.2391598257
N  N7  1  0.58320000  0.06360000  0.37380000  1.0 0.5540559818
N  N8  1  0.54830000  0.05300000  0.88200000  1.0 0.4761466165
N  N9  1  0.23369000  0.42724000  0.31127000  1.0 -0.3533681999
N  N10  1  0.35494000  0.43206000  0.16001000  1.0 -0.2515210381
N  N11  1  0.35835000  0.41623000  0.52614000  1.0 -0.2799367826
N  N12  1  0.24070000  0.40809000  0.80978000  1.0 -0.3383076186
N  N13  1  0.36089000  0.41590000  0.65793000  1.0 -0.2717998604
N  N14  1  0.35640000  0.41890000  0.02481000  1.0 -0.2391598257
N  N15  1  0.41680000  0.56360000  0.12620000  1.0 0.5540559818
N  N16  1  0.45170000  0.55300000  0.61800000  1.0 0.4761466165
N  N17  1  0.23369000  0.07276000  0.81127000  1.0 -0.3533681999
N  N18  1  0.35494000  0.06794000  0.66001000  1.0 -0.2515210381
N  N19  1  0.35835000  0.08377000  0.02614000  1.0 -0.2799367826
N  N20  1  0.24070000  0.09191000  0.30978000  1.0 -0.3383076186
N  N21  1  0.36089000  0.08410000  0.15793000  1.0 -0.2717998604
N  N22  1  0.35640000  0.08110000  0.52481000  1.0 -0.2391598257
N  N23  1  0.41680000  0.93640000  0.62620000  1.0 0.5540559818
N  N24  1  0.45170000  0.94700000  0.11800000  1.0 0.4761466165
N  N25  1  0.76631000  0.57276000  0.68873000  1.0 -0.3533681999
N  N26  1  0.64506000  0.56794000  0.83999000  1.0 -0.2515210381
N  N27  1  0.64165000  0.58377000  0.47386000  1.0 -0.2799367826
N  N28  1  0.75930000  0.59191000  0.19022000  1.0 -0.3383076186
N  N29  1  0.63911000  0.58410000  0.34207000  1.0 -0.2717998604
N  N30  1  0.64360000  0.58110000  0.97519000  1.0 -0.2391598257
N  N31  1  0.58320000  0.43640000  0.87380000  1.0 0.5540559818
N  N32  1  0.54830000  0.44700000  0.38200000  1.0 0.4747749646
N  N33  1  0.29193000  0.73394000  0.75188000  1.0 -0.2391598257
N  N34  1  0.29193000  0.76606000  0.25188000  1.0 -0.2308143149
N  N35  1  0.29162000  0.75706000  0.11790000  1.0 -0.2308143149
N  N36  1  0.29162000  0.74294000  0.61790000  1.0 -0.2308143149
N  N37  1  0.17051000  0.74518000  0.90326000  1.0 -0.3383076186
N  N38  1  0.17051000  0.75482000  0.40326000  1.0 -0.3383076186
N  N39  1  0.70807000  0.23394000  0.74812000  1.0 -0.2391598257
N  N40  1  0.70807000  0.26606000  0.24812000  1.0 -0.2308143149
N  N41  1  0.70838000  0.25706000  0.38210000  1.0 -0.2308143149
N  N42  1  0.70838000  0.24294000  0.88210000  1.0 -0.2308143149
N  N43  1  0.82949000  0.24518000  0.59674000  1.0 -0.3383076186
N  N44  1  0.82949000  0.25482000  0.09674000  1.0 -0.3383076186
O  O1  1  0.42684000  0.93496000  0.38586000  1.0 -0.5415342967
O  O2  1  0.41923000  0.92742000  0.29932000  1.0 -0.559035934
O  O3  1  0.41869000  0.91251000  0.89138000  1.0 -0.559035934
O  O4  1  0.41475000  0.90246000  0.80585000  1.0 -0.5670224349
O  O5  1  0.56073000  0.83520000  0.38262000  1.0 -0.6640482466
O  O6  1  0.56583000  0.81759000  0.89080000  1.0 -0.7014245312
O  O7  1  0.58181000  0.02511000  0.40491000  1.0 -0.3088975469
O  O8  1  0.61460000  0.11450000  0.38280000  1.0 -0.2626202155
O  O9  1  0.54250000  0.05880000  0.32930000  1.0 -0.1089309971
O  O10  1  0.54100000  0.05040000  0.93550000  1.0 -0.2626202155
O  O11  1  0.55970000  0.01020000  0.86510000  1.0 0.178978086
O  O12  1  0.52980000  0.10810000  0.87510000  1.0 -0.2515210381
O  O13  1  0.51760000  0.00790000  0.88950000  1.0 0.1677757842
O  O14  1  0.61070000  0.05600000  0.86560000  1.0 -0.1206866083
O  O15  1  0.57316000  0.43496000  0.11414000  1.0 -0.5415342967
O  O16  1  0.58077000  0.42742000  0.20068000  1.0 -0.559035934
O  O17  1  0.58131000  0.41251000  0.60862000  1.0 -0.559035934
O  O18  1  0.58525000  0.40246000  0.69415000  1.0 -0.5670224349
O  O19  1  0.43927000  0.33520000  0.11738000  1.0 -0.6640482466
O  O20  1  0.43417000  0.31759000  0.60920000  1.0 -0.7014245312
O  O21  1  0.41819000  0.52511000  0.09509000  1.0 -0.3088975469
O  O22  1  0.38540000  0.61450000  0.11720000  1.0 -0.2717998604
O  O23  1  0.45750000  0.55880000  0.17070000  1.0 -0.1206866083
O  O24  1  0.45900000  0.55040000  0.56450000  1.0 -0.2626202155
O  O25  1  0.44030000  0.51020000  0.63490000  1.0 0.178978086
O  O26  1  0.47020000  0.60810000  0.62490000  1.0 -0.2515210381
O  O27  1  0.48240000  0.50790000  0.61050000  1.0 0.1677757842
O  O28  1  0.38930000  0.55600000  0.63440000  1.0 -0.1206866083
O  O29  1  0.57316000  0.06504000  0.61414000  1.0 -0.5415342967
O  O30  1  0.58077000  0.07258000  0.70068000  1.0 -0.559035934
O  O31  1  0.58131000  0.08749000  0.10862000  1.0 -0.559035934
O  O32  1  0.58525000  0.09754000  0.19415000  1.0 -0.5670224349
O  O33  1  0.43927000  0.16480000  0.61738000  1.0 -0.6640482466
O  O34  1  0.43417000  0.18241000  0.10920000  1.0 -0.7014245312
O  O35  1  0.41819000  0.97489000  0.59509000  1.0 -0.3088975469
O  O36  1  0.38540000  0.88550000  0.61720000  1.0 -0.2626202155
O  O37  1  0.45750000  0.94120000  0.67070000  1.0 -0.1206866083
O  O38  1  0.45900000  0.94960000  0.06450000  1.0 -0.2626202155
O  O39  1  0.44030000  0.98980000  0.13490000  1.0 0.178978086
O  O40  1  0.47020000  0.89190000  0.12490000  1.0 -0.2391598257
O  O41  1  0.48240000  0.99210000  0.11050000  1.0 0.1677757842
O  O42  1  0.38930000  0.94400000  0.13440000  1.0 -0.1206866083
O  O43  1  0.42684000  0.56504000  0.88586000  1.0 -0.5415342967
O  O44  1  0.41923000  0.57258000  0.79932000  1.0 -0.559035934
O  O45  1  0.41869000  0.58749000  0.39138000  1.0 -0.559035934
O  O46  1  0.41475000  0.59754000  0.30585000  1.0 -0.5670224349
O  O47  1  0.56073000  0.66480000  0.88262000  1.0 -0.6640482466
O  O48  1  0.56583000  0.68241000  0.39080000  1.0 -0.7014245312
O  O49  1  0.58181000  0.47489000  0.90491000  1.0 -0.3088975469
O  O50  1  0.61460000  0.38550000  0.88280000  1.0 -0.2626202155
O  O51  1  0.54250000  0.44120000  0.82930000  1.0 -0.1206866083
O  O52  1  0.54100000  0.44960000  0.43550000  1.0 -0.2626202155
O  O53  1  0.55970000  0.48980000  0.36510000  1.0 0.178978086
O  O54  1  0.52980000  0.39190000  0.37510000  1.0 -0.2391598257
O  O55  1  0.51760000  0.49210000  0.38950000  1.0 0.1677757842
O  O56  1  0.61070000  0.44400000  0.36560000  1.0 -0.1206866083
O  O57  1  0.51067000  0.73659000  0.70303000  1.0 -0.5262046973
O  O58  1  0.51067000  0.76341000  0.20303000  1.0 -0.5262046973
O  O59  1  0.51707000  0.74108000  0.78997000  1.0 -0.5923052351
O  O60  1  0.51707000  0.75892000  0.28997000  1.0 -0.5923052351
O  O61  1  0.37042000  0.83298000  0.70801000  1.0 -0.6780481855
O  O62  1  0.37042000  0.66702000  0.20801000  1.0 -0.6780481855
O  O63  1  0.36985000  0.64096000  0.70201000  1.0 -0.6687983791
O  O64  1  0.36985000  0.85904000  0.20201000  1.0 -0.6687983791
O  O65  1  0.48933000  0.23659000  0.79697000  1.0 -0.5262046973
O  O66  1  0.48933000  0.26341000  0.29697000  1.0 -0.5262046973
O  O67  1  0.48293000  0.24108000  0.71003000  1.0 -0.5923052351
O  O68  1  0.48293000  0.25892000  0.21003000  1.0 -0.5923052351
O  O69  1  0.62958000  0.33298000  0.79199000  1.0 -0.6780481855
O  O70  1  0.62958000  0.16702000  0.29199000  1.0 -0.6780481855
O  O71  1  0.63015000  0.14096000  0.79799000  1.0 -0.6687983791
O  O72  1  0.63015000  0.35904000  0.29799000  1.0 -0.6687983791
F  F1  1  0.99221000  0.20350000  0.38916000  1.0 -0.4822690587
F  F2  1  0.99409000  0.30531000  0.38899000  1.0 -0.4695379953
F  F3  1  0.10430000  0.25319000  0.45990000  1.0 -0.4953311305
F  F4  1  0.10020000  0.25320000  0.37190000  1.0 -0.4822690587
F  F5  1  0.00779000  0.70350000  0.11084000  1.0 -0.4695379953
F  F6  1  0.00591000  0.80531000  0.11101000  1.0 -0.4695379953
F  F7  1  0.89570000  0.75319000  0.04010000  1.0 -0.4940120797
F  F8  1  0.89980000  0.75320000  0.12810000  1.0 -0.4822690587
F  F9  1  0.00779000  0.79650000  0.61084000  1.0 -0.4695379953
F  F10  1  0.00591000  0.69469000  0.61101000  1.0 -0.4695379953
F  F11  1  0.89570000  0.74681000  0.54010000  1.0 -0.4940120797
F  F12  1  0.89980000  0.74680000  0.62810000  1.0 -0.4822690587
F  F13  1  0.99221000  0.29650000  0.88916000  1.0 -0.4695379953
F  F14  1  0.99409000  0.19469000  0.88899000  1.0 -0.4695379953
F  F15  1  0.10430000  0.24681000  0.95990000  1.0 -0.4940120797
F  F16  1  0.10020000  0.24680000  0.87190000  1.0 -0.4822690587
