# DDEC6 charges by PACMAN v1.1 (https://github.com/mtap-research/PACMAN-charge/)
data_WINHIO_ion_pacman
_symmetry_space_group_name_H-M   'P 1'
_cell_length_a   15.50190000
_cell_length_b   21.95660000
_cell_length_c   25.61750000
_cell_angle_alpha   90.00000000
_cell_angle_beta   115.06900000
_cell_angle_gamma   90.00000000
_symmetry_Int_Tables_number   1
_chemical_formula_structural   Zn3H50C66N12ClO23
_chemical_formula_sum   'Zn12 H200 C264 N48 Cl4 O92'
_cell_volume   7898.01964975
_cell_formula_units_Z   4
loop_
 _symmetry_equiv_pos_site_id
 _symmetry_equiv_pos_as_xyz
  1  'x, y, z'
loop_
 _atom_site_type_symbol
 _atom_site_label
 _atom_site_symmetry_multiplicity
 _atom_site_fract_x
 _atom_site_fract_y
 _atom_site_fract_z
 _atom_site_occupancy
 _atom_site_charge
Zn  Zn1  1  0.55675000  0.41696000  0.88537000  1.0 0.6788709304
Zn  Zn2  1  0.56264000  0.43311000  0.38503000  1.0 0.73992367
Zn  Zn3  1  0.44325000  0.91696000  0.61463000  1.0 0.6788709304
Zn  Zn4  1  0.43736000  0.93311000  0.11497000  1.0 0.73992367
Zn  Zn5  1  0.44325000  0.58304000  0.11463000  1.0 0.6788709304
Zn  Zn6  1  0.43736000  0.56689000  0.61497000  1.0 0.73992367
Zn  Zn7  1  0.55675000  0.08304000  0.38537000  1.0 0.6788709304
Zn  Zn8  1  0.56264000  0.06689000  0.88503000  1.0 0.73992367
Zn  Zn9  1  0.37992000  0.23570000  0.70625000  1.0 0.8067238173
Zn  Zn10  1  0.37992000  0.26430000  0.20625000  1.0 0.8067238173
Zn  Zn11  1  0.62008000  0.73570000  0.79375000  1.0 0.8067238173
Zn  Zn12  1  0.62008000  0.76430000  0.29375000  1.0 0.8067238173
H  H1  1  0.54270000  0.39124000  0.76746000  1.0 0.1110293525
H  H2  1  0.54640000  0.45492000  0.26371000  1.0 0.0913749921
H  H3  1  0.95170000  0.43560000  0.31096000  1.0 0.1192405165
H  H4  1  0.94640000  0.39979000  0.81323000  1.0 0.1110293525
H  H5  1  0.94577000  0.41377000  0.15399000  1.0 0.129752114
H  H6  1  0.24930000  0.44607000  0.22473000  1.0 0.1110293525
H  H7  1  0.94098000  0.40064000  0.65515000  1.0 0.129752114
H  H8  1  0.10092000  0.41135000  0.34501000  1.0 0.1110293525
H  H9  1  0.24742000  0.39047000  0.72925000  1.0 0.1011394871
H  H10  1  0.08536000  0.44690000  0.18813000  1.0 0.1110293525
H  H11  1  0.26496000  0.41400000  0.38231000  1.0 0.1192405165
H  H12  1  0.09388000  0.41580000  0.84728000  1.0 0.1110293525
H  H13  1  0.76714000  0.41562000  0.40479000  1.0 0.1011394871
H  H14  1  0.57058000  0.47606000  0.49802000  1.0 0.1110293525
H  H15  1  0.08398000  0.38519000  0.69171000  1.0 0.1192405165
H  H16  1  0.74755000  0.36510000  0.97249000  1.0 0.1110293525
H  H17  1  0.86035000  0.43120000  0.85906000  1.0 0.129752114
H  H18  1  0.65280000  0.46655000  0.59573000  1.0 0.1408289487
H  H19  1  0.83005000  0.35071000  0.56840000  1.0 0.1408289487
H  H20  1  0.63638000  0.45456000  0.21276000  1.0 0.0913749921
H  H21  1  0.76376000  0.43922000  0.90527000  1.0 0.0814048323
H  H22  1  0.25790000  0.41872000  0.88535000  1.0 0.1110293525
H  H23  1  0.86377000  0.41491000  0.35813000  1.0 0.129752114
H  H24  1  0.73485000  0.35778000  0.47180000  1.0 0.1110293525
H  H25  1  0.84611000  0.36802000  0.06926000  1.0 0.1464488604
H  H26  1  0.63166000  0.38666000  0.71638000  1.0 0.1408289487
H  H27  1  0.55616000  0.46304000  0.99453000  1.0 0.0606346746
H  H28  1  0.64441000  0.46482000  0.09177000  1.0 0.1011394871
H  H29  1  0.54560000  0.31595000  0.40312000  1.0 0.2991978045
H  H30  1  0.53988000  0.31855000  0.34932000  1.0 0.3383122375
H  H31  1  0.53968000  0.30360000  0.91015000  1.0 0.2991978045
H  H32  1  0.53643000  0.30207000  0.85629000  1.0 0.3231882593
H  H33  1  0.45730000  0.89124000  0.73254000  1.0 0.1110293525
H  H34  1  0.45360000  0.95492000  0.23629000  1.0 0.0913749921
H  H35  1  0.04830000  0.93560000  0.18904000  1.0 0.1192405165
H  H36  1  0.05360000  0.89979000  0.68677000  1.0 0.1110293525
H  H37  1  0.05423000  0.91377000  0.34601000  1.0 0.129752114
H  H38  1  0.75070000  0.94607000  0.27527000  1.0 0.1110293525
H  H39  1  0.05902000  0.90064000  0.84485000  1.0 0.129752114
H  H40  1  0.89908000  0.91135000  0.15499000  1.0 0.1110293525
H  H41  1  0.75258000  0.89047000  0.77075000  1.0 0.1011394871
H  H42  1  0.91464000  0.94690000  0.31187000  1.0 0.1110293525
H  H43  1  0.73504000  0.91400000  0.11769000  1.0 0.1192405165
H  H44  1  0.90612000  0.91580000  0.65272000  1.0 0.1110293525
H  H45  1  0.23286000  0.91562000  0.09521000  1.0 0.1011394871
H  H46  1  0.42942000  0.97606000  0.00198000  1.0 0.1110293525
H  H47  1  0.91602000  0.88519000  0.80829000  1.0 0.1192405165
H  H48  1  0.25245000  0.86510000  0.52751000  1.0 0.1110293525
H  H49  1  0.13965000  0.93120000  0.64094000  1.0 0.129752114
H  H50  1  0.34720000  0.96655000  0.90427000  1.0 0.1408289487
H  H51  1  0.16995000  0.85071000  0.93160000  1.0 0.1408289487
H  H52  1  0.36362000  0.95456000  0.28724000  1.0 0.0913749921
H  H53  1  0.23624000  0.93922000  0.59473000  1.0 0.0814048323
H  H54  1  0.74210000  0.91872000  0.61465000  1.0 0.1110293525
H  H55  1  0.13623000  0.91491000  0.14187000  1.0 0.129752114
H  H56  1  0.26515000  0.85778000  0.02820000  1.0 0.1110293525
H  H57  1  0.15389000  0.86802000  0.43074000  1.0 0.1464488604
H  H58  1  0.36834000  0.88666000  0.78362000  1.0 0.1408289487
H  H59  1  0.44384000  0.96304000  0.50547000  1.0 0.0606346746
H  H60  1  0.35559000  0.96482000  0.40823000  1.0 0.1011394871
H  H61  1  0.45440000  0.81595000  0.09688000  1.0 0.2991978045
H  H62  1  0.46012000  0.81855000  0.15068000  1.0 0.3383122375
H  H63  1  0.46032000  0.80360000  0.58985000  1.0 0.2991978045
H  H64  1  0.46357000  0.80207000  0.64371000  1.0 0.3231882593
H  H65  1  0.45730000  0.60876000  0.23254000  1.0 0.1110293525
H  H66  1  0.45360000  0.54508000  0.73629000  1.0 0.0913749921
H  H67  1  0.04830000  0.56440000  0.68904000  1.0 0.1192405165
H  H68  1  0.05360000  0.60021000  0.18677000  1.0 0.1110293525
H  H69  1  0.05423000  0.58623000  0.84601000  1.0 0.129752114
H  H70  1  0.75070000  0.55393000  0.77527000  1.0 0.1110293525
H  H71  1  0.05902000  0.59936000  0.34485000  1.0 0.129752114
H  H72  1  0.89908000  0.58865000  0.65499000  1.0 0.1110293525
H  H73  1  0.75258000  0.60953000  0.27075000  1.0 0.1011394871
H  H74  1  0.91464000  0.55310000  0.81187000  1.0 0.1110293525
H  H75  1  0.73504000  0.58600000  0.61769000  1.0 0.1192405165
H  H76  1  0.90612000  0.58420000  0.15272000  1.0 0.1110293525
H  H77  1  0.23286000  0.58438000  0.59521000  1.0 0.1011394871
H  H78  1  0.42942000  0.52394000  0.50198000  1.0 0.1110293525
H  H79  1  0.91602000  0.61481000  0.30829000  1.0 0.1192405165
H  H80  1  0.25245000  0.63490000  0.02751000  1.0 0.1110293525
H  H81  1  0.13965000  0.56880000  0.14094000  1.0 0.129752114
H  H82  1  0.34720000  0.53345000  0.40427000  1.0 0.1408289487
H  H83  1  0.16995000  0.64929000  0.43160000  1.0 0.1408289487
H  H84  1  0.36362000  0.54544000  0.78724000  1.0 0.0913749921
H  H85  1  0.23624000  0.56078000  0.09473000  1.0 0.0814048323
H  H86  1  0.74210000  0.58128000  0.11465000  1.0 0.1110293525
H  H87  1  0.13623000  0.58509000  0.64187000  1.0 0.129752114
H  H88  1  0.26515000  0.64222000  0.52820000  1.0 0.1110293525
H  H89  1  0.15389000  0.63198000  0.93074000  1.0 0.1464488604
H  H90  1  0.36834000  0.61334000  0.28362000  1.0 0.1408289487
H  H91  1  0.44384000  0.53696000  0.00547000  1.0 0.0606346746
H  H92  1  0.35559000  0.53518000  0.90823000  1.0 0.1011394871
H  H93  1  0.45440000  0.68405000  0.59688000  1.0 0.2991978045
H  H94  1  0.46012000  0.68145000  0.65068000  1.0 0.3383122375
H  H95  1  0.46032000  0.69640000  0.08985000  1.0 0.2991978045
H  H96  1  0.46357000  0.69793000  0.14371000  1.0 0.3231882593
H  H97  1  0.54270000  0.10876000  0.26746000  1.0 0.1110293525
H  H98  1  0.54640000  0.04508000  0.76371000  1.0 0.0913749921
H  H99  1  0.95170000  0.06440000  0.81096000  1.0 0.1192405165
H  H100  1  0.94640000  0.10021000  0.31323000  1.0 0.1110293525
H  H101  1  0.94577000  0.08623000  0.65399000  1.0 0.129752114
H  H102  1  0.24930000  0.05393000  0.72473000  1.0 0.1110293525
H  H103  1  0.94098000  0.09936000  0.15515000  1.0 0.129752114
H  H104  1  0.10092000  0.08865000  0.84501000  1.0 0.1110293525
H  H105  1  0.24742000  0.10953000  0.22925000  1.0 0.1011394871
H  H106  1  0.08536000  0.05310000  0.68813000  1.0 0.1110293525
H  H107  1  0.26496000  0.08600000  0.88231000  1.0 0.1192405165
H  H108  1  0.09388000  0.08420000  0.34728000  1.0 0.1110293525
H  H109  1  0.76714000  0.08438000  0.90479000  1.0 0.1011394871
H  H110  1  0.57058000  0.02394000  0.99802000  1.0 0.1110293525
H  H111  1  0.08398000  0.11481000  0.19171000  1.0 0.1192405165
H  H112  1  0.74755000  0.13490000  0.47249000  1.0 0.1110293525
H  H113  1  0.86035000  0.06880000  0.35906000  1.0 0.129752114
H  H114  1  0.65280000  0.03345000  0.09573000  1.0 0.1408289487
H  H115  1  0.83005000  0.14929000  0.06840000  1.0 0.1408289487
H  H116  1  0.63638000  0.04544000  0.71276000  1.0 0.0913749921
H  H117  1  0.76376000  0.06078000  0.40527000  1.0 0.0814048323
H  H118  1  0.25790000  0.08128000  0.38535000  1.0 0.1110293525
H  H119  1  0.86377000  0.08509000  0.85813000  1.0 0.129752114
H  H120  1  0.73485000  0.14222000  0.97180000  1.0 0.1110293525
H  H121  1  0.84611000  0.13198000  0.56926000  1.0 0.1464488604
H  H122  1  0.63166000  0.11334000  0.21638000  1.0 0.1408289487
H  H123  1  0.55616000  0.03696000  0.49453000  1.0 0.0606346746
H  H124  1  0.64441000  0.03518000  0.59177000  1.0 0.1011394871
H  H125  1  0.54560000  0.18405000  0.90312000  1.0 0.2991978045
H  H126  1  0.53988000  0.18145000  0.84932000  1.0 0.3383122375
H  H127  1  0.53968000  0.19640000  0.41015000  1.0 0.2991978045
H  H128  1  0.53643000  0.19793000  0.35629000  1.0 0.3231882593
H  H129  1  0.99305000  0.23968000  0.77954000  1.0 0.129752114
H  H130  1  0.99305000  0.26032000  0.27954000  1.0 0.129752114
H  H131  1  0.84464000  0.22376000  0.74555000  1.0 0.1192405165
H  H132  1  0.84464000  0.27624000  0.24555000  1.0 0.1192405165
H  H133  1  0.68032000  0.22071000  0.70740000  1.0 0.1110293525
H  H134  1  0.68032000  0.27929000  0.20740000  1.0 0.1110293525
H  H135  1  0.30714000  0.26444000  0.87682000  1.0 0.129752114
H  H136  1  0.30714000  0.23556000  0.37682000  1.0 0.129752114
H  H137  1  0.09006000  0.21274000  0.02547000  1.0 0.1464488604
H  H138  1  0.09006000  0.28726000  0.52547000  1.0 0.1464488604
H  H139  1  0.17803000  0.20491000  0.68895000  1.0 0.1011394871
H  H140  1  0.17803000  0.29509000  0.18895000  1.0 0.1011394871
H  H141  1  0.08085000  0.21168000  0.73543000  1.0 0.1408289487
H  H142  1  0.08085000  0.28832000  0.23543000  1.0 0.1408289487
H  H143  1  0.30141000  0.28747000  0.99642000  1.0 0.129752114
H  H144  1  0.30141000  0.21253000  0.49642000  1.0 0.129752114
H  H145  1  0.69082000  0.25257000  0.86320000  1.0 0.1110293525
H  H146  1  0.69082000  0.24743000  0.36320000  1.0 0.1110293525
H  H147  1  0.85577000  0.25740000  0.90117000  1.0 0.1110293525
H  H148  1  0.85577000  0.24260000  0.40117000  1.0 0.1110293525
H  H149  1  0.38854000  0.29473000  0.09388000  1.0 0.0718263826
H  H150  1  0.38854000  0.20527000  0.59388000  1.0 0.0718263826
H  H151  1  0.18530000  0.21883000  0.12222000  1.0 0.1011394871
H  H152  1  0.18530000  0.28117000  0.62222000  1.0 0.1011394871
H  H153  1  0.39501000  0.26028000  0.82494000  1.0 0.0913749921
H  H154  1  0.39501000  0.23972000  0.32494000  1.0 0.0913749921
H  H155  1  0.31354000  0.35020000  0.68596000  1.0 0.3764008647
H  H156  1  0.31354000  0.14980000  0.18596000  1.0 0.3764008647
H  H157  1  0.38855000  0.34976000  0.74457000  1.0 0.3858949235
H  H158  1  0.38855000  0.15024000  0.24457000  1.0 0.3858949235
H  H159  1  0.39496000  0.11906000  0.68113000  1.0 0.2376551358
H  H160  1  0.39496000  0.38094000  0.18113000  1.0 0.2376551358
H  H161  1  0.38134000  0.11657000  0.72950000  1.0 0.2991978045
H  H162  1  0.38134000  0.38343000  0.22950000  1.0 0.2991978045
H  H163  1  0.99300000  0.24520000  0.93700000  1.0 0.129752114
H  H164  1  0.99300000  0.25480000  0.43700000  1.0 0.129752114
H  H165  1  0.00695000  0.73968000  0.72046000  1.0 0.129752114
H  H166  1  0.00695000  0.76032000  0.22046000  1.0 0.129752114
H  H167  1  0.15536000  0.72376000  0.75445000  1.0 0.1192405165
H  H168  1  0.15536000  0.77624000  0.25445000  1.0 0.1192405165
H  H169  1  0.31968000  0.72071000  0.79260000  1.0 0.1110293525
H  H170  1  0.31968000  0.77929000  0.29260000  1.0 0.1110293525
H  H171  1  0.69286000  0.76444000  0.62318000  1.0 0.129752114
H  H172  1  0.69286000  0.73556000  0.12318000  1.0 0.129752114
H  H173  1  0.90994000  0.71274000  0.47453000  1.0 0.1408289487
H  H174  1  0.90994000  0.78726000  0.97453000  1.0 0.1464488604
H  H175  1  0.82197000  0.70491000  0.81105000  1.0 0.1011394871
H  H176  1  0.82197000  0.79509000  0.31105000  1.0 0.1011394871
H  H177  1  0.91915000  0.71168000  0.76457000  1.0 0.1408289487
H  H178  1  0.91915000  0.78832000  0.26457000  1.0 0.1408289487
H  H179  1  0.69859000  0.78747000  0.50358000  1.0 0.129752114
H  H180  1  0.69859000  0.71253000  0.00358000  1.0 0.129752114
H  H181  1  0.30918000  0.75257000  0.63680000  1.0 0.1110293525
H  H182  1  0.30918000  0.74743000  0.13680000  1.0 0.1110293525
H  H183  1  0.14423000  0.75740000  0.59883000  1.0 0.1110293525
H  H184  1  0.14423000  0.74260000  0.09883000  1.0 0.1110293525
H  H185  1  0.61146000  0.79473000  0.40612000  1.0 0.0718263826
H  H186  1  0.61146000  0.70527000  0.90612000  1.0 0.0718263826
H  H187  1  0.81470000  0.71883000  0.37778000  1.0 0.1011394871
H  H188  1  0.81470000  0.78117000  0.87778000  1.0 0.1011394871
H  H189  1  0.60499000  0.76028000  0.67506000  1.0 0.0913749921
H  H190  1  0.60499000  0.73972000  0.17506000  1.0 0.0913749921
H  H191  1  0.68646000  0.85020000  0.81404000  1.0 0.3764008647
H  H192  1  0.68646000  0.64980000  0.31404000  1.0 0.3764008647
H  H193  1  0.61145000  0.84976000  0.75543000  1.0 0.3858949235
H  H194  1  0.61145000  0.65024000  0.25543000  1.0 0.3858949235
H  H195  1  0.60504000  0.61906000  0.81887000  1.0 0.2376551358
H  H196  1  0.60504000  0.88094000  0.31887000  1.0 0.2376551358
H  H197  1  0.61866000  0.61657000  0.77050000  1.0 0.2991978045
H  H198  1  0.61866000  0.88343000  0.27050000  1.0 0.2991978045
H  H199  1  0.00700000  0.74520000  0.56300000  1.0 0.129752114
H  H200  1  0.00700000  0.75480000  0.06300000  1.0 0.129752114
C  C1  1  0.60742000  0.39980000  0.78622000  1.0 0.0718263826
C  C2  1  0.61104000  0.44620000  0.28304000  1.0 0.0606346746
C  C3  1  0.07546000  0.42823000  0.26236000  1.0 0.0606346746
C  C4  1  0.96944000  0.42634000  0.23754000  1.0 0.1192405165
C  C5  1  0.76154000  0.43335000  0.27894000  1.0 0.0814048323
C  C6  1  0.38133000  0.43204000  0.33133000  1.0 0.5443972787
C  C7  1  0.91900000  0.43153000  0.27120000  1.0 -0.2391377758
C  C8  1  0.75766000  0.40772000  0.78116000  1.0 0.0913749921
C  C9  1  0.81966000  0.43066000  0.24546000  1.0 0.1941321781
C  C10  1  0.07081000  0.40079000  0.76491000  1.0 0.0606346746
C  C11  1  0.91409000  0.40143000  0.77329000  1.0 -0.2391377758
C  C12  1  0.91562000  0.41920000  0.17822000  1.0 -0.2277660205
C  C13  1  0.81502000  0.40478000  0.74722000  1.0 0.1999613869
C  C14  1  0.81677000  0.42024000  0.15567000  1.0 0.1999613869
C  C15  1  0.21995000  0.43958000  0.24925000  1.0 -0.120875434
C  C16  1  0.27505000  0.43018000  0.30755000  1.0 -0.0226115947
C  C17  1  0.27029000  0.40599000  0.81129000  1.0 -0.0398121206
C  C18  1  0.96470000  0.40052000  0.73940000  1.0 0.1192405165
C  C19  1  0.75717000  0.41775000  0.09247000  1.0 0.0913749921
C  C20  1  0.91086000  0.40176000  0.67976000  1.0 -0.2277660205
C  C21  1  0.37676000  0.40841000  0.83606000  1.0 0.5282515874
C  C22  1  0.13038000  0.41869000  0.32068000  1.0 -0.1496799448
C  C23  1  0.21702000  0.39560000  0.75342000  1.0 -0.1319900263
C  C24  1  0.12126000  0.43941000  0.22716000  1.0 -0.141870887
C  C25  1  0.22903000  0.42001000  0.34303000  1.0 -0.1011255827
C  C26  1  0.12435000  0.41060000  0.82315000  1.0 -0.1496799448
C  C27  1  0.74018000  0.42340000  0.36538000  1.0 0.0814048323
C  C28  1  0.81199000  0.40469000  0.65729000  1.0 0.2096889606
C  C29  1  0.75333000  0.40856000  0.59383000  1.0 0.1011394871
C  C30  1  0.62273000  0.45000000  0.51253000  1.0 0.0814048323
C  C31  1  0.11855000  0.39270000  0.73085000  1.0 -0.120875434
C  C32  1  0.72801000  0.38670000  0.99681000  1.0 0.0814048323
C  C33  1  0.79553000  0.42330000  0.83913000  1.0 -0.1944400491
C  C34  1  0.67262000  0.44538000  0.57132000  1.0 -0.1584791334
C  C35  1  0.77687000  0.37591000  0.55517000  1.0 -0.1584791334
C  C36  1  0.66492000  0.44610000  0.25202000  1.0 -0.203214704
C  C37  1  0.73706000  0.42710000  0.86686000  1.0 0.0304318322
C  C38  1  0.22308000  0.41270000  0.84598000  1.0 -0.1011255827
C  C39  1  0.79908000  0.42260000  0.33758000  1.0 -0.1711180145
C  C40  1  0.72030000  0.38141000  0.49710000  1.0 0.0606346746
C  C41  1  0.78723000  0.38741000  0.05513000  1.0 -0.1496799448
C  C42  1  0.66093000  0.39650000  0.75533000  1.0 -0.1584791334
C  C43  1  0.61510000  0.44367000  0.00980000  1.0 -0.009097725
C  C44  1  0.66800000  0.44530000  0.06830000  1.0 -0.203214704
C  C45  1  0.39258000  0.89980000  0.71378000  1.0 0.0718263826
C  C46  1  0.38896000  0.94620000  0.21696000  1.0 0.0606346746
C  C47  1  0.92454000  0.92823000  0.23764000  1.0 0.0606346746
C  C48  1  0.03056000  0.92634000  0.26246000  1.0 0.1192405165
C  C49  1  0.23846000  0.93335000  0.22106000  1.0 0.0814048323
C  C50  1  0.61867000  0.93204000  0.16867000  1.0 0.5443972787
C  C51  1  0.08100000  0.93153000  0.22880000  1.0 -0.2391377758
C  C52  1  0.24234000  0.90772000  0.71884000  1.0 0.0913749921
C  C53  1  0.18034000  0.93066000  0.25454000  1.0 0.1941321781
C  C54  1  0.92919000  0.90079000  0.73509000  1.0 0.0606346746
C  C55  1  0.08591000  0.90143000  0.72671000  1.0 -0.2391377758
C  C56  1  0.08438000  0.91920000  0.32178000  1.0 -0.2277660205
C  C57  1  0.18498000  0.90478000  0.75278000  1.0 0.1999613869
C  C58  1  0.18323000  0.92024000  0.34433000  1.0 0.1999613869
C  C59  1  0.78005000  0.93958000  0.25075000  1.0 -0.120875434
C  C60  1  0.72495000  0.93018000  0.19245000  1.0 -0.0226115947
C  C61  1  0.72971000  0.90599000  0.68871000  1.0 -0.0398121206
C  C62  1  0.03530000  0.90052000  0.76060000  1.0 0.1192405165
C  C63  1  0.24283000  0.91775000  0.40753000  1.0 0.0913749921
C  C64  1  0.08914000  0.90176000  0.82024000  1.0 -0.2277660205
C  C65  1  0.62324000  0.90841000  0.66394000  1.0 0.5282515874
C  C66  1  0.86962000  0.91869000  0.17932000  1.0 -0.1496799448
C  C67  1  0.78298000  0.89560000  0.74658000  1.0 -0.1319900263
C  C68  1  0.87874000  0.93941000  0.27284000  1.0 -0.141870887
C  C69  1  0.77097000  0.92001000  0.15697000  1.0 -0.1011255827
C  C70  1  0.87565000  0.91060000  0.67685000  1.0 -0.1496799448
C  C71  1  0.25982000  0.92340000  0.13462000  1.0 0.0814048323
C  C72  1  0.18801000  0.90469000  0.84271000  1.0 0.2096889606
C  C73  1  0.24667000  0.90856000  0.90617000  1.0 0.1011394871
C  C74  1  0.37727000  0.95000000  0.98747000  1.0 0.0814048323
C  C75  1  0.88145000  0.89270000  0.76915000  1.0 -0.120875434
C  C76  1  0.27199000  0.88670000  0.50319000  1.0 0.0814048323
C  C77  1  0.20447000  0.92330000  0.66087000  1.0 -0.1944400491
C  C78  1  0.32738000  0.94538000  0.92868000  1.0 -0.1584791334
C  C79  1  0.22313000  0.87591000  0.94483000  1.0 -0.1584791334
C  C80  1  0.33508000  0.94610000  0.24798000  1.0 -0.203214704
C  C81  1  0.26294000  0.92710000  0.63314000  1.0 0.0304318322
C  C82  1  0.77692000  0.91270000  0.65402000  1.0 -0.1011255827
C  C83  1  0.20092000  0.92260000  0.16242000  1.0 -0.1711180145
C  C84  1  0.27970000  0.88141000  0.00290000  1.0 0.0606346746
C  C85  1  0.21277000  0.88741000  0.44487000  1.0 -0.1496799448
C  C86  1  0.33907000  0.89650000  0.74467000  1.0 -0.1584791334
C  C87  1  0.38490000  0.94367000  0.49020000  1.0 -0.009097725
C  C88  1  0.33200000  0.94530000  0.43170000  1.0 -0.203214704
C  C89  1  0.39258000  0.60020000  0.21378000  1.0 0.0718263826
C  C90  1  0.38896000  0.55380000  0.71696000  1.0 0.0545918784
C  C91  1  0.92454000  0.57177000  0.73764000  1.0 0.0606346746
C  C92  1  0.03056000  0.57366000  0.76246000  1.0 0.1192405165
C  C93  1  0.23846000  0.56665000  0.72106000  1.0 0.0814048323
C  C94  1  0.61867000  0.56796000  0.66867000  1.0 0.5443972787
C  C95  1  0.08100000  0.56847000  0.72880000  1.0 -0.2391377758
C  C96  1  0.24234000  0.59228000  0.21884000  1.0 0.0913749921
C  C97  1  0.18034000  0.56934000  0.75454000  1.0 0.1941321781
C  C98  1  0.92919000  0.59921000  0.23509000  1.0 0.0606346746
C  C99  1  0.08591000  0.59857000  0.22671000  1.0 -0.2391377758
C  C100  1  0.08438000  0.58080000  0.82178000  1.0 -0.2277660205
C  C101  1  0.18498000  0.59522000  0.25278000  1.0 0.1999613869
C  C102  1  0.18323000  0.57976000  0.84433000  1.0 0.1999613869
C  C103  1  0.78005000  0.56042000  0.75075000  1.0 -0.120875434
C  C104  1  0.72495000  0.56982000  0.69245000  1.0 -0.0226115947
C  C105  1  0.72971000  0.59401000  0.18871000  1.0 -0.0398121206
C  C106  1  0.03530000  0.59948000  0.26060000  1.0 0.1192405165
C  C107  1  0.24283000  0.58225000  0.90753000  1.0 0.0913749921
C  C108  1  0.08914000  0.59824000  0.32024000  1.0 -0.2277660205
C  C109  1  0.62324000  0.59159000  0.16394000  1.0 0.5282515874
C  C110  1  0.86962000  0.58131000  0.67932000  1.0 -0.1496799448
C  C111  1  0.78298000  0.60440000  0.24658000  1.0 -0.1319900263
C  C112  1  0.87874000  0.56059000  0.77284000  1.0 -0.141870887
C  C113  1  0.77097000  0.57999000  0.65697000  1.0 -0.1011255827
C  C114  1  0.87565000  0.58940000  0.17685000  1.0 -0.1496799448
C  C115  1  0.25982000  0.57660000  0.63462000  1.0 0.0814048323
C  C116  1  0.18801000  0.59531000  0.34271000  1.0 0.2096889606
C  C117  1  0.24667000  0.59144000  0.40617000  1.0 0.1011394871
C  C118  1  0.37727000  0.55000000  0.48747000  1.0 0.0814048323
C  C119  1  0.88145000  0.60730000  0.26915000  1.0 -0.120875434
C  C120  1  0.27199000  0.61330000  0.00319000  1.0 0.0814048323
C  C121  1  0.20447000  0.57670000  0.16087000  1.0 -0.1944400491
C  C122  1  0.32738000  0.55462000  0.42868000  1.0 -0.1584791334
C  C123  1  0.22313000  0.62409000  0.44483000  1.0 -0.1584791334
C  C124  1  0.33508000  0.55390000  0.74798000  1.0 -0.203214704
C  C125  1  0.26294000  0.57290000  0.13314000  1.0 0.0304318322
C  C126  1  0.77692000  0.58730000  0.15402000  1.0 -0.1011255827
C  C127  1  0.20092000  0.57740000  0.66242000  1.0 -0.1711180145
C  C128  1  0.27970000  0.61859000  0.50290000  1.0 0.0606346746
C  C129  1  0.21277000  0.61259000  0.94487000  1.0 -0.1496799448
C  C130  1  0.33907000  0.60350000  0.24467000  1.0 -0.1584791334
C  C131  1  0.38490000  0.55633000  0.99020000  1.0 -0.009097725
C  C132  1  0.33200000  0.55470000  0.93170000  1.0 -0.203214704
C  C133  1  0.60742000  0.10020000  0.28622000  1.0 0.0718263826
C  C134  1  0.61104000  0.05380000  0.78304000  1.0 0.0545918784
C  C135  1  0.07546000  0.07177000  0.76236000  1.0 0.0606346746
C  C136  1  0.96944000  0.07366000  0.73754000  1.0 0.1192405165
C  C137  1  0.76154000  0.06665000  0.77894000  1.0 0.0814048323
C  C138  1  0.38133000  0.06796000  0.83133000  1.0 0.5443972787
C  C139  1  0.91900000  0.06847000  0.77120000  1.0 -0.2391377758
C  C140  1  0.75766000  0.09228000  0.28116000  1.0 0.0913749921
C  C141  1  0.81966000  0.06934000  0.74546000  1.0 0.1941321781
C  C142  1  0.07081000  0.09921000  0.26491000  1.0 0.0606346746
C  C143  1  0.91409000  0.09857000  0.27329000  1.0 -0.2391377758
C  C144  1  0.91562000  0.08080000  0.67822000  1.0 -0.2277660205
C  C145  1  0.81502000  0.09522000  0.24722000  1.0 0.1999613869
C  C146  1  0.81677000  0.07976000  0.65567000  1.0 0.1999613869
C  C147  1  0.21995000  0.06042000  0.74925000  1.0 -0.120875434
C  C148  1  0.27505000  0.06982000  0.80755000  1.0 -0.0226115947
C  C149  1  0.27029000  0.09401000  0.31129000  1.0 -0.0398121206
C  C150  1  0.96470000  0.09948000  0.23940000  1.0 0.1192405165
C  C151  1  0.75717000  0.08225000  0.59247000  1.0 0.0913749921
C  C152  1  0.91086000  0.09824000  0.17976000  1.0 -0.2277660205
C  C153  1  0.37676000  0.09159000  0.33606000  1.0 0.5282515874
C  C154  1  0.13038000  0.08131000  0.82068000  1.0 -0.1496799448
C  C155  1  0.21702000  0.10440000  0.25342000  1.0 -0.1319900263
C  C156  1  0.12126000  0.06059000  0.72716000  1.0 -0.141870887
C  C157  1  0.22903000  0.07999000  0.84303000  1.0 -0.1011255827
C  C158  1  0.12435000  0.08940000  0.32315000  1.0 -0.1496799448
C  C159  1  0.74018000  0.07660000  0.86538000  1.0 0.0814048323
C  C160  1  0.81199000  0.09531000  0.15729000  1.0 0.2096889606
C  C161  1  0.75333000  0.09144000  0.09383000  1.0 0.1011394871
C  C162  1  0.62273000  0.05000000  0.01253000  1.0 0.0814048323
C  C163  1  0.11855000  0.10730000  0.23085000  1.0 -0.120875434
C  C164  1  0.72801000  0.11330000  0.49681000  1.0 0.0814048323
C  C165  1  0.79553000  0.07670000  0.33913000  1.0 -0.1944400491
C  C166  1  0.67262000  0.05462000  0.07132000  1.0 -0.1584791334
C  C167  1  0.77687000  0.12409000  0.05517000  1.0 -0.1584791334
C  C168  1  0.66492000  0.05390000  0.75202000  1.0 -0.203214704
C  C169  1  0.73706000  0.07290000  0.36686000  1.0 0.0304318322
C  C170  1  0.22308000  0.08730000  0.34598000  1.0 -0.1011255827
C  C171  1  0.79908000  0.07740000  0.83758000  1.0 -0.1711180145
C  C172  1  0.72030000  0.11859000  0.99710000  1.0 0.0606346746
C  C173  1  0.78723000  0.11259000  0.55513000  1.0 -0.1496799448
C  C174  1  0.66093000  0.10350000  0.25533000  1.0 -0.1584791334
C  C175  1  0.61510000  0.05633000  0.50980000  1.0 -0.009097725
C  C176  1  0.66800000  0.05470000  0.56830000  1.0 -0.203214704
C  C177  1  0.66909000  0.23736000  0.78119000  1.0 -0.0398121206
C  C178  1  0.66909000  0.26264000  0.28119000  1.0 -0.0398121206
C  C179  1  0.02529000  0.24115000  0.81949000  1.0 -0.2391377758
C  C180  1  0.02529000  0.25885000  0.31949000  1.0 -0.2391377758
C  C181  1  0.18205000  0.23922000  0.81205000  1.0 0.0913749921
C  C182  1  0.18205000  0.26078000  0.31205000  1.0 0.0913749921
C  C183  1  0.12453000  0.24218000  0.84593000  1.0 0.1999613869
C  C184  1  0.12453000  0.25782000  0.34593000  1.0 0.1999613869
C  C185  1  0.56190000  0.23741000  0.75590000  1.0 0.5594804874
C  C186  1  0.56190000  0.26259000  0.25590000  1.0 0.5594804874
C  C187  1  0.97450000  0.24235000  0.85340000  1.0 0.1110293525
C  C188  1  0.97450000  0.25765000  0.35340000  1.0 0.1110293525
C  C189  1  0.86791000  0.24095000  0.82721000  1.0 0.0606346746
C  C190  1  0.86791000  0.25905000  0.32721000  1.0 0.0545918784
C  C191  1  0.18428000  0.24991000  0.99908000  1.0 0.1011394871
C  C192  1  0.18428000  0.25009000  0.49908000  1.0 0.1011394871
C  C193  1  0.81427000  0.23000000  0.76957000  1.0 -0.141870887
C  C194  1  0.81427000  0.27000000  0.26957000  1.0 -0.141870887
C  C195  1  0.71532000  0.22820000  0.74652000  1.0 -0.1011255827
C  C196  1  0.71532000  0.27180000  0.24652000  1.0 -0.1011255827
C  C197  1  0.27842000  0.25309000  0.83822000  1.0 -0.1711180145
C  C198  1  0.27842000  0.24691000  0.33822000  1.0 -0.1711180145
C  C199  1  0.12607000  0.24647000  0.93587000  1.0 0.2096889606
C  C200  1  0.12607000  0.25353000  0.43587000  1.0 0.2096889606
C  C201  1  0.15083000  0.22930000  0.03833000  1.0 -0.1584791334
C  C202  1  0.15083000  0.27070000  0.53833000  1.0 -0.1584791334
C  C203  1  0.20392000  0.21814000  0.72702000  1.0 0.0814048323
C  C204  1  0.20392000  0.28186000  0.22702000  1.0 0.0814048323
C  C205  1  0.14503000  0.22141000  0.75493000  1.0 -0.1711180145
C  C206  1  0.14503000  0.27859000  0.25493000  1.0 -0.1711180145
C  C207  1  0.27569000  0.27390000  0.02119000  1.0 -0.1815182538
C  C208  1  0.27569000  0.22610000  0.52119000  1.0 -0.1815182538
C  C209  1  0.72152000  0.24740000  0.83922000  1.0 -0.1076382594
C  C210  1  0.72152000  0.25260000  0.33922000  1.0 -0.1076382594
C  C211  1  0.82087000  0.24980000  0.86207000  1.0 -0.1584791334
C  C212  1  0.82087000  0.25020000  0.36207000  1.0 -0.1584791334
C  C213  1  0.32809000  0.27759000  0.07989000  1.0 0.0606346746
C  C214  1  0.32809000  0.22241000  0.57989000  1.0 0.0606346746
C  C215  1  0.20844000  0.23348000  0.09654000  1.0 0.0814048323
C  C216  1  0.20844000  0.26652000  0.59654000  1.0 0.0814048323
C  C217  1  0.33091000  0.24992000  0.80671000  1.0 0.0718263826
C  C218  1  0.33091000  0.25008000  0.30671000  1.0 0.0718263826
C  C219  1  0.02712000  0.24487000  0.91262000  1.0 -0.2470970833
C  C220  1  0.02712000  0.25513000  0.41262000  1.0 -0.2470970833
C  C221  1  0.33091000  0.73736000  0.71881000  1.0 -0.0398121206
C  C222  1  0.33091000  0.76264000  0.21881000  1.0 -0.0398121206
C  C223  1  0.97471000  0.74115000  0.68051000  1.0 -0.2391377758
C  C224  1  0.97471000  0.75885000  0.18051000  1.0 -0.2391377758
C  C225  1  0.81795000  0.73922000  0.68795000  1.0 0.0913749921
C  C226  1  0.81795000  0.76078000  0.18795000  1.0 0.0913749921
C  C227  1  0.87547000  0.74218000  0.65407000  1.0 0.1999613869
C  C228  1  0.87547000  0.75782000  0.15407000  1.0 0.1999613869
C  C229  1  0.43810000  0.73741000  0.74410000  1.0 0.5594804874
C  C230  1  0.43810000  0.76259000  0.24410000  1.0 0.5594804874
C  C231  1  0.02550000  0.74235000  0.64660000  1.0 0.1110293525
C  C232  1  0.02550000  0.75765000  0.14660000  1.0 0.1110293525
C  C233  1  0.13209000  0.74095000  0.67279000  1.0 0.0545918784
C  C234  1  0.13209000  0.75905000  0.17279000  1.0 0.0545918784
C  C235  1  0.81572000  0.74991000  0.50092000  1.0 0.1011394871
C  C236  1  0.81572000  0.75009000  0.00092000  1.0 0.1011394871
C  C237  1  0.18573000  0.73000000  0.73043000  1.0 -0.141870887
C  C238  1  0.18573000  0.77000000  0.23043000  1.0 -0.141870887
C  C239  1  0.28468000  0.72820000  0.75348000  1.0 -0.1011255827
C  C240  1  0.28468000  0.77180000  0.25348000  1.0 -0.1011255827
C  C241  1  0.72158000  0.75309000  0.66178000  1.0 -0.1711180145
C  C242  1  0.72158000  0.74691000  0.16178000  1.0 -0.1711180145
C  C243  1  0.87393000  0.74647000  0.56413000  1.0 0.2096889606
C  C244  1  0.87393000  0.75353000  0.06413000  1.0 0.2096889606
C  C245  1  0.84917000  0.72930000  0.46167000  1.0 -0.1584791334
C  C246  1  0.84917000  0.77070000  0.96167000  1.0 -0.1584791334
C  C247  1  0.79608000  0.71814000  0.77298000  1.0 0.0814048323
C  C248  1  0.79608000  0.78186000  0.27298000  1.0 0.0814048323
C  C249  1  0.85497000  0.72141000  0.74507000  1.0 -0.1711180145
C  C250  1  0.85497000  0.77859000  0.24507000  1.0 -0.1711180145
C  C251  1  0.72431000  0.77390000  0.47881000  1.0 -0.1815182538
C  C252  1  0.72431000  0.72610000  0.97881000  1.0 -0.1815182538
C  C253  1  0.27848000  0.74740000  0.66078000  1.0 -0.1076382594
C  C254  1  0.27848000  0.75260000  0.16078000  1.0 -0.1076382594
C  C255  1  0.17913000  0.74980000  0.63793000  1.0 -0.1584791334
C  C256  1  0.17913000  0.75020000  0.13793000  1.0 -0.1584791334
C  C257  1  0.67191000  0.77759000  0.42011000  1.0 0.0718263826
C  C258  1  0.67191000  0.72241000  0.92011000  1.0 0.0606346746
C  C259  1  0.79156000  0.73348000  0.40346000  1.0 0.0814048323
C  C260  1  0.79156000  0.76652000  0.90346000  1.0 0.0814048323
C  C261  1  0.66909000  0.74992000  0.69329000  1.0 0.0718263826
C  C262  1  0.66909000  0.75008000  0.19329000  1.0 0.0718263826
C  C263  1  0.97288000  0.74487000  0.58738000  1.0 -0.2470970833
C  C264  1  0.97288000  0.75513000  0.08738000  1.0 -0.2470970833
N  N1  1  0.58566000  0.56530000  0.37896000  1.0 0.6414217344
N  N2  1  0.76885000  0.42625000  0.18826000  1.0 -0.3735467056
N  N3  1  0.76411000  0.40687000  0.69007000  1.0 -0.3199023949
N  N4  1  0.64380000  0.41453000  0.84196000  1.0 -0.3199023949
N  N5  1  0.54890000  0.55420000  0.89230000  1.0 0.4272967568
N  N6  1  0.64648000  0.43452000  0.33929000  1.0 -0.2606737921
N  N7  1  0.64529000  0.41896000  0.47504000  1.0 -0.2277660205
N  N8  1  0.64376000  0.41558000  0.97348000  1.0 -0.3437843182
N  N9  1  0.54830000  0.55300000  0.87800000  1.0 0.4409792116
N  N10  1  0.41434000  0.06530000  0.12104000  1.0 0.6414217344
N  N11  1  0.23115000  0.92625000  0.31174000  1.0 -0.3735467056
N  N12  1  0.23589000  0.90687000  0.80993000  1.0 -0.3199023949
N  N13  1  0.35620000  0.91453000  0.65804000  1.0 -0.3199023949
N  N14  1  0.45110000  0.05420000  0.60770000  1.0 0.4272967568
N  N15  1  0.35352000  0.93452000  0.16071000  1.0 -0.2606737921
N  N16  1  0.35471000  0.91896000  0.02496000  1.0 -0.2277660205
N  N17  1  0.35624000  0.91558000  0.52652000  1.0 -0.3437843182
N  N18  1  0.45170000  0.05300000  0.62200000  1.0 0.4409792116
N  N19  1  0.41434000  0.43470000  0.62104000  1.0 0.6414217344
N  N20  1  0.23115000  0.57375000  0.81174000  1.0 -0.3735467056
N  N21  1  0.23589000  0.59313000  0.30993000  1.0 -0.3199023949
N  N22  1  0.35620000  0.58547000  0.15804000  1.0 -0.3199023949
N  N23  1  0.45110000  0.44580000  0.10770000  1.0 0.4272967568
N  N24  1  0.35352000  0.56548000  0.66071000  1.0 -0.2606737921
N  N25  1  0.35471000  0.58104000  0.52496000  1.0 -0.2277660205
N  N26  1  0.35624000  0.58442000  0.02652000  1.0 -0.3437843182
N  N27  1  0.45170000  0.44700000  0.12200000  1.0 0.4409792116
N  N28  1  0.58566000  0.93470000  0.87896000  1.0 0.6414217344
N  N29  1  0.76885000  0.07375000  0.68826000  1.0 -0.3735467056
N  N30  1  0.76411000  0.09313000  0.19007000  1.0 -0.3199023949
N  N31  1  0.64380000  0.08547000  0.34196000  1.0 -0.3199023949
N  N32  1  0.54890000  0.94580000  0.39230000  1.0 0.4272967568
N  N33  1  0.64648000  0.06548000  0.83929000  1.0 -0.2606737921
N  N34  1  0.64529000  0.08104000  0.97504000  1.0 -0.2277660205
N  N35  1  0.64376000  0.08442000  0.47348000  1.0 -0.3437843182
N  N36  1  0.54830000  0.94700000  0.37800000  1.0 0.4409792116
N  N37  1  0.29620000  0.23300000  0.75181000  1.0 -0.2470970833
N  N38  1  0.29620000  0.26700000  0.25181000  1.0 -0.2470970833
N  N39  1  0.17432000  0.24506000  0.90318000  1.0 -0.325172902
N  N40  1  0.17432000  0.25494000  0.40318000  1.0 -0.325172902
N  N41  1  0.29589000  0.25757000  0.11794000  1.0 -0.2606737921
N  N42  1  0.29589000  0.24243000  0.61794000  1.0 -0.2606737921
N  N43  1  0.70380000  0.73300000  0.74819000  1.0 -0.2470970833
N  N44  1  0.70380000  0.76700000  0.24819000  1.0 -0.2470970833
N  N45  1  0.82568000  0.74506000  0.59682000  1.0 -0.325172902
N  N46  1  0.82568000  0.75494000  0.09682000  1.0 -0.325172902
N  N47  1  0.70411000  0.75757000  0.38206000  1.0 -0.2606737921
N  N48  1  0.70411000  0.74243000  0.88206000  1.0 -0.2606737921
Cl  Cl1  1  0.95804000  0.24533000  0.59656000  1.0 1.2324449113
Cl  Cl2  1  0.04196000  0.74533000  0.90344000  1.0 1.2324449113
Cl  Cl3  1  0.04196000  0.75467000  0.40344000  1.0 1.2324449113
Cl  Cl4  1  0.95804000  0.25467000  0.09656000  1.0 1.2324449113
O  O1  1  0.62440000  0.61650000  0.39040000  1.0 -0.3629107932
O  O2  1  0.56357000  0.33687000  0.38157000  1.0 -0.6508432784
O  O3  1  0.42911000  0.43826000  0.38470000  1.0 -0.5333975414
O  O4  1  0.53500000  0.60760000  0.86830000  1.0 0.0089367512
O  O5  1  0.42133000  0.42765000  0.29804000  1.0 -0.5679002712
O  O6  1  0.53850000  0.55800000  0.32950000  1.0 -0.3469874421
O  O7  1  0.53880000  0.54970000  0.93600000  1.0 -0.120875434
O  O8  1  0.56030000  0.51310000  0.86540000  1.0 0.1011394871
O  O9  1  0.56803000  0.31772000  0.89004000  1.0 -0.6769034871
O  O10  1  0.42329000  0.41692000  0.88921000  1.0 -0.5813344478
O  O11  1  0.41885000  0.40218000  0.80428000  1.0 -0.5813344478
O  O12  1  0.59450000  0.52642000  0.41170000  1.0 -0.3629107932
O  O13  1  0.52080000  0.60650000  0.88720000  1.0 0.0202392624
O  O14  1  0.60880000  0.55120000  0.86320000  1.0 -0.0541116902
O  O15  1  0.51790000  0.50760000  0.89010000  1.0 0.0089367512
O  O16  1  0.37560000  0.11650000  0.10960000  1.0 -0.3629107932
O  O17  1  0.43643000  0.83687000  0.11843000  1.0 -0.6508432784
O  O18  1  0.57089000  0.93826000  0.11530000  1.0 -0.5333975414
O  O19  1  0.46500000  0.10760000  0.63170000  1.0 0.0089367512
O  O20  1  0.57867000  0.92765000  0.20196000  1.0 -0.5679002712
O  O21  1  0.46150000  0.05800000  0.17050000  1.0 -0.3469874421
O  O22  1  0.46120000  0.04970000  0.56400000  1.0 -0.120875434
O  O23  1  0.43970000  0.01310000  0.63460000  1.0 0.1011394871
O  O24  1  0.43197000  0.81772000  0.60996000  1.0 -0.6769034871
O  O25  1  0.57671000  0.91692000  0.61079000  1.0 -0.5813344478
O  O26  1  0.58115000  0.90218000  0.69572000  1.0 -0.5813344478
O  O27  1  0.40550000  0.02642000  0.08830000  1.0 -0.3629107932
O  O28  1  0.47920000  0.10650000  0.61280000  1.0 0.0202392624
O  O29  1  0.39120000  0.05120000  0.63680000  1.0 -0.0541116902
O  O30  1  0.48210000  0.00760000  0.60990000  1.0 0.0089367512
O  O31  1  0.37560000  0.38350000  0.60960000  1.0 -0.3629107932
O  O32  1  0.43643000  0.66313000  0.61843000  1.0 -0.6508432784
O  O33  1  0.57089000  0.56174000  0.61530000  1.0 -0.5333975414
O  O34  1  0.46500000  0.39240000  0.13170000  1.0 0.0089367512
O  O35  1  0.57867000  0.57235000  0.70196000  1.0 -0.5679002712
O  O36  1  0.46150000  0.44200000  0.67050000  1.0 -0.3469874421
O  O37  1  0.46120000  0.45030000  0.06400000  1.0 -0.1319900263
O  O38  1  0.43970000  0.48690000  0.13460000  1.0 0.1011394871
O  O39  1  0.43197000  0.68228000  0.10996000  1.0 -0.6769034871
O  O40  1  0.57671000  0.58308000  0.11079000  1.0 -0.5813344478
O  O41  1  0.58115000  0.59782000  0.19572000  1.0 -0.5813344478
O  O42  1  0.40550000  0.47358000  0.58830000  1.0 -0.3629107932
O  O43  1  0.47920000  0.39350000  0.11280000  1.0 0.0202392624
O  O44  1  0.39120000  0.44880000  0.13680000  1.0 -0.05924555
O  O45  1  0.48210000  0.49240000  0.10990000  1.0 0.0018372266
O  O46  1  0.62440000  0.88350000  0.89040000  1.0 -0.3629107932
O  O47  1  0.56357000  0.16313000  0.88157000  1.0 -0.6508432784
O  O48  1  0.42911000  0.06174000  0.88470000  1.0 -0.5333975414
O  O49  1  0.53500000  0.89240000  0.36830000  1.0 0.0089367512
O  O50  1  0.42133000  0.07235000  0.79804000  1.0 -0.5679002712
O  O51  1  0.53850000  0.94200000  0.82950000  1.0 -0.3469874421
O  O52  1  0.53880000  0.95030000  0.43600000  1.0 -0.1319900263
O  O53  1  0.56030000  0.98690000  0.36540000  1.0 0.1011394871
O  O54  1  0.56803000  0.18228000  0.39004000  1.0 -0.6769034871
O  O55  1  0.42329000  0.08308000  0.38921000  1.0 -0.5813344478
O  O56  1  0.41885000  0.09782000  0.30428000  1.0 -0.5813344478
O  O57  1  0.59450000  0.97358000  0.91170000  1.0 -0.3629107932
O  O58  1  0.52080000  0.89350000  0.38720000  1.0 0.0202392624
O  O59  1  0.60880000  0.94880000  0.36320000  1.0 -0.05924555
O  O60  1  0.51790000  0.99240000  0.39010000  1.0 0.0018372266
O  O61  1  0.37523000  0.33210000  0.70755000  1.0 -0.7028712789
O  O62  1  0.37523000  0.16790000  0.20755000  1.0 -0.7028712789
O  O63  1  0.51482000  0.23479000  0.70296000  1.0 -0.5371124157
O  O64  1  0.51482000  0.26521000  0.20296000  1.0 -0.5371124157
O  O65  1  0.52107000  0.24017000  0.78968000  1.0 -0.5813344478
O  O66  1  0.52107000  0.25983000  0.28968000  1.0 -0.5813344478
O  O67  1  0.37371000  0.13966000  0.70121000  1.0 -0.7112754145
O  O68  1  0.37371000  0.36034000  0.20121000  1.0 -0.7112754145
O  O69  1  0.62477000  0.83210000  0.79245000  1.0 -0.7028712789
O  O70  1  0.62477000  0.66790000  0.29245000  1.0 -0.7028712789
O  O71  1  0.48518000  0.73479000  0.79704000  1.0 -0.5371124157
O  O72  1  0.48518000  0.76521000  0.29704000  1.0 -0.5371124157
O  O73  1  0.47893000  0.74017000  0.71032000  1.0 -0.5813344478
O  O74  1  0.47893000  0.75983000  0.21032000  1.0 -0.5813344478
O  O75  1  0.62629000  0.63966000  0.79879000  1.0 -0.7112754145
O  O76  1  0.62629000  0.86034000  0.29879000  1.0 -0.7112754145
O  O77  1  0.00750000  0.29758000  0.60970000  1.0 -0.4491666564
O  O78  1  0.00520000  0.19267000  0.61080000  1.0 -0.4491666564
O  O79  1  0.90140000  0.24670000  0.53480000  1.0 -0.5183143476
O  O80  1  0.90250000  0.24620000  0.63680000  1.0 -0.5461819181
O  O81  1  0.99250000  0.79758000  0.89030000  1.0 -0.4564515361
O  O82  1  0.99480000  0.69267000  0.88920000  1.0 -0.4491666564
O  O83  1  0.09860000  0.74670000  0.96520000  1.0 -0.5183143476
O  O84  1  0.09750000  0.74620000  0.86320000  1.0 -0.5461819181
O  O85  1  0.99250000  0.70242000  0.39030000  1.0 -0.4491666564
O  O86  1  0.99480000  0.80733000  0.38920000  1.0 -0.4491666564
O  O87  1  0.09860000  0.75330000  0.46520000  1.0 -0.5183143476
O  O88  1  0.09750000  0.75380000  0.36320000  1.0 -0.5461819181
O  O89  1  0.00750000  0.20242000  0.10970000  1.0 -0.4564515361
O  O90  1  0.00520000  0.30733000  0.11080000  1.0 -0.4491666564
O  O91  1  0.90140000  0.25330000  0.03480000  1.0 -0.5183143476
O  O92  1  0.90250000  0.25380000  0.13680000  1.0 -0.5461819181
