# DDEC6 charges by PACMAN v1.1 (https://github.com/mtap-research/PACMAN-charge/)
data_WINHUA_ion_pacman
_symmetry_space_group_name_H-M   'P 1'
_cell_length_a   12.81210000
_cell_length_b   21.16300000
_cell_length_c   15.33500000
_cell_angle_alpha   90.00000000
_cell_angle_beta   113.95200000
_cell_angle_gamma   90.00000000
_symmetry_Int_Tables_number   1
_chemical_formula_structural   Zn5H98C86N14Cl2O21
_chemical_formula_sum   'Zn10 H196 C172 N28 Cl4 O42'
_cell_volume   3799.90991759
_cell_formula_units_Z   2
loop_
 _symmetry_equiv_pos_site_id
 _symmetry_equiv_pos_as_xyz
  1  'x, y, z'
loop_
 _atom_site_type_symbol
 _atom_site_label
 _atom_site_symmetry_multiplicity
 _atom_site_fract_x
 _atom_site_fract_y
 _atom_site_fract_z
 _atom_site_occupancy
 _atom_site_charge
Zn  Zn1  1  0.48450000  0.75000000  0.37369000  1.0 0.731535078
Zn  Zn2  1  0.51550000  0.25000000  0.62631000  1.0 0.731535078
Zn  Zn3  1  0.69448000  0.06025000  0.44672000  1.0 0.5321669513
Zn  Zn4  1  0.70300000  0.08012000  0.44620000  1.0 0.5321669513
Zn  Zn5  1  0.30552000  0.56025000  0.55328000  1.0 0.5321669513
Zn  Zn6  1  0.29700000  0.58012000  0.55380000  1.0 0.5321669513
Zn  Zn7  1  0.30552000  0.93975000  0.55328000  1.0 0.5321669513
Zn  Zn8  1  0.29700000  0.91988000  0.55380000  1.0 0.5321669513
Zn  Zn9  1  0.69448000  0.43975000  0.44672000  1.0 0.5321669513
Zn  Zn10  1  0.70300000  0.41988000  0.44620000  1.0 0.5321669513
H  H1  1  0.09876000  0.71799000  0.47837000  1.0 0.0989097781
H  H2  1  0.09876000  0.78201000  0.47837000  1.0 0.0989097781
H  H3  1  0.14427000  0.78053000  0.45145000  1.0 0.108672868
H  H4  1  0.14427000  0.71947000  0.45145000  1.0 0.108672868
H  H5  1  0.17750000  0.76346000  0.55891000  1.0 0.117633651
H  H6  1  0.17750000  0.73654000  0.55891000  1.0 0.117633651
H  H7  1  0.01653000  0.69122000  0.59813000  1.0 0.0911822577
H  H8  1  0.01653000  0.80878000  0.59813000  1.0 0.0911822577
H  H9  1  0.09799000  0.74091000  0.66910000  1.0 0.0721176452
H  H10  1  0.09799000  0.75909000  0.66910000  1.0 0.0721176452
H  H11  1  0.97240000  0.73325000  0.66030000  1.0 0.0721176452
H  H12  1  0.97240000  0.76675000  0.66030000  1.0 0.0721176452
H  H13  1  0.89787000  0.85076000  0.58996000  1.0 0.0911822577
H  H14  1  0.89787000  0.64924000  0.58996000  1.0 0.0911822577
H  H15  1  0.83935000  0.83667000  0.48024000  1.0 0.0911822577
H  H16  1  0.83935000  0.66333000  0.48024000  1.0 0.0911822577
H  H17  1  0.82249000  0.79010000  0.55297000  1.0 0.0813634181
H  H18  1  0.82249000  0.70990000  0.55297000  1.0 0.0813634181
H  H19  1  0.10962000  0.70660000  0.63417000  1.0 0.0813634181
H  H20  1  0.10962000  0.79340000  0.63417000  1.0 0.0813634181
H  H21  1  0.04310000  0.75764000  0.66553000  1.0 0.0721176452
H  H22  1  0.04310000  0.74236000  0.66553000  1.0 0.0721176452
H  H23  1  0.97579000  0.70557000  0.59127000  1.0 0.0911822577
H  H24  1  0.97579000  0.79443000  0.59127000  1.0 0.0911822577
H  H25  1  0.88775000  0.82210000  0.59006000  1.0 0.0911822577
H  H26  1  0.88775000  0.67790000  0.59006000  1.0 0.0911822577
H  H27  1  0.80346000  0.84048000  0.48620000  1.0 0.0721176452
H  H28  1  0.80346000  0.65952000  0.48620000  1.0 0.0721176452
H  H29  1  0.82592000  0.76915000  0.51542000  1.0 0.0813634181
H  H30  1  0.82592000  0.73085000  0.51542000  1.0 0.0813634181
H  H31  1  0.92116000  0.82041000  0.35223000  1.0 0.117633651
H  H32  1  0.92116000  0.67959000  0.35223000  1.0 0.117633651
H  H33  1  0.89679000  0.88178000  0.39810000  1.0 0.1482323036
H  H34  1  0.89679000  0.61822000  0.39810000  1.0 0.1482323036
H  H35  1  0.02277000  0.86308000  0.41773000  1.0 0.1725562671
H  H36  1  0.02277000  0.63692000  0.41773000  1.0 0.1725562671
H  H37  1  0.95212000  0.90829000  0.43031000  1.0 0.0989097781
H  H38  1  0.95212000  0.59171000  0.43031000  1.0 0.0989097781
H  H39  1  0.90524000  0.86687000  0.35397000  1.0 0.1385304506
H  H40  1  0.90524000  0.63313000  0.35397000  1.0 0.1385304506
H  H41  1  0.90124000  0.21799000  0.52163000  1.0 0.0989097781
H  H42  1  0.90124000  0.28201000  0.52163000  1.0 0.0989097781
H  H43  1  0.85573000  0.28053000  0.54855000  1.0 0.108672868
H  H44  1  0.85573000  0.21947000  0.54855000  1.0 0.108672868
H  H45  1  0.82250000  0.26346000  0.44109000  1.0 0.117633651
H  H46  1  0.82250000  0.23654000  0.44109000  1.0 0.117633651
H  H47  1  0.98347000  0.19122000  0.40187000  1.0 0.0911822577
H  H48  1  0.98347000  0.30878000  0.40187000  1.0 0.0911822577
H  H49  1  0.90201000  0.24091000  0.33090000  1.0 0.0721176452
H  H50  1  0.90201000  0.25909000  0.33090000  1.0 0.0721176452
H  H51  1  0.02760000  0.23325000  0.33970000  1.0 0.0721176452
H  H52  1  0.02760000  0.26675000  0.33970000  1.0 0.0721176452
H  H53  1  0.10213000  0.35076000  0.41004000  1.0 0.0911822577
H  H54  1  0.10213000  0.14924000  0.41004000  1.0 0.0911822577
H  H55  1  0.16065000  0.33667000  0.51976000  1.0 0.0911822577
H  H56  1  0.16065000  0.16333000  0.51976000  1.0 0.0911822577
H  H57  1  0.17751000  0.29010000  0.44703000  1.0 0.0813634181
H  H58  1  0.17751000  0.20990000  0.44703000  1.0 0.0813634181
H  H59  1  0.89038000  0.20660000  0.36583000  1.0 0.0813634181
H  H60  1  0.89038000  0.29340000  0.36583000  1.0 0.0813634181
H  H61  1  0.95690000  0.25764000  0.33447000  1.0 0.0721176452
H  H62  1  0.95690000  0.24236000  0.33447000  1.0 0.0721176452
H  H63  1  0.02421000  0.20557000  0.40873000  1.0 0.0911822577
H  H64  1  0.02421000  0.29443000  0.40873000  1.0 0.0911822577
H  H65  1  0.11225000  0.32210000  0.40994000  1.0 0.0813634181
H  H66  1  0.11225000  0.17790000  0.40994000  1.0 0.0813634181
H  H67  1  0.19654000  0.34048000  0.51380000  1.0 0.0721176452
H  H68  1  0.19654000  0.15952000  0.51380000  1.0 0.0721176452
H  H69  1  0.17408000  0.26915000  0.48458000  1.0 0.0813634181
H  H70  1  0.17408000  0.23085000  0.48458000  1.0 0.0813634181
H  H71  1  0.07884000  0.32041000  0.64777000  1.0 0.117633651
H  H72  1  0.07884000  0.17959000  0.64777000  1.0 0.117633651
H  H73  1  0.10321000  0.38178000  0.60190000  1.0 0.1482323036
H  H74  1  0.10321000  0.11822000  0.60190000  1.0 0.1385304506
H  H75  1  0.97723000  0.36308000  0.58227000  1.0 0.1725562671
H  H76  1  0.97723000  0.13692000  0.58227000  1.0 0.1725562671
H  H77  1  0.04788000  0.40829000  0.56969000  1.0 0.0911822577
H  H78  1  0.04788000  0.09171000  0.56969000  1.0 0.0911822577
H  H79  1  0.09476000  0.36687000  0.64603000  1.0 0.1385304506
H  H80  1  0.09476000  0.13313000  0.64603000  1.0 0.1385304506
H  H81  1  0.43973000  0.86592000  0.39298000  1.0 0.3031567344
H  H82  1  0.43973000  0.63408000  0.39298000  1.0 0.3031567344
H  H83  1  0.54832000  0.86558000  0.40128000  1.0 0.2714195261
H  H84  1  0.54832000  0.63442000  0.40128000  1.0 0.2714195261
H  H85  1  0.78278000  0.75000000  0.67329000  1.0 0.1597295003
H  H86  1  0.47838000  0.75000000  0.68552000  1.0 0.1311354875
H  H87  1  0.87117000  0.75000000  0.83636000  1.0 0.1311354875
H  H88  1  0.56640000  0.75000000  0.84940000  1.0 0.108672868
H  H89  1  0.94969000  0.75000000  0.98563000  1.0 0.1311354875
H  H90  1  0.64002000  0.75000000  0.99136000  1.0 0.1311354875
H  H91  1  0.12896000  0.75000000  0.06939000  1.0 0.1311354875
H  H92  1  0.07004000  0.75000000  0.30416000  1.0 0.108672868
H  H93  1  0.56242000  0.79016000  0.08356000  1.0 0.1311354875
H  H94  1  0.56242000  0.70984000  0.08356000  1.0 0.1311354875
H  H95  1  0.82191000  0.70648000  0.29518000  1.0 0.0721176452
H  H96  1  0.82191000  0.79352000  0.29518000  1.0 0.0721176452
H  H97  1  0.31969000  0.75000000  0.16496000  1.0 0.0813634181
H  H98  1  0.26073000  0.75000000  0.39190000  1.0 0.0989097781
H  H99  1  0.46444000  0.79221000  0.18125000  1.0 0.117633651
H  H100  1  0.46444000  0.70779000  0.18125000  1.0 0.117633651
H  H101  1  0.71175000  0.70443000  0.38178000  1.0 0.0813634181
H  H102  1  0.71175000  0.79557000  0.38178000  1.0 0.0813634181
H  H103  1  0.56027000  0.36592000  0.60702000  1.0 0.3031567344
H  H104  1  0.56027000  0.13408000  0.60702000  1.0 0.3031567344
H  H105  1  0.45168000  0.36558000  0.59872000  1.0 0.2714195261
H  H106  1  0.45168000  0.13442000  0.59872000  1.0 0.2714195261
H  H107  1  0.21722000  0.25000000  0.32671000  1.0 0.1597295003
H  H108  1  0.52162000  0.25000000  0.31448000  1.0 0.1311354875
H  H109  1  0.12883000  0.25000000  0.16364000  1.0 0.1311354875
H  H110  1  0.43360000  0.25000000  0.15060000  1.0 0.108672868
H  H111  1  0.05031000  0.25000000  0.01437000  1.0 0.1311354875
H  H112  1  0.35998000  0.25000000  0.00864000  1.0 0.1311354875
H  H113  1  0.87104000  0.25000000  0.93061000  1.0 0.1311354875
H  H114  1  0.92996000  0.25000000  0.69584000  1.0 0.108672868
H  H115  1  0.43758000  0.29016000  0.91644000  1.0 0.1311354875
H  H116  1  0.43758000  0.20984000  0.91644000  1.0 0.1311354875
H  H117  1  0.17809000  0.20648000  0.70482000  1.0 0.0721176452
H  H118  1  0.17809000  0.29352000  0.70482000  1.0 0.0721176452
H  H119  1  0.68031000  0.25000000  0.83504000  1.0 0.0813634181
H  H120  1  0.73927000  0.25000000  0.60810000  1.0 0.0989097781
H  H121  1  0.53556000  0.29221000  0.81875000  1.0 0.117633651
H  H122  1  0.53556000  0.20779000  0.81875000  1.0 0.117633651
H  H123  1  0.28825000  0.20443000  0.61822000  1.0 0.0813634181
H  H124  1  0.28825000  0.29557000  0.61822000  1.0 0.0813634181
H  H125  1  0.76136000  0.18457000  0.47088000  1.0 0.1385304506
H  H126  1  0.65910000  0.18433000  0.47605000  1.0 0.2616766998
H  H127  1  0.99477000  0.07978000  0.74545000  1.0 0.108672868
H  H128  1  0.08396000  0.08613000  0.90957000  1.0 0.117633651
H  H129  1  0.77903000  0.08473000  0.92268000  1.0 0.117633651
H  H130  1  0.69096000  0.07915000  0.75858000  1.0 0.117633651
H  H131  1  0.16203000  0.08287000  0.05869000  1.0 0.117633651
H  H132  1  0.85364000  0.09666000  0.06506000  1.0 0.1311354875
H  H133  1  0.34294000  0.07486000  0.14332000  1.0 0.1311354875
H  H134  1  0.53212000  0.06647000  0.24003000  1.0 0.108672868
H  H135  1  0.47179000  0.07401000  0.46649000  1.0 0.0911822577
H  H136  1  0.28055000  0.08144000  0.37729000  1.0 0.1311354875
H  H137  1  0.02598000  0.03207000  0.35684000  1.0 0.1311354875
H  H138  1  0.91293000  0.02207000  0.43983000  1.0 0.0989097781
H  H139  1  0.69055000  0.13967000  0.26918000  1.0 0.117633651
H  H140  1  0.78781000  0.14493000  0.17198000  1.0 0.1482323036
H  H141  1  0.63310000  0.94558000  0.41330000  1.0 0.2459369609
H  H142  1  0.74762000  0.94269000  0.45646000  1.0 0.2426287243
H  H143  1  0.23864000  0.68457000  0.52912000  1.0 0.1311354875
H  H144  1  0.34090000  0.68433000  0.52395000  1.0 0.2616766998
H  H145  1  0.00523000  0.57978000  0.25455000  1.0 0.108672868
H  H146  1  0.91604000  0.58613000  0.09043000  1.0 0.117633651
H  H147  1  0.22097000  0.58473000  0.07732000  1.0 0.117633651
H  H148  1  0.30904000  0.57915000  0.24142000  1.0 0.117633651
H  H149  1  0.83797000  0.58287000  0.94131000  1.0 0.117633651
H  H150  1  0.14636000  0.59666000  0.93494000  1.0 0.1385304506
H  H151  1  0.65706000  0.57486000  0.85668000  1.0 0.1311354875
H  H152  1  0.46788000  0.56647000  0.75997000  1.0 0.108672868
H  H153  1  0.52821000  0.57401000  0.53351000  1.0 0.0911822577
H  H154  1  0.71945000  0.58144000  0.62271000  1.0 0.1311354875
H  H155  1  0.97402000  0.53207000  0.64316000  1.0 0.1311354875
H  H156  1  0.08707000  0.52207000  0.56017000  1.0 0.0989097781
H  H157  1  0.30945000  0.63967000  0.73082000  1.0 0.117633651
H  H158  1  0.21219000  0.64493000  0.82802000  1.0 0.1482323036
H  H159  1  0.36690000  0.44558000  0.58670000  1.0 0.2459369609
H  H160  1  0.25238000  0.44269000  0.54354000  1.0 0.2426287243
H  H161  1  0.23864000  0.81543000  0.52912000  1.0 0.1311354875
H  H162  1  0.34090000  0.81567000  0.52395000  1.0 0.2616766998
H  H163  1  0.00523000  0.92022000  0.25455000  1.0 0.108672868
H  H164  1  0.91604000  0.91387000  0.09043000  1.0 0.117633651
H  H165  1  0.22097000  0.91527000  0.07732000  1.0 0.117633651
H  H166  1  0.30904000  0.92085000  0.24142000  1.0 0.117633651
H  H167  1  0.83797000  0.91713000  0.94131000  1.0 0.117633651
H  H168  1  0.14636000  0.90334000  0.93494000  1.0 0.1385304506
H  H169  1  0.65706000  0.92514000  0.85668000  1.0 0.1311354875
H  H170  1  0.46788000  0.93353000  0.75997000  1.0 0.108672868
H  H171  1  0.52821000  0.92599000  0.53351000  1.0 0.0911822577
H  H172  1  0.71945000  0.91856000  0.62271000  1.0 0.1311354875
H  H173  1  0.97402000  0.96793000  0.64316000  1.0 0.1311354875
H  H174  1  0.08707000  0.97793000  0.56017000  1.0 0.0989097781
H  H175  1  0.30945000  0.86033000  0.73082000  1.0 0.117633651
H  H176  1  0.21219000  0.85507000  0.82802000  1.0 0.1482323036
H  H177  1  0.36690000  0.05442000  0.58670000  1.0 0.2459369609
H  H178  1  0.25238000  0.05731000  0.54354000  1.0 0.2426287243
H  H179  1  0.76136000  0.31543000  0.47088000  1.0 0.1385304506
H  H180  1  0.65910000  0.31567000  0.47605000  1.0 0.2616766998
H  H181  1  0.99477000  0.42022000  0.74545000  1.0 0.108672868
H  H182  1  0.08396000  0.41387000  0.90957000  1.0 0.117633651
H  H183  1  0.77903000  0.41527000  0.92268000  1.0 0.117633651
H  H184  1  0.69096000  0.42085000  0.75858000  1.0 0.117633651
H  H185  1  0.16203000  0.41713000  0.05869000  1.0 0.117633651
H  H186  1  0.85364000  0.40334000  0.06506000  1.0 0.1311354875
H  H187  1  0.34294000  0.42514000  0.14332000  1.0 0.1311354875
H  H188  1  0.53212000  0.43353000  0.24003000  1.0 0.108672868
H  H189  1  0.47179000  0.42599000  0.46649000  1.0 0.0911822577
H  H190  1  0.28055000  0.41856000  0.37729000  1.0 0.1311354875
H  H191  1  0.02598000  0.46793000  0.35684000  1.0 0.1311354875
H  H192  1  0.91293000  0.47793000  0.43983000  1.0 0.0989097781
H  H193  1  0.69055000  0.36033000  0.26918000  1.0 0.117633651
H  H194  1  0.78781000  0.35507000  0.17198000  1.0 0.1482323036
H  H195  1  0.63310000  0.55442000  0.41330000  1.0 0.2459369609
H  H196  1  0.74762000  0.55731000  0.45646000  1.0 0.2426287243
C  C1  1  0.11810000  0.76140000  0.49570000  1.0 -0.1379106557
C  C2  1  0.11810000  0.73860000  0.49570000  1.0 -0.1379106557
C  C3  1  0.04150000  0.76880000  0.53490000  1.0 0.0989097781
C  C4  1  0.04150000  0.73120000  0.53490000  1.0 0.0989097781
C  C5  1  0.85980000  0.81040000  0.52400000  1.0 -0.3983538142
C  C6  1  0.85980000  0.68960000  0.52400000  1.0 -0.3983538142
C  C7  1  0.87530000  0.81810000  0.54250000  1.0 -0.3435363238
C  C8  1  0.87530000  0.68190000  0.54250000  1.0 -0.3435363238
C  C9  1  0.02290000  0.79320000  0.49330000  1.0 0.0989097781
C  C10  1  0.02290000  0.70680000  0.49330000  1.0 0.0989097781
C  C11  1  0.94900000  0.84710000  0.40760000  1.0 -0.2770611336
C  C12  1  0.94900000  0.65290000  0.40760000  1.0 -0.2770611336
C  C13  1  0.02060000  0.73230000  0.62600000  1.0 -0.1098169042
C  C14  1  0.02060000  0.76770000  0.62600000  1.0 -0.1098169042
C  C15  1  0.04200000  0.73230000  0.61330000  1.0 -0.1008011652
C  C16  1  0.04200000  0.76770000  0.61330000  1.0 -0.1008011652
C  C17  1  0.88190000  0.26140000  0.50430000  1.0 -0.1379106557
C  C18  1  0.88190000  0.23860000  0.50430000  1.0 -0.1379106557
C  C19  1  0.95850000  0.26880000  0.46510000  1.0 0.0989097781
C  C20  1  0.95850000  0.23120000  0.46510000  1.0 0.0989097781
C  C21  1  0.14020000  0.31040000  0.47600000  1.0 -0.3983538142
C  C22  1  0.14020000  0.18960000  0.47600000  1.0 -0.3983538142
C  C23  1  0.12470000  0.31810000  0.45750000  1.0 -0.3435363238
C  C24  1  0.12470000  0.18190000  0.45750000  1.0 -0.3435363238
C  C25  1  0.97710000  0.29320000  0.50670000  1.0 0.0989097781
C  C26  1  0.97710000  0.20680000  0.50670000  1.0 0.0989097781
C  C27  1  0.05100000  0.34710000  0.59240000  1.0 -0.2770611336
C  C28  1  0.05100000  0.15290000  0.59240000  1.0 -0.2770611336
C  C29  1  0.97940000  0.23230000  0.37400000  1.0 -0.1098169042
C  C30  1  0.97940000  0.26770000  0.37400000  1.0 -0.1098169042
C  C31  1  0.95800000  0.23230000  0.38670000  1.0 -0.1008011652
C  C32  1  0.95800000  0.26770000  0.38670000  1.0 -0.1008011652
C  C33  1  0.56470000  0.75000000  0.55510000  1.0 0.4790583858
C  C34  1  0.62130000  0.75000000  0.66150000  1.0 -0.0368481498
C  C35  1  0.73850000  0.75000000  0.70860000  1.0 -0.2383476896
C  C36  1  0.55770000  0.75000000  0.71560000  1.0 -0.0713130673
C  C37  1  0.79180000  0.75000000  0.80670000  1.0 -0.2091671636
C  C38  1  0.61090000  0.75000000  0.81430000  1.0 -0.1295990488
C  C39  1  0.72880000  0.75000000  0.86200000  1.0 0.0627964099
C  C40  1  0.78420000  0.75000000  0.96770000  1.0 0.108672868
C  C41  1  0.90240000  0.75000000  0.01830000  1.0 -0.2383476896
C  C42  1  0.71930000  0.75000000  0.02170000  1.0 -0.2481883606
C  C43  1  0.95020000  0.75000000  0.11800000  1.0 0.2147874841
C  C44  1  0.77220000  0.75000000  0.12050000  1.0 0.1597295003
C  C45  1  0.07470000  0.75000000  0.17460000  1.0 0.0989097781
C  C46  1  0.70480000  0.75000000  0.17990000  1.0 0.0721176452
C  C47  1  0.15300000  0.75000000  0.13530000  1.0 -0.1379106557
C  C48  1  0.11920000  0.75000000  0.27320000  1.0 -0.3479069015
C  C49  1  0.59610000  0.77410000  0.14530000  1.0 -0.0481333999
C  C50  1  0.59610000  0.72590000  0.14530000  1.0 -0.0481333999
C  C51  1  0.74890000  0.72380000  0.27000000  1.0 -0.1008011652
C  C52  1  0.74890000  0.77620000  0.27000000  1.0 -0.1008011652
C  C53  1  0.26840000  0.75000000  0.19380000  1.0 0.0989097781
C  C54  1  0.23430000  0.75000000  0.32570000  1.0 -0.0481333999
C  C55  1  0.53690000  0.77420000  0.20420000  1.0 0.0504147364
C  C56  1  0.53690000  0.72580000  0.20420000  1.0 0.0504147364
C  C57  1  0.68270000  0.72370000  0.32210000  1.0 -0.007165874
C  C58  1  0.68270000  0.77630000  0.32210000  1.0 -0.007165874
C  C59  1  0.43530000  0.25000000  0.44490000  1.0 0.4790583858
C  C60  1  0.37870000  0.25000000  0.33850000  1.0 -0.0368481498
C  C61  1  0.26150000  0.25000000  0.29140000  1.0 -0.2383476896
C  C62  1  0.44230000  0.25000000  0.28440000  1.0 -0.0713130673
C  C63  1  0.20820000  0.25000000  0.19330000  1.0 -0.2091671636
C  C64  1  0.38910000  0.25000000  0.18570000  1.0 -0.1295990488
C  C65  1  0.27120000  0.25000000  0.13800000  1.0 0.0627964099
C  C66  1  0.21580000  0.25000000  0.03230000  1.0 0.108672868
C  C67  1  0.09760000  0.25000000  0.98170000  1.0 -0.2383476896
C  C68  1  0.28070000  0.25000000  0.97830000  1.0 -0.2481883606
C  C69  1  0.04980000  0.25000000  0.88200000  1.0 0.215069876
C  C70  1  0.22780000  0.25000000  0.87950000  1.0 0.1597295003
C  C71  1  0.92530000  0.25000000  0.82540000  1.0 0.0989097781
C  C72  1  0.29520000  0.25000000  0.82010000  1.0 0.0721176452
C  C73  1  0.84700000  0.25000000  0.86470000  1.0 -0.1379106557
C  C74  1  0.88080000  0.25000000  0.72680000  1.0 -0.3479069015
C  C75  1  0.40390000  0.27410000  0.85470000  1.0 -0.0481333999
C  C76  1  0.40390000  0.22590000  0.85470000  1.0 -0.0481333999
C  C77  1  0.25110000  0.22380000  0.73000000  1.0 -0.1008011652
C  C78  1  0.25110000  0.27620000  0.73000000  1.0 -0.1008011652
C  C79  1  0.73160000  0.25000000  0.80620000  1.0 0.0989097781
C  C80  1  0.76570000  0.25000000  0.67430000  1.0 -0.0368481498
C  C81  1  0.46310000  0.27420000  0.79580000  1.0 0.0504147364
C  C82  1  0.46310000  0.22580000  0.79580000  1.0 0.0504147364
C  C83  1  0.31730000  0.22370000  0.67790000  1.0 -0.007165874
C  C84  1  0.31730000  0.27630000  0.67790000  1.0 -0.007165874
C  C85  1  0.83340000  0.07962000  0.73510000  1.0 0.0038423839
C  C86  1  0.95090000  0.08120000  0.78110000  1.0 -0.1196409187
C  C87  1  0.00470000  0.08477000  0.88000000  1.0 -0.1379106557
C  C88  1  0.94180000  0.08636000  0.93510000  1.0 0.0627964099
C  C89  1  0.82350000  0.08400000  0.88750000  1.0 -0.1379106557
C  C90  1  0.77020000  0.08070000  0.78860000  1.0 -0.0915630674
C  C91  1  0.99720000  0.08847000  0.04140000  1.0 0.0989097781
C  C92  1  0.11500000  0.08483000  0.09160000  1.0 -0.2383476896
C  C93  1  0.16280000  0.08411000  0.19090000  1.0 0.1940629753
C  C94  1  0.98580000  0.09045000  0.19390000  1.0 0.1961108307
C  C95  1  0.93260000  0.09254000  0.09520000  1.0 -0.2169155172
C  C96  1  0.28760000  0.07961000  0.24880000  1.0 0.108672868
C  C97  1  0.36650000  0.07490000  0.20920000  1.0 -0.1758395089
C  C98  1  0.48060000  0.07040000  0.26840000  1.0 0.0813634181
C  C99  1  0.44580000  0.07460000  0.40040000  1.0 0.0504147364
C  C100  1  0.33030000  0.07890000  0.34700000  1.0 -0.2169155172
C  C101  1  0.91880000  0.08842000  0.25350000  1.0 -0.007165874
C  C102  1  0.95600000  0.05280000  0.33570000  1.0 -0.3117510034
C  C103  1  0.88850000  0.04812000  0.38640000  1.0 -0.1714854231
C  C104  1  0.75690000  0.11597000  0.28510000  1.0 -0.0631763758
C  C105  1  0.81620000  0.12065000  0.22730000  1.0 -0.2091671636
C  C106  1  0.77530000  0.07490000  0.62830000  1.0 0.4640246043
C  C107  1  0.16660000  0.57962000  0.26490000  1.0 0.0038423839
C  C108  1  0.04910000  0.58120000  0.21890000  1.0 -0.1196409187
C  C109  1  0.99530000  0.58477000  0.12000000  1.0 -0.1379106557
C  C110  1  0.05820000  0.58636000  0.06490000  1.0 0.0627964099
C  C111  1  0.17650000  0.58400000  0.11250000  1.0 -0.1379106557
C  C112  1  0.22980000  0.58070000  0.21140000  1.0 -0.0915630674
C  C113  1  0.00280000  0.58847000  0.95860000  1.0 0.0989097781
C  C114  1  0.88500000  0.58483000  0.90840000  1.0 -0.2383476896
C  C115  1  0.83720000  0.58411000  0.80910000  1.0 0.1940629753
C  C116  1  0.01420000  0.59045000  0.80610000  1.0 0.1961108307
C  C117  1  0.06740000  0.59254000  0.90480000  1.0 -0.2091671636
C  C118  1  0.71240000  0.57961000  0.75120000  1.0 0.108672868
C  C119  1  0.63350000  0.57490000  0.79080000  1.0 -0.1758395089
C  C120  1  0.51940000  0.57040000  0.73160000  1.0 0.0813634181
C  C121  1  0.55420000  0.57460000  0.59960000  1.0 0.0504147364
C  C122  1  0.66970000  0.57890000  0.65300000  1.0 -0.2169155172
C  C123  1  0.08120000  0.58842000  0.74650000  1.0 -0.007165874
C  C124  1  0.04400000  0.55280000  0.66430000  1.0 -0.3117510034
C  C125  1  0.11150000  0.54812000  0.61360000  1.0 -0.1714854231
C  C126  1  0.24310000  0.61597000  0.71490000  1.0 -0.0631763758
C  C127  1  0.18380000  0.62065000  0.77270000  1.0 -0.2091671636
C  C128  1  0.22470000  0.57490000  0.37170000  1.0 0.4640246043
C  C129  1  0.16660000  0.92038000  0.26490000  1.0 0.0038423839
C  C130  1  0.04910000  0.91880000  0.21890000  1.0 -0.1196409187
C  C131  1  0.99530000  0.91523000  0.12000000  1.0 -0.1379106557
C  C132  1  0.05820000  0.91364000  0.06490000  1.0 0.0627964099
C  C133  1  0.17650000  0.91600000  0.11250000  1.0 -0.1379106557
C  C134  1  0.22980000  0.91930000  0.21140000  1.0 -0.0915630674
C  C135  1  0.00280000  0.91153000  0.95860000  1.0 0.0989097781
C  C136  1  0.88500000  0.91517000  0.90840000  1.0 -0.2383476896
C  C137  1  0.83720000  0.91589000  0.80910000  1.0 0.1940629753
C  C138  1  0.01420000  0.90955000  0.80610000  1.0 0.1961108307
C  C139  1  0.06740000  0.90746000  0.90480000  1.0 -0.2091671636
C  C140  1  0.71240000  0.92039000  0.75120000  1.0 0.108672868
C  C141  1  0.63350000  0.92510000  0.79080000  1.0 -0.1758395089
C  C142  1  0.51940000  0.92960000  0.73160000  1.0 0.0813634181
C  C143  1  0.55420000  0.92540000  0.59960000  1.0 0.0504147364
C  C144  1  0.66970000  0.92110000  0.65300000  1.0 -0.2169155172
C  C145  1  0.08120000  0.91158000  0.74650000  1.0 -0.007165874
C  C146  1  0.04400000  0.94720000  0.66430000  1.0 -0.3117510034
C  C147  1  0.11150000  0.95188000  0.61360000  1.0 -0.1714854231
C  C148  1  0.24310000  0.88403000  0.71490000  1.0 -0.0631763758
C  C149  1  0.18380000  0.87935000  0.77270000  1.0 -0.2091671636
C  C150  1  0.22470000  0.92510000  0.37170000  1.0 0.4640246043
C  C151  1  0.83340000  0.42038000  0.73510000  1.0 0.0038423839
C  C152  1  0.95090000  0.41880000  0.78110000  1.0 -0.1196409187
C  C153  1  0.00470000  0.41523000  0.88000000  1.0 -0.1379106557
C  C154  1  0.94180000  0.41364000  0.93510000  1.0 0.0627964099
C  C155  1  0.82350000  0.41600000  0.88750000  1.0 -0.1379106557
C  C156  1  0.77020000  0.41930000  0.78860000  1.0 -0.0915630674
C  C157  1  0.99720000  0.41153000  0.04140000  1.0 0.0989097781
C  C158  1  0.11500000  0.41517000  0.09160000  1.0 -0.2383476896
C  C159  1  0.16280000  0.41589000  0.19090000  1.0 0.1940629753
C  C160  1  0.98580000  0.40955000  0.19390000  1.0 0.1961108307
C  C161  1  0.93260000  0.40746000  0.09520000  1.0 -0.2169155172
C  C162  1  0.28760000  0.42039000  0.24880000  1.0 0.108672868
C  C163  1  0.36650000  0.42510000  0.20920000  1.0 -0.1758395089
C  C164  1  0.48060000  0.42960000  0.26840000  1.0 0.0813634181
C  C165  1  0.44580000  0.42540000  0.40040000  1.0 0.0504147364
C  C166  1  0.33030000  0.42110000  0.34700000  1.0 -0.2169155172
C  C167  1  0.91880000  0.41158000  0.25350000  1.0 -0.007165874
C  C168  1  0.95600000  0.44720000  0.33570000  1.0 -0.3117510034
C  C169  1  0.88850000  0.45188000  0.38640000  1.0 -0.1714854231
C  C170  1  0.75690000  0.38403000  0.28510000  1.0 -0.0631763758
C  C171  1  0.81620000  0.37935000  0.22730000  1.0 -0.2091671636
C  C172  1  0.77530000  0.42510000  0.62830000  1.0 0.4640246043
N  N1  1  0.95650000  0.80960000  0.49330000  1.0 -0.0368481498
N  N2  1  0.95650000  0.69040000  0.49330000  1.0 -0.0368481498
N  N3  1  0.97860000  0.78150000  0.54920000  1.0 0.0989097781
N  N4  1  0.97860000  0.71850000  0.54920000  1.0 0.0989097781
N  N5  1  0.04350000  0.30960000  0.50670000  1.0 -0.0368481498
N  N6  1  0.04350000  0.19040000  0.50670000  1.0 -0.0368481498
N  N7  1  0.02140000  0.28150000  0.45080000  1.0 0.0989097781
N  N8  1  0.02140000  0.21850000  0.45080000  1.0 0.0989097781
N  N9  1  0.31030000  0.75000000  0.28790000  1.0 -0.2091671636
N  N10  1  0.57870000  0.75000000  0.29090000  1.0 -0.1196409187
N  N11  1  0.88610000  0.75000000  0.16840000  1.0 -0.3479069015
N  N12  1  0.68970000  0.25000000  0.71210000  1.0 -0.2091671636
N  N13  1  0.42130000  0.25000000  0.70910000  1.0 -0.1196409187
N  N14  1  0.11390000  0.25000000  0.83160000  1.0 -0.3479069015
N  N15  1  0.09920000  0.08578000  0.24203000  1.0 -0.3004837921
N  N16  1  0.52220000  0.07111000  0.36261000  1.0 -0.2685405543
N  N17  1  0.79000000  0.07917000  0.36250000  1.0 -0.3117510034
N  N18  1  0.90080000  0.58578000  0.75797000  1.0 -0.3004837921
N  N19  1  0.47780000  0.57111000  0.63739000  1.0 -0.2685405543
N  N20  1  0.21000000  0.57917000  0.63750000  1.0 -0.3117510034
N  N21  1  0.90080000  0.91422000  0.75797000  1.0 -0.3004837921
N  N22  1  0.47780000  0.92889000  0.63739000  1.0 -0.2685405543
N  N23  1  0.21000000  0.92083000  0.63750000  1.0 -0.3117510034
N  N24  1  0.09920000  0.41422000  0.24203000  1.0 -0.3004837921
N  N25  1  0.52220000  0.42889000  0.36261000  1.0 -0.2685405543
N  N26  1  0.79000000  0.42083000  0.36250000  1.0 -0.3117510034
N  N27  1  0.30590000  0.75000000  0.96340000  1.0 0.1482323036
N  N28  1  0.69410000  0.25000000  0.03660000  1.0 0.1482323036
Cl  Cl1  1  0.69650000  0.94719000  0.42850000  1.0 -0.0285980655
Cl  Cl2  1  0.30350000  0.44719000  0.57150000  1.0 -0.0285980655
Cl  Cl3  1  0.30350000  0.05281000  0.57150000  1.0 -0.0285980655
Cl  Cl4  1  0.69650000  0.55281000  0.42850000  1.0 -0.0285980655
O  O1  1  0.98030000  0.84260000  0.41680000  1.0 -0.1455263039
O  O2  1  0.98030000  0.65740000  0.41680000  1.0 -0.1455263039
O  O3  1  0.11840000  0.73400000  0.50320000  1.0 -0.1098169042
O  O4  1  0.11840000  0.76600000  0.50320000  1.0 -0.1098169042
O  O5  1  0.93530000  0.86990000  0.41450000  1.0 -0.1196409187
O  O6  1  0.93530000  0.63010000  0.41450000  1.0 -0.1196409187
O  O7  1  0.01970000  0.34260000  0.58320000  1.0 -0.1455263039
O  O8  1  0.01970000  0.15740000  0.58320000  1.0 -0.1455263039
O  O9  1  0.88160000  0.23400000  0.49680000  1.0 -0.1098169042
O  O10  1  0.88160000  0.26600000  0.49680000  1.0 -0.1098169042
O  O11  1  0.06470000  0.36990000  0.58550000  1.0 -0.1196409187
O  O12  1  0.06470000  0.13010000  0.58550000  1.0 -0.1196409187
O  O13  1  0.48210000  0.85151000  0.36689000  1.0 -0.6940246215
O  O14  1  0.48210000  0.64849000  0.36689000  1.0 -0.6940246215
O  O15  1  0.62400000  0.75000000  0.50740000  1.0 -0.5344193569
O  O16  1  0.45670000  0.75000000  0.51330000  1.0 -0.4988567522
O  O17  1  0.51790000  0.35151000  0.63311000  1.0 -0.6940246215
O  O18  1  0.51790000  0.14849000  0.63311000  1.0 -0.6940246215
O  O19  1  0.37600000  0.25000000  0.49260000  1.0 -0.5344193569
O  O20  1  0.54330000  0.25000000  0.48670000  1.0 -0.4988567522
O  O21  1  0.69350000  0.17069000  0.44270000  1.0 -0.6089940359
O  O22  1  0.83410000  0.06595000  0.58053000  1.0 -0.5157611659
O  O23  1  0.66930000  0.07983000  0.58723000  1.0 -0.4614151111
O  O24  1  0.69200000  0.96870000  0.43680000  1.0 -0.2770611336
O  O25  1  0.30650000  0.67069000  0.55730000  1.0 -0.6089940359
O  O26  1  0.16590000  0.56595000  0.41947000  1.0 -0.5157611659
O  O27  1  0.33070000  0.57983000  0.41277000  1.0 -0.4614151111
O  O28  1  0.30800000  0.46870000  0.56320000  1.0 -0.2770611336
O  O29  1  0.30650000  0.82931000  0.55730000  1.0 -0.6089940359
O  O30  1  0.16590000  0.93405000  0.41947000  1.0 -0.5157611659
O  O31  1  0.33070000  0.92017000  0.41277000  1.0 -0.4614151111
O  O32  1  0.30800000  0.03130000  0.56320000  1.0 -0.2685405543
O  O33  1  0.69350000  0.32931000  0.44270000  1.0 -0.6089940359
O  O34  1  0.83410000  0.43405000  0.58053000  1.0 -0.5157611659
O  O35  1  0.66930000  0.42017000  0.58723000  1.0 -0.4614151111
O  O36  1  0.69200000  0.53130000  0.43680000  1.0 -0.2770611336
O  O37  1  0.29520000  0.80251000  0.99610000  1.0 -0.4075961402
O  O38  1  0.29520000  0.69749000  0.99610000  1.0 -0.4075961402
O  O39  1  0.36340000  0.75000000  0.90410000  1.0 -0.5429745009
O  O40  1  0.70480000  0.30251000  0.00390000  1.0 -0.4075961402
O  O41  1  0.70480000  0.19749000  0.00390000  1.0 -0.4075961402
O  O42  1  0.63660000  0.25000000  0.09590000  1.0 -0.5429745009
