# DDEC6 charges by PACMAN v1.1 (https://github.com/mtap-research/PACMAN-charge/)
data_WIRMOB_FSR_pacman
_symmetry_space_group_name_H-M   'P 1'
_cell_length_a   18.97800000
_cell_length_b   23.17000000
_cell_length_c   23.47700000
_cell_angle_alpha   87.73000000
_cell_angle_beta   111.62200000
_cell_angle_gamma   111.70100000
_symmetry_Int_Tables_number   1
_chemical_formula_structural   Zn2H62C81(NO6)2
_chemical_formula_sum   'Zn8 H248 C324 N8 O48'
_cell_volume   8860.75403150
_cell_formula_units_Z   4
loop_
 _symmetry_equiv_pos_site_id
 _symmetry_equiv_pos_as_xyz
  1  'x, y, z'
loop_
 _atom_site_type_symbol
 _atom_site_label
 _atom_site_symmetry_multiplicity
 _atom_site_fract_x
 _atom_site_fract_y
 _atom_site_fract_z
 _atom_site_occupancy
 _atom_site_charge
Zn  Zn1  1  0.53777000  0.71716000  0.76115000  1.0 0.8900403857
Zn  Zn2  1  0.46223000  0.28284000  0.23885000  1.0 0.8900403857
Zn  Zn3  1  0.46880000  0.77635000  0.64605000  1.0 0.8900403857
Zn  Zn4  1  0.53120000  0.22365000  0.35395000  1.0 0.8900403857
Zn  Zn5  1  0.34955000  0.67419000  0.68703000  1.0 0.914817828
Zn  Zn6  1  0.65045000  0.32581000  0.31297000  1.0 0.914817828
Zn  Zn7  1  0.45708000  0.62108000  0.64212000  1.0 0.8425153673
Zn  Zn8  1  0.54292000  0.37892000  0.35788000  1.0 0.8425153673
H  H1  1  0.59810000  0.74610000  0.24640000  1.0 0.1010498278
H  H2  1  0.40190000  0.25390000  0.75360000  1.0 0.1010498278
H  H3  1  0.48980000  0.76050000  0.03960000  1.0 0.1098426638
H  H4  1  0.51020000  0.23950000  0.96040000  1.0 0.1098426638
H  H5  1  0.63700000  0.80760000  0.03810000  1.0 0.1098426638
H  H6  1  0.36300000  0.19240000  0.96190000  1.0 0.1098426638
H  H7  1  0.77930000  0.84350000  0.09230000  1.0 0.1098426638
H  H8  1  0.22070000  0.15650000  0.90770000  1.0 0.1098426638
H  H9  1  0.83160000  0.84110000  0.19810000  1.0 0.1010498278
H  H10  1  0.16840000  0.15890000  0.80190000  1.0 0.1010498278
H  H11  1  0.74560000  0.79920000  0.25130000  1.0 0.1098426638
H  H12  1  0.25440000  0.20080000  0.74870000  1.0 0.1098426638
H  H13  1  0.41730000  0.63860000  0.01730000  1.0 0.1197217261
H  H14  1  0.58270000  0.36140000  0.98270000  1.0 0.1197217261
H  H15  1  0.38960000  0.54230000  0.05460000  1.0 0.1098426638
H  H16  1  0.61040000  0.45770000  0.94540000  1.0 0.1098426638
H  H17  1  0.44040000  0.53610000  0.16120000  1.0 0.1010498278
H  H18  1  0.55960000  0.46390000  0.83880000  1.0 0.1010498278
H  H19  1  0.52280000  0.62480000  0.22860000  1.0 0.1197217261
H  H20  1  0.47720000  0.37520000  0.77140000  1.0 0.1197217261
H  H21  1  0.44530000  0.87320000  0.28930000  1.0 0.1098426638
H  H22  1  0.55470000  0.12680000  0.71070000  1.0 0.1098426638
H  H23  1  0.33500000  0.89140000  0.08370000  1.0 0.1010498278
H  H24  1  0.66500000  0.10860000  0.91630000  1.0 0.1010498278
H  H25  1  0.40460000  0.01040000  0.10400000  1.0 0.1098426638
H  H26  1  0.59540000  0.98960000  0.89600000  1.0 0.1098426638
H  H27  1  0.48650000  0.10030000  0.17440000  1.0 0.1010498278
H  H28  1  0.51350000  0.89970000  0.82560000  1.0 0.1010498278
H  H29  1  0.54260000  0.09160000  0.28140000  1.0 0.1197217261
H  H30  1  0.45740000  0.90840000  0.71860000  1.0 0.1197217261
H  H31  1  0.51320000  0.99190000  0.31550000  1.0 0.1098426638
H  H32  1  0.48680000  0.00810000  0.68450000  1.0 0.1098426638
H  H33  1  0.18720000  0.82640000  0.07960000  1.0 0.1098426638
H  H34  1  0.81280000  0.17360000  0.92040000  1.0 0.1098426638
H  H35  1  0.10440000  0.77420000  0.13280000  1.0 0.1098426638
H  H36  1  0.89560000  0.22580000  0.86720000  1.0 0.1098426638
H  H37  1  0.15850000  0.76640000  0.23600000  1.0 0.1098426638
H  H38  1  0.84150000  0.23360000  0.76400000  1.0 0.1098426638
H  H39  1  0.30090000  0.80800000  0.29030000  1.0 0.1098426638
H  H40  1  0.69910000  0.19200000  0.70970000  1.0 0.1098426638
H  H41  1  0.48690000  0.71280000  0.29910000  1.0 0.1098426638
H  H42  1  0.51310000  0.28720000  0.70090000  1.0 0.1098426638
H  H43  1  0.41480000  0.73680000  0.26360000  1.0 0.1098426638
H  H44  1  0.58520000  0.26320000  0.73640000  1.0 0.1098426638
H  H45  1  0.35970000  0.67390000  0.33860000  1.0 0.1197217261
H  H46  1  0.64030000  0.32610000  0.66140000  1.0 0.1197217261
H  H47  1  0.34150000  0.67670000  0.42860000  1.0 0.1197217261
H  H48  1  0.65850000  0.32330000  0.57140000  1.0 0.1197217261
H  H49  1  0.53140000  0.84580000  0.48460000  1.0 0.1197217261
H  H50  1  0.46860000  0.15420000  0.51540000  1.0 0.1197217261
H  H51  1  0.54760000  0.83750000  0.39150000  1.0 0.1197217261
H  H52  1  0.45240000  0.16250000  0.60850000  1.0 0.1197217261
H  H53  1  0.47610000  0.90630000  0.03710000  1.0 0.1010498278
H  H54  1  0.52390000  0.09370000  0.96290000  1.0 0.1010498278
H  H55  1  0.38260000  0.89770000  0.99750000  1.0 0.1098426638
H  H56  1  0.61740000  0.10230000  0.00250000  1.0 0.1098426638
H  H57  1  0.31060000  0.83420000  0.89610000  1.0 0.1197217261
H  H58  1  0.68940000  0.16580000  0.10390000  1.0 0.1197217261
H  H59  1  0.31150000  0.77450000  0.81800000  1.0 0.1288865402
H  H60  1  0.68850000  0.22550000  0.18200000  1.0 0.1288865402
H  H61  1  0.55270000  0.81450000  0.91510000  1.0 0.1098426638
H  H62  1  0.44730000  0.18550000  0.08490000  1.0 0.1098426638
H  H63  1  0.54810000  0.86970000  0.99290000  1.0 0.1197217261
H  H64  1  0.45190000  0.13030000  0.00710000  1.0 0.1197217261
H  H65  1  0.05590000  0.27030000  0.70160000  1.0 0.1010498278
H  H66  1  0.94410000  0.72970000  0.29840000  1.0 0.1010498278
H  H67  1  0.91030000  0.07050000  0.72850000  1.0 0.1010498278
H  H68  1  0.08970000  0.92950000  0.27150000  1.0 0.1098426638
H  H69  1  0.77350000  0.07920000  0.65840000  1.0 0.1197217261
H  H70  1  0.22650000  0.92080000  0.34160000  1.0 0.1197217261
H  H71  1  0.70840000  0.14390000  0.60290000  1.0 0.1197217261
H  H72  1  0.29160000  0.85610000  0.39710000  1.0 0.1197217261
H  H73  1  0.77760000  0.24160000  0.59100000  1.0 0.1288865402
H  H74  1  0.22240000  0.75840000  0.40900000  1.0 0.1288865402
H  H75  1  0.91620000  0.28460000  0.63400000  1.0 0.1288865402
H  H76  1  0.08380000  0.71540000  0.36600000  1.0 0.1288865402
H  H77  1  0.98550000  0.02790000  0.67910000  1.0 0.1098426638
H  H78  1  0.01450000  0.97210000  0.32090000  1.0 0.1098426638
H  H79  1  0.08280000  0.04420000  0.63500000  1.0 0.1098426638
H  H80  1  0.91720000  0.95580000  0.36500000  1.0 0.1098426638
H  H81  1  0.15660000  0.14650000  0.62210000  1.0 0.1010498278
H  H82  1  0.84340000  0.85350000  0.37790000  1.0 0.1010498278
H  H83  1  0.13280000  0.23080000  0.65180000  1.0 0.1197217261
H  H84  1  0.86720000  0.76920000  0.34820000  1.0 0.1197217261
H  H85  1  0.17330000  0.33380000  0.93800000  1.0 0.1010498278
H  H86  1  0.82670000  0.66620000  0.06200000  1.0 0.1010498278
H  H87  1  0.04540000  0.12970000  0.96670000  1.0 0.1010498278
H  H88  1  0.95460000  0.87030000  0.03330000  1.0 0.1010498278
H  H89  1  0.95900000  0.16000000  0.01390000  1.0 0.1197217261
H  H90  1  0.04100000  0.84000000  0.98610000  1.0 0.1197217261
H  H91  1  0.92390000  0.24070000  0.04250000  1.0 0.1098426638
H  H92  1  0.07610000  0.75930000  0.95750000  1.0 0.1098426638
H  H93  1  0.98800000  0.34300000  0.02660000  1.0 0.1098426638
H  H94  1  0.01200000  0.65700000  0.97340000  1.0 0.1098426638
H  H95  1  0.08560000  0.36980000  0.98280000  1.0 0.1098426638
H  H96  1  0.91440000  0.63020000  0.01720000  1.0 0.1098426638
H  H97  1  0.18430000  0.12750000  0.04300000  1.0 0.1197217261
H  H98  1  0.81570000  0.87250000  0.95700000  1.0 0.1197217261
H  H99  1  0.32310000  0.17910000  0.09650000  1.0 0.1197217261
H  H100  1  0.67690000  0.82090000  0.90350000  1.0 0.1197217261
H  H101  1  0.38860000  0.27880000  0.07890000  1.0 0.1197217261
H  H102  1  0.61140000  0.72120000  0.92110000  1.0 0.1197217261
H  H103  1  0.31430000  0.33333333  0.00970000  1.0 0.1197217261
H  H104  1  0.68570000  0.66666667  0.99030000  1.0 0.1197217261
H  H105  1  0.21140000  0.29500000  0.80020000  1.0 0.1098426638
H  H106  1  0.78860000  0.70500000  0.19980000  1.0 0.1098426638
H  H107  1  0.24910000  0.33740000  0.86480000  1.0 0.1098426638
H  H108  1  0.75090000  0.66260000  0.13520000  1.0 0.1098426638
H  H109  1  0.14060000  0.40830000  0.76020000  1.0 0.1197217261
H  H110  1  0.85940000  0.59170000  0.23980000  1.0 0.1197217261
H  H111  1  0.19170000  0.49640000  0.71170000  1.0 0.1197217261
H  H112  1  0.80830000  0.50360000  0.28830000  1.0 0.1197217261
H  H113  1  0.40370000  0.47080000  0.76120000  1.0 0.1098426638
H  H114  1  0.59630000  0.52920000  0.23880000  1.0 0.1098426638
H  H115  1  0.35490000  0.38710000  0.81130000  1.0 0.1197217261
H  H116  1  0.64510000  0.61290000  0.18870000  1.0 0.1197217261
H  H117  1  0.88180000  0.10680000  0.85950000  1.0 0.1010498278
H  H118  1  0.11820000  0.89320000  0.14050000  1.0 0.1010498278
H  H119  1  0.91520000  0.06750000  0.91360000  1.0 0.1098426638
H  H120  1  0.08480000  0.93250000  0.08640000  1.0 0.1098426638
H  H121  1  0.74930000  0.05140000  0.78220000  1.0 0.1197217261
H  H122  1  0.25070000  0.94860000  0.21780000  1.0 0.1197217261
H  H123  1  0.64290000  0.96000000  0.73210000  1.0 0.1197217261
H  H124  1  0.35710000  0.04000000  0.26790000  1.0 0.1197217261
H  H125  1  0.77530000  0.86070000  0.82410000  1.0 0.1197217261
H  H126  1  0.22470000  0.13930000  0.17590000  1.0 0.1197217261
H  H127  1  0.88300000  0.95120000  0.87570000  1.0 0.1197217261
H  H128  1  0.11700000  0.04880000  0.12430000  1.0 0.1197217261
H  H129  1  0.19820000  0.02620000  0.51600000  1.0 0.1098426638
H  H130  1  0.80180000  0.97380000  0.48400000  1.0 0.1098426638
H  H131  1  0.96250000  0.86340000  0.57060000  1.0 0.1098426638
H  H132  1  0.03750000  0.13660000  0.42940000  1.0 0.1098426638
H  H133  1  0.94660000  0.87000000  0.67370000  1.0 0.1288865402
H  H134  1  0.05340000  0.13000000  0.32630000  1.0 0.1288865402
H  H135  1  0.88070000  0.89950000  0.72940000  1.0 0.1197217261
H  H136  1  0.11930000  0.10050000  0.27060000  1.0 0.1197217261
H  H137  1  0.79840000  0.95680000  0.68500000  1.0 0.1098426638
H  H138  1  0.20160000  0.04320000  0.31500000  1.0 0.1098426638
H  H139  1  0.22080000  0.01860000  0.41370000  1.0 0.1197217261
H  H140  1  0.77920000  0.98140000  0.58630000  1.0 0.1197217261
H  H141  1  0.85280000  0.76350000  0.49420000  1.0 0.1288865402
H  H142  1  0.14720000  0.23650000  0.50580000  1.0 0.1288865402
H  H143  1  0.72750000  0.71820000  0.41230000  1.0 0.1197217261
H  H144  1  0.27250000  0.28180000  0.58770000  1.0 0.1197217261
H  H145  1  0.64800000  0.77590000  0.36670000  1.0 0.1098426638
H  H146  1  0.35200000  0.22410000  0.63330000  1.0 0.1098426638
H  H147  1  0.30860000  0.12190000  0.59340000  1.0 0.1288865402
H  H148  1  0.69140000  0.87810000  0.40660000  1.0 0.1288865402
H  H149  1  0.02330000  0.85630000  0.47640000  1.0 0.1010498278
H  H150  1  0.97670000  0.14370000  0.52360000  1.0 0.1010498278
H  H151  1  0.09650000  0.90890000  0.46200000  1.0 0.1098426638
H  H152  1  0.90350000  0.09110000  0.53800000  1.0 0.1098426638
H  H153  1  0.24070000  0.92550000  0.53390000  1.0 0.1197217261
H  H154  1  0.75930000  0.07450000  0.46610000  1.0 0.1197217261
H  H155  1  0.33200000  0.87810000  0.59050000  1.0 0.1197217261
H  H156  1  0.66800000  0.12190000  0.40950000  1.0 0.1197217261
H  H157  1  0.13840000  0.71940000  0.56870000  1.0 0.1197217261
H  H158  1  0.86160000  0.28060000  0.43130000  1.0 0.1197217261
H  H159  1  0.05270000  0.76770000  0.51400000  1.0 0.1288865402
H  H160  1  0.94730000  0.23230000  0.48600000  1.0 0.1197217261
H  H161  1  0.95310000  0.56320000  0.86150000  1.0 0.1098426638
H  H162  1  0.04690000  0.43680000  0.13850000  1.0 0.1010498278
H  H163  1  0.84560000  0.51040000  0.03780000  1.0 0.1010498278
H  H164  1  0.15440000  0.48960000  0.96220000  1.0 0.1010498278
H  H165  1  0.89700000  0.48350000  0.76620000  1.0 0.1098426638
H  H166  1  0.10300000  0.51650000  0.23380000  1.0 0.1098426638
H  H167  1  0.90110000  0.39480000  0.71870000  1.0 0.1010498278
H  H168  1  0.09890000  0.60520000  0.28130000  1.0 0.1010498278
H  H169  1  0.00620000  0.35890000  0.77260000  1.0 0.1098426638
H  H170  1  0.99380000  0.64110000  0.22740000  1.0 0.1098426638
H  H171  1  0.90080000  0.59580000  0.13060000  1.0 0.1197217261
H  H172  1  0.09920000  0.40420000  0.86940000  1.0 0.1197217261
H  H173  1  0.05980000  0.67400000  0.86920000  1.0 0.1197217261
H  H174  1  0.94020000  0.32600000  0.13080000  1.0 0.1197217261
H  H175  1  0.19630000  0.74210000  0.90860000  1.0 0.1098426638
H  H176  1  0.80370000  0.25790000  0.09140000  1.0 0.1098426638
H  H177  1  0.30030000  0.70640000  0.95590000  1.0 0.1098426638
H  H178  1  0.69970000  0.29360000  0.04410000  1.0 0.1098426638
H  H179  1  0.73260000  0.39980000  0.02800000  1.0 0.1098426638
H  H180  1  0.26740000  0.60020000  0.97200000  1.0 0.1098426638
H  H181  1  0.77840000  0.46170000  0.91880000  1.0 0.1098426638
H  H182  1  0.22160000  0.53830000  0.08120000  1.0 0.1098426638
H  H183  1  0.81580000  0.47490000  0.86610000  1.0 0.1010498278
H  H184  1  0.18420000  0.52510000  0.13390000  1.0 0.1010498278
H  H185  1  0.74690000  0.56660000  0.93850000  1.0 0.1197217261
H  H186  1  0.25310000  0.43340000  0.06150000  1.0 0.1197217261
H  H187  1  0.66090000  0.61630000  0.88690000  1.0 0.1098426638
H  H188  1  0.33910000  0.38370000  0.11310000  1.0 0.1098426638
H  H189  1  0.64050000  0.54520000  0.72340000  1.0 0.1098426638
H  H190  1  0.35950000  0.45480000  0.27660000  1.0 0.1098426638
H  H191  1  0.72380000  0.49140000  0.77850000  1.0 0.1197217261
H  H192  1  0.27620000  0.50860000  0.22150000  1.0 0.1197217261
H  H193  1  0.61400000  0.64600000  0.61870000  1.0 0.1010498278
H  H194  1  0.38600000  0.35400000  0.38130000  1.0 0.1010498278
H  H195  1  0.77450000  0.74810000  0.58180000  1.0 0.1098426638
H  H196  1  0.22550000  0.25190000  0.41820000  1.0 0.1098426638
H  H197  1  0.72080000  0.67470000  0.56630000  1.0 0.1288865402
H  H198  1  0.27920000  0.32530000  0.43370000  1.0 0.1288865402
H  H199  1  0.76820000  0.70560000  0.63650000  1.0 0.1288865402
H  H200  1  0.23180000  0.29440000  0.36350000  1.0 0.1288865402
H  H201  1  0.71870000  0.80480000  0.56420000  1.0 0.0893722668
H  H202  1  0.28130000  0.19520000  0.43580000  1.0 0.0893722668
H  H203  1  0.66900000  0.80800000  0.60540000  1.0 0.0812933261
H  H204  1  0.33100000  0.19200000  0.39460000  1.0 0.0812933261
H  H205  1  0.62060000  0.77750000  0.53520000  1.0 0.1010498278
H  H206  1  0.37940000  0.22250000  0.46480000  1.0 0.1010498278
H  H207  1  0.59330000  0.73460000  0.63880000  1.0 0.1680330292
H  H208  1  0.40670000  0.26540000  0.36120000  1.0 0.1680330292
H  H209  1  0.63970000  0.71710000  0.48840000  1.0 0.1098426638
H  H210  1  0.36030000  0.28290000  0.51160000  1.0 0.1010498278
H  H211  1  0.54550000  0.69750000  0.47860000  1.0 0.1010498278
H  H212  1  0.45450000  0.30250000  0.52140000  1.0 0.1010498278
H  H213  1  0.59360000  0.65380000  0.51180000  1.0 0.0603179775
H  H214  1  0.40640000  0.34620000  0.48820000  1.0 0.0603179775
H  H215  1  0.72150000  0.78860000  0.55270000  1.0 0.0893722668
H  H216  1  0.27850000  0.21140000  0.44730000  1.0 0.0893722668
H  H217  1  0.73640000  0.78130000  0.62380000  1.0 0.1010498278
H  H218  1  0.26360000  0.21870000  0.37620000  1.0 0.1010498278
H  H219  1  0.68600000  0.82240000  0.58710000  1.0 0.0812933261
H  H220  1  0.31400000  0.17760000  0.41290000  1.0 0.0812933261
H  H221  1  0.50510000  0.50370000  0.54720000  1.0 0.0893722668
H  H222  1  0.49490000  0.49630000  0.45280000  1.0 0.0893722668
H  H223  1  0.40600000  0.34740000  0.54560000  1.0 0.0726710532
H  H224  1  0.59400000  0.65260000  0.45440000  1.0 0.0726710532
H  H225  1  0.49780000  0.38910000  0.55200000  1.0 0.0726710532
H  H226  1  0.50220000  0.61090000  0.44800000  1.0 0.0726710532
H  H227  1  0.42180000  0.39770000  0.49840000  1.0 0.0726710532
H  H228  1  0.57820000  0.60230000  0.50160000  1.0 0.0726710532
H  H229  1  0.38810000  0.36800000  0.62200000  1.0 0.0893722668
H  H230  1  0.61190000  0.63200000  0.37800000  1.0 0.0893722668
H  H231  1  0.34700000  0.41850000  0.60180000  1.0 0.1197217261
H  H232  1  0.65300000  0.58150000  0.39820000  1.0 0.1197217261
H  H233  1  0.43000000  0.43500000  0.66140000  1.0 0.0726710532
H  H234  1  0.57000000  0.56500000  0.33860000  1.0 0.0726710532
H  H235  1  0.46290000  0.48790000  0.65730000  1.0 0.1010498278
H  H236  1  0.53710000  0.51210000  0.34270000  1.0 0.1010498278
H  H237  1  0.58320000  0.44110000  0.57860000  1.0 0.1197217261
H  H238  1  0.41680000  0.55890000  0.42140000  1.0 0.1197217261
H  H239  1  0.60770000  0.51480000  0.59060000  1.0 0.1098426638
H  H240  1  0.39230000  0.48520000  0.40940000  1.0 0.1098426638
H  H241  1  0.52970000  0.47480000  0.53120000  1.0 0.0603179775
H  H242  1  0.47030000  0.52520000  0.46880000  1.0 0.0603179775
H  H243  1  0.54090000  0.38920000  0.63010000  1.0 0.1010498278
H  H244  1  0.45910000  0.61080000  0.36990000  1.0 0.1010498278
H  H245  1  0.45140000  0.37720000  0.62850000  1.0 0.1010498278
H  H246  1  0.54860000  0.62280000  0.37150000  1.0 0.1010498278
H  H247  1  0.53120000  0.41880000  0.68590000  1.0 0.1010498278
H  H248  1  0.46880000  0.58120000  0.31410000  1.0 0.1010498278
C  C1  1  0.50130000  0.81320000  0.22740000  1.0 0.1197217261
C  C2  1  0.49870000  0.18680000  0.77260000  1.0 0.1197217261
C  C3  1  0.52150000  0.78820000  0.18600000  1.0 -0.0496711073
C  C4  1  0.47850000  0.21180000  0.81400000  1.0 -0.0496711073
C  C5  1  0.48990000  0.79270000  0.12330000  1.0 -0.0398300848
C  C6  1  0.51010000  0.20730000  0.87670000  1.0 -0.0398300848
C  C7  1  0.43460000  0.82510000  0.10190000  1.0 0.1401118368
C  C8  1  0.56540000  0.17490000  0.89810000  1.0 0.1401118368
C  C9  1  0.57440000  0.74890000  0.20120000  1.0 -0.0914689798
C  C10  1  0.42560000  0.25110000  0.79880000  1.0 -0.0914689798
C  C11  1  0.51350000  0.75710000  0.08470000  1.0 -0.0816849225
C  C12  1  0.48650000  0.24290000  0.91530000  1.0 -0.0816849225
C  C13  1  0.63900000  0.77910000  0.17620000  1.0 0.0328470561
C  C14  1  0.36100000  0.22090000  0.82380000  1.0 0.0328470561
C  C15  1  0.60780000  0.78390000  0.11210000  1.0 0.0392167654
C  C16  1  0.39220000  0.21610000  0.88790000  1.0 0.0392167654
C  C17  1  0.65890000  0.80640000  0.08140000  1.0 -0.1494041708
C  C18  1  0.34110000  0.19360000  0.91860000  1.0 -0.1494041708
C  C19  1  0.74310000  0.82760000  0.11340000  1.0 -0.1104949859
C  C20  1  0.25690000  0.17240000  0.88660000  1.0 -0.1104949859
C  C21  1  0.77380000  0.82540000  0.17620000  1.0 -0.1104949859
C  C22  1  0.22620000  0.17460000  0.82380000  1.0 -0.1104949859
C  C23  1  0.72310000  0.80100000  0.20810000  1.0 -0.1494041708
C  C24  1  0.27690000  0.19900000  0.79190000  1.0 -0.1494041708
C  C25  1  0.52010000  0.68570000  0.16500000  1.0 0.0328470561
C  C26  1  0.47990000  0.31430000  0.83500000  1.0 0.0328470561
C  C27  1  0.48720000  0.69080000  0.10020000  1.0 0.0328470561
C  C28  1  0.51280000  0.30920000  0.89980000  1.0 0.0328470561
C  C29  1  0.43900000  0.63640000  0.06040000  1.0 -0.1591065289
C  C30  1  0.56100000  0.36360000  0.93960000  1.0 -0.1591065289
C  C31  1  0.42230000  0.57940000  0.08240000  1.0 -0.1104949859
C  C32  1  0.57770000  0.42060000  0.91760000  1.0 -0.1104949859
C  C33  1  0.45340000  0.57570000  0.14600000  1.0 -0.1104949859
C  C34  1  0.54660000  0.42430000  0.85400000  1.0 -0.1104949859
C  C35  1  0.50150000  0.62800000  0.18560000  1.0 -0.1591065289
C  C36  1  0.49850000  0.37200000  0.81440000  1.0 -0.1591065289
C  C37  1  0.44940000  0.84680000  0.20550000  1.0 -0.0398300848
C  C38  1  0.55060000  0.15320000  0.79450000  1.0 -0.0311405752
C  C39  1  0.41700000  0.85150000  0.14330000  1.0 -0.0496711073
C  C40  1  0.58300000  0.14850000  0.85670000  1.0 -0.0496711073
C  C41  1  0.42060000  0.87710000  0.24440000  1.0 -0.0816849225
C  C42  1  0.57940000  0.12290000  0.75560000  1.0 -0.0816849225
C  C43  1  0.35930000  0.88700000  0.12860000  1.0 -0.0816849225
C  C44  1  0.64070000  0.11300000  0.87140000  1.0 -0.0816849225
C  C45  1  0.44230000  0.94380000  0.23090000  1.0 0.0328470561
C  C46  1  0.55770000  0.05620000  0.76910000  1.0 0.0328470561
C  C47  1  0.41080000  0.94920000  0.16910000  1.0 0.0392167654
C  C48  1  0.58920000  0.05080000  0.83090000  1.0 0.0392167654
C  C49  1  0.42670000  0.00720000  0.14690000  1.0 -0.1591065289
C  C50  1  0.57330000  0.99280000  0.85310000  1.0 -0.1591065289
C  C51  1  0.47540000  0.06020000  0.18870000  1.0 -0.0914689798
C  C52  1  0.52460000  0.93980000  0.81130000  1.0 -0.0914689798
C  C53  1  0.50880000  0.05520000  0.25270000  1.0 -0.0914689798
C  C54  1  0.49120000  0.94480000  0.74730000  1.0 -0.0914689798
C  C55  1  0.49130000  0.99610000  0.27280000  1.0 -0.1591065289
C  C56  1  0.50870000  0.00390000  0.72720000  1.0 -0.1591065289
C  C57  1  0.32770000  0.84490000  0.21770000  1.0 0.0392167654
C  C58  1  0.67230000  0.15510000  0.78230000  1.0 0.0392167654
C  C59  1  0.29550000  0.85060000  0.15530000  1.0 0.0392167654
C  C60  1  0.70450000  0.14940000  0.84470000  1.0 0.0392167654
C  C61  1  0.21070000  0.82360000  0.12240000  1.0 -0.1591065289
C  C62  1  0.78930000  0.17640000  0.87760000  1.0 -0.1591065289
C  C63  1  0.16220000  0.79260000  0.15440000  1.0 -0.1104949859
C  C64  1  0.83780000  0.20740000  0.84560000  1.0 -0.1104949859
C  C65  1  0.19390000  0.78740000  0.21540000  1.0 -0.1104949859
C  C66  1  0.80610000  0.21260000  0.78460000  1.0 -0.1104949859
C  C67  1  0.27810000  0.81280000  0.24780000  1.0 -0.1591065289
C  C68  1  0.72190000  0.18720000  0.75220000  1.0 -0.1591065289
C  C69  1  0.46830000  0.74760000  0.29850000  1.0 -0.0914689798
C  C70  1  0.53170000  0.25240000  0.70150000  1.0 -0.0914689798
C  C71  1  0.45720000  0.75420000  0.35690000  1.0 0.0812933261
C  C72  1  0.54280000  0.24580000  0.64310000  1.0 0.0812933261
C  C73  1  0.39580000  0.70860000  0.36900000  1.0 -0.1674768488
C  C74  1  0.60420000  0.29140000  0.63100000  1.0 -0.1674768488
C  C75  1  0.38380000  0.71020000  0.42170000  1.0 -0.1004699178
C  C76  1  0.61620000  0.28980000  0.57830000  1.0 -0.1004699178
C  C77  1  0.43330000  0.76080000  0.46530000  1.0 -0.0198384428
C  C78  1  0.56670000  0.23920000  0.53470000  1.0 -0.0198384428
C  C79  1  0.49660000  0.81030000  0.45500000  1.0 -0.1403508268
C  C80  1  0.50340000  0.18970000  0.54500000  1.0 -0.1403508268
C  C81  1  0.50560000  0.80460000  0.39970000  1.0 -0.1674768488
C  C82  1  0.49440000  0.19540000  0.60030000  1.0 -0.1674768488
C  C83  1  0.42870000  0.76220000  0.52870000  1.0 0.5208165825
C  C84  1  0.57130000  0.23780000  0.47130000  1.0 0.5208165825
C  C85  1  0.42180000  0.87650000  0.00910000  1.0 -0.0914689798
C  C86  1  0.57820000  0.12350000  0.99090000  1.0 -0.0914689798
C  C87  1  0.42720000  0.85380000  0.95460000  1.0 0.0812933261
C  C88  1  0.57280000  0.14620000  0.04540000  1.0 0.0812933261
C  C89  1  0.35930000  0.82810000  0.90120000  1.0 -0.1591065289
C  C90  1  0.64070000  0.17190000  0.09880000  1.0 -0.1591065289
C  C91  1  0.35990000  0.79290000  0.85380000  1.0 -0.0914689798
C  C92  1  0.64010000  0.20710000  0.14620000  1.0 -0.0914689798
C  C93  1  0.43150000  0.78520000  0.85950000  1.0 -0.0496711073
C  C94  1  0.56850000  0.21480000  0.14050000  1.0 -0.0496711073
C  C95  1  0.50200000  0.81620000  0.91150000  1.0 -0.1004699178
C  C96  1  0.49800000  0.18380000  0.08850000  1.0 -0.1004699178
C  C97  1  0.49920000  0.84950000  0.95790000  1.0 -0.1674768488
C  C98  1  0.50080000  0.15050000  0.04210000  1.0 -0.1674768488
C  C99  1  0.43500000  0.74930000  0.81050000  1.0 0.5769429833
C  C100  1  0.56500000  0.25070000  0.18950000  1.0 0.5769429833
C  C101  1  0.09060000  0.26150000  0.82550000  1.0 0.1197217261
C  C102  1  0.90940000  0.73850000  0.17450000  1.0 0.1197217261
C  C103  1  0.03960000  0.21740000  0.77520000  1.0 -0.0605723716
C  C104  1  0.96040000  0.78260000  0.22480000  1.0 -0.0605723716
C  C105  1  0.99640000  0.15600000  0.78260000  1.0 -0.0605723716
C  C106  1  0.00360000  0.84400000  0.21740000  1.0 -0.0605723716
C  C107  1  0.00720000  0.13910000  0.84290000  1.0 0.1288865402
C  C108  1  0.99280000  0.86090000  0.15710000  1.0 0.1288865402
C  C109  1  0.02420000  0.22680000  0.70750000  1.0 -0.0816849225
C  C110  1  0.97580000  0.77320000  0.29250000  1.0 -0.0816849225
C  C111  1  0.94220000  0.11410000  0.72310000  1.0 -0.0816849225
C  C112  1  0.05780000  0.88590000  0.27690000  1.0 -0.0816849225
C  C113  1  0.93350000  0.20790000  0.67540000  1.0 0.0200591497
C  C114  1  0.06650000  0.79210000  0.32460000  1.0 0.0200591497
C  C115  1  0.88780000  0.14870000  0.68160000  1.0 0.0200591497
C  C116  1  0.11220000  0.85130000  0.31840000  1.0 0.0200591497
C  C117  1  0.80360000  0.12120000  0.65470000  1.0 -0.1494041708
C  C118  1  0.19640000  0.87880000  0.34530000  1.0 -0.1591065289
C  C119  1  0.76660000  0.16000000  0.62160000  1.0 -0.1188003658
C  C120  1  0.23340000  0.84000000  0.37840000  1.0 -0.1188003658
C  C121  1  0.80690000  0.21760000  0.61450000  1.0 -0.0914689798
C  C122  1  0.19310000  0.78240000  0.38550000  1.0 -0.0914689798
C  C123  1  0.88800000  0.24280000  0.63980000  1.0 -0.1674768488
C  C124  1  0.11200000  0.75720000  0.36020000  1.0 -0.1674768488
C  C125  1  0.04500000  0.17770000  0.68340000  1.0 0.0328470561
C  C126  1  0.95500000  0.82230000  0.31660000  1.0 0.0328470561
C  C127  1  0.00240000  0.11860000  0.69170000  1.0 0.0328470561
C  C128  1  0.99760000  0.88140000  0.30830000  1.0 0.0328470561
C  C129  1  0.01610000  0.06920000  0.67360000  1.0 -0.1494041708
C  C130  1  0.98390000  0.93080000  0.32640000  1.0 -0.1494041708
C  C131  1  0.07350000  0.07840000  0.64740000  1.0 -0.1188003658
C  C132  1  0.92650000  0.92160000  0.35260000  1.0 -0.1188003658
C  C133  1  0.11680000  0.13900000  0.63970000  1.0 -0.1104949859
C  C134  1  0.88320000  0.86100000  0.36030000  1.0 -0.1104949859
C  C135  1  0.10300000  0.18940000  0.65740000  1.0 -0.1674768488
C  C136  1  0.89700000  0.81060000  0.34260000  1.0 -0.1674768488
C  C137  1  0.09750000  0.24440000  0.88450000  1.0 -0.0496711073
C  C138  1  0.90250000  0.75560000  0.11550000  1.0 -0.0496711073
C  C139  1  0.05810000  0.18280000  0.89280000  1.0 -0.0605723716
C  C140  1  0.94190000  0.81720000  0.10720000  1.0 -0.0605723716
C  C141  1  0.14560000  0.28940000  0.94440000  1.0 -0.0816849225
C  C142  1  0.85440000  0.71060000  0.05560000  1.0 -0.0816849225
C  C143  1  0.07280000  0.17400000  0.96020000  1.0 -0.0914689798
C  C144  1  0.92720000  0.82600000  0.03980000  1.0 -0.0914689798
C  C145  1  0.08190000  0.28030000  0.97290000  1.0 0.0392167654
C  C146  1  0.91810000  0.71970000  0.02710000  1.0 0.0392167654
C  C147  1  0.04350000  0.21910000  0.98230000  1.0 0.0328470561
C  C148  1  0.95650000  0.78090000  0.01770000  1.0 0.0328470561
C  C149  1  0.98470000  0.20220000  0.00780000  1.0 -0.1821680585
C  C150  1  0.01530000  0.79780000  0.99220000  1.0 -0.1821680585
C  C151  1  0.96400000  0.25040000  0.02470000  1.0 -0.1104949859
C  C152  1  0.03600000  0.74960000  0.97530000  1.0 -0.1188003658
C  C153  1  0.00240000  0.31140000  0.01510000  1.0 -0.1004699178
C  C154  1  0.99760000  0.68860000  0.98490000  1.0 -0.1004699178
C  C155  1  0.06040000  0.32770000  0.98940000  1.0 -0.1494041708
C  C156  1  0.93960000  0.67230000  0.01060000  1.0 -0.1494041708
C  C157  1  0.20480000  0.26110000  0.98730000  1.0 0.0392167654
C  C158  1  0.79520000  0.73890000  0.01270000  1.0 0.0392167654
C  C159  1  0.16570000  0.20030000  0.99540000  1.0 0.0328470561
C  C160  1  0.83430000  0.79970000  0.00460000  1.0 0.0328470561
C  C161  1  0.21110000  0.16950000  0.03680000  1.0 -0.1591065289
C  C162  1  0.78890000  0.83050000  0.96320000  1.0 -0.1591065289
C  C163  1  0.29270000  0.19960000  0.06770000  1.0 -0.0914689798
C  C164  1  0.70730000  0.80040000  0.93230000  1.0 -0.0914689798
C  C165  1  0.33090000  0.25860000  0.05780000  1.0 -0.0914689798
C  C166  1  0.66910000  0.74140000  0.94220000  1.0 -0.0914689798
C  C167  1  0.28710000  0.29170000  0.01650000  1.0 -0.1591065289
C  C168  1  0.71290000  0.70830000  0.98350000  1.0 -0.1591065289
C  C169  1  0.21210000  0.33170000  0.82100000  1.0 -0.0816849225
C  C170  1  0.78790000  0.66830000  0.17900000  1.0 -0.0816849225
C  C171  1  0.24360000  0.38990000  0.79050000  1.0 0.0893722668
C  C172  1  0.75640000  0.61010000  0.20950000  1.0 0.0893722668
C  C173  1  0.19470000  0.42160000  0.76110000  1.0 -0.1494041708
C  C174  1  0.80530000  0.57840000  0.23890000  1.0 -0.1494041708
C  C175  1  0.22540000  0.47420000  0.73230000  1.0 -0.1004699178
C  C176  1  0.77460000  0.52580000  0.26770000  1.0 -0.1004699178
C  C177  1  0.30350000  0.49340000  0.73380000  1.0 -0.0198384428
C  C178  1  0.69650000  0.50660000  0.26620000  1.0 -0.0198384428
C  C179  1  0.35050000  0.45930000  0.76190000  1.0 -0.1104949859
C  C180  1  0.64950000  0.54070000  0.23810000  1.0 -0.1104949859
C  C181  1  0.32100000  0.40910000  0.79070000  1.0 -0.1591065289
C  C182  1  0.67900000  0.59090000  0.20930000  1.0 -0.1591065289
C  C183  1  0.33690000  0.55160000  0.70620000  1.0 0.5769429833
C  C184  1  0.66310000  0.44840000  0.29380000  1.0 0.5769429833
C  C185  1  0.89800000  0.07040000  0.86860000  1.0 -0.0914689798
C  C186  1  0.10200000  0.92960000  0.13140000  1.0 -0.0914689798
C  C187  1  0.82800000  0.01210000  0.83410000  1.0 0.0893722668
C  C188  1  0.17200000  0.98790000  0.16590000  1.0 0.0893722668
C  C189  1  0.75510000  0.01270000  0.79120000  1.0 -0.1591065289
C  C190  1  0.24490000  0.98730000  0.20880000  1.0 -0.1591065289
C  C191  1  0.69200000  0.95850000  0.76200000  1.0 -0.0914689798
C  C192  1  0.30800000  0.04150000  0.23800000  1.0 -0.0914689798
C  C193  1  0.69710000  0.90040000  0.77450000  1.0 -0.0398300848
C  C194  1  0.30290000  0.09960000  0.22550000  1.0 -0.0398300848
C  C195  1  0.76980000  0.89960000  0.81620000  1.0 -0.1004699178
C  C196  1  0.23020000  0.10040000  0.18380000  1.0 -0.1004699178
C  C197  1  0.83380000  0.95310000  0.84630000  1.0 -0.1591065289
C  C198  1  0.16620000  0.04690000  0.15370000  1.0 -0.1591065289
C  C199  1  0.62660000  0.84110000  0.74460000  1.0 0.568589586
C  C200  1  0.37340000  0.15890000  0.25540000  1.0 0.568589586
C  C201  1  0.04740000  0.96490000  0.52420000  1.0 0.1401118368
C  C202  1  0.95260000  0.03510000  0.47580000  1.0 0.1401118368
C  C203  1  0.07850000  0.02060000  0.49960000  1.0 -0.0496711073
C  C204  1  0.92150000  0.97940000  0.50040000  1.0 -0.0496711073
C  C205  1  0.96880000  0.94590000  0.52450000  1.0 -0.0496711073
C  C206  1  0.03120000  0.05410000  0.47550000  1.0 -0.0496711073
C  C207  1  0.16330000  0.05070000  0.49700000  1.0 -0.1104949859
C  C208  1  0.83670000  0.94930000  0.50300000  1.0 -0.1104949859
C  C209  1  0.92710000  0.88740000  0.55120000  1.0 -0.1004699178
C  C210  1  0.07290000  0.11260000  0.44880000  1.0 -0.1004699178
C  C211  1  0.15150000  0.05760000  0.43050000  1.0 0.0200591497
C  C212  1  0.84850000  0.94240000  0.56950000  1.0 0.0200591497
C  C213  1  0.89500000  0.90770000  0.59440000  1.0 0.0200591497
C  C214  1  0.10500000  0.09230000  0.40560000  1.0 0.0200591497
C  C215  1  0.91150000  0.89180000  0.65580000  1.0 -0.1821680585
C  C216  1  0.08850000  0.10820000  0.34420000  1.0 -0.1821680585
C  C217  1  0.87300000  0.91030000  0.68870000  1.0 -0.1188003658
C  C218  1  0.12700000  0.08970000  0.31130000  1.0 -0.1188003658
C  C219  1  0.82380000  0.94420000  0.66250000  1.0 -0.1403508268
C  C220  1  0.17620000  0.05580000  0.33750000  1.0 -0.1403508268
C  C221  1  0.18690000  0.04130000  0.39590000  1.0 -0.1674768488
C  C222  1  0.81310000  0.95870000  0.60410000  1.0 -0.1674768488
C  C223  1  0.19900000  0.11410000  0.52870000  1.0 0.0200591497
C  C224  1  0.80100000  0.88590000  0.47130000  1.0 0.0200591497
C  C225  1  0.84780000  0.84980000  0.49730000  1.0 0.0141402969
C  C226  1  0.15220000  0.15020000  0.50270000  1.0 0.0141402969
C  C227  1  0.82070000  0.78740000  0.47580000  1.0 -0.1674768488
C  C228  1  0.17930000  0.21260000  0.52420000  1.0 -0.1674768488
C  C229  1  0.74630000  0.76080000  0.42750000  1.0 -0.1591065289
C  C230  1  0.25370000  0.23920000  0.57250000  1.0 -0.1591065289
C  C231  1  0.69870000  0.79450000  0.40060000  1.0 -0.1494041708
C  C232  1  0.30130000  0.20550000  0.59940000  1.0 -0.1494041708
C  C233  1  0.27420000  0.14440000  0.57620000  1.0 -0.1674768488
C  C234  1  0.72580000  0.85560000  0.42380000  1.0 -0.1674768488
C  C235  1  0.08140000  0.88540000  0.49470000  1.0 -0.0816849225
C  C236  1  0.91860000  0.11460000  0.50530000  1.0 -0.0816849225
C  C237  1  0.13560000  0.85070000  0.52330000  1.0 0.0893722668
C  C238  1  0.86440000  0.14930000  0.47670000  1.0 0.0893722668
C  C239  1  0.21990000  0.88360000  0.54280000  1.0 -0.1674768488
C  C240  1  0.78010000  0.11640000  0.45720000  1.0 -0.1674768488
C  C241  1  0.27450000  0.85500000  0.57560000  1.0 -0.0914689798
C  C242  1  0.72550000  0.14500000  0.42440000  1.0 -0.0914689798
C  C243  1  0.24350000  0.79280000  0.58620000  1.0 -0.0311405752
C  C244  1  0.75650000  0.20720000  0.41380000  1.0 -0.0311405752
C  C245  1  0.16120000  0.76210000  0.56300000  1.0 -0.0914689798
C  C246  1  0.83880000  0.23790000  0.43700000  1.0 -0.0914689798
C  C247  1  0.11000000  0.79170000  0.53120000  1.0 -0.1494041708
C  C248  1  0.89000000  0.20830000  0.46880000  1.0 -0.1494041708
C  C249  1  0.30350000  0.76500000  0.62470000  1.0 0.5939470709
C  C250  1  0.69650000  0.23500000  0.37530000  1.0 0.5939470709
C  C251  1  0.93710000  0.52070000  0.96720000  1.0 0.1288865402
C  C252  1  0.06290000  0.47930000  0.03280000  1.0 0.1288865402
C  C253  1  0.99260000  0.52130000  0.94320000  1.0 -0.0605723716
C  C254  1  0.00740000  0.47870000  0.05680000  1.0 -0.0605723716
C  C255  1  0.99730000  0.54720000  0.88330000  1.0 -0.0914689798
C  C256  1  0.00270000  0.45280000  0.11670000  1.0 -0.0914689798
C  C257  1  0.94480000  0.49990000  0.02660000  1.0 -0.0605723716
C  C258  1  0.05520000  0.50010000  0.97340000  1.0 -0.0605723716
C  C259  1  0.88990000  0.49470000  0.06010000  1.0 -0.0816849225
C  C260  1  0.11010000  0.50530000  0.93990000  1.0 -0.0816849225
C  C261  1  0.94500000  0.52940000  0.12410000  1.0 0.0392167654
C  C262  1  0.05500000  0.47060000  0.87590000  1.0 0.0392167654
C  C263  1  0.99350000  0.49310000  0.84450000  1.0 0.0392167654
C  C264  1  0.00650000  0.50690000  0.15550000  1.0 0.0392167654
C  C265  1  0.93770000  0.46710000  0.78730000  1.0 -0.1674768488
C  C266  1  0.06230000  0.53290000  0.21270000  1.0 -0.1674768488
C  C267  1  0.94030000  0.41440000  0.75850000  1.0 -0.1188003658
C  C268  1  0.05970000  0.58560000  0.24150000  1.0 -0.1188003658
C  C269  1  0.00270000  0.39300000  0.79100000  1.0 -0.1188003658
C  C270  1  0.99730000  0.60700000  0.20900000  1.0 -0.1188003658
C  C271  1  0.94200000  0.58000000  0.15190000  1.0 -0.1403508268
C  C272  1  0.05800000  0.42000000  0.84810000  1.0 -0.1403508268
C  C273  1  0.85640000  0.42520000  0.06880000  1.0 0.0392167654
C  C274  1  0.14360000  0.57480000  0.93120000  1.0 0.0392167654
C  C275  1  0.08170000  0.59660000  0.90010000  1.0 0.0392167654
C  C276  1  0.91830000  0.40340000  0.09990000  1.0 0.0392167654
C  C277  1  0.10160000  0.65900000  0.89080000  1.0 -0.1494041708
C  C278  1  0.89840000  0.34100000  0.10920000  1.0 -0.1494041708
C  C279  1  0.18280000  0.69890000  0.91330000  1.0 -0.1188003658
C  C280  1  0.81720000  0.30110000  0.08670000  1.0 -0.1188003658
C  C281  1  0.24460000  0.67810000  0.94230000  1.0 -0.1004699178
C  C282  1  0.75540000  0.32190000  0.05770000  1.0 -0.1004699178
C  C283  1  0.77480000  0.38480000  0.04830000  1.0 -0.1591065289
C  C284  1  0.22520000  0.61520000  0.95170000  1.0 -0.1591065289
C  C285  1  0.80290000  0.49450000  0.89570000  1.0 -0.0914689798
C  C286  1  0.19710000  0.50550000  0.10430000  1.0 -0.0914689798
C  C287  1  0.74450000  0.52520000  0.86210000  1.0 0.0893722668
C  C288  1  0.25550000  0.47480000  0.13790000  1.0 0.0893722668
C  C289  1  0.72480000  0.56220000  0.89470000  1.0 -0.1494041708
C  C290  1  0.27520000  0.43780000  0.10530000  1.0 -0.1494041708
C  C291  1  0.67440000  0.59190000  0.86410000  1.0 -0.0914689798
C  C292  1  0.32560000  0.40810000  0.13590000  1.0 -0.0914689798
C  C293  1  0.64210000  0.58720000  0.80010000  1.0 -0.0311405752
C  C294  1  0.35790000  0.41280000  0.19990000  1.0 -0.0311405752
C  C295  1  0.66150000  0.54940000  0.76720000  1.0 -0.1276849627
C  C296  1  0.33850000  0.45060000  0.23280000  1.0 -0.1276849627
C  C297  1  0.71220000  0.51810000  0.80030000  1.0 -0.1591065289
C  C298  1  0.28780000  0.48190000  0.19970000  1.0 -0.1591065289
C  C299  1  0.59120000  0.62310000  0.76760000  1.0 0.568589586
C  C300  1  0.40880000  0.37690000  0.23240000  1.0 0.568589586
C  C301  1  0.60560000  0.68280000  0.60450000  1.0 0.1773573141
C  C302  1  0.39440000  0.31720000  0.39550000  1.0 0.1773573141
C  C303  1  0.73840000  0.71200000  0.59430000  1.0 -0.4465896904
C  C304  1  0.26160000  0.28800000  0.40570000  1.0 -0.4465896904
C  C305  1  0.66900000  0.78310000  0.57300000  1.0 -0.1188003658
C  C306  1  0.33100000  0.21690000  0.42700000  1.0 -0.1188003658
C  C307  1  0.57670000  0.71140000  0.60040000  1.0 0.2095131755
C  C308  1  0.42330000  0.28860000  0.39960000  1.0 0.2095131755
C  C309  1  0.59850000  0.69710000  0.50630000  1.0 -0.4266511023
C  C310  1  0.40150000  0.30290000  0.49370000  1.0 -0.4266511023
C  C311  1  0.69800000  0.78510000  0.58400000  1.0 -0.1403508268
C  C312  1  0.30200000  0.21490000  0.41600000  1.0 -0.1403508268
C  C313  1  0.48000000  0.49720000  0.57620000  1.0 0.1773573141
C  C314  1  0.52000000  0.50280000  0.42380000  1.0 0.1773573141
C  C315  1  0.44300000  0.38900000  0.54100000  1.0 -0.4235722839
C  C316  1  0.55700000  0.61100000  0.45900000  1.0 -0.4235722839
C  C317  1  0.39900000  0.41300000  0.62000000  1.0 -0.3199542433
C  C318  1  0.60100000  0.58700000  0.38000000  1.0 -0.3199542433
C  C319  1  0.47420000  0.49900000  0.62130000  1.0 0.1969951272
C  C320  1  0.52580000  0.50100000  0.37870000  1.0 0.1969951272
C  C321  1  0.56200000  0.47430000  0.57470000  1.0 -0.3703121364
C  C322  1  0.43800000  0.52570000  0.42530000  1.0 -0.3703121364
C  C323  1  0.50800000  0.40760000  0.64120000  1.0 -0.2632158815
C  C324  1  0.49200000  0.59240000  0.35880000  1.0 -0.2632158815
N  N1  1  0.66720000  0.72330000  0.59180000  1.0 0.1680330292
N  N2  1  0.33280000  0.27670000  0.40820000  1.0 0.1680330292
N  N3  1  0.62380000  0.73140000  0.56650000  1.0 0.1401118368
N  N4  1  0.37620000  0.26860000  0.43350000  1.0 0.1401118368
N  N5  1  0.44600000  0.43650000  0.58250000  1.0 0.1773573141
N  N6  1  0.55400000  0.56350000  0.41750000  1.0 0.1773573141
N  N7  1  0.50900000  0.46260000  0.61050000  1.0 0.1197217261
N  N8  1  0.49100000  0.53740000  0.38950000  1.0 0.1197217261
O  O1  1  0.45400000  0.69750000  0.67950000  1.0 -0.9558917105
O  O2  1  0.54600000  0.30250000  0.32050000  1.0 -0.9558917105
O  O3  1  0.52590000  0.80280000  0.28890000  1.0 -0.1998983293
O  O4  1  0.47410000  0.19720000  0.71110000  1.0 -0.1998983293
O  O5  1  0.48740000  0.79900000  0.57160000  1.0 -0.5394357264
O  O6  1  0.51260000  0.20100000  0.42840000  1.0 -0.5394357264
O  O7  1  0.36610000  0.72280000  0.53480000  1.0 -0.4656110823
O  O8  1  0.63390000  0.27720000  0.46520000  1.0 -0.4656110823
O  O9  1  0.39340000  0.82150000  0.03850000  1.0 -0.2216547697
O  O10  1  0.60660000  0.17850000  0.96150000  1.0 -0.2216547697
O  O11  1  0.36960000  0.71890000  0.76800000  1.0 -0.5125430942
O  O12  1  0.63040000  0.28110000  0.23200000  1.0 -0.5125430942
O  O13  1  0.50330000  0.74980000  0.81830000  1.0 -0.5213410675
O  O14  1  0.49670000  0.25020000  0.18170000  1.0 -0.5213410675
O  O15  1  0.13190000  0.32150000  0.81670000  1.0 -0.1998983293
O  O16  1  0.86810000  0.67850000  0.18330000  1.0 -0.1998983293
O  O17  1  0.29730000  0.58790000  0.69650000  1.0 -0.5213410675
O  O18  1  0.70270000  0.41210000  0.30350000  1.0 -0.5213410675
O  O19  1  0.39930000  0.56130000  0.69630000  1.0 -0.5394357264
O  O20  1  0.60070000  0.43870000  0.30370000  1.0 -0.5394357264
O  O21  1  0.96510000  0.07740000  0.84890000  1.0 -0.1821680585
O  O22  1  0.03490000  0.92260000  0.15110000  1.0 -0.1821680585
O  O23  1  0.63440000  0.79050000  0.76280000  1.0 -0.5553029
O  O24  1  0.36560000  0.20950000  0.23720000  1.0 -0.5513373831
O  O25  1  0.56430000  0.84540000  0.70460000  1.0 -0.5213410675
O  O26  1  0.43570000  0.15460000  0.29540000  1.0 -0.5213410675
O  O27  1  0.09500000  0.92980000  0.54680000  1.0 -0.1674768488
O  O28  1  0.90500000  0.07020000  0.45320000  1.0 -0.1674768488
O  O29  1  0.37880000  0.80040000  0.64650000  1.0 -0.5513373831
O  O30  1  0.62120000  0.19960000  0.35350000  1.0 -0.5513373831
O  O31  1  0.27380000  0.70880000  0.63070000  1.0 -0.4913939654
O  O32  1  0.72620000  0.29120000  0.36930000  1.0 -0.4913939654
O  O33  1  0.87700000  0.54340000  0.93790000  1.0 -0.2216547697
O  O34  1  0.12300000  0.45660000  0.06210000  1.0 -0.2216547697
O  O35  1  0.56930000  0.62160000  0.70970000  1.0 -0.6141569435
O  O36  1  0.43070000  0.37840000  0.29030000  1.0 -0.6141569435
O  O37  1  0.57630000  0.65460000  0.80040000  1.0 -0.5125430942
O  O38  1  0.42370000  0.34540000  0.19960000  1.0 -0.5125430942
O  O39  1  0.53950000  0.68340000  0.60160000  1.0 -0.0496711073
O  O40  1  0.46050000  0.31660000  0.39840000  1.0 -0.0496711073
O  O41  1  0.34790000  0.60910000  0.56980000  1.0 -0.3571267694
O  O42  1  0.65210000  0.39090000  0.43020000  1.0 -0.3571267694
O  O43  1  0.51190000  0.66320000  0.58280000  1.0 -0.1188003658
O  O44  1  0.48810000  0.33680000  0.41720000  1.0 -0.1188003658
O  O45  1  0.48600000  0.54720000  0.59940000  1.0 -0.1920363575
O  O46  1  0.51400000  0.45280000  0.40060000  1.0 -0.1920363575
O  O47  1  0.45120000  0.54150000  0.60220000  1.0 -0.1494041708
O  O48  1  0.54880000  0.45850000  0.39780000  1.0 -0.1494041708
