# DDEC6 charges by PACMAN v1.1 (https://github.com/mtap-research/PACMAN-charge/)
data_WISCAF_ASR_pacman
_symmetry_space_group_name_H-M   'P 1'
_cell_length_a   35.81940000
_cell_length_b   35.81940000
_cell_length_c   14.98690000
_cell_angle_alpha   90.00000000
_cell_angle_beta   90.00000000
_cell_angle_gamma   90.00000000
_symmetry_Int_Tables_number   1
_chemical_formula_structural   Cu3Ni2H39C39(NO3)6
_chemical_formula_sum   'Cu24 Ni16 H312 C312 N48 O144'
_cell_volume   19228.63356005
_cell_formula_units_Z   8
loop_
 _symmetry_equiv_pos_site_id
 _symmetry_equiv_pos_as_xyz
  1  'x, y, z'
loop_
 _atom_site_type_symbol
 _atom_site_label
 _atom_site_symmetry_multiplicity
 _atom_site_fract_x
 _atom_site_fract_y
 _atom_site_fract_z
 _atom_site_occupancy
 _atom_site_charge
Cu  Cu1  1  0.23812000  0.23809000  0.26452000  1.0 0.5866987178
Cu  Cu2  1  0.99996000  0.32934000  0.23220000  1.0 0.6229324857
Cu  Cu3  1  0.15050000  0.50000000  0.23587000  1.0 0.6670639733
Cu  Cu4  1  0.76188000  0.76191000  0.26452000  1.0 0.5866987178
Cu  Cu5  1  0.00004000  0.67066000  0.23220000  1.0 0.6229324857
Cu  Cu6  1  0.84950000  0.50000000  0.23587000  1.0 0.6670639733
Cu  Cu7  1  0.23809000  0.76188000  0.26452000  1.0 0.5866987178
Cu  Cu8  1  0.32934000  0.00004000  0.23220000  1.0 0.6229324857
Cu  Cu9  1  0.50000000  0.84950000  0.23587000  1.0 0.6670639733
Cu  Cu10  1  0.76191000  0.23812000  0.26452000  1.0 0.5866987178
Cu  Cu11  1  0.67066000  0.99996000  0.23220000  1.0 0.6229324857
Cu  Cu12  1  0.50000000  0.15050000  0.23587000  1.0 0.6670639733
Cu  Cu13  1  0.76188000  0.76191000  0.73548000  1.0 0.5866987178
Cu  Cu14  1  0.00004000  0.67066000  0.76780000  1.0 0.6229324857
Cu  Cu15  1  0.84950000  0.50000000  0.76413000  1.0 0.6670639733
Cu  Cu16  1  0.23812000  0.23809000  0.73548000  1.0 0.5866987178
Cu  Cu17  1  0.99996000  0.32934000  0.76780000  1.0 0.6229324857
Cu  Cu18  1  0.15050000  0.50000000  0.76413000  1.0 0.6670639733
Cu  Cu19  1  0.76191000  0.23812000  0.73548000  1.0 0.5866987178
Cu  Cu20  1  0.67066000  0.99996000  0.76780000  1.0 0.6229324857
Cu  Cu21  1  0.50000000  0.15050000  0.76413000  1.0 0.6670639733
Cu  Cu22  1  0.23809000  0.76188000  0.73548000  1.0 0.5866987178
Cu  Cu23  1  0.32934000  0.00004000  0.76780000  1.0 0.6229324857
Cu  Cu24  1  0.50000000  0.84950000  0.76413000  1.0 0.6670639733
Ni  Ni1  1  0.14619000  0.35225000  0.25189000  1.0 0.9206634978
Ni  Ni2  1  0.85385000  0.35226000  0.25179000  1.0 0.9206634978
Ni  Ni3  1  0.85381000  0.64775000  0.25189000  1.0 0.9206634978
Ni  Ni4  1  0.14615000  0.64774000  0.25179000  1.0 0.9206634978
Ni  Ni5  1  0.35225000  0.85381000  0.25189000  1.0 0.9206634978
Ni  Ni6  1  0.35226000  0.14615000  0.25179000  1.0 0.9206634978
Ni  Ni7  1  0.64775000  0.14619000  0.25189000  1.0 0.9206634978
Ni  Ni8  1  0.64774000  0.85385000  0.25179000  1.0 0.9206634978
Ni  Ni9  1  0.85381000  0.64775000  0.74811000  1.0 0.9206634978
Ni  Ni10  1  0.14615000  0.64774000  0.74821000  1.0 0.9206634978
Ni  Ni11  1  0.14619000  0.35225000  0.74811000  1.0 0.9206634978
Ni  Ni12  1  0.85385000  0.35226000  0.74821000  1.0 0.9206634978
Ni  Ni13  1  0.64775000  0.14619000  0.74811000  1.0 0.9206634978
Ni  Ni14  1  0.64774000  0.85385000  0.74821000  1.0 0.9206634978
Ni  Ni15  1  0.35225000  0.85381000  0.74811000  1.0 0.9206634978
Ni  Ni16  1  0.35226000  0.14615000  0.74821000  1.0 0.9206634978
H  H1  1  0.15080000  0.21960000  0.28120000  1.0 0.1395219749
H  H2  1  0.13560000  0.18230000  0.32720000  1.0 0.1306928901
H  H3  1  0.11000000  0.21890000  0.32490000  1.0 0.150768952
H  H4  1  0.22910000  0.13610000  0.28630000  1.0 0.150768952
H  H5  1  0.20300000  0.10760000  0.33990000  1.0 0.1395219749
H  H6  1  0.18680000  0.14710000  0.30860000  1.0 0.1306928901
H  H7  1  0.92260000  0.22860000  0.18300000  1.0 0.150768952
H  H8  1  0.96120000  0.20890000  0.15770000  1.0 0.1306928901
H  H9  1  0.96130000  0.24660000  0.21480000  1.0 0.1395219749
H  H10  1  0.03630000  0.24510000  0.21250000  1.0 0.1395219749
H  H11  1  0.04210000  0.20770000  0.15600000  1.0 0.1306928901
H  H12  1  0.07750000  0.23210000  0.18530000  1.0 0.150768952
H  H13  1  0.06100000  0.47100000  0.20940000  1.0 0.1395219749
H  H14  1  0.02730000  0.44970000  0.16110000  1.0 0.1189910039
H  H15  1  0.06170000  0.42650000  0.20080000  1.0 0.1614491744
H  H16  1  0.06150000  0.57510000  0.20040000  1.0 0.1614491744
H  H17  1  0.02780000  0.55040000  0.16260000  1.0 0.1306928901
H  H18  1  0.06220000  0.53070000  0.21210000  1.0 0.1395219749
H  H19  1  0.29670000  0.23120000  0.56150000  1.0 0.0623324336
H  H20  1  0.31370000  0.21320000  0.47270000  1.0 0.0811968805
H  H21  1  0.28300000  0.24560000  0.46580000  1.0 0.0623324336
H  H22  1  0.21230000  0.31350000  0.51890000  1.0 0.0889739754
H  H23  1  0.23390000  0.29270000  0.43970000  1.0 0.0623324336
H  H24  1  0.24390000  0.28330000  0.54130000  1.0 0.0681005763
H  H25  1  0.03220000  0.36590000  0.95390000  1.0 0.108992495
H  H26  1  0.04120000  0.36550000  0.05850000  1.0 0.108992495
H  H27  1  0.07460000  0.36380000  0.98760000  1.0 0.150768952
H  H28  1  0.95170000  0.36570000  0.93840000  1.0 0.0889739754
H  H29  1  0.92960000  0.36540000  0.03110000  1.0 0.108992495
H  H30  1  0.97430000  0.36610000  0.03050000  1.0 0.0811968805
H  H31  1  0.18720000  0.54420000  0.93840000  1.0 0.0478260238
H  H32  1  0.18720000  0.56690000  0.03020000  1.0 0.0681005763
H  H33  1  0.18730000  0.52230000  0.03140000  1.0 0.0425562183
H  H34  1  0.18640000  0.45380000  0.93850000  1.0 0.0478260238
H  H35  1  0.18610000  0.43370000  0.03390000  1.0 0.0681005763
H  H36  1  0.18680000  0.47830000  0.02770000  1.0 0.0478260238
H  H37  1  0.84920000  0.78040000  0.28120000  1.0 0.1395219749
H  H38  1  0.86440000  0.81770000  0.32720000  1.0 0.1306928901
H  H39  1  0.89000000  0.78110000  0.32490000  1.0 0.150768952
H  H40  1  0.77090000  0.86390000  0.28630000  1.0 0.150768952
H  H41  1  0.79700000  0.89240000  0.33990000  1.0 0.1306928901
H  H42  1  0.81320000  0.85290000  0.30860000  1.0 0.1306928901
H  H43  1  0.07740000  0.77140000  0.18300000  1.0 0.150768952
H  H44  1  0.03880000  0.79110000  0.15770000  1.0 0.1306928901
H  H45  1  0.03870000  0.75340000  0.21480000  1.0 0.1395219749
H  H46  1  0.96370000  0.75490000  0.21250000  1.0 0.1395219749
H  H47  1  0.95790000  0.79230000  0.15600000  1.0 0.1306928901
H  H48  1  0.92250000  0.76790000  0.18530000  1.0 0.150768952
H  H49  1  0.93900000  0.52900000  0.20940000  1.0 0.1395219749
H  H50  1  0.97270000  0.55030000  0.16110000  1.0 0.1189910039
H  H51  1  0.93830000  0.57350000  0.20080000  1.0 0.1614491744
H  H52  1  0.93850000  0.42490000  0.20040000  1.0 0.1614491744
H  H53  1  0.97220000  0.44960000  0.16260000  1.0 0.1306928901
H  H54  1  0.93780000  0.46930000  0.21210000  1.0 0.1395219749
H  H55  1  0.70330000  0.76880000  0.56150000  1.0 0.0623324336
H  H56  1  0.68630000  0.78680000  0.47270000  1.0 0.0889739754
H  H57  1  0.71700000  0.75440000  0.46580000  1.0 0.0623324336
H  H58  1  0.78770000  0.68650000  0.51890000  1.0 0.0889739754
H  H59  1  0.76610000  0.70730000  0.43970000  1.0 0.0623324336
H  H60  1  0.75610000  0.71670000  0.54130000  1.0 0.0681005763
H  H61  1  0.96780000  0.63410000  0.95390000  1.0 0.108992495
H  H62  1  0.95880000  0.63450000  0.05850000  1.0 0.108992495
H  H63  1  0.92540000  0.63620000  0.98760000  1.0 0.150768952
H  H64  1  0.04830000  0.63430000  0.93840000  1.0 0.0889739754
H  H65  1  0.07040000  0.63460000  0.03110000  1.0 0.108992495
H  H66  1  0.02570000  0.63390000  0.03050000  1.0 0.0811968805
H  H67  1  0.81280000  0.45580000  0.93840000  1.0 0.0478260238
H  H68  1  0.81280000  0.43310000  0.03020000  1.0 0.0681005763
H  H69  1  0.81270000  0.47770000  0.03140000  1.0 0.0425562183
H  H70  1  0.81360000  0.54620000  0.93850000  1.0 0.0478260238
H  H71  1  0.81390000  0.56630000  0.03390000  1.0 0.0681005763
H  H72  1  0.81320000  0.52170000  0.02770000  1.0 0.0478260238
H  H73  1  0.21960000  0.84920000  0.28120000  1.0 0.1395219749
H  H74  1  0.18230000  0.86440000  0.32720000  1.0 0.1306928901
H  H75  1  0.21890000  0.89000000  0.32490000  1.0 0.150768952
H  H76  1  0.13610000  0.77090000  0.28630000  1.0 0.150768952
H  H77  1  0.10760000  0.79700000  0.33990000  1.0 0.1395219749
H  H78  1  0.14710000  0.81320000  0.30860000  1.0 0.1306928901
H  H79  1  0.22860000  0.07740000  0.18300000  1.0 0.150768952
H  H80  1  0.20890000  0.03880000  0.15770000  1.0 0.1306928901
H  H81  1  0.24660000  0.03870000  0.21480000  1.0 0.1395219749
H  H82  1  0.24510000  0.96370000  0.21250000  1.0 0.1395219749
H  H83  1  0.20770000  0.95790000  0.15600000  1.0 0.1306928901
H  H84  1  0.23210000  0.92250000  0.18530000  1.0 0.150768952
H  H85  1  0.47100000  0.93900000  0.20940000  1.0 0.1395219749
H  H86  1  0.44970000  0.97270000  0.16110000  1.0 0.1189910039
H  H87  1  0.42650000  0.93830000  0.20080000  1.0 0.1614491744
H  H88  1  0.57510000  0.93850000  0.20040000  1.0 0.1614491744
H  H89  1  0.55040000  0.97220000  0.16260000  1.0 0.1306928901
H  H90  1  0.53070000  0.93780000  0.21210000  1.0 0.1395219749
H  H91  1  0.23120000  0.70330000  0.56150000  1.0 0.0623324336
H  H92  1  0.21320000  0.68630000  0.47270000  1.0 0.0811968805
H  H93  1  0.24560000  0.71700000  0.46580000  1.0 0.0623324336
H  H94  1  0.31350000  0.78770000  0.51890000  1.0 0.0889739754
H  H95  1  0.29270000  0.76610000  0.43970000  1.0 0.0623324336
H  H96  1  0.28330000  0.75610000  0.54130000  1.0 0.0681005763
H  H97  1  0.36590000  0.96780000  0.95390000  1.0 0.108992495
H  H98  1  0.36550000  0.95880000  0.05850000  1.0 0.108992495
H  H99  1  0.36380000  0.92540000  0.98760000  1.0 0.150768952
H  H100  1  0.36570000  0.04830000  0.93840000  1.0 0.0889739754
H  H101  1  0.36540000  0.07040000  0.03110000  1.0 0.108992495
H  H102  1  0.36610000  0.02570000  0.03050000  1.0 0.0811968805
H  H103  1  0.54420000  0.81280000  0.93840000  1.0 0.0478260238
H  H104  1  0.56690000  0.81280000  0.03020000  1.0 0.0681005763
H  H105  1  0.52230000  0.81270000  0.03140000  1.0 0.0425562183
H  H106  1  0.45380000  0.81360000  0.93850000  1.0 0.0478260238
H  H107  1  0.43370000  0.81390000  0.03390000  1.0 0.0681005763
H  H108  1  0.47830000  0.81320000  0.02770000  1.0 0.0478260238
H  H109  1  0.78040000  0.15080000  0.28120000  1.0 0.1395219749
H  H110  1  0.81770000  0.13560000  0.32720000  1.0 0.1306928901
H  H111  1  0.78110000  0.11000000  0.32490000  1.0 0.150768952
H  H112  1  0.86390000  0.22910000  0.28630000  1.0 0.150768952
H  H113  1  0.89240000  0.20300000  0.33990000  1.0 0.1395219749
H  H114  1  0.85290000  0.18680000  0.30860000  1.0 0.1306928901
H  H115  1  0.77140000  0.92260000  0.18300000  1.0 0.150768952
H  H116  1  0.79110000  0.96120000  0.15770000  1.0 0.1306928901
H  H117  1  0.75340000  0.96130000  0.21480000  1.0 0.1395219749
H  H118  1  0.75490000  0.03630000  0.21250000  1.0 0.1395219749
H  H119  1  0.79230000  0.04210000  0.15600000  1.0 0.1306928901
H  H120  1  0.76790000  0.07750000  0.18530000  1.0 0.150768952
H  H121  1  0.52900000  0.06100000  0.20940000  1.0 0.1395219749
H  H122  1  0.55030000  0.02730000  0.16110000  1.0 0.1189910039
H  H123  1  0.57350000  0.06170000  0.20080000  1.0 0.1614491744
H  H124  1  0.42490000  0.06150000  0.20040000  1.0 0.1614491744
H  H125  1  0.44960000  0.02780000  0.16260000  1.0 0.1306928901
H  H126  1  0.46930000  0.06220000  0.21210000  1.0 0.1395219749
H  H127  1  0.76880000  0.29670000  0.56150000  1.0 0.0623324336
H  H128  1  0.78680000  0.31370000  0.47270000  1.0 0.0811968805
H  H129  1  0.75440000  0.28300000  0.46580000  1.0 0.0623324336
H  H130  1  0.68650000  0.21230000  0.51890000  1.0 0.0889739754
H  H131  1  0.70730000  0.23390000  0.43970000  1.0 0.0623324336
H  H132  1  0.71670000  0.24390000  0.54130000  1.0 0.0681005763
H  H133  1  0.63410000  0.03220000  0.95390000  1.0 0.108992495
H  H134  1  0.63450000  0.04120000  0.05850000  1.0 0.108992495
H  H135  1  0.63620000  0.07460000  0.98760000  1.0 0.150768952
H  H136  1  0.63430000  0.95170000  0.93840000  1.0 0.0889739754
H  H137  1  0.63460000  0.92960000  0.03110000  1.0 0.108992495
H  H138  1  0.63390000  0.97430000  0.03050000  1.0 0.0811968805
H  H139  1  0.45580000  0.18720000  0.93840000  1.0 0.0478260238
H  H140  1  0.43310000  0.18720000  0.03020000  1.0 0.0681005763
H  H141  1  0.47770000  0.18730000  0.03140000  1.0 0.0425562183
H  H142  1  0.54620000  0.18640000  0.93850000  1.0 0.0478260238
H  H143  1  0.56630000  0.18610000  0.03390000  1.0 0.0681005763
H  H144  1  0.52170000  0.18680000  0.02770000  1.0 0.0478260238
H  H145  1  0.84920000  0.78040000  0.71880000  1.0 0.1395219749
H  H146  1  0.86440000  0.81770000  0.67280000  1.0 0.1306928901
H  H147  1  0.89000000  0.78110000  0.67510000  1.0 0.150768952
H  H148  1  0.77090000  0.86390000  0.71370000  1.0 0.150768952
H  H149  1  0.79700000  0.89240000  0.66010000  1.0 0.1306928901
H  H150  1  0.81320000  0.85290000  0.69140000  1.0 0.1306928901
H  H151  1  0.07740000  0.77140000  0.81700000  1.0 0.150768952
H  H152  1  0.03880000  0.79110000  0.84230000  1.0 0.1306928901
H  H153  1  0.03870000  0.75340000  0.78520000  1.0 0.1395219749
H  H154  1  0.96370000  0.75490000  0.78750000  1.0 0.1395219749
H  H155  1  0.95790000  0.79230000  0.84400000  1.0 0.1306928901
H  H156  1  0.92250000  0.76790000  0.81470000  1.0 0.150768952
H  H157  1  0.93900000  0.52900000  0.79060000  1.0 0.1395219749
H  H158  1  0.97270000  0.55030000  0.83890000  1.0 0.1189910039
H  H159  1  0.93830000  0.57350000  0.79920000  1.0 0.1614491744
H  H160  1  0.93850000  0.42490000  0.79960000  1.0 0.1614491744
H  H161  1  0.97220000  0.44960000  0.83740000  1.0 0.1306928901
H  H162  1  0.93780000  0.46930000  0.78790000  1.0 0.1395219749
H  H163  1  0.70330000  0.76880000  0.43850000  1.0 0.0623324336
H  H164  1  0.68630000  0.78680000  0.52730000  1.0 0.0889739754
H  H165  1  0.71700000  0.75440000  0.53420000  1.0 0.0623324336
H  H166  1  0.78770000  0.68650000  0.48110000  1.0 0.0889739754
H  H167  1  0.76610000  0.70730000  0.56030000  1.0 0.0623324336
H  H168  1  0.75610000  0.71670000  0.45870000  1.0 0.0681005763
H  H169  1  0.96780000  0.63410000  0.04610000  1.0 0.108992495
H  H170  1  0.95880000  0.63450000  0.94150000  1.0 0.1189910039
H  H171  1  0.92540000  0.63620000  0.01240000  1.0 0.150768952
H  H172  1  0.04830000  0.63430000  0.06160000  1.0 0.0889739754
H  H173  1  0.07040000  0.63460000  0.96890000  1.0 0.108992495
H  H174  1  0.02570000  0.63390000  0.96950000  1.0 0.0811968805
H  H175  1  0.81280000  0.45580000  0.06160000  1.0 0.0478260238
H  H176  1  0.81280000  0.43310000  0.96980000  1.0 0.0681005763
H  H177  1  0.81270000  0.47770000  0.96860000  1.0 0.0425562183
H  H178  1  0.81360000  0.54620000  0.06150000  1.0 0.0478260238
H  H179  1  0.81390000  0.56630000  0.96610000  1.0 0.0681005763
H  H180  1  0.81320000  0.52170000  0.97230000  1.0 0.0478260238
H  H181  1  0.15080000  0.21960000  0.71880000  1.0 0.1395219749
H  H182  1  0.13560000  0.18230000  0.67280000  1.0 0.1306928901
H  H183  1  0.11000000  0.21890000  0.67510000  1.0 0.150768952
H  H184  1  0.22910000  0.13610000  0.71370000  1.0 0.150768952
H  H185  1  0.20300000  0.10760000  0.66010000  1.0 0.1395219749
H  H186  1  0.18680000  0.14710000  0.69140000  1.0 0.1306928901
H  H187  1  0.92260000  0.22860000  0.81700000  1.0 0.150768952
H  H188  1  0.96120000  0.20890000  0.84230000  1.0 0.1306928901
H  H189  1  0.96130000  0.24660000  0.78520000  1.0 0.1395219749
H  H190  1  0.03630000  0.24510000  0.78750000  1.0 0.1395219749
H  H191  1  0.04210000  0.20770000  0.84400000  1.0 0.1306928901
H  H192  1  0.07750000  0.23210000  0.81470000  1.0 0.150768952
H  H193  1  0.06100000  0.47100000  0.79060000  1.0 0.1395219749
H  H194  1  0.02730000  0.44970000  0.83890000  1.0 0.1189910039
H  H195  1  0.06170000  0.42650000  0.79920000  1.0 0.1614491744
H  H196  1  0.06150000  0.57510000  0.79960000  1.0 0.1614491744
H  H197  1  0.02780000  0.55040000  0.83740000  1.0 0.1306928901
H  H198  1  0.06220000  0.53070000  0.78790000  1.0 0.1395219749
H  H199  1  0.29670000  0.23120000  0.43850000  1.0 0.0623324336
H  H200  1  0.31370000  0.21320000  0.52730000  1.0 0.0811968805
H  H201  1  0.28300000  0.24560000  0.53420000  1.0 0.0623324336
H  H202  1  0.21230000  0.31350000  0.48110000  1.0 0.0889739754
H  H203  1  0.23390000  0.29270000  0.56030000  1.0 0.0623324336
H  H204  1  0.24390000  0.28330000  0.45870000  1.0 0.0681005763
H  H205  1  0.03220000  0.36590000  0.04610000  1.0 0.108992495
H  H206  1  0.04120000  0.36550000  0.94150000  1.0 0.108992495
H  H207  1  0.07460000  0.36380000  0.01240000  1.0 0.150768952
H  H208  1  0.95170000  0.36570000  0.06160000  1.0 0.0889739754
H  H209  1  0.92960000  0.36540000  0.96890000  1.0 0.108992495
H  H210  1  0.97430000  0.36610000  0.96950000  1.0 0.0811968805
H  H211  1  0.18720000  0.54420000  0.06160000  1.0 0.0478260238
H  H212  1  0.18720000  0.56690000  0.96980000  1.0 0.0681005763
H  H213  1  0.18730000  0.52230000  0.96860000  1.0 0.0425562183
H  H214  1  0.18640000  0.45380000  0.06150000  1.0 0.0478260238
H  H215  1  0.18610000  0.43370000  0.96610000  1.0 0.0681005763
H  H216  1  0.18680000  0.47830000  0.97230000  1.0 0.0478260238
H  H217  1  0.78040000  0.15080000  0.71880000  1.0 0.1395219749
H  H218  1  0.81770000  0.13560000  0.67280000  1.0 0.1306928901
H  H219  1  0.78110000  0.11000000  0.67510000  1.0 0.150768952
H  H220  1  0.86390000  0.22910000  0.71370000  1.0 0.150768952
H  H221  1  0.89240000  0.20300000  0.66010000  1.0 0.1395219749
H  H222  1  0.85290000  0.18680000  0.69140000  1.0 0.1306928901
H  H223  1  0.77140000  0.92260000  0.81700000  1.0 0.150768952
H  H224  1  0.79110000  0.96120000  0.84230000  1.0 0.1306928901
H  H225  1  0.75340000  0.96130000  0.78520000  1.0 0.1395219749
H  H226  1  0.75490000  0.03630000  0.78750000  1.0 0.1395219749
H  H227  1  0.79230000  0.04210000  0.84400000  1.0 0.1306928901
H  H228  1  0.76790000  0.07750000  0.81470000  1.0 0.150768952
H  H229  1  0.52900000  0.06100000  0.79060000  1.0 0.1395219749
H  H230  1  0.55030000  0.02730000  0.83890000  1.0 0.1189910039
H  H231  1  0.57350000  0.06170000  0.79920000  1.0 0.1614491744
H  H232  1  0.42490000  0.06150000  0.79960000  1.0 0.1614491744
H  H233  1  0.44960000  0.02780000  0.83740000  1.0 0.1306928901
H  H234  1  0.46930000  0.06220000  0.78790000  1.0 0.1395219749
H  H235  1  0.76880000  0.29670000  0.43850000  1.0 0.0623324336
H  H236  1  0.78680000  0.31370000  0.52730000  1.0 0.0811968805
H  H237  1  0.75440000  0.28300000  0.53420000  1.0 0.0623324336
H  H238  1  0.68650000  0.21230000  0.48110000  1.0 0.0889739754
H  H239  1  0.70730000  0.23390000  0.56030000  1.0 0.0623324336
H  H240  1  0.71670000  0.24390000  0.45870000  1.0 0.0681005763
H  H241  1  0.63410000  0.03220000  0.04610000  1.0 0.108992495
H  H242  1  0.63450000  0.04120000  0.94150000  1.0 0.1189910039
H  H243  1  0.63620000  0.07460000  0.01240000  1.0 0.150768952
H  H244  1  0.63430000  0.95170000  0.06160000  1.0 0.0889739754
H  H245  1  0.63460000  0.92960000  0.96890000  1.0 0.108992495
H  H246  1  0.63390000  0.97430000  0.96950000  1.0 0.0811968805
H  H247  1  0.45580000  0.18720000  0.06160000  1.0 0.0478260238
H  H248  1  0.43310000  0.18720000  0.96980000  1.0 0.0681005763
H  H249  1  0.47770000  0.18730000  0.96860000  1.0 0.0425562183
H  H250  1  0.54620000  0.18640000  0.06150000  1.0 0.0478260238
H  H251  1  0.56630000  0.18610000  0.96610000  1.0 0.0681005763
H  H252  1  0.52170000  0.18680000  0.97230000  1.0 0.0478260238
H  H253  1  0.21960000  0.84920000  0.71880000  1.0 0.1395219749
H  H254  1  0.18230000  0.86440000  0.67280000  1.0 0.1306928901
H  H255  1  0.21890000  0.89000000  0.67510000  1.0 0.150768952
H  H256  1  0.13610000  0.77090000  0.71370000  1.0 0.150768952
H  H257  1  0.10760000  0.79700000  0.66010000  1.0 0.1395219749
H  H258  1  0.14710000  0.81320000  0.69140000  1.0 0.1306928901
H  H259  1  0.22860000  0.07740000  0.81700000  1.0 0.150768952
H  H260  1  0.20890000  0.03880000  0.84230000  1.0 0.1306928901
H  H261  1  0.24660000  0.03870000  0.78520000  1.0 0.1395219749
H  H262  1  0.24510000  0.96370000  0.78750000  1.0 0.1395219749
H  H263  1  0.20770000  0.95790000  0.84400000  1.0 0.1306928901
H  H264  1  0.23210000  0.92250000  0.81470000  1.0 0.150768952
H  H265  1  0.47100000  0.93900000  0.79060000  1.0 0.1395219749
H  H266  1  0.44970000  0.97270000  0.83890000  1.0 0.1189910039
H  H267  1  0.42650000  0.93830000  0.79920000  1.0 0.1614491744
H  H268  1  0.57510000  0.93850000  0.79960000  1.0 0.1614491744
H  H269  1  0.55040000  0.97220000  0.83740000  1.0 0.1306928901
H  H270  1  0.53070000  0.93780000  0.78790000  1.0 0.1395219749
H  H271  1  0.23120000  0.70330000  0.43850000  1.0 0.0623324336
H  H272  1  0.21320000  0.68630000  0.52730000  1.0 0.0811968805
H  H273  1  0.24560000  0.71700000  0.53420000  1.0 0.0623324336
H  H274  1  0.31350000  0.78770000  0.48110000  1.0 0.0889739754
H  H275  1  0.29270000  0.76610000  0.56030000  1.0 0.0623324336
H  H276  1  0.28330000  0.75610000  0.45870000  1.0 0.0681005763
H  H277  1  0.36590000  0.96780000  0.04610000  1.0 0.108992495
H  H278  1  0.36550000  0.95880000  0.94150000  1.0 0.1189910039
H  H279  1  0.36380000  0.92540000  0.01240000  1.0 0.150768952
H  H280  1  0.36570000  0.04830000  0.06160000  1.0 0.0889739754
H  H281  1  0.36540000  0.07040000  0.96890000  1.0 0.108992495
H  H282  1  0.36610000  0.02570000  0.96950000  1.0 0.0811968805
H  H283  1  0.54420000  0.81280000  0.06160000  1.0 0.0478260238
H  H284  1  0.56690000  0.81280000  0.96980000  1.0 0.0681005763
H  H285  1  0.52230000  0.81270000  0.96860000  1.0 0.0425562183
H  H286  1  0.45380000  0.81360000  0.06150000  1.0 0.0478260238
H  H287  1  0.43370000  0.81390000  0.96610000  1.0 0.0681005763
H  H288  1  0.47830000  0.81320000  0.97230000  1.0 0.0478260238
H  H289  1  0.11970000  0.18990000  0.50000000  1.0 0.150768952
H  H290  1  0.19040000  0.11920000  0.50000000  1.0 0.1614491744
H  H291  1  0.88030000  0.81010000  0.50000000  1.0 0.150768952
H  H292  1  0.80960000  0.88080000  0.50000000  1.0 0.150768952
H  H293  1  0.18990000  0.88030000  0.50000000  1.0 0.150768952
H  H294  1  0.11920000  0.80960000  0.50000000  1.0 0.1614491744
H  H295  1  0.81010000  0.11970000  0.50000000  1.0 0.150768952
H  H296  1  0.88080000  0.19040000  0.50000000  1.0 0.150768952
H  H297  1  0.94540000  0.21050000  0.00000000  1.0 0.1395219749
H  H298  1  0.05470000  0.21030000  0.00000000  1.0 0.1395219749
H  H299  1  0.03010000  0.45010000  0.00000000  1.0 0.1306928901
H  H300  1  0.02930000  0.54840000  0.00000000  1.0 0.1306928901
H  H301  1  0.05460000  0.78950000  0.00000000  1.0 0.1395219749
H  H302  1  0.94530000  0.78970000  0.00000000  1.0 0.1395219749
H  H303  1  0.96990000  0.54990000  0.00000000  1.0 0.1306928901
H  H304  1  0.97070000  0.45160000  0.00000000  1.0 0.1306928901
H  H305  1  0.21050000  0.05460000  0.00000000  1.0 0.1395219749
H  H306  1  0.21030000  0.94530000  0.00000000  1.0 0.1395219749
H  H307  1  0.45010000  0.96990000  0.00000000  1.0 0.1306928901
H  H308  1  0.54840000  0.97070000  0.00000000  1.0 0.1306928901
H  H309  1  0.78950000  0.94540000  0.00000000  1.0 0.1395219749
H  H310  1  0.78970000  0.05470000  0.00000000  1.0 0.1395219749
H  H311  1  0.54990000  0.03010000  0.00000000  1.0 0.1306928901
H  H312  1  0.45160000  0.02930000  0.00000000  1.0 0.1306928901
C  C1  1  0.18420000  0.29080000  0.30740000  1.0 0.3527632574
C  C2  1  0.20420000  0.30280000  0.22250000  1.0 0.4487723926
C  C3  1  0.07700000  0.32490000  0.20030000  1.0 0.3595438966
C  C4  1  0.07040000  0.35180000  0.28170000  1.0 0.4662036443
C  C5  1  0.14420000  0.42530000  0.19770000  1.0 0.3413575212
C  C6  1  0.16420000  0.42760000  0.28710000  1.0 0.4662036443
C  C7  1  0.92990000  0.35200000  0.28150000  1.0 0.4662036443
C  C8  1  0.92350000  0.32500000  0.20130000  1.0 0.3527632574
C  C9  1  0.18090000  0.24650000  0.42220000  1.0 0.0811968805
C  C10  1  0.15200000  0.22200000  0.41820000  1.0 0.0965483556
C  C11  1  0.13570000  0.20960000  0.33020000  1.0 -0.4113079538
C  C12  1  0.24700000  0.18070000  0.42360000  1.0 0.0811968805
C  C13  1  0.22180000  0.15160000  0.41950000  1.0 0.108992495
C  C14  1  0.20900000  0.13400000  0.33040000  1.0 -0.4113079538
C  C15  1  0.95310000  0.29360000  0.08160000  1.0 0.0889739754
C  C16  1  0.95050000  0.25580000  0.08050000  1.0 0.0889739754
C  C17  1  0.94870000  0.23290000  0.16680000  1.0 -0.4113079538
C  C18  1  0.04700000  0.29350000  0.08200000  1.0 0.108992495
C  C19  1  0.04850000  0.25500000  0.08130000  1.0 0.0889739754
C  C20  1  0.05130000  0.23310000  0.16610000  1.0 -0.4113079538
C  C21  1  0.29060000  0.18340000  0.30630000  1.0 0.3595438966
C  C22  1  0.30300000  0.20500000  0.22230000  1.0 0.4565933043
C  C23  1  0.16440000  0.57090000  0.28480000  1.0 0.4565933043
C  C24  1  0.11400000  0.45580000  0.08230000  1.0 0.1395219749
C  C25  1  0.07550000  0.45320000  0.07860000  1.0 0.0811968805
C  C26  1  0.05440000  0.44980000  0.17140000  1.0 -0.4185132259
C  C27  1  0.11490000  0.54470000  0.08160000  1.0 0.1189910039
C  C28  1  0.07630000  0.54720000  0.07860000  1.0 0.108992495
C  C29  1  0.05480000  0.55130000  0.17260000  1.0 -0.4295632513
C  C30  1  0.14480000  0.57440000  0.19620000  1.0 0.3305040816
C  C31  1  0.81580000  0.70920000  0.30740000  1.0 0.3527632574
C  C32  1  0.79580000  0.69720000  0.22250000  1.0 0.4487723926
C  C33  1  0.92300000  0.67510000  0.20030000  1.0 0.3595438966
C  C34  1  0.92960000  0.64820000  0.28170000  1.0 0.4662036443
C  C35  1  0.85580000  0.57470000  0.19770000  1.0 0.3413575212
C  C36  1  0.83580000  0.57240000  0.28710000  1.0 0.4662036443
C  C37  1  0.07010000  0.64800000  0.28150000  1.0 0.4662036443
C  C38  1  0.07650000  0.67500000  0.20130000  1.0 0.3527632574
C  C39  1  0.81910000  0.75350000  0.42220000  1.0 0.0811968805
C  C40  1  0.84800000  0.77800000  0.41820000  1.0 0.0965483556
C  C41  1  0.86430000  0.79040000  0.33020000  1.0 -0.4113079538
C  C42  1  0.75300000  0.81930000  0.42360000  1.0 0.0811968805
C  C43  1  0.77820000  0.84840000  0.41950000  1.0 0.108992495
C  C44  1  0.79100000  0.86600000  0.33040000  1.0 -0.4113079538
C  C45  1  0.04690000  0.70640000  0.08160000  1.0 0.0889739754
C  C46  1  0.04950000  0.74420000  0.08050000  1.0 0.0889739754
C  C47  1  0.05130000  0.76710000  0.16680000  1.0 -0.4113079538
C  C48  1  0.95300000  0.70650000  0.08200000  1.0 0.108992495
C  C49  1  0.95150000  0.74500000  0.08130000  1.0 0.0889739754
C  C50  1  0.94870000  0.76690000  0.16610000  1.0 -0.4113079538
C  C51  1  0.70940000  0.81660000  0.30630000  1.0 0.3595438966
C  C52  1  0.69700000  0.79500000  0.22230000  1.0 0.4565933043
C  C53  1  0.83560000  0.42910000  0.28480000  1.0 0.4565933043
C  C54  1  0.88600000  0.54420000  0.08230000  1.0 0.1395219749
C  C55  1  0.92450000  0.54680000  0.07860000  1.0 0.0811968805
C  C56  1  0.94560000  0.55020000  0.17140000  1.0 -0.4185132259
C  C57  1  0.88510000  0.45530000  0.08160000  1.0 0.1189910039
C  C58  1  0.92370000  0.45280000  0.07860000  1.0 0.108992495
C  C59  1  0.94520000  0.44870000  0.17260000  1.0 -0.4295632513
C  C60  1  0.85520000  0.42560000  0.19620000  1.0 0.3305040816
C  C61  1  0.29080000  0.81580000  0.30740000  1.0 0.3527632574
C  C62  1  0.30280000  0.79580000  0.22250000  1.0 0.4487723926
C  C63  1  0.32490000  0.92300000  0.20030000  1.0 0.3595438966
C  C64  1  0.35180000  0.92960000  0.28170000  1.0 0.4662036443
C  C65  1  0.42530000  0.85580000  0.19770000  1.0 0.3413575212
C  C66  1  0.42760000  0.83580000  0.28710000  1.0 0.4662036443
C  C67  1  0.35200000  0.07010000  0.28150000  1.0 0.4662036443
C  C68  1  0.32500000  0.07650000  0.20130000  1.0 0.3527632574
C  C69  1  0.24650000  0.81910000  0.42220000  1.0 0.0811968805
C  C70  1  0.22200000  0.84800000  0.41820000  1.0 0.0965483556
C  C71  1  0.20960000  0.86430000  0.33020000  1.0 -0.4113079538
C  C72  1  0.18070000  0.75300000  0.42360000  1.0 0.0811968805
C  C73  1  0.15160000  0.77820000  0.41950000  1.0 0.108992495
C  C74  1  0.13400000  0.79100000  0.33040000  1.0 -0.4113079538
C  C75  1  0.29360000  0.04690000  0.08160000  1.0 0.0889739754
C  C76  1  0.25580000  0.04950000  0.08050000  1.0 0.0889739754
C  C77  1  0.23290000  0.05130000  0.16680000  1.0 -0.4113079538
C  C78  1  0.29350000  0.95300000  0.08200000  1.0 0.108992495
C  C79  1  0.25500000  0.95150000  0.08130000  1.0 0.0889739754
C  C80  1  0.23310000  0.94870000  0.16610000  1.0 -0.4113079538
C  C81  1  0.18340000  0.70940000  0.30630000  1.0 0.3595438966
C  C82  1  0.20500000  0.69700000  0.22230000  1.0 0.4565933043
C  C83  1  0.57090000  0.83560000  0.28480000  1.0 0.4565933043
C  C84  1  0.45580000  0.88600000  0.08230000  1.0 0.1395219749
C  C85  1  0.45320000  0.92450000  0.07860000  1.0 0.0811968805
C  C86  1  0.44980000  0.94560000  0.17140000  1.0 -0.4185132259
C  C87  1  0.54470000  0.88510000  0.08160000  1.0 0.1189910039
C  C88  1  0.54720000  0.92370000  0.07860000  1.0 0.108992495
C  C89  1  0.55130000  0.94520000  0.17260000  1.0 -0.4295632513
C  C90  1  0.57440000  0.85520000  0.19620000  1.0 0.3305040816
C  C91  1  0.70920000  0.18420000  0.30740000  1.0 0.3527632574
C  C92  1  0.69720000  0.20420000  0.22250000  1.0 0.4487723926
C  C93  1  0.67510000  0.07700000  0.20030000  1.0 0.3595438966
C  C94  1  0.64820000  0.07040000  0.28170000  1.0 0.4662036443
C  C95  1  0.57470000  0.14420000  0.19770000  1.0 0.3413575212
C  C96  1  0.57240000  0.16420000  0.28710000  1.0 0.4662036443
C  C97  1  0.64800000  0.92990000  0.28150000  1.0 0.4662036443
C  C98  1  0.67500000  0.92350000  0.20130000  1.0 0.3527632574
C  C99  1  0.75350000  0.18090000  0.42220000  1.0 0.0811968805
C  C100  1  0.77800000  0.15200000  0.41820000  1.0 0.0965483556
C  C101  1  0.79040000  0.13570000  0.33020000  1.0 -0.4113079538
C  C102  1  0.81930000  0.24700000  0.42360000  1.0 0.0811968805
C  C103  1  0.84840000  0.22180000  0.41950000  1.0 0.108992495
C  C104  1  0.86600000  0.20900000  0.33040000  1.0 -0.4113079538
C  C105  1  0.70640000  0.95310000  0.08160000  1.0 0.0889739754
C  C106  1  0.74420000  0.95050000  0.08050000  1.0 0.0889739754
C  C107  1  0.76710000  0.94870000  0.16680000  1.0 -0.4113079538
C  C108  1  0.70650000  0.04700000  0.08200000  1.0 0.108992495
C  C109  1  0.74500000  0.04850000  0.08130000  1.0 0.0889739754
C  C110  1  0.76690000  0.05130000  0.16610000  1.0 -0.4113079538
C  C111  1  0.81660000  0.29060000  0.30630000  1.0 0.3595438966
C  C112  1  0.79500000  0.30300000  0.22230000  1.0 0.4565933043
C  C113  1  0.42910000  0.16440000  0.28480000  1.0 0.4565933043
C  C114  1  0.54420000  0.11400000  0.08230000  1.0 0.1395219749
C  C115  1  0.54680000  0.07550000  0.07860000  1.0 0.0811968805
C  C116  1  0.55020000  0.05440000  0.17140000  1.0 -0.4185132259
C  C117  1  0.45530000  0.11490000  0.08160000  1.0 0.1189910039
C  C118  1  0.45280000  0.07630000  0.07860000  1.0 0.108992495
C  C119  1  0.44870000  0.05480000  0.17260000  1.0 -0.4295632513
C  C120  1  0.42560000  0.14480000  0.19620000  1.0 0.3305040816
C  C121  1  0.81580000  0.70920000  0.69260000  1.0 0.3527632574
C  C122  1  0.79580000  0.69720000  0.77750000  1.0 0.4487723926
C  C123  1  0.92300000  0.67510000  0.79970000  1.0 0.3595438966
C  C124  1  0.92960000  0.64820000  0.71830000  1.0 0.4662036443
C  C125  1  0.85580000  0.57470000  0.80230000  1.0 0.3413575212
C  C126  1  0.83580000  0.57240000  0.71290000  1.0 0.4662036443
C  C127  1  0.07010000  0.64800000  0.71850000  1.0 0.4662036443
C  C128  1  0.07650000  0.67500000  0.79870000  1.0 0.3527632574
C  C129  1  0.81910000  0.75350000  0.57780000  1.0 0.0811968805
C  C130  1  0.84800000  0.77800000  0.58180000  1.0 0.0965483556
C  C131  1  0.86430000  0.79040000  0.66980000  1.0 -0.4113079538
C  C132  1  0.75300000  0.81930000  0.57640000  1.0 0.0811968805
C  C133  1  0.77820000  0.84840000  0.58050000  1.0 0.108992495
C  C134  1  0.79100000  0.86600000  0.66960000  1.0 -0.4113079538
C  C135  1  0.04690000  0.70640000  0.91840000  1.0 0.0889739754
C  C136  1  0.04950000  0.74420000  0.91950000  1.0 0.0889739754
C  C137  1  0.05130000  0.76710000  0.83320000  1.0 -0.4113079538
C  C138  1  0.95300000  0.70650000  0.91800000  1.0 0.108992495
C  C139  1  0.95150000  0.74500000  0.91870000  1.0 0.0889739754
C  C140  1  0.94870000  0.76690000  0.83390000  1.0 -0.4113079538
C  C141  1  0.70940000  0.81660000  0.69370000  1.0 0.3595438966
C  C142  1  0.69700000  0.79500000  0.77770000  1.0 0.4565933043
C  C143  1  0.83560000  0.42910000  0.71520000  1.0 0.4565933043
C  C144  1  0.88600000  0.54420000  0.91770000  1.0 0.1395219749
C  C145  1  0.92450000  0.54680000  0.92140000  1.0 0.0811968805
C  C146  1  0.94560000  0.55020000  0.82860000  1.0 -0.4185132259
C  C147  1  0.88510000  0.45530000  0.91840000  1.0 0.1189910039
C  C148  1  0.92370000  0.45280000  0.92140000  1.0 0.108992495
C  C149  1  0.94520000  0.44870000  0.82740000  1.0 -0.4295632513
C  C150  1  0.85520000  0.42560000  0.80380000  1.0 0.3305040816
C  C151  1  0.18420000  0.29080000  0.69260000  1.0 0.3527632574
C  C152  1  0.20420000  0.30280000  0.77750000  1.0 0.4487723926
C  C153  1  0.07700000  0.32490000  0.79970000  1.0 0.3595438966
C  C154  1  0.07040000  0.35180000  0.71830000  1.0 0.4662036443
C  C155  1  0.14420000  0.42530000  0.80230000  1.0 0.3413575212
C  C156  1  0.16420000  0.42760000  0.71290000  1.0 0.4662036443
C  C157  1  0.92990000  0.35200000  0.71850000  1.0 0.4662036443
C  C158  1  0.92350000  0.32500000  0.79870000  1.0 0.3527632574
C  C159  1  0.18090000  0.24650000  0.57780000  1.0 0.0811968805
C  C160  1  0.15200000  0.22200000  0.58180000  1.0 0.0965483556
C  C161  1  0.13570000  0.20960000  0.66980000  1.0 -0.4113079538
C  C162  1  0.24700000  0.18070000  0.57640000  1.0 0.0811968805
C  C163  1  0.22180000  0.15160000  0.58050000  1.0 0.108992495
C  C164  1  0.20900000  0.13400000  0.66960000  1.0 -0.4113079538
C  C165  1  0.95310000  0.29360000  0.91840000  1.0 0.0889739754
C  C166  1  0.95050000  0.25580000  0.91950000  1.0 0.0889739754
C  C167  1  0.94870000  0.23290000  0.83320000  1.0 -0.4113079538
C  C168  1  0.04700000  0.29350000  0.91800000  1.0 0.108992495
C  C169  1  0.04850000  0.25500000  0.91870000  1.0 0.0889739754
C  C170  1  0.05130000  0.23310000  0.83390000  1.0 -0.4113079538
C  C171  1  0.29060000  0.18340000  0.69370000  1.0 0.3595438966
C  C172  1  0.30300000  0.20500000  0.77770000  1.0 0.4565933043
C  C173  1  0.16440000  0.57090000  0.71520000  1.0 0.4565933043
C  C174  1  0.11400000  0.45580000  0.91770000  1.0 0.1395219749
C  C175  1  0.07550000  0.45320000  0.92140000  1.0 0.0811968805
C  C176  1  0.05440000  0.44980000  0.82860000  1.0 -0.4185132259
C  C177  1  0.11490000  0.54470000  0.91840000  1.0 0.1189910039
C  C178  1  0.07630000  0.54720000  0.92140000  1.0 0.108992495
C  C179  1  0.05480000  0.55130000  0.82740000  1.0 -0.4295632513
C  C180  1  0.14480000  0.57440000  0.80380000  1.0 0.3305040816
C  C181  1  0.70920000  0.18420000  0.69260000  1.0 0.3527632574
C  C182  1  0.69720000  0.20420000  0.77750000  1.0 0.4487723926
C  C183  1  0.67510000  0.07700000  0.79970000  1.0 0.3595438966
C  C184  1  0.64820000  0.07040000  0.71830000  1.0 0.4662036443
C  C185  1  0.57470000  0.14420000  0.80230000  1.0 0.3413575212
C  C186  1  0.57240000  0.16420000  0.71290000  1.0 0.4662036443
C  C187  1  0.64800000  0.92990000  0.71850000  1.0 0.4662036443
C  C188  1  0.67500000  0.92350000  0.79870000  1.0 0.3527632574
C  C189  1  0.75350000  0.18090000  0.57780000  1.0 0.0811968805
C  C190  1  0.77800000  0.15200000  0.58180000  1.0 0.0965483556
C  C191  1  0.79040000  0.13570000  0.66980000  1.0 -0.4113079538
C  C192  1  0.81930000  0.24700000  0.57640000  1.0 0.0811968805
C  C193  1  0.84840000  0.22180000  0.58050000  1.0 0.108992495
C  C194  1  0.86600000  0.20900000  0.66960000  1.0 -0.4113079538
C  C195  1  0.70640000  0.95310000  0.91840000  1.0 0.0889739754
C  C196  1  0.74420000  0.95050000  0.91950000  1.0 0.0889739754
C  C197  1  0.76710000  0.94870000  0.83320000  1.0 -0.4113079538
C  C198  1  0.70650000  0.04700000  0.91800000  1.0 0.108992495
C  C199  1  0.74500000  0.04850000  0.91870000  1.0 0.0889739754
C  C200  1  0.76690000  0.05130000  0.83390000  1.0 -0.4113079538
C  C201  1  0.81660000  0.29060000  0.69370000  1.0 0.3595438966
C  C202  1  0.79500000  0.30300000  0.77770000  1.0 0.4565933043
C  C203  1  0.42910000  0.16440000  0.71520000  1.0 0.4565933043
C  C204  1  0.54420000  0.11400000  0.91770000  1.0 0.1395219749
C  C205  1  0.54680000  0.07550000  0.92140000  1.0 0.0811968805
C  C206  1  0.55020000  0.05440000  0.82860000  1.0 -0.4185132259
C  C207  1  0.45530000  0.11490000  0.91840000  1.0 0.1189910039
C  C208  1  0.45280000  0.07630000  0.92140000  1.0 0.108992495
C  C209  1  0.44870000  0.05480000  0.82740000  1.0 -0.4295632513
C  C210  1  0.42560000  0.14480000  0.80380000  1.0 0.3305040816
C  C211  1  0.29080000  0.81580000  0.69260000  1.0 0.3527632574
C  C212  1  0.30280000  0.79580000  0.77750000  1.0 0.4487723926
C  C213  1  0.32490000  0.92300000  0.79970000  1.0 0.3595438966
C  C214  1  0.35180000  0.92960000  0.71830000  1.0 0.4662036443
C  C215  1  0.42530000  0.85580000  0.80230000  1.0 0.3413575212
C  C216  1  0.42760000  0.83580000  0.71290000  1.0 0.4662036443
C  C217  1  0.35200000  0.07010000  0.71850000  1.0 0.4662036443
C  C218  1  0.32500000  0.07650000  0.79870000  1.0 0.3527632574
C  C219  1  0.24650000  0.81910000  0.57780000  1.0 0.0811968805
C  C220  1  0.22200000  0.84800000  0.58180000  1.0 0.0965483556
C  C221  1  0.20960000  0.86430000  0.66980000  1.0 -0.4113079538
C  C222  1  0.18070000  0.75300000  0.57640000  1.0 0.0811968805
C  C223  1  0.15160000  0.77820000  0.58050000  1.0 0.108992495
C  C224  1  0.13400000  0.79100000  0.66960000  1.0 -0.4113079538
C  C225  1  0.29360000  0.04690000  0.91840000  1.0 0.0889739754
C  C226  1  0.25580000  0.04950000  0.91950000  1.0 0.0889739754
C  C227  1  0.23290000  0.05130000  0.83320000  1.0 -0.4113079538
C  C228  1  0.29350000  0.95300000  0.91800000  1.0 0.108992495
C  C229  1  0.25500000  0.95150000  0.91870000  1.0 0.0889739754
C  C230  1  0.23310000  0.94870000  0.83390000  1.0 -0.4113079538
C  C231  1  0.18340000  0.70940000  0.69370000  1.0 0.3595438966
C  C232  1  0.20500000  0.69700000  0.77770000  1.0 0.4565933043
C  C233  1  0.57090000  0.83560000  0.71520000  1.0 0.4565933043
C  C234  1  0.45580000  0.88600000  0.91770000  1.0 0.1395219749
C  C235  1  0.45320000  0.92450000  0.92140000  1.0 0.0811968805
C  C236  1  0.44980000  0.94560000  0.82860000  1.0 -0.4185132259
C  C237  1  0.54470000  0.88510000  0.91840000  1.0 0.1189910039
C  C238  1  0.54720000  0.92370000  0.92140000  1.0 0.108992495
C  C239  1  0.55130000  0.94520000  0.82740000  1.0 -0.4295632513
C  C240  1  0.57440000  0.85520000  0.80380000  1.0 0.3305040816
C  C241  1  0.13850000  0.20860000  0.50000000  1.0 -0.1986085256
C  C242  1  0.19490000  0.25980000  0.50000000  1.0 -0.0359282164
C  C243  1  0.22370000  0.28990000  0.50000000  1.0 -0.2315081885
C  C244  1  0.20880000  0.13820000  0.50000000  1.0 -0.2389740751
C  C245  1  0.26020000  0.19430000  0.50000000  1.0 -0.0297425208
C  C246  1  0.29120000  0.22370000  0.50000000  1.0 -0.2389740751
C  C247  1  0.86150000  0.79140000  0.50000000  1.0 -0.1986085256
C  C248  1  0.80510000  0.74020000  0.50000000  1.0 -0.0297425208
C  C249  1  0.77630000  0.71010000  0.50000000  1.0 -0.2315081885
C  C250  1  0.79120000  0.86180000  0.50000000  1.0 -0.2389740751
C  C251  1  0.73980000  0.80570000  0.50000000  1.0 -0.0237568976
C  C252  1  0.70880000  0.77630000  0.50000000  1.0 -0.2389740751
C  C253  1  0.20860000  0.86150000  0.50000000  1.0 -0.1986085256
C  C254  1  0.25980000  0.80510000  0.50000000  1.0 -0.0359282164
C  C255  1  0.28990000  0.77630000  0.50000000  1.0 -0.2315081885
C  C256  1  0.13820000  0.79120000  0.50000000  1.0 -0.2389740751
C  C257  1  0.19430000  0.73980000  0.50000000  1.0 -0.0297425208
C  C258  1  0.22370000  0.70880000  0.50000000  1.0 -0.2389740751
C  C259  1  0.79140000  0.13850000  0.50000000  1.0 -0.1986085256
C  C260  1  0.74020000  0.19490000  0.50000000  1.0 -0.0297425208
C  C261  1  0.71010000  0.22370000  0.50000000  1.0 -0.2315081885
C  C262  1  0.86180000  0.20880000  0.50000000  1.0 -0.2389740751
C  C263  1  0.80570000  0.26020000  0.50000000  1.0 -0.0237568976
C  C264  1  0.77630000  0.29120000  0.50000000  1.0 -0.2389740751
C  C265  1  0.94840000  0.23690000  0.00000000  1.0 -0.2194479244
C  C266  1  0.95270000  0.31320000  0.00000000  1.0 -0.0117237175
C  C267  1  0.95200000  0.35660000  0.00000000  1.0 -0.3313786989
C  C268  1  0.05100000  0.23660000  0.00000000  1.0 -0.2194479244
C  C269  1  0.04680000  0.31350000  0.00000000  1.0 0.0130996966
C  C270  1  0.04890000  0.35600000  0.00000000  1.0 -0.4415249427
C  C271  1  0.05660000  0.45190000  0.00000000  1.0 -0.2584702273
C  C272  1  0.13680000  0.45610000  0.00000000  1.0 0.0623324336
C  C273  1  0.17740000  0.45540000  0.00000000  1.0 -0.251889041
C  C274  1  0.05580000  0.54770000  0.00000000  1.0 -0.251889041
C  C275  1  0.13530000  0.54440000  0.00000000  1.0 0.0321001927
C  C276  1  0.17810000  0.54440000  0.00000000  1.0 -0.2389740751
C  C277  1  0.05160000  0.76310000  0.00000000  1.0 -0.2194479244
C  C278  1  0.04730000  0.68680000  0.00000000  1.0 -0.0117237175
C  C279  1  0.04800000  0.64340000  0.00000000  1.0 -0.3313786989
C  C280  1  0.94900000  0.76340000  0.00000000  1.0 -0.2194479244
C  C281  1  0.95320000  0.68650000  0.00000000  1.0 0.0130996966
C  C282  1  0.95110000  0.64400000  0.00000000  1.0 -0.4415249427
C  C283  1  0.94340000  0.54810000  0.00000000  1.0 -0.2584702273
C  C284  1  0.86320000  0.54390000  0.00000000  1.0 0.0681005763
C  C285  1  0.82260000  0.54460000  0.00000000  1.0 -0.251889041
C  C286  1  0.94420000  0.45230000  0.00000000  1.0 -0.2584702273
C  C287  1  0.86470000  0.45560000  0.00000000  1.0 0.0321001927
C  C288  1  0.82190000  0.45560000  0.00000000  1.0 -0.2389740751
C  C289  1  0.23690000  0.05160000  0.00000000  1.0 -0.2194479244
C  C290  1  0.31320000  0.04730000  0.00000000  1.0 -0.0117237175
C  C291  1  0.35660000  0.04800000  0.00000000  1.0 -0.3313786989
C  C292  1  0.23660000  0.94900000  0.00000000  1.0 -0.2194479244
C  C293  1  0.31350000  0.95320000  0.00000000  1.0 0.0130996966
C  C294  1  0.35600000  0.95110000  0.00000000  1.0 -0.4415249427
C  C295  1  0.45190000  0.94340000  0.00000000  1.0 -0.2584702273
C  C296  1  0.45610000  0.86320000  0.00000000  1.0 0.0623324336
C  C297  1  0.45540000  0.82260000  0.00000000  1.0 -0.251889041
C  C298  1  0.54770000  0.94420000  0.00000000  1.0 -0.251889041
C  C299  1  0.54440000  0.86470000  0.00000000  1.0 0.0321001927
C  C300  1  0.54440000  0.82190000  0.00000000  1.0 -0.2389740751
C  C301  1  0.76310000  0.94840000  0.00000000  1.0 -0.2194479244
C  C302  1  0.68680000  0.95270000  0.00000000  1.0 -0.0117237175
C  C303  1  0.64340000  0.95200000  0.00000000  1.0 -0.3313786989
C  C304  1  0.76340000  0.05100000  0.00000000  1.0 -0.2194479244
C  C305  1  0.68650000  0.04680000  0.00000000  1.0 0.0130996966
C  C306  1  0.64400000  0.04890000  0.00000000  1.0 -0.4415249427
C  C307  1  0.54810000  0.05660000  0.00000000  1.0 -0.2584702273
C  C308  1  0.54390000  0.13680000  0.00000000  1.0 0.0681005763
C  C309  1  0.54460000  0.17740000  0.00000000  1.0 -0.251889041
C  C310  1  0.45230000  0.05580000  0.00000000  1.0 -0.251889041
C  C311  1  0.45560000  0.13530000  0.00000000  1.0 0.0321001927
C  C312  1  0.45560000  0.17810000  0.00000000  1.0 -0.2389740751
N  N1  1  0.19630000  0.25910000  0.33590000  1.0 -0.3984012385
N  N2  1  0.25900000  0.19680000  0.33670000  1.0 -0.4113079538
N  N3  1  0.95410000  0.31420000  0.16170000  1.0 -0.4113079538
N  N4  1  0.04490000  0.31470000  0.16100000  1.0 -0.4415249427
N  N5  1  0.13440000  0.45730000  0.16170000  1.0 -0.3984012385
N  N6  1  0.13480000  0.54280000  0.16020000  1.0 -0.3904390564
N  N7  1  0.80370000  0.74090000  0.33590000  1.0 -0.3984012385
N  N8  1  0.74100000  0.80320000  0.33670000  1.0 -0.4113079538
N  N9  1  0.04590000  0.68580000  0.16170000  1.0 -0.4113079538
N  N10  1  0.95510000  0.68530000  0.16100000  1.0 -0.4415249427
N  N11  1  0.86560000  0.54270000  0.16170000  1.0 -0.3904390564
N  N12  1  0.86520000  0.45720000  0.16020000  1.0 -0.3846385261
N  N13  1  0.25910000  0.80370000  0.33590000  1.0 -0.3984012385
N  N14  1  0.19680000  0.74100000  0.33670000  1.0 -0.4113079538
N  N15  1  0.31420000  0.04590000  0.16170000  1.0 -0.4113079538
N  N16  1  0.31470000  0.95510000  0.16100000  1.0 -0.4415249427
N  N17  1  0.45730000  0.86560000  0.16170000  1.0 -0.3984012385
N  N18  1  0.54280000  0.86520000  0.16020000  1.0 -0.3846385261
N  N19  1  0.74090000  0.19630000  0.33590000  1.0 -0.3984012385
N  N20  1  0.80320000  0.25900000  0.33670000  1.0 -0.4113079538
N  N21  1  0.68580000  0.95410000  0.16170000  1.0 -0.4113079538
N  N22  1  0.68530000  0.04490000  0.16100000  1.0 -0.4415249427
N  N23  1  0.54270000  0.13440000  0.16170000  1.0 -0.3904390564
N  N24  1  0.45720000  0.13480000  0.16020000  1.0 -0.3904390564
N  N25  1  0.80370000  0.74090000  0.66410000  1.0 -0.3984012385
N  N26  1  0.74100000  0.80320000  0.66330000  1.0 -0.4113079538
N  N27  1  0.04590000  0.68580000  0.83830000  1.0 -0.4113079538
N  N28  1  0.95510000  0.68530000  0.83900000  1.0 -0.4415249427
N  N29  1  0.86560000  0.54270000  0.83830000  1.0 -0.3904390564
N  N30  1  0.86520000  0.45720000  0.83980000  1.0 -0.3846385261
N  N31  1  0.19630000  0.25910000  0.66410000  1.0 -0.3984012385
N  N32  1  0.25900000  0.19680000  0.66330000  1.0 -0.4113079538
N  N33  1  0.95410000  0.31420000  0.83830000  1.0 -0.4113079538
N  N34  1  0.04490000  0.31470000  0.83900000  1.0 -0.4415249427
N  N35  1  0.13440000  0.45730000  0.83830000  1.0 -0.3904390564
N  N36  1  0.13480000  0.54280000  0.83980000  1.0 -0.3904390564
N  N37  1  0.74090000  0.19630000  0.66410000  1.0 -0.3984012385
N  N38  1  0.80320000  0.25900000  0.66330000  1.0 -0.4113079538
N  N39  1  0.68580000  0.95410000  0.83830000  1.0 -0.4113079538
N  N40  1  0.68530000  0.04490000  0.83900000  1.0 -0.4415249427
N  N41  1  0.54270000  0.13440000  0.83830000  1.0 -0.3904390564
N  N42  1  0.45720000  0.13480000  0.83980000  1.0 -0.3904390564
N  N43  1  0.25910000  0.80370000  0.66410000  1.0 -0.3984012385
N  N44  1  0.19680000  0.74100000  0.66330000  1.0 -0.4113079538
N  N45  1  0.31420000  0.04590000  0.83830000  1.0 -0.4113079538
N  N46  1  0.31470000  0.95510000  0.83900000  1.0 -0.4415249427
N  N47  1  0.45730000  0.86560000  0.83830000  1.0 -0.3904390564
N  N48  1  0.54280000  0.86520000  0.83980000  1.0 -0.3846385261
O  O1  1  0.23100000  0.28410000  0.19380000  1.0 -0.4113079538
O  O2  1  0.19280000  0.33430000  0.18960000  1.0 -0.4502082249
O  O3  1  0.15850000  0.31080000  0.33750000  1.0 -0.4113079538
O  O4  1  0.28460000  0.23040000  0.19370000  1.0 -0.3904390564
O  O5  1  0.13760000  0.60670000  0.16200000  1.0 -0.4295632513
O  O6  1  0.10990000  0.31860000  0.17880000  1.0 -0.4113079538
O  O7  1  0.09860000  0.36560000  0.31530000  1.0 -0.4295632513
O  O8  1  0.03680000  0.35750000  0.30430000  1.0 -0.4415249427
O  O9  1  0.96320000  0.35730000  0.30380000  1.0 -0.4295632513
O  O10  1  0.89020000  0.31858000  0.17870000  1.0 -0.4295632513
O  O11  1  0.90150000  0.36520000  0.31640000  1.0 -0.4415249427
O  O12  1  0.31060000  0.15870000  0.33810000  1.0 -0.3904390564
O  O13  1  0.33400000  0.19330000  0.19010000  1.0 -0.4415249427
O  O14  1  0.17380000  0.60320000  0.32180000  1.0 -0.4765071092
O  O15  1  0.13790000  0.39340000  0.16260000  1.0 -0.4185132259
O  O16  1  0.17350000  0.39690000  0.32060000  1.0 -0.4415249427
O  O17  1  0.17380000  0.45960000  0.31400000  1.0 -0.4113079538
O  O18  1  0.17370000  0.53960000  0.31370000  1.0 -0.3984012385
O  O19  1  0.76900000  0.71590000  0.19380000  1.0 -0.4113079538
O  O20  1  0.80720000  0.66570000  0.18960000  1.0 -0.4502082249
O  O21  1  0.84150000  0.68920000  0.33750000  1.0 -0.4113079538
O  O22  1  0.71540000  0.76960000  0.19370000  1.0 -0.3904390564
O  O23  1  0.86240000  0.39330000  0.16200000  1.0 -0.4295632513
O  O24  1  0.89010000  0.68140000  0.17880000  1.0 -0.4113079538
O  O25  1  0.90140000  0.63440000  0.31530000  1.0 -0.4295632513
O  O26  1  0.96320000  0.64250000  0.30430000  1.0 -0.4415249427
O  O27  1  0.03680000  0.64270000  0.30380000  1.0 -0.4295632513
O  O28  1  0.10980000  0.68142000  0.17870000  1.0 -0.4295632513
O  O29  1  0.09850000  0.63480000  0.31640000  1.0 -0.4415249427
O  O30  1  0.68940000  0.84130000  0.33810000  1.0 -0.3904390564
O  O31  1  0.66600000  0.80670000  0.19010000  1.0 -0.4415249427
O  O32  1  0.82620000  0.39680000  0.32180000  1.0 -0.4765071092
O  O33  1  0.86210000  0.60660000  0.16260000  1.0 -0.4185132259
O  O34  1  0.82650000  0.60310000  0.32060000  1.0 -0.4415249427
O  O35  1  0.82620000  0.54040000  0.31400000  1.0 -0.4113079538
O  O36  1  0.82630000  0.46040000  0.31370000  1.0 -0.3984012385
O  O37  1  0.28410000  0.76900000  0.19380000  1.0 -0.4113079538
O  O38  1  0.33430000  0.80720000  0.18960000  1.0 -0.4502082249
O  O39  1  0.31080000  0.84150000  0.33750000  1.0 -0.4113079538
O  O40  1  0.23040000  0.71540000  0.19370000  1.0 -0.3904390564
O  O41  1  0.60670000  0.86240000  0.16200000  1.0 -0.4295632513
O  O42  1  0.31860000  0.89010000  0.17880000  1.0 -0.4113079538
O  O43  1  0.36560000  0.90140000  0.31530000  1.0 -0.4295632513
O  O44  1  0.35750000  0.96320000  0.30430000  1.0 -0.4415249427
O  O45  1  0.35730000  0.03680000  0.30380000  1.0 -0.4295632513
O  O46  1  0.31858000  0.10980000  0.17870000  1.0 -0.4295632513
O  O47  1  0.36520000  0.09850000  0.31640000  1.0 -0.4295632513
O  O48  1  0.15870000  0.68940000  0.33810000  1.0 -0.3904390564
O  O49  1  0.19330000  0.66600000  0.19010000  1.0 -0.4415249427
O  O50  1  0.60320000  0.82620000  0.32180000  1.0 -0.4765071092
O  O51  1  0.39340000  0.86210000  0.16260000  1.0 -0.4185132259
O  O52  1  0.39690000  0.82650000  0.32060000  1.0 -0.4415249427
O  O53  1  0.45960000  0.82620000  0.31400000  1.0 -0.4113079538
O  O54  1  0.53960000  0.82630000  0.31370000  1.0 -0.3984012385
O  O55  1  0.71590000  0.23100000  0.19380000  1.0 -0.4113079538
O  O56  1  0.66570000  0.19280000  0.18960000  1.0 -0.4502082249
O  O57  1  0.68920000  0.15850000  0.33750000  1.0 -0.4113079538
O  O58  1  0.76960000  0.28460000  0.19370000  1.0 -0.3904390564
O  O59  1  0.39330000  0.13760000  0.16200000  1.0 -0.4295632513
O  O60  1  0.68140000  0.10990000  0.17880000  1.0 -0.4113079538
O  O61  1  0.63440000  0.09860000  0.31530000  1.0 -0.4295632513
O  O62  1  0.64250000  0.03680000  0.30430000  1.0 -0.4415249427
O  O63  1  0.64270000  0.96320000  0.30380000  1.0 -0.4295632513
O  O64  1  0.68142000  0.89020000  0.17870000  1.0 -0.4295632513
O  O65  1  0.63480000  0.90150000  0.31640000  1.0 -0.4295632513
O  O66  1  0.84130000  0.31060000  0.33810000  1.0 -0.3904390564
O  O67  1  0.80670000  0.33400000  0.19010000  1.0 -0.4415249427
O  O68  1  0.39680000  0.17380000  0.32180000  1.0 -0.4765071092
O  O69  1  0.60660000  0.13790000  0.16260000  1.0 -0.4185132259
O  O70  1  0.60310000  0.17350000  0.32060000  1.0 -0.4415249427
O  O71  1  0.54040000  0.17380000  0.31400000  1.0 -0.4113079538
O  O72  1  0.46040000  0.17370000  0.31370000  1.0 -0.3984012385
O  O73  1  0.76900000  0.71590000  0.80620000  1.0 -0.4113079538
O  O74  1  0.80720000  0.66570000  0.81040000  1.0 -0.4502082249
O  O75  1  0.84150000  0.68920000  0.66250000  1.0 -0.4113079538
O  O76  1  0.71540000  0.76960000  0.80630000  1.0 -0.3904390564
O  O77  1  0.86240000  0.39330000  0.83800000  1.0 -0.4295632513
O  O78  1  0.89010000  0.68140000  0.82120000  1.0 -0.4113079538
O  O79  1  0.90140000  0.63440000  0.68470000  1.0 -0.4295632513
O  O80  1  0.96320000  0.64250000  0.69570000  1.0 -0.4415249427
O  O81  1  0.03680000  0.64270000  0.69620000  1.0 -0.4295632513
O  O82  1  0.10980000  0.68142000  0.82130000  1.0 -0.4295632513
O  O83  1  0.09850000  0.63480000  0.68360000  1.0 -0.4295632513
O  O84  1  0.68940000  0.84130000  0.66190000  1.0 -0.3904390564
O  O85  1  0.66600000  0.80670000  0.80990000  1.0 -0.4415249427
O  O86  1  0.82620000  0.39680000  0.67820000  1.0 -0.4765071092
O  O87  1  0.86210000  0.60660000  0.83740000  1.0 -0.4185132259
O  O88  1  0.82650000  0.60310000  0.67940000  1.0 -0.4415249427
O  O89  1  0.82620000  0.54040000  0.68600000  1.0 -0.4113079538
O  O90  1  0.82630000  0.46040000  0.68630000  1.0 -0.3984012385
O  O91  1  0.23100000  0.28410000  0.80620000  1.0 -0.4113079538
O  O92  1  0.19280000  0.33430000  0.81040000  1.0 -0.4502082249
O  O93  1  0.15850000  0.31080000  0.66250000  1.0 -0.4113079538
O  O94  1  0.28460000  0.23040000  0.80630000  1.0 -0.3904390564
O  O95  1  0.13760000  0.60670000  0.83800000  1.0 -0.4295632513
O  O96  1  0.10990000  0.31860000  0.82120000  1.0 -0.4113079538
O  O97  1  0.09860000  0.36560000  0.68470000  1.0 -0.4295632513
O  O98  1  0.03680000  0.35750000  0.69570000  1.0 -0.4415249427
O  O99  1  0.96320000  0.35730000  0.69620000  1.0 -0.4295632513
O  O100  1  0.89020000  0.31858000  0.82130000  1.0 -0.4295632513
O  O101  1  0.90150000  0.36520000  0.68360000  1.0 -0.4415249427
O  O102  1  0.31060000  0.15870000  0.66190000  1.0 -0.3904390564
O  O103  1  0.33400000  0.19330000  0.80990000  1.0 -0.4415249427
O  O104  1  0.17380000  0.60320000  0.67820000  1.0 -0.4765071092
O  O105  1  0.13790000  0.39340000  0.83740000  1.0 -0.4185132259
O  O106  1  0.17350000  0.39690000  0.67940000  1.0 -0.4415249427
O  O107  1  0.17380000  0.45960000  0.68600000  1.0 -0.4113079538
O  O108  1  0.17370000  0.53960000  0.68630000  1.0 -0.3984012385
O  O109  1  0.71590000  0.23100000  0.80620000  1.0 -0.4113079538
O  O110  1  0.66570000  0.19280000  0.81040000  1.0 -0.4502082249
O  O111  1  0.68920000  0.15850000  0.66250000  1.0 -0.4113079538
O  O112  1  0.76960000  0.28460000  0.80630000  1.0 -0.3904390564
O  O113  1  0.39330000  0.13760000  0.83800000  1.0 -0.4295632513
O  O114  1  0.68140000  0.10990000  0.82120000  1.0 -0.4113079538
O  O115  1  0.63440000  0.09860000  0.68470000  1.0 -0.4295632513
O  O116  1  0.64250000  0.03680000  0.69570000  1.0 -0.4415249427
O  O117  1  0.64270000  0.96320000  0.69620000  1.0 -0.4295632513
O  O118  1  0.68142000  0.89020000  0.82130000  1.0 -0.4295632513
O  O119  1  0.63480000  0.90150000  0.68360000  1.0 -0.4415249427
O  O120  1  0.84130000  0.31060000  0.66190000  1.0 -0.3904390564
O  O121  1  0.80670000  0.33400000  0.80990000  1.0 -0.4415249427
O  O122  1  0.39680000  0.17380000  0.67820000  1.0 -0.4765071092
O  O123  1  0.60660000  0.13790000  0.83740000  1.0 -0.4185132259
O  O124  1  0.60310000  0.17350000  0.67940000  1.0 -0.4415249427
O  O125  1  0.54040000  0.17380000  0.68600000  1.0 -0.4113079538
O  O126  1  0.46040000  0.17370000  0.68630000  1.0 -0.3984012385
O  O127  1  0.28410000  0.76900000  0.80620000  1.0 -0.4113079538
O  O128  1  0.33430000  0.80720000  0.81040000  1.0 -0.4502082249
O  O129  1  0.31080000  0.84150000  0.66250000  1.0 -0.4113079538
O  O130  1  0.23040000  0.71540000  0.80630000  1.0 -0.3904390564
O  O131  1  0.60670000  0.86240000  0.83800000  1.0 -0.4295632513
O  O132  1  0.31860000  0.89010000  0.82120000  1.0 -0.4113079538
O  O133  1  0.36560000  0.90140000  0.68470000  1.0 -0.4295632513
O  O134  1  0.35750000  0.96320000  0.69570000  1.0 -0.4415249427
O  O135  1  0.35730000  0.03680000  0.69620000  1.0 -0.4295632513
O  O136  1  0.31858000  0.10980000  0.82130000  1.0 -0.4295632513
O  O137  1  0.36520000  0.09850000  0.68360000  1.0 -0.4295632513
O  O138  1  0.15870000  0.68940000  0.66190000  1.0 -0.3904390564
O  O139  1  0.19330000  0.66600000  0.80990000  1.0 -0.4415249427
O  O140  1  0.60320000  0.82620000  0.67820000  1.0 -0.4765071092
O  O141  1  0.39340000  0.86210000  0.83740000  1.0 -0.4185132259
O  O142  1  0.39690000  0.82650000  0.67940000  1.0 -0.4415249427
O  O143  1  0.45960000  0.82620000  0.68600000  1.0 -0.4113079538
O  O144  1  0.53960000  0.82630000  0.68630000  1.0 -0.3984012385
