# DDEC6 charges by PACMAN v1.1 (https://github.com/mtap-research/PACMAN-charge/)
data_WISKOA_FSR_pacman
_symmetry_space_group_name_H-M   'P 1'
_cell_length_a   11.57140000
_cell_length_b   11.70150000
_cell_length_c   11.83990000
_cell_angle_alpha   65.11800000
_cell_angle_beta   78.61600000
_cell_angle_gamma   71.98500000
_symmetry_Int_Tables_number   1
_chemical_formula_structural   Co3H36C46(N5O4)2
_chemical_formula_sum   'Co3 H36 C46 N10 O8'
_cell_volume   1378.83589914
_cell_formula_units_Z   1
loop_
 _symmetry_equiv_pos_site_id
 _symmetry_equiv_pos_as_xyz
  1  'x, y, z'
loop_
 _atom_site_type_symbol
 _atom_site_label
 _atom_site_symmetry_multiplicity
 _atom_site_fract_x
 _atom_site_fract_y
 _atom_site_fract_z
 _atom_site_occupancy
 _atom_site_charge
Co  Co1  1  0.00000000  0.00000000  0.00000000  1.0 0.7014616729
Co  Co2  1  0.00000000  0.50000000  0.50000000  1.0 0.693013251
Co  Co3  1  0.00000000  0.50000000  0.00000000  1.0 0.9106950762
H  H1  1  0.79330000  0.03340000  0.26640000  1.0 0.1098578388
H  H2  1  0.20670000  0.96660000  0.73360000  1.0 0.1098578388
H  H3  1  0.76880000  0.97490000  0.41210000  1.0 0.1007165456
H  H4  1  0.23120000  0.02510000  0.58790000  1.0 0.1007165456
H  H5  1  0.74520000  0.90750000  0.33220000  1.0 0.1007165456
H  H6  1  0.25480000  0.09250000  0.66780000  1.0 0.1007165456
H  H7  1  0.73690000  0.67330000  0.49210000  1.0 0.0897855924
H  H8  1  0.26310000  0.32670000  0.50790000  1.0 0.0897855924
H  H9  1  0.53760000  0.68230000  0.48840000  1.0 0.1372508371
H  H10  1  0.46240000  0.31770000  0.51160000  1.0 0.1372508371
H  H11  1  0.64280000  0.31970000  0.50660000  1.0 0.1372508371
H  H12  1  0.35720000  0.68030000  0.49340000  1.0 0.1372508371
H  H13  1  0.83910000  0.32270000  0.50800000  1.0 0.1193916998
H  H14  1  0.16090000  0.67730000  0.49200000  1.0 0.1193916998
H  H15  1  0.77460000  0.50080000  0.19360000  1.0 0.1098578388
H  H16  1  0.22540000  0.49920000  0.80640000  1.0 0.1098578388
H  H17  1  0.57550000  0.61400000  0.20950000  1.0 0.1260573866
H  H18  1  0.42450000  0.38600000  0.79050000  1.0 0.1260573866
H  H19  1  0.63940000  0.89310000  0.88320000  1.0 0.1372508371
H  H20  1  0.36060000  0.10690000  0.11680000  1.0 0.1372508371
H  H21  1  0.83540000  0.77180000  0.87620000  1.0 0.1193916998
H  H22  1  0.16460000  0.22820000  0.12380000  1.0 0.1193916998
H  H23  1  0.19260000  0.83280000  0.20880000  1.0 0.1098578388
H  H24  1  0.80740000  0.16720000  0.79120000  1.0 0.1098578388
H  H25  1  0.39620000  0.73780000  0.22170000  1.0 0.1193916998
H  H26  1  0.60380000  0.26220000  0.77830000  1.0 0.1193916998
H  H27  1  0.44970000  0.96370000  0.86740000  1.0 0.1372508371
H  H28  1  0.55030000  0.03630000  0.13260000  1.0 0.1372508371
H  H29  1  0.24550000  0.05540000  0.86670000  1.0 0.0897855924
H  H30  1  0.75450000  0.94460000  0.13330000  1.0 0.0897855924
H  H31  1  0.79490000  0.80230000  0.48650000  1.0 0.1007165456
H  H32  1  0.20510000  0.19770000  0.51350000  1.0 0.1007165456
H  H33  1  0.74290000  0.88810000  0.35560000  1.0 0.1007165456
H  H34  1  0.25710000  0.11190000  0.64440000  1.0 0.1007165456
H  H35  1  0.76950000  0.95430000  0.43510000  1.0 0.1007165456
H  H36  1  0.23050000  0.04570000  0.56490000  1.0 0.1007165456
C  C1  1  0.03400000  0.47380000  0.26400000  1.0 0.5469811858
C  C2  1  0.96600000  0.52620000  0.73600000  1.0 0.5469811858
C  C3  1  0.01140000  0.61600000  0.23100000  1.0 -0.0228872787
C  C4  1  0.98860000  0.38400000  0.76900000  1.0 -0.0228872787
C  C5  1  0.01270000  0.72490000  0.12180000  1.0 -0.0228872787
C  C6  1  0.98730000  0.27510000  0.87820000  1.0 -0.0228872787
C  C7  1  0.04820000  0.74580000  0.98810000  1.0 0.5469811858
C  C8  1  0.95180000  0.25420000  0.01190000  1.0 0.5469811858
C  C9  1  0.96260000  0.78620000  0.27790000  1.0 0.2568936051
C  C10  1  0.03740000  0.21380000  0.72210000  1.0 0.2568936051
C  C11  1  0.92630000  0.87110000  0.35080000  1.0 0.0616804102
C  C12  1  0.07370000  0.12890000  0.64920000  1.0 0.0616804102
C  C13  1  0.79660000  0.95430000  0.33930000  1.0 -0.2449697403
C  C14  1  0.20340000  0.04570000  0.66070000  1.0 -0.2478284884
C  C15  1  0.71800000  0.59970000  0.49660000  1.0 0.0616804102
C  C16  1  0.28200000  0.40030000  0.50340000  1.0 0.0616804102
C  C17  1  0.59740000  0.60600000  0.49440000  1.0 -0.2166924475
C  C18  1  0.40260000  0.39400000  0.50560000  1.0 -0.2166924475
C  C19  1  0.56540000  0.49870000  0.50100000  1.0 0.0846565963
C  C20  1  0.43460000  0.50130000  0.49900000  1.0 0.0846565963
C  C21  1  0.65840000  0.39380000  0.50480000  1.0 -0.2083216084
C  C22  1  0.34160000  0.60620000  0.49520000  1.0 -0.2083216084
C  C23  1  0.77720000  0.39640000  0.50610000  1.0 0.0681301394
C  C24  1  0.22280000  0.60360000  0.49390000  1.0 0.0681301394
C  C25  1  0.74630000  0.57980000  0.12880000  1.0 0.0897855924
C  C26  1  0.25370000  0.42020000  0.87120000  1.0 0.0897855924
C  C27  1  0.62590000  0.64750000  0.13900000  1.0 -0.2083216084
C  C28  1  0.37410000  0.35250000  0.86100000  1.0 -0.2083216084
C  C29  1  0.58050000  0.76550000  0.04410000  1.0 0.1098578388
C  C30  1  0.41950000  0.23450000  0.95590000  1.0 0.1098578388
C  C31  1  0.66350000  0.81190000  0.94680000  1.0 -0.1992891554
C  C32  1  0.33650000  0.18810000  0.05320000  1.0 -0.1992891554
C  C33  1  0.78180000  0.73830000  0.94340000  1.0 0.0897855924
C  C34  1  0.21820000  0.26170000  0.05660000  1.0 0.0897855924
C  C35  1  0.24460000  0.85840000  0.13740000  1.0 0.0681301394
C  C36  1  0.75540000  0.14160000  0.86260000  1.0 0.0681301394
C  C37  1  0.36800000  0.80050000  0.14580000  1.0 -0.1992891554
C  C38  1  0.63200000  0.19950000  0.85420000  1.0 -0.1992891554
C  C39  1  0.44900000  0.83410000  0.04420000  1.0 0.0897855924
C  C40  1  0.55100000  0.16590000  0.95580000  1.0 0.0897855924
C  C41  1  0.39940000  0.93290000  0.93900000  1.0 -0.1992891554
C  C42  1  0.60060000  0.06710000  0.06100000  1.0 -0.1992891554
C  C43  1  0.27560000  0.98670000  0.93890000  1.0 0.0616804102
C  C44  1  0.72440000  0.01330000  0.06110000  1.0 0.0616804102
C  C45  1  0.79600000  0.88000000  0.41300000  1.0 -0.2478284884
C  C46  1  0.20400000  0.12000000  0.58700000  1.0 -0.2478284884
N  N1  1  0.98160000  0.83200000  0.15250000  1.0 -0.3697174935
N  N2  1  0.01840000  0.16800000  0.84750000  1.0 -0.3697174935
N  N3  1  0.97990000  0.65670000  0.32880000  1.0 -0.3697174935
N  N4  1  0.02010000  0.34330000  0.67120000  1.0 -0.3697174935
N  N5  1  0.80810000  0.49520000  0.50480000  1.0 -0.2296232878
N  N6  1  0.19190000  0.50480000  0.49520000  1.0 -0.2296232878
N  N7  1  0.82330000  0.62210000  0.03110000  1.0 -0.2449697403
N  N8  1  0.17670000  0.37790000  0.96890000  1.0 -0.2449697403
N  N9  1  0.19670000  0.94730000  0.03470000  1.0 -0.2296232878
N  N10  1  0.80330000  0.05270000  0.96530000  1.0 -0.2296232878
O  O1  1  0.04640000  0.40190000  0.37780000  1.0 -0.5082843004
O  O2  1  0.95360000  0.59810000  0.62220000  1.0 -0.5082843004
O  O3  1  0.03830000  0.42790000  0.18430000  1.0 -0.5455189048
O  O4  1  0.96170000  0.57210000  0.81570000  1.0 -0.5455189048
O  O5  1  0.04940000  0.86090000  0.91580000  1.0 -0.5082843004
O  O6  1  0.95060000  0.13910000  0.08420000  1.0 -0.5082843004
O  O7  1  0.07800000  0.65280000  0.95220000  1.0 -0.5576328634
O  O8  1  0.92200000  0.34720000  0.04780000  1.0 -0.5576328634
