# DDEC6 charges by PACMAN v1.1 (https://github.com/mtap-research/PACMAN-charge/)
data_WISNAR_ASR_pacman
_symmetry_space_group_name_H-M   'P 1'
_cell_length_a   12.09890000
_cell_length_b   17.41700000
_cell_length_c   21.86440000
_cell_angle_alpha   90.00000000
_cell_angle_beta   90.00000000
_cell_angle_gamma   90.00000000
_symmetry_Int_Tables_number   1
_chemical_formula_structural   Zr3H34C47O13
_chemical_formula_sum   'Zr6 H68 C94 O26'
_cell_volume   4607.40938960
_cell_formula_units_Z   2
loop_
 _symmetry_equiv_pos_site_id
 _symmetry_equiv_pos_as_xyz
  1  'x, y, z'
loop_
 _atom_site_type_symbol
 _atom_site_label
 _atom_site_symmetry_multiplicity
 _atom_site_fract_x
 _atom_site_fract_y
 _atom_site_fract_z
 _atom_site_occupancy
 _atom_site_charge
Zr  Zr1  1  0.50000000  0.50000000  0.88815000  1.0 2.3211527244
Zr  Zr2  1  0.50000000  0.50000000  0.11185000  1.0 2.3211527244
Zr  Zr3  1  0.64559000  0.60175000  0.00000000  1.0 2.4774440305
Zr  Zr4  1  0.35441000  0.39825000  0.00000000  1.0 2.4774440305
Zr  Zr5  1  0.35441000  0.60175000  0.00000000  1.0 2.4774440305
Zr  Zr6  1  0.64559000  0.39825000  0.00000000  1.0 2.4774440305
H  H1  1  0.19390000  0.21895000  0.60202000  1.0 0.136045091
H  H2  1  0.80610000  0.78105000  0.60202000  1.0 0.136045091
H  H3  1  0.80610000  0.21895000  0.39798000  1.0 0.136045091
H  H4  1  0.19390000  0.78105000  0.39798000  1.0 0.136045091
H  H5  1  0.80610000  0.78105000  0.39798000  1.0 0.136045091
H  H6  1  0.19390000  0.21895000  0.39798000  1.0 0.136045091
H  H7  1  0.19390000  0.78105000  0.60202000  1.0 0.136045091
H  H8  1  0.80610000  0.21895000  0.60202000  1.0 0.136045091
H  H9  1  0.18530000  0.15328000  0.50000000  1.0 0.1103622408
H  H10  1  0.81470000  0.84672000  0.50000000  1.0 0.1103622408
H  H11  1  0.81470000  0.15328000  0.50000000  1.0 0.1103622408
H  H12  1  0.18530000  0.84672000  0.50000000  1.0 0.1103622408
H  H13  1  0.08230000  0.20417000  0.77100000  1.0 0.1103622408
H  H14  1  0.91770000  0.79583000  0.77100000  1.0 0.1103622408
H  H15  1  0.91770000  0.20417000  0.22900000  1.0 0.1103622408
H  H16  1  0.08230000  0.79583000  0.22900000  1.0 0.1103622408
H  H17  1  0.91770000  0.79583000  0.22900000  1.0 0.1103622408
H  H18  1  0.08230000  0.20417000  0.22900000  1.0 0.1103622408
H  H19  1  0.08230000  0.79583000  0.77100000  1.0 0.1103622408
H  H20  1  0.91770000  0.20417000  0.77100000  1.0 0.1103622408
H  H21  1  0.19169000  0.36972000  0.65821000  1.0 0.1176109687
H  H22  1  0.80831000  0.63028000  0.65821000  1.0 0.1176109687
H  H23  1  0.80831000  0.36972000  0.34179000  1.0 0.1176109687
H  H24  1  0.19169000  0.63028000  0.34179000  1.0 0.1176109687
H  H25  1  0.80831000  0.63028000  0.34179000  1.0 0.1176109687
H  H26  1  0.19169000  0.36972000  0.34179000  1.0 0.1176109687
H  H27  1  0.19169000  0.63028000  0.65821000  1.0 0.1176109687
H  H28  1  0.80831000  0.36972000  0.65821000  1.0 0.1176109687
H  H29  1  0.29661000  0.42095000  0.73709000  1.0 0.1176109687
H  H30  1  0.70339000  0.57905000  0.73709000  1.0 0.1176109687
H  H31  1  0.70339000  0.42095000  0.26291000  1.0 0.1176109687
H  H32  1  0.29661000  0.57905000  0.26291000  1.0 0.1176109687
H  H33  1  0.70339000  0.57905000  0.26291000  1.0 0.1176109687
H  H34  1  0.29661000  0.42095000  0.26291000  1.0 0.1176109687
H  H35  1  0.29661000  0.57905000  0.73709000  1.0 0.1176109687
H  H36  1  0.70339000  0.42095000  0.73709000  1.0 0.1176109687
H  H37  1  0.18722000  0.25540000  0.84988000  1.0 0.1103622408
H  H38  1  0.81278000  0.74460000  0.84988000  1.0 0.1103622408
H  H39  1  0.81278000  0.25540000  0.15012000  1.0 0.1103622408
H  H40  1  0.18722000  0.74460000  0.15012000  1.0 0.1103622408
H  H41  1  0.81278000  0.74460000  0.15012000  1.0 0.1103622408
H  H42  1  0.18722000  0.25540000  0.15012000  1.0 0.1103622408
H  H43  1  0.18722000  0.74460000  0.84988000  1.0 0.1103622408
H  H44  1  0.81278000  0.25540000  0.84988000  1.0 0.1103622408
H  H45  1  0.35045000  0.02460000  0.44728000  1.0 0.0633895734
H  H46  1  0.64955000  0.97540000  0.44728000  1.0 0.0633895734
H  H47  1  0.64955000  0.02460000  0.55272000  1.0 0.0633895734
H  H48  1  0.35045000  0.97540000  0.55272000  1.0 0.0633895734
H  H49  1  0.64955000  0.97540000  0.55272000  1.0 0.0633895734
H  H50  1  0.35045000  0.02460000  0.55272000  1.0 0.0633895734
H  H51  1  0.35045000  0.97540000  0.44728000  1.0 0.0633895734
H  H52  1  0.64955000  0.02460000  0.44728000  1.0 0.0633895734
H  H53  1  0.23442000  0.02734000  0.41545000  1.0 0.0633895734
H  H54  1  0.76558000  0.97266000  0.41545000  1.0 0.0633895734
H  H55  1  0.76558000  0.02734000  0.58455000  1.0 0.0633895734
H  H56  1  0.23442000  0.97266000  0.58455000  1.0 0.0633895734
H  H57  1  0.76558000  0.97266000  0.58455000  1.0 0.0633895734
H  H58  1  0.23442000  0.02734000  0.58455000  1.0 0.0633895734
H  H59  1  0.23442000  0.97266000  0.41545000  1.0 0.0633895734
H  H60  1  0.76558000  0.02734000  0.41545000  1.0 0.0633895734
H  H61  1  0.28937000  0.94806000  0.43053000  1.0 0.0528742933
H  H62  1  0.71063000  0.05194000  0.43053000  1.0 0.0528742933
H  H63  1  0.71063000  0.94806000  0.56947000  1.0 0.0528742933
H  H64  1  0.28937000  0.05194000  0.56947000  1.0 0.0528742933
H  H65  1  0.71063000  0.05194000  0.56947000  1.0 0.0528742933
H  H66  1  0.28937000  0.94806000  0.56947000  1.0 0.0528742933
H  H67  1  0.28937000  0.05194000  0.43053000  1.0 0.0528742933
H  H68  1  0.71063000  0.94806000  0.43053000  1.0 0.0528742933
C  C1  1  0.11470000  0.00000000  0.50000000  1.0 0.0528742933
C  C2  1  0.88530000  0.00000000  0.50000000  1.0 0.0528742933
C  C3  1  0.05980000  0.06890000  0.50000000  1.0 -0.0884736096
C  C4  1  0.94020000  0.93110000  0.50000000  1.0 -0.0884736096
C  C5  1  0.94020000  0.06890000  0.50000000  1.0 -0.0884736096
C  C6  1  0.05980000  0.93110000  0.50000000  1.0 -0.0884736096
C  C7  1  0.05500000  0.18830000  0.55580000  1.0 0.0295296559
C  C8  1  0.94500000  0.81170000  0.55580000  1.0 0.0295296559
C  C9  1  0.94500000  0.18830000  0.44420000  1.0 0.0295296559
C  C10  1  0.05500000  0.81170000  0.44420000  1.0 0.0295296559
C  C11  1  0.94500000  0.81170000  0.44420000  1.0 0.0295296559
C  C12  1  0.05500000  0.18830000  0.44420000  1.0 0.0295296559
C  C13  1  0.05500000  0.81170000  0.55580000  1.0 0.0295296559
C  C14  1  0.94500000  0.18830000  0.55580000  1.0 0.0295296559
C  C15  1  0.11710000  0.21850000  0.60340000  1.0 -0.209619807
C  C16  1  0.88290000  0.78150000  0.60340000  1.0 -0.209619807
C  C17  1  0.88290000  0.21850000  0.39660000  1.0 -0.209619807
C  C18  1  0.11710000  0.78150000  0.39660000  1.0 -0.209619807
C  C19  1  0.88290000  0.78150000  0.39660000  1.0 -0.209619807
C  C20  1  0.11710000  0.21850000  0.39660000  1.0 -0.209619807
C  C21  1  0.11710000  0.78150000  0.60340000  1.0 -0.209619807
C  C22  1  0.88290000  0.21850000  0.60340000  1.0 -0.209619807
C  C23  1  0.10430000  0.15140000  0.50000000  1.0 -0.0884736096
C  C24  1  0.89570000  0.84860000  0.50000000  1.0 -0.0884736096
C  C25  1  0.89570000  0.15140000  0.50000000  1.0 -0.0884736096
C  C26  1  0.10430000  0.84860000  0.50000000  1.0 -0.0884736096
C  C27  1  0.05850000  0.24890000  0.65450000  1.0 0.0171735008
C  C28  1  0.94150000  0.75110000  0.65450000  1.0 0.0171735008
C  C29  1  0.94150000  0.24890000  0.34550000  1.0 0.0171735008
C  C30  1  0.05850000  0.75110000  0.34550000  1.0 0.0171735008
C  C31  1  0.94150000  0.75110000  0.34550000  1.0 0.0171735008
C  C32  1  0.05850000  0.24890000  0.34550000  1.0 0.0171735008
C  C33  1  0.05850000  0.75110000  0.65450000  1.0 0.0171735008
C  C34  1  0.94150000  0.24890000  0.65450000  1.0 0.0171735008
C  C35  1  0.31910000  0.38120000  0.85150000  1.0 0.6137875841
C  C36  1  0.68090000  0.61880000  0.85150000  1.0 0.6137875841
C  C37  1  0.68090000  0.38120000  0.14850000  1.0 0.6137875841
C  C38  1  0.31910000  0.61880000  0.14850000  1.0 0.6137875841
C  C39  1  0.68090000  0.61880000  0.14850000  1.0 0.6137875841
C  C40  1  0.31910000  0.38120000  0.14850000  1.0 0.6137875841
C  C41  1  0.31910000  0.61880000  0.85150000  1.0 0.6137875841
C  C42  1  0.68090000  0.38120000  0.85150000  1.0 0.6137875841
C  C43  1  0.12530000  0.24760000  0.76420000  1.0 -0.1686607803
C  C44  1  0.87470000  0.75240000  0.76420000  1.0 -0.1686607803
C  C45  1  0.87470000  0.24760000  0.23580000  1.0 -0.1686607803
C  C46  1  0.12530000  0.75240000  0.23580000  1.0 -0.1686607803
C  C47  1  0.87470000  0.75240000  0.23580000  1.0 -0.1686607803
C  C48  1  0.12530000  0.24760000  0.23580000  1.0 -0.1686607803
C  C49  1  0.12530000  0.75240000  0.76420000  1.0 -0.1686607803
C  C50  1  0.87470000  0.24760000  0.76420000  1.0 -0.1686607803
C  C51  1  0.12660000  0.28190000  0.70680000  1.0 0.0657944411
C  C52  1  0.87340000  0.71810000  0.70680000  1.0 0.0657944411
C  C53  1  0.87340000  0.28190000  0.29320000  1.0 0.0657944411
C  C54  1  0.12660000  0.71810000  0.29320000  1.0 0.0657944411
C  C55  1  0.87340000  0.71810000  0.29320000  1.0 0.0657944411
C  C56  1  0.12660000  0.28190000  0.29320000  1.0 0.0657944411
C  C57  1  0.12660000  0.71810000  0.70680000  1.0 0.0657944411
C  C58  1  0.87340000  0.28190000  0.70680000  1.0 0.0657944411
C  C59  1  0.19080000  0.34680000  0.69660000  1.0 -0.1686607803
C  C60  1  0.80920000  0.65320000  0.69660000  1.0 -0.1686607803
C  C61  1  0.80920000  0.34680000  0.30340000  1.0 -0.1686607803
C  C62  1  0.19080000  0.65320000  0.30340000  1.0 -0.1686607803
C  C63  1  0.80920000  0.65320000  0.30340000  1.0 -0.1686607803
C  C64  1  0.19080000  0.34680000  0.30340000  1.0 -0.1686607803
C  C65  1  0.19080000  0.65320000  0.69660000  1.0 -0.1686607803
C  C66  1  0.80920000  0.34680000  0.69660000  1.0 -0.1686607803
C  C67  1  0.25370000  0.37750000  0.74390000  1.0 -0.0978587194
C  C68  1  0.74630000  0.62250000  0.74390000  1.0 -0.0978587194
C  C69  1  0.74630000  0.37750000  0.25610000  1.0 -0.0978587194
C  C70  1  0.25370000  0.62250000  0.25610000  1.0 -0.0978587194
C  C71  1  0.74630000  0.62250000  0.25610000  1.0 -0.0978587194
C  C72  1  0.25370000  0.37750000  0.25610000  1.0 -0.0978587194
C  C73  1  0.25370000  0.62250000  0.74390000  1.0 -0.0978587194
C  C74  1  0.74630000  0.37750000  0.74390000  1.0 -0.0978587194
C  C75  1  0.25230000  0.34330000  0.80130000  1.0 -0.0275831659
C  C76  1  0.74770000  0.65670000  0.80130000  1.0 -0.0275831659
C  C77  1  0.74770000  0.34330000  0.19870000  1.0 -0.0275831659
C  C78  1  0.25230000  0.65670000  0.19870000  1.0 -0.0275831659
C  C79  1  0.74770000  0.65670000  0.19870000  1.0 -0.0275831659
C  C80  1  0.25230000  0.34330000  0.19870000  1.0 -0.0275831659
C  C81  1  0.25230000  0.65670000  0.80130000  1.0 -0.0275831659
C  C82  1  0.74770000  0.34330000  0.80130000  1.0 -0.0275831659
C  C83  1  0.18810000  0.27830000  0.81150000  1.0 -0.0978587194
C  C84  1  0.81190000  0.72170000  0.81150000  1.0 -0.0978587194
C  C85  1  0.81190000  0.27830000  0.18850000  1.0 -0.0978587194
C  C86  1  0.18810000  0.72170000  0.18850000  1.0 -0.0978587194
C  C87  1  0.81190000  0.72170000  0.18850000  1.0 -0.0978587194
C  C88  1  0.18810000  0.27830000  0.18850000  1.0 -0.0978587194
C  C89  1  0.18810000  0.72170000  0.81150000  1.0 -0.0978587194
C  C90  1  0.81190000  0.27830000  0.81150000  1.0 -0.0978587194
C  C91  1  0.28000000  0.00000000  0.44420000  1.0 -0.2704905494
C  C92  1  0.72000000  0.00000000  0.44420000  1.0 -0.2704905494
C  C93  1  0.72000000  0.00000000  0.55580000  1.0 -0.2704905494
C  C94  1  0.28000000  0.00000000  0.55580000  1.0 -0.2704905494
O  O1  1  0.64680000  0.50000000  0.94200000  1.0 -1.2186482771
O  O2  1  0.35320000  0.50000000  0.94200000  1.0 -1.2186482771
O  O3  1  0.35320000  0.50000000  0.05800000  1.0 -1.2186482771
O  O4  1  0.64680000  0.50000000  0.05800000  1.0 -1.2186482771
O  O5  1  0.50000000  0.60970000  0.94550000  1.0 -1.2186482771
O  O6  1  0.50000000  0.39030000  0.94550000  1.0 -1.2186482771
O  O7  1  0.50000000  0.60970000  0.05450000  1.0 -1.2186482771
O  O8  1  0.50000000  0.39030000  0.05450000  1.0 -1.2186482771
O  O9  1  0.22970000  0.00000000  0.50000000  1.0 0.0017106702
O  O10  1  0.77030000  0.00000000  0.50000000  1.0 0.0017106702
O  O11  1  0.39200000  0.42250000  0.83590000  1.0 -0.5381750687
O  O12  1  0.60800000  0.57750000  0.83590000  1.0 -0.5381750687
O  O13  1  0.60800000  0.42250000  0.16410000  1.0 -0.5381750687
O  O14  1  0.39200000  0.57750000  0.16410000  1.0 -0.5381750687
O  O15  1  0.60800000  0.57750000  0.16410000  1.0 -0.5381750687
O  O16  1  0.39200000  0.42250000  0.16410000  1.0 -0.5381750687
O  O17  1  0.39200000  0.57750000  0.83590000  1.0 -0.5381750687
O  O18  1  0.60800000  0.42250000  0.83590000  1.0 -0.5381750687
O  O19  1  0.29100000  0.35780000  0.90610000  1.0 -0.6346842273
O  O20  1  0.70900000  0.64220000  0.90610000  1.0 -0.6358812674
O  O21  1  0.70900000  0.35780000  0.09390000  1.0 -0.6346842273
O  O22  1  0.29100000  0.64220000  0.09390000  1.0 -0.6346842273
O  O23  1  0.70900000  0.64220000  0.09390000  1.0 -0.6346842273
O  O24  1  0.29100000  0.35780000  0.09390000  1.0 -0.6346842273
O  O25  1  0.29100000  0.64220000  0.90610000  1.0 -0.6358812674
O  O26  1  0.70900000  0.35780000  0.90610000  1.0 -0.6346842273
