# DDEC6 charges by PACMAN v1.1 (https://github.com/mtap-research/PACMAN-charge/)
data_WISVEB_ASR_pacman
_symmetry_space_group_name_H-M   'P 1'
_cell_length_a   14.31900000
_cell_length_b   14.49000000
_cell_length_c   22.59800000
_cell_angle_alpha   90.00000000
_cell_angle_beta   98.21000000
_cell_angle_gamma   90.00000000
_symmetry_Int_Tables_number   1
_chemical_formula_structural   CdH3C8NO4
_chemical_formula_sum   'Cd8 H24 C64 N8 O32'
_cell_volume   4640.63241792
_cell_formula_units_Z   8
loop_
 _symmetry_equiv_pos_site_id
 _symmetry_equiv_pos_as_xyz
  1  'x, y, z'
loop_
 _atom_site_type_symbol
 _atom_site_label
 _atom_site_symmetry_multiplicity
 _atom_site_fract_x
 _atom_site_fract_y
 _atom_site_fract_z
 _atom_site_occupancy
 _atom_site_charge
Cd  Cd1  1  0.17877000  0.36744000  0.36001000  1.0 1.1078691077
Cd  Cd2  1  0.82123000  0.86744000  0.13999000  1.0 1.1078691077
Cd  Cd3  1  0.82123000  0.63256000  0.63999000  1.0 1.1028421711
Cd  Cd4  1  0.17877000  0.13256000  0.86001000  1.0 1.1028421711
Cd  Cd5  1  0.25586000  0.24923000  0.24117000  1.0 0.9865274024
Cd  Cd6  1  0.74414000  0.74923000  0.25883000  1.0 0.9865274024
Cd  Cd7  1  0.74414000  0.75077000  0.75883000  1.0 0.9865274024
Cd  Cd8  1  0.25586000  0.25077000  0.74117000  1.0 0.9865274024
H  H1  1  0.07460000  0.41670000  0.09580000  1.0 0.1230268706
H  H2  1  0.92540000  0.91670000  0.40420000  1.0 0.1230268706
H  H3  1  0.92540000  0.58330000  0.90420000  1.0 0.1230268706
H  H4  1  0.07460000  0.08330000  0.59580000  1.0 0.1230268706
H  H5  1  0.98480000  0.52410000  0.24010000  1.0 0.130484777
H  H6  1  0.01520000  0.02410000  0.25990000  1.0 0.130484777
H  H7  1  0.01520000  0.47590000  0.75990000  1.0 0.130484777
H  H8  1  0.98480000  0.97590000  0.74010000  1.0 0.130484777
H  H9  1  0.88910000  0.62450000  0.07800000  1.0 0.130484777
H  H10  1  0.11090000  0.12450000  0.42200000  1.0 0.130484777
H  H11  1  0.11090000  0.37550000  0.92200000  1.0 0.130484777
H  H12  1  0.88910000  0.87550000  0.57800000  1.0 0.130484777
H  H13  1  0.40180000  0.42610000  0.40860000  1.0 0.1037798938
H  H14  1  0.59820000  0.92610000  0.09140000  1.0 0.1037798938
H  H15  1  0.59820000  0.57390000  0.59140000  1.0 0.1037798938
H  H16  1  0.40180000  0.07390000  0.90860000  1.0 0.1037798938
H  H17  1  0.49880000  0.50660000  0.25840000  1.0 0.130484777
H  H18  1  0.50120000  0.00660000  0.24160000  1.0 0.130484777
H  H19  1  0.50120000  0.49340000  0.74160000  1.0 0.130484777
H  H20  1  0.49880000  0.99340000  0.75840000  1.0 0.130484777
H  H21  1  0.61010000  0.61410000  0.41670000  1.0 0.130484777
H  H22  1  0.38990000  0.11410000  0.08330000  1.0 0.130484777
H  H23  1  0.38990000  0.38590000  0.58330000  1.0 0.130484777
H  H24  1  0.61010000  0.88590000  0.91670000  1.0 0.130484777
C  C1  1  0.98170000  0.52180000  0.07650000  1.0 0.1503014734
C  C2  1  0.01830000  0.02180000  0.42350000  1.0 0.1446398538
C  C3  1  0.01830000  0.47820000  0.92350000  1.0 0.1503014734
C  C4  1  0.98170000  0.97820000  0.57650000  1.0 0.1503014734
C  C5  1  0.03850000  0.45970000  0.11303000  1.0 -0.1482269842
C  C6  1  0.96150000  0.95970000  0.38697000  1.0 -0.1482269842
C  C7  1  0.96150000  0.54030000  0.88697000  1.0 -0.1482269842
C  C8  1  0.03850000  0.04030000  0.61303000  1.0 -0.1482269842
C  C9  1  0.04160000  0.46140000  0.17422000  1.0 -0.0277229208
C  C10  1  0.95840000  0.96140000  0.32578000  1.0 -0.0277229208
C  C11  1  0.95840000  0.53860000  0.82578000  1.0 -0.0277229208
C  C12  1  0.04160000  0.03860000  0.67422000  1.0 -0.0277229208
C  C13  1  0.98500000  0.52370000  0.19898000  1.0 -0.0817236735
C  C14  1  0.01500000  0.02370000  0.30102000  1.0 -0.0817236735
C  C15  1  0.01500000  0.47630000  0.80102000  1.0 -0.0817236735
C  C16  1  0.98500000  0.97630000  0.69898000  1.0 -0.0817236735
C  C17  1  0.92860000  0.58540000  0.16320000  1.0 -0.0277229208
C  C18  1  0.07140000  0.08540000  0.33680000  1.0 -0.0277229208
C  C19  1  0.07140000  0.41460000  0.83680000  1.0 -0.0277229208
C  C20  1  0.92860000  0.91460000  0.66320000  1.0 -0.0277229208
C  C21  1  0.92730000  0.58350000  0.10200000  1.0 -0.1432576904
C  C22  1  0.07270000  0.08350000  0.39800000  1.0 -0.1432576904
C  C23  1  0.07270000  0.41650000  0.89800000  1.0 -0.1432576904
C  C24  1  0.92730000  0.91650000  0.60200000  1.0 -0.1432576904
C  C25  1  0.10540000  0.39680000  0.21310000  1.0 0.5914160055
C  C26  1  0.89460000  0.89680000  0.28690000  1.0 0.5914160055
C  C27  1  0.89460000  0.60320000  0.78690000  1.0 0.5914160055
C  C28  1  0.10540000  0.10320000  0.71310000  1.0 0.5914160055
C  C29  1  0.86560000  0.65160000  0.18970000  1.0 0.583937366
C  C30  1  0.13440000  0.15160000  0.31030000  1.0 0.583937366
C  C31  1  0.13440000  0.34840000  0.81030000  1.0 0.583937366
C  C32  1  0.86560000  0.84840000  0.68970000  1.0 0.583937366
C  C33  1  0.50710000  0.52060000  0.42230000  1.0 0.1503014734
C  C34  1  0.49290000  0.02060000  0.07770000  1.0 0.1503014734
C  C35  1  0.49290000  0.47940000  0.57770000  1.0 0.1503014734
C  C36  1  0.50710000  0.97940000  0.92230000  1.0 0.1503014734
C  C37  1  0.44280000  0.46140000  0.38950000  1.0 -0.1590676735
C  C38  1  0.55720000  0.96140000  0.11050000  1.0 -0.1654827404
C  C39  1  0.55720000  0.53860000  0.61050000  1.0 -0.1590676735
C  C40  1  0.44280000  0.03860000  0.88950000  1.0 -0.1590676735
C  C41  1  0.44060000  0.45590000  0.32830000  1.0 -0.0080238771
C  C42  1  0.55940000  0.95590000  0.17170000  1.0 -0.0080238771
C  C43  1  0.55940000  0.54410000  0.67170000  1.0 -0.0080238771
C  C44  1  0.44060000  0.04410000  0.82830000  1.0 -0.0080238771
C  C45  1  0.50090000  0.51030000  0.29970000  1.0 -0.085277963
C  C46  1  0.49910000  0.01030000  0.20030000  1.0 -0.085277963
C  C47  1  0.49910000  0.48970000  0.70030000  1.0 -0.0817236735
C  C48  1  0.50090000  0.98970000  0.79970000  1.0 -0.0817236735
C  C49  1  0.56410000  0.57000000  0.33270000  1.0 -0.0080238771
C  C50  1  0.43590000  0.07000000  0.16730000  1.0 -0.0080238771
C  C51  1  0.43590000  0.43000000  0.66730000  1.0 -0.0080238771
C  C52  1  0.56410000  0.93000000  0.83270000  1.0 -0.0080238771
C  C53  1  0.56750000  0.57480000  0.39430000  1.0 -0.1590676735
C  C54  1  0.43250000  0.07480000  0.10570000  1.0 -0.1590676735
C  C55  1  0.43250000  0.42520000  0.60570000  1.0 -0.1590676735
C  C56  1  0.56750000  0.92520000  0.89430000  1.0 -0.1590676735
C  C57  1  0.37460000  0.38930000  0.29180000  1.0 0.5721036982
C  C58  1  0.62540000  0.88930000  0.20820000  1.0 0.5721036982
C  C59  1  0.62540000  0.61070000  0.70820000  1.0 0.5721036982
C  C60  1  0.37460000  0.11070000  0.79180000  1.0 0.5721036982
C  C61  1  0.63030000  0.63000000  0.30300000  1.0 0.5327805173
C  C62  1  0.36970000  0.13000000  0.19700000  1.0 0.5327805173
C  C63  1  0.36970000  0.37000000  0.69700000  1.0 0.5327805173
C  C64  1  0.63030000  0.87000000  0.80300000  1.0 0.5327805173
N  N1  1  0.97150000  0.52310000  0.01223000  1.0 -0.1269646152
N  N2  1  0.02850000  0.02310000  0.48777000  1.0 -0.1269646152
N  N3  1  0.02850000  0.47690000  0.98777000  1.0 -0.1269646152
N  N4  1  0.97150000  0.97690000  0.51223000  1.0 -0.1269646152
N  N5  1  0.51460000  0.53290000  0.48556000  1.0 -0.1482269842
N  N6  1  0.48540000  0.03290000  0.01444000  1.0 -0.1432576904
N  N7  1  0.48540000  0.46710000  0.51444000  1.0 -0.1432576904
N  N8  1  0.51460000  0.96710000  0.98556000  1.0 -0.1432576904
O  O1  1  0.10270000  0.40120000  0.26796000  1.0 -0.5898809391
O  O2  1  0.89730000  0.90120000  0.23204000  1.0 -0.5898809391
O  O3  1  0.89730000  0.59880000  0.73204000  1.0 -0.5898809391
O  O4  1  0.10270000  0.09880000  0.76796000  1.0 -0.5898809391
O  O5  1  0.15250000  0.34200000  0.18746000  1.0 -0.5096282445
O  O6  1  0.84750000  0.84200000  0.31254000  1.0 -0.5096282445
O  O7  1  0.84750000  0.65800000  0.81254000  1.0 -0.5096282445
O  O8  1  0.15250000  0.15800000  0.68746000  1.0 -0.5096282445
O  O9  1  0.85750000  0.64370000  0.24400000  1.0 -0.5096282445
O  O10  1  0.14250000  0.14370000  0.25600000  1.0 -0.5096282445
O  O11  1  0.14250000  0.35630000  0.75600000  1.0 -0.5096282445
O  O12  1  0.85750000  0.85630000  0.74400000  1.0 -0.5096282445
O  O13  1  0.82230000  0.71160000  0.15596000  1.0 -0.6009098697
O  O14  1  0.17770000  0.21160000  0.34404000  1.0 -0.6009098697
O  O15  1  0.17770000  0.28840000  0.84404000  1.0 -0.6009098697
O  O16  1  0.82230000  0.78840000  0.65596000  1.0 -0.6009098697
O  O17  1  0.31550000  0.34480000  0.31865000  1.0 -0.6117299456
O  O18  1  0.68450000  0.84480000  0.18135000  1.0 -0.6117299456
O  O19  1  0.68450000  0.65520000  0.68135000  1.0 -0.6117299456
O  O20  1  0.31550000  0.15520000  0.81865000  1.0 -0.6117299456
O  O21  1  0.38000000  0.37540000  0.23870000  1.0 -0.4710747111
O  O22  1  0.62000000  0.87540000  0.26130000  1.0 -0.4710747111
O  O23  1  0.62000000  0.62460000  0.76130000  1.0 -0.4710747111
O  O24  1  0.38000000  0.12460000  0.73870000  1.0 -0.4710747111
O  O25  1  0.62180000  0.63220000  0.24774000  1.0 -0.5096282445
O  O26  1  0.37820000  0.13220000  0.25226000  1.0 -0.5096282445
O  O27  1  0.37820000  0.36780000  0.75226000  1.0 -0.5096282445
O  O28  1  0.62180000  0.86780000  0.74774000  1.0 -0.5096282445
O  O29  1  0.68830000  0.67750000  0.33556000  1.0 -0.4981673393
O  O30  1  0.31170000  0.17750000  0.16444000  1.0 -0.4981673393
O  O31  1  0.31170000  0.32250000  0.66444000  1.0 -0.4981673393
O  O32  1  0.68830000  0.82250000  0.83556000  1.0 -0.4981673393
