# DDEC6 charges by PACMAN v1.1 (https://github.com/mtap-research/PACMAN-charge/)
data_WISVEB_FSR_pacman
_symmetry_space_group_name_H-M   'P 1'
_cell_length_a   14.31900000
_cell_length_b   14.49000000
_cell_length_c   22.59800000
_cell_angle_alpha   90.00000000
_cell_angle_beta   98.21000000
_cell_angle_gamma   90.00000000
_symmetry_Int_Tables_number   1
_chemical_formula_structural   Cd2H26C24N4O11
_chemical_formula_sum   'Cd8 H104 C96 N16 O44'
_cell_volume   4640.63241792
_cell_formula_units_Z   4
loop_
 _symmetry_equiv_pos_site_id
 _symmetry_equiv_pos_as_xyz
  1  'x, y, z'
loop_
 _atom_site_type_symbol
 _atom_site_label
 _atom_site_symmetry_multiplicity
 _atom_site_fract_x
 _atom_site_fract_y
 _atom_site_fract_z
 _atom_site_occupancy
 _atom_site_charge
Cd  Cd1  1  0.17877000  0.36744000  0.36001000  1.0 1.0717597392
Cd  Cd2  1  0.82123000  0.86744000  0.13999000  1.0 1.0717597392
Cd  Cd3  1  0.82123000  0.63256000  0.63999000  1.0 1.0717597392
Cd  Cd4  1  0.17877000  0.13256000  0.86001000  1.0 1.0717597392
Cd  Cd5  1  0.25586000  0.24923000  0.24117000  1.0 0.9481555011
Cd  Cd6  1  0.74414000  0.74923000  0.25883000  1.0 0.9481555011
Cd  Cd7  1  0.74414000  0.75077000  0.75883000  1.0 0.9481555011
Cd  Cd8  1  0.25586000  0.25077000  0.74117000  1.0 0.9481555011
H  H1  1  0.07460000  0.41670000  0.09580000  1.0 0.1312539961
H  H2  1  0.92540000  0.91670000  0.40420000  1.0 0.1312539961
H  H3  1  0.92540000  0.58330000  0.90420000  1.0 0.1312539961
H  H4  1  0.07460000  0.08330000  0.59580000  1.0 0.1312539961
H  H5  1  0.98480000  0.52410000  0.24010000  1.0 0.1312539961
H  H6  1  0.01520000  0.02410000  0.25990000  1.0 0.1312539961
H  H7  1  0.01520000  0.47590000  0.75990000  1.0 0.1312539961
H  H8  1  0.98480000  0.97590000  0.74010000  1.0 0.1312539961
H  H9  1  0.88910000  0.62450000  0.07800000  1.0 0.1312539961
H  H10  1  0.11090000  0.12450000  0.42200000  1.0 0.1312539961
H  H11  1  0.11090000  0.37550000  0.92200000  1.0 0.1312539961
H  H12  1  0.88910000  0.87550000  0.57800000  1.0 0.1312539961
H  H13  1  0.40180000  0.42610000  0.40860000  1.0 0.1351548206
H  H14  1  0.59820000  0.92610000  0.09140000  1.0 0.1312539961
H  H15  1  0.59820000  0.57390000  0.59140000  1.0 0.1312539961
H  H16  1  0.40180000  0.07390000  0.90860000  1.0 0.1351548206
H  H17  1  0.49880000  0.50660000  0.25840000  1.0 0.1351548206
H  H18  1  0.50120000  0.00660000  0.24160000  1.0 0.1351548206
H  H19  1  0.50120000  0.49340000  0.74160000  1.0 0.1351548206
H  H20  1  0.49880000  0.99340000  0.75840000  1.0 0.1351548206
H  H21  1  0.61010000  0.61410000  0.41670000  1.0 0.1351548206
H  H22  1  0.38990000  0.11410000  0.08330000  1.0 0.1312539961
H  H23  1  0.38990000  0.38590000  0.58330000  1.0 0.1351548206
H  H24  1  0.61010000  0.88590000  0.91670000  1.0 0.1312539961
H  H25  1  0.01840000  0.59890000  0.41000000  1.0 0.1615701981
H  H26  1  0.98160000  0.09890000  0.09000000  1.0 0.1615701981
H  H27  1  0.98160000  0.40110000  0.59000000  1.0 0.1615701981
H  H28  1  0.01840000  0.90110000  0.91000000  1.0 0.1615701981
H  H29  1  0.98850000  0.56080000  0.34520000  1.0 0.1615701981
H  H30  1  0.01150000  0.06080000  0.15480000  1.0 0.1615701981
H  H31  1  0.01150000  0.43920000  0.65480000  1.0 0.1615701981
H  H32  1  0.98850000  0.93920000  0.84520000  1.0 0.1615701981
H  H33  1  0.02610000  0.49300000  0.39720000  1.0 0.1754219767
H  H34  1  0.97390000  0.99300000  0.10280000  1.0 0.1754219767
H  H35  1  0.97390000  0.50700000  0.60280000  1.0 0.1754219767
H  H36  1  0.02610000  0.00700000  0.89720000  1.0 0.1754219767
H  H37  1  0.04920000  0.75640000  0.35670000  1.0 0.121730677
H  H38  1  0.95080000  0.25640000  0.14330000  1.0 0.121730677
H  H39  1  0.95080000  0.24360000  0.64330000  1.0 0.121730677
H  H40  1  0.04920000  0.74360000  0.85670000  1.0 0.121730677
H  H41  1  0.08280000  0.76230000  0.29380000  1.0 0.121730677
H  H42  1  0.91720000  0.26230000  0.20620000  1.0 0.121730677
H  H43  1  0.91720000  0.23770000  0.70620000  1.0 0.121730677
H  H44  1  0.08280000  0.73770000  0.79380000  1.0 0.121730677
H  H45  1  0.01170000  0.68510000  0.30670000  1.0 0.121730677
H  H46  1  0.98830000  0.18510000  0.19330000  1.0 0.1312539961
H  H47  1  0.98830000  0.31490000  0.69330000  1.0 0.121730677
H  H48  1  0.01170000  0.81490000  0.80670000  1.0 0.121730677
H  H49  1  0.26350000  0.69590000  0.30980000  1.0 0.1312539961
H  H50  1  0.73650000  0.19590000  0.19020000  1.0 0.1351548206
H  H51  1  0.73650000  0.30410000  0.69020000  1.0 0.1351548206
H  H52  1  0.26350000  0.80410000  0.80980000  1.0 0.1312539961
H  H53  1  0.24560000  0.75820000  0.36380000  1.0 0.1312539961
H  H54  1  0.75440000  0.25820000  0.13620000  1.0 0.1312539961
H  H55  1  0.75440000  0.24180000  0.63620000  1.0 0.1312539961
H  H56  1  0.24560000  0.74180000  0.86380000  1.0 0.121730677
H  H57  1  0.28640000  0.65840000  0.37540000  1.0 0.1312539961
H  H58  1  0.71360000  0.15840000  0.12460000  1.0 0.1312539961
H  H59  1  0.71360000  0.34160000  0.62460000  1.0 0.1312539961
H  H60  1  0.28640000  0.84160000  0.87540000  1.0 0.1312539961
H  H61  1  0.37000000  0.16030000  0.47250000  1.0 0.1312539961
H  H62  1  0.63000000  0.66030000  0.02750000  1.0 0.1312539961
H  H63  1  0.63000000  0.83970000  0.52750000  1.0 0.1312539961
H  H64  1  0.37000000  0.33970000  0.97250000  1.0 0.1312539961
H  H65  1  0.32400000  0.19630000  0.40960000  1.0 0.1717368525
H  H66  1  0.67600000  0.69630000  0.09040000  1.0 0.1717368525
H  H67  1  0.67600000  0.80370000  0.59040000  1.0 0.1717368525
H  H68  1  0.32400000  0.30370000  0.90960000  1.0 0.1717368525
H  H69  1  0.40610000  0.25200000  0.44680000  1.0 0.1615701981
H  H70  1  0.59390000  0.75200000  0.05320000  1.0 0.1615701981
H  H71  1  0.59390000  0.74800000  0.55320000  1.0 0.1615701981
H  H72  1  0.40610000  0.24800000  0.94680000  1.0 0.1615701981
H  H73  1  0.12470000  0.28750000  0.52870000  1.0 0.0912522908
H  H74  1  0.87530000  0.78750000  0.97130000  1.0 0.0912522908
H  H75  1  0.87530000  0.71250000  0.47130000  1.0 0.0912522908
H  H76  1  0.12470000  0.21250000  0.02870000  1.0 0.0912522908
H  H77  1  0.16920000  0.25530000  0.59280000  1.0 0.1312539961
H  H78  1  0.83080000  0.75530000  0.90720000  1.0 0.1312539961
H  H79  1  0.83080000  0.74470000  0.40720000  1.0 0.1312539961
H  H80  1  0.16920000  0.24470000  0.09280000  1.0 0.1312539961
H  H81  1  0.20700000  0.34430000  0.56470000  1.0 0.1312539961
H  H82  1  0.79300000  0.84430000  0.93530000  1.0 0.1312539961
H  H83  1  0.79300000  0.65570000  0.43530000  1.0 0.1312539961
H  H84  1  0.20700000  0.15570000  0.06470000  1.0 0.1312539961
H  H85  1  0.32980000  0.15070000  0.59270000  1.0 0.1501656372
H  H86  1  0.67020000  0.65070000  0.90730000  1.0 0.1501656372
H  H87  1  0.67020000  0.84930000  0.40730000  1.0 0.1501656372
H  H88  1  0.32980000  0.34930000  0.09270000  1.0 0.1501656372
H  H89  1  0.22670000  0.11330000  0.57570000  1.0 0.121730677
H  H90  1  0.77330000  0.61330000  0.92430000  1.0 0.121730677
H  H91  1  0.77330000  0.88670000  0.42430000  1.0 0.121730677
H  H92  1  0.22670000  0.38670000  0.07570000  1.0 0.121730677
H  H93  1  0.30160000  0.09710000  0.53250000  1.0 0.1121295329
H  H94  1  0.69840000  0.59710000  0.96750000  1.0 0.1121295329
H  H95  1  0.69840000  0.90290000  0.46750000  1.0 0.1121295329
H  H96  1  0.30160000  0.40290000  0.03250000  1.0 0.1121295329
H  H97  1  0.99120000  0.34610000  0.36060000  1.0 0.4105007436
H  H98  1  0.00880000  0.84610000  0.13940000  1.0 0.4105007436
H  H99  1  0.00880000  0.65390000  0.63940000  1.0 0.4105007436
H  H100  1  0.99120000  0.15390000  0.86060000  1.0 0.4105007436
H  H101  1  0.04040000  0.32530000  0.42570000  1.0 0.4044093277
H  H102  1  0.95960000  0.82530000  0.07430000  1.0 0.4044093277
H  H103  1  0.95960000  0.67470000  0.57430000  1.0 0.4105007436
H  H104  1  0.04040000  0.17470000  0.92570000  1.0 0.4044093277
C  C1  1  0.98170000  0.52180000  0.07650000  1.0 0.1615701981
C  C2  1  0.01830000  0.02180000  0.42350000  1.0 0.1615701981
C  C3  1  0.01830000  0.47820000  0.92350000  1.0 0.1615701981
C  C4  1  0.98170000  0.97820000  0.57650000  1.0 0.1615701981
C  C5  1  0.03850000  0.45970000  0.11303000  1.0 -0.1623620752
C  C6  1  0.96150000  0.95970000  0.38697000  1.0 -0.1623620752
C  C7  1  0.96150000  0.54030000  0.88697000  1.0 -0.1623620752
C  C8  1  0.03850000  0.04030000  0.61303000  1.0 -0.1623620752
C  C9  1  0.04160000  0.46140000  0.17422000  1.0 -0.0106696168
C  C10  1  0.95840000  0.96140000  0.32578000  1.0 -0.0106696168
C  C11  1  0.95840000  0.53860000  0.82578000  1.0 -0.0106696168
C  C12  1  0.04160000  0.03860000  0.67422000  1.0 -0.0106696168
C  C13  1  0.98500000  0.52370000  0.19898000  1.0 -0.1124566693
C  C14  1  0.01500000  0.02370000  0.30102000  1.0 -0.1124566693
C  C15  1  0.01500000  0.47630000  0.80102000  1.0 -0.1124566693
C  C16  1  0.98500000  0.97630000  0.69898000  1.0 -0.1124566693
C  C17  1  0.92860000  0.58540000  0.16320000  1.0 -0.0106696168
C  C18  1  0.07140000  0.08540000  0.33680000  1.0 -0.0106696168
C  C19  1  0.07140000  0.41460000  0.83680000  1.0 -0.0106696168
C  C20  1  0.92860000  0.91460000  0.66320000  1.0 -0.0106696168
C  C21  1  0.92730000  0.58350000  0.10200000  1.0 -0.16727884
C  C22  1  0.07270000  0.08350000  0.39800000  1.0 -0.16727884
C  C23  1  0.07270000  0.41650000  0.89800000  1.0 -0.16727884
C  C24  1  0.92730000  0.91650000  0.60200000  1.0 -0.16727884
C  C25  1  0.10540000  0.39680000  0.21310000  1.0 0.5763718988
C  C26  1  0.89460000  0.89680000  0.28690000  1.0 0.5763718988
C  C27  1  0.89460000  0.60320000  0.78690000  1.0 0.5763718988
C  C28  1  0.10540000  0.10320000  0.71310000  1.0 0.5763718988
C  C29  1  0.86560000  0.65160000  0.18970000  1.0 0.5711939804
C  C30  1  0.13440000  0.15160000  0.31030000  1.0 0.5711939804
C  C31  1  0.13440000  0.34840000  0.81030000  1.0 0.5711939804
C  C32  1  0.86560000  0.84840000  0.68970000  1.0 0.5711939804
C  C33  1  0.50710000  0.52060000  0.42230000  1.0 0.1501656372
C  C34  1  0.49290000  0.02060000  0.07770000  1.0 0.1501656372
C  C35  1  0.49290000  0.47940000  0.57770000  1.0 0.1501656372
C  C36  1  0.50710000  0.97940000  0.92230000  1.0 0.1501656372
C  C37  1  0.44280000  0.46140000  0.38950000  1.0 -0.1535908159
C  C38  1  0.55720000  0.96140000  0.11050000  1.0 -0.1535908159
C  C39  1  0.55720000  0.53860000  0.61050000  1.0 -0.1535908159
C  C40  1  0.44280000  0.03860000  0.88950000  1.0 -0.1535908159
C  C41  1  0.44060000  0.45590000  0.32830000  1.0 -0.0106696168
C  C42  1  0.55940000  0.95590000  0.17170000  1.0 -0.0106696168
C  C43  1  0.55940000  0.54410000  0.67170000  1.0 -0.0106696168
C  C44  1  0.44060000  0.04410000  0.82830000  1.0 -0.0106696168
C  C45  1  0.50090000  0.51030000  0.29970000  1.0 -0.1011413985
C  C46  1  0.49910000  0.01030000  0.20030000  1.0 -0.1011413985
C  C47  1  0.49910000  0.48970000  0.70030000  1.0 -0.1011413985
C  C48  1  0.50090000  0.98970000  0.79970000  1.0 -0.1011413985
C  C49  1  0.56410000  0.57000000  0.33270000  1.0 0.0009876701
C  C50  1  0.43590000  0.07000000  0.16730000  1.0 0.0009876701
C  C51  1  0.43590000  0.43000000  0.66730000  1.0 0.0009876701
C  C52  1  0.56410000  0.93000000  0.83270000  1.0 0.0009876701
C  C53  1  0.56750000  0.57480000  0.39430000  1.0 -0.1535908159
C  C54  1  0.43250000  0.07480000  0.10570000  1.0 -0.1535908159
C  C55  1  0.43250000  0.42520000  0.60570000  1.0 -0.1535908159
C  C56  1  0.56750000  0.92520000  0.89430000  1.0 -0.1535908159
C  C57  1  0.37460000  0.38930000  0.29180000  1.0 0.5711939804
C  C58  1  0.62540000  0.88930000  0.20820000  1.0 0.5711939804
C  C59  1  0.62540000  0.61070000  0.70820000  1.0 0.5711939804
C  C60  1  0.37460000  0.11070000  0.79180000  1.0 0.5763718988
C  C61  1  0.63030000  0.63000000  0.30300000  1.0 0.5339662965
C  C62  1  0.36970000  0.13000000  0.19700000  1.0 0.5339662965
C  C63  1  0.36970000  0.37000000  0.69700000  1.0 0.5339662965
C  C64  1  0.63030000  0.87000000  0.80300000  1.0 0.5339662965
C  C65  1  0.03210000  0.55380000  0.38130000  1.0 -0.6069586787
C  C66  1  0.96790000  0.05380000  0.11870000  1.0 -0.6069586787
C  C67  1  0.96790000  0.44620000  0.61870000  1.0 -0.6069586787
C  C68  1  0.03210000  0.94620000  0.88130000  1.0 -0.6069586787
C  C69  1  0.13090000  0.56760000  0.36810000  1.0 0.5380008381
C  C70  1  0.86910000  0.06760000  0.13190000  1.0 0.5380008381
C  C71  1  0.86910000  0.43240000  0.63190000  1.0 0.5380008381
C  C72  1  0.13090000  0.93240000  0.86810000  1.0 0.5380008381
C  C73  1  0.06520000  0.72120000  0.32360000  1.0 -0.3422068272
C  C74  1  0.93480000  0.22120000  0.17640000  1.0 -0.3422068272
C  C75  1  0.93480000  0.27880000  0.67640000  1.0 -0.3422068272
C  C76  1  0.06520000  0.77880000  0.82360000  1.0 -0.3422068272
C  C77  1  0.24420000  0.69620000  0.34880000  1.0 -0.3287901942
C  C78  1  0.75580000  0.19620000  0.15120000  1.0 -0.3287901942
C  C79  1  0.75580000  0.30380000  0.65120000  1.0 -0.3287901942
C  C80  1  0.24420000  0.80380000  0.84880000  1.0 -0.3287901942
C  C81  1  0.35160000  0.21440000  0.44910000  1.0 -0.5665019069
C  C82  1  0.64840000  0.71440000  0.05090000  1.0 -0.5665019069
C  C83  1  0.64840000  0.78560000  0.55090000  1.0 -0.5665019069
C  C84  1  0.35160000  0.28560000  0.94910000  1.0 -0.5665019069
C  C85  1  0.28120000  0.26790000  0.47800000  1.0 0.5380008381
C  C86  1  0.71880000  0.76790000  0.02200000  1.0 0.5380008381
C  C87  1  0.71880000  0.73210000  0.52200000  1.0 0.5380008381
C  C88  1  0.28120000  0.23210000  0.97800000  1.0 0.5380008381
C  C89  1  0.18200000  0.28350000  0.55640000  1.0 -0.3287901942
C  C90  1  0.81800000  0.78350000  0.94360000  1.0 -0.3287901942
C  C91  1  0.81800000  0.71650000  0.44360000  1.0 -0.3287901942
C  C92  1  0.18200000  0.21650000  0.05640000  1.0 -0.3287901942
C  C93  1  0.28000000  0.13940000  0.56030000  1.0 -0.3287901942
C  C94  1  0.72000000  0.63940000  0.93970000  1.0 -0.3287901942
C  C95  1  0.72000000  0.86060000  0.43970000  1.0 -0.3287901942
C  C96  1  0.28000000  0.36060000  0.06030000  1.0 -0.3287901942
N  N1  1  0.97150000  0.52310000  0.01223000  1.0 -0.1168590158
N  N2  1  0.02850000  0.02310000  0.48777000  1.0 -0.1168590158
N  N3  1  0.02850000  0.47690000  0.98777000  1.0 -0.1168590158
N  N4  1  0.97150000  0.97690000  0.51223000  1.0 -0.1168590158
N  N5  1  0.51460000  0.53290000  0.48556000  1.0 -0.1011413985
N  N6  1  0.48540000  0.03290000  0.01444000  1.0 -0.1011413985
N  N7  1  0.48540000  0.46710000  0.51444000  1.0 -0.1124566693
N  N8  1  0.51460000  0.96710000  0.98556000  1.0 -0.1011413985
N  N9  1  0.14580000  0.65860000  0.34480000  1.0 0.0104014326
N  N10  1  0.85420000  0.15860000  0.15520000  1.0 0.0104014326
N  N11  1  0.85420000  0.34140000  0.65520000  1.0 0.0104014326
N  N12  1  0.14580000  0.84140000  0.84480000  1.0 0.0104014326
N  N13  1  0.25210000  0.22660000  0.52975000  1.0 -0.0360164277
N  N14  1  0.74790000  0.72660000  0.97025000  1.0 -0.0360164277
N  N15  1  0.74790000  0.77340000  0.47025000  1.0 -0.0360164277
N  N16  1  0.25210000  0.27340000  0.02975000  1.0 -0.0360164277
O  O1  1  0.10270000  0.40120000  0.26796000  1.0 -0.5836362455
O  O2  1  0.89730000  0.90120000  0.23204000  1.0 -0.5836362455
O  O3  1  0.89730000  0.59880000  0.73204000  1.0 -0.5836362455
O  O4  1  0.10270000  0.09880000  0.76796000  1.0 -0.5836362455
O  O5  1  0.15250000  0.34200000  0.18746000  1.0 -0.5011255619
O  O6  1  0.84750000  0.84200000  0.31254000  1.0 -0.5011255619
O  O7  1  0.84750000  0.65800000  0.81254000  1.0 -0.5011255619
O  O8  1  0.15250000  0.15800000  0.68746000  1.0 -0.5011255619
O  O9  1  0.85750000  0.64370000  0.24400000  1.0 -0.5107797447
O  O10  1  0.14250000  0.14370000  0.25600000  1.0 -0.5107797447
O  O11  1  0.14250000  0.35630000  0.75600000  1.0 -0.5107797447
O  O12  1  0.85750000  0.85630000  0.74400000  1.0 -0.5107797447
O  O13  1  0.82230000  0.71160000  0.15596000  1.0 -0.6069586787
O  O14  1  0.17770000  0.21160000  0.34404000  1.0 -0.6069586787
O  O15  1  0.17770000  0.28840000  0.84404000  1.0 -0.6069586787
O  O16  1  0.82230000  0.78840000  0.65596000  1.0 -0.6069586787
O  O17  1  0.31550000  0.34480000  0.31865000  1.0 -0.5894550745
O  O18  1  0.68450000  0.84480000  0.18135000  1.0 -0.5894550745
O  O19  1  0.68450000  0.65520000  0.68135000  1.0 -0.5894550745
O  O20  1  0.31550000  0.15520000  0.81865000  1.0 -0.5894550745
O  O21  1  0.38000000  0.37540000  0.23870000  1.0 -0.4771339658
O  O22  1  0.62000000  0.87540000  0.26130000  1.0 -0.4771339658
O  O23  1  0.62000000  0.62460000  0.76130000  1.0 -0.4771339658
O  O24  1  0.38000000  0.12460000  0.73870000  1.0 -0.4771339658
O  O25  1  0.62180000  0.63220000  0.24774000  1.0 -0.5011255619
O  O26  1  0.37820000  0.13220000  0.25226000  1.0 -0.5011255619
O  O27  1  0.37820000  0.36780000  0.75226000  1.0 -0.5011255619
O  O28  1  0.62180000  0.86780000  0.74774000  1.0 -0.5011255619
O  O29  1  0.68830000  0.67750000  0.33556000  1.0 -0.5174346182
O  O30  1  0.31170000  0.17750000  0.16444000  1.0 -0.5174346182
O  O31  1  0.31170000  0.32250000  0.66444000  1.0 -0.5174346182
O  O32  1  0.68830000  0.82250000  0.83556000  1.0 -0.5174346182
O  O33  1  0.20420000  0.51840000  0.37580000  1.0 -0.5610759322
O  O34  1  0.79580000  0.01840000  0.12420000  1.0 -0.5610759322
O  O35  1  0.79580000  0.48160000  0.62420000  1.0 -0.5610759322
O  O36  1  0.20420000  0.98160000  0.87580000  1.0 -0.5610759322
O  O37  1  0.25060000  0.33890000  0.45264000  1.0 -0.5429510836
O  O38  1  0.74940000  0.83890000  0.04736000  1.0 -0.5429510836
O  O39  1  0.74940000  0.66110000  0.54736000  1.0 -0.5429510836
O  O40  1  0.25060000  0.16110000  0.95264000  1.0 -0.5429510836
O  O41  1  0.03860000  0.36640000  0.39222000  1.0 -0.7136454348
O  O42  1  0.96140000  0.86640000  0.10778000  1.0 -0.7136454348
O  O43  1  0.96140000  0.63360000  0.60778000  1.0 -0.7136454348
O  O44  1  0.03860000  0.13360000  0.89222000  1.0 -0.7136454348
