# DDEC6 charges by PACMAN v1.1 (https://github.com/mtap-research/PACMAN-charge/)
data_WITKIV_ASR_pacman
_symmetry_space_group_name_H-M   'P 1'
_cell_length_a   54.95940000
_cell_length_b   54.95940000
_cell_length_c   54.95940000
_cell_angle_alpha   36.03770000
_cell_angle_beta   36.03770000
_cell_angle_gamma   36.03770000
_symmetry_Int_Tables_number   1
_chemical_formula_structural   Zn11P12H96C168N12O73
_chemical_formula_sum   'Zn44 P48 H384 C672 N48 O292'
_cell_volume   51395.26465949
_cell_formula_units_Z   4
loop_
 _symmetry_equiv_pos_site_id
 _symmetry_equiv_pos_as_xyz
  1  'x, y, z'
loop_
 _atom_site_type_symbol
 _atom_site_label
 _atom_site_symmetry_multiplicity
 _atom_site_fract_x
 _atom_site_fract_y
 _atom_site_fract_z
 _atom_site_occupancy
 _atom_site_charge
Zn  Zn1  1  0.78871000  0.89602000  0.84347000  1.0 0.9963264961
Zn  Zn2  1  0.89602000  0.84347000  0.78871000  1.0 0.9963264961
Zn  Zn3  1  0.84347000  0.78871000  0.89602000  1.0 0.9963264961
Zn  Zn4  1  0.71129000  0.65653000  0.60398000  1.0 0.9963264961
Zn  Zn5  1  0.65653000  0.60398000  0.71129000  1.0 0.9963264961
Zn  Zn6  1  0.60398000  0.71129000  0.65653000  1.0 0.9963264961
Zn  Zn7  1  0.21129000  0.10398000  0.15653000  1.0 0.9963264961
Zn  Zn8  1  0.10398000  0.15653000  0.21129000  1.0 0.9963264961
Zn  Zn9  1  0.15653000  0.21129000  0.10398000  1.0 0.9900378072
Zn  Zn10  1  0.28871000  0.34347000  0.39602000  1.0 0.9963264961
Zn  Zn11  1  0.34347000  0.39602000  0.28871000  1.0 0.9963264961
Zn  Zn12  1  0.39602000  0.28871000  0.34347000  1.0 0.9963264961
Zn  Zn13  1  0.85967000  0.85967000  0.85967000  1.0 0.9900378072
Zn  Zn14  1  0.64033000  0.64033000  0.64033000  1.0 0.9900378072
Zn  Zn15  1  0.14033000  0.14033000  0.14033000  1.0 0.9900378072
Zn  Zn16  1  0.35967000  0.35967000  0.35967000  1.0 0.9900378072
Zn  Zn17  1  0.68806000  0.98202000  0.83607000  1.0 1.0887528205
Zn  Zn18  1  0.98202000  0.83607000  0.68806000  1.0 1.0887528205
Zn  Zn19  1  0.83607000  0.68806000  0.98202000  1.0 1.0887528205
Zn  Zn20  1  0.81194000  0.66393000  0.51798000  1.0 1.0887528205
Zn  Zn21  1  0.66393000  0.51798000  0.81194000  1.0 1.0887528205
Zn  Zn22  1  0.51798000  0.81194000  0.66393000  1.0 1.0887528205
Zn  Zn23  1  0.31194000  0.01798000  0.16393000  1.0 1.0887528205
Zn  Zn24  1  0.01798000  0.16393000  0.31194000  1.0 1.0887528205
Zn  Zn25  1  0.16393000  0.31194000  0.01798000  1.0 1.0887528205
Zn  Zn26  1  0.18806000  0.33607000  0.48202000  1.0 1.0887528205
Zn  Zn27  1  0.33607000  0.48202000  0.18806000  1.0 1.0887528205
Zn  Zn28  1  0.48202000  0.18806000  0.33607000  1.0 1.0887528205
Zn  Zn29  1  0.11652000  0.11652000  0.11652000  1.0 1.09978266
Zn  Zn30  1  0.38348000  0.38348000  0.38348000  1.0 1.09978266
Zn  Zn31  1  0.88348000  0.88348000  0.88348000  1.0 1.09978266
Zn  Zn32  1  0.61652000  0.61652000  0.61652000  1.0 1.09978266
Zn  Zn33  1  0.42249000  0.92418000  0.87013000  1.0 1.0567148173
Zn  Zn34  1  0.92418000  0.87013000  0.42249000  1.0 1.053673987
Zn  Zn35  1  0.87013000  0.42249000  0.92418000  1.0 1.0567148173
Zn  Zn36  1  0.07751000  0.62987000  0.57582000  1.0 1.0567148173
Zn  Zn37  1  0.62987000  0.57582000  0.07751000  1.0 1.0567148173
Zn  Zn38  1  0.57582000  0.07751000  0.62987000  1.0 1.0567148173
Zn  Zn39  1  0.57751000  0.07582000  0.12987000  1.0 1.053673987
Zn  Zn40  1  0.07582000  0.12987000  0.57751000  1.0 1.0567148173
Zn  Zn41  1  0.12987000  0.57751000  0.07582000  1.0 1.053673987
Zn  Zn42  1  0.92249000  0.37013000  0.42418000  1.0 1.0567148173
Zn  Zn43  1  0.37013000  0.42418000  0.92249000  1.0 1.0567148173
Zn  Zn44  1  0.42418000  0.92249000  0.37013000  1.0 1.0567148173
P  P1  1  0.40159000  0.08429000  0.89709000  1.0 1.2670245663
P  P2  1  0.08429000  0.89709000  0.40159000  1.0 1.2670245663
P  P3  1  0.89709000  0.40159000  0.08429000  1.0 1.2670245663
P  P4  1  0.09841000  0.60291000  0.41571000  1.0 1.2670245663
P  P5  1  0.60291000  0.41571000  0.09841000  1.0 1.2670245663
P  P6  1  0.41571000  0.09841000  0.60291000  1.0 1.2670245663
P  P7  1  0.59841000  0.91571000  0.10291000  1.0 1.2670245663
P  P8  1  0.91571000  0.10291000  0.59841000  1.0 1.2670245663
P  P9  1  0.10291000  0.59841000  0.91571000  1.0 1.2670245663
P  P10  1  0.90159000  0.39709000  0.58429000  1.0 1.2670245663
P  P11  1  0.39709000  0.58429000  0.90159000  1.0 1.2670245663
P  P12  1  0.58429000  0.90159000  0.39709000  1.0 1.2670245663
P  P13  1  0.40779000  0.15209000  0.86239000  1.0 1.2916949534
P  P14  1  0.15209000  0.86239000  0.40779000  1.0 1.2916949534
P  P15  1  0.86239000  0.40779000  0.15209000  1.0 1.2916949534
P  P16  1  0.09221000  0.63761000  0.34791000  1.0 1.2916949534
P  P17  1  0.63761000  0.34791000  0.09221000  1.0 1.2916949534
P  P18  1  0.34791000  0.09221000  0.63761000  1.0 1.2916949534
P  P19  1  0.59221000  0.84791000  0.13761000  1.0 1.2916949534
P  P20  1  0.84791000  0.13761000  0.59221000  1.0 1.2916949534
P  P21  1  0.13761000  0.59221000  0.84791000  1.0 1.2916949534
P  P22  1  0.90779000  0.36239000  0.65209000  1.0 1.2916949534
P  P23  1  0.36239000  0.65209000  0.90779000  1.0 1.2916949534
P  P24  1  0.65209000  0.90779000  0.36239000  1.0 1.2916949534
P  P25  1  0.34846000  0.17196000  0.85556000  1.0 1.3063687419
P  P26  1  0.17196000  0.85556000  0.34846000  1.0 1.3063687419
P  P27  1  0.85556000  0.34846000  0.17196000  1.0 1.3063687419
P  P28  1  0.15154000  0.64444000  0.32804000  1.0 1.3063687419
P  P29  1  0.64444000  0.32804000  0.15154000  1.0 1.3063687419
P  P30  1  0.32804000  0.15154000  0.64444000  1.0 1.3063687419
P  P31  1  0.65154000  0.82804000  0.14444000  1.0 1.3063687419
P  P32  1  0.82804000  0.14444000  0.65154000  1.0 1.3063687419
P  P33  1  0.14444000  0.65154000  0.82804000  1.0 1.3045542681
P  P34  1  0.84846000  0.35556000  0.67196000  1.0 1.3063687419
P  P35  1  0.35556000  0.67196000  0.84846000  1.0 1.3063687419
P  P36  1  0.67196000  0.84846000  0.35556000  1.0 1.3063687419
P  P37  1  0.78980000  0.82870000  0.73960000  1.0 1.2670245663
P  P38  1  0.82870000  0.73960000  0.78980000  1.0 1.2670245663
P  P39  1  0.73960000  0.78980000  0.82870000  1.0 1.2670245663
P  P40  1  0.71020000  0.76040000  0.67130000  1.0 1.2670245663
P  P41  1  0.76040000  0.67130000  0.71020000  1.0 1.2670245663
P  P42  1  0.67130000  0.71020000  0.76040000  1.0 1.2670245663
P  P43  1  0.21020000  0.17130000  0.26040000  1.0 1.2670245663
P  P44  1  0.17130000  0.26040000  0.21020000  1.0 1.2670245663
P  P45  1  0.26040000  0.21020000  0.17130000  1.0 1.2670245663
P  P46  1  0.28980000  0.23960000  0.32870000  1.0 1.2670245663
P  P47  1  0.23960000  0.32870000  0.28980000  1.0 1.2670245663
P  P48  1  0.32870000  0.28980000  0.23960000  1.0 1.2647490943
H  H1  1  0.35560000  0.06710000  0.99840000  1.0 0.1482102267
H  H2  1  0.06710000  0.99840000  0.35560000  1.0 0.1482102267
H  H3  1  0.99840000  0.35560000  0.06710000  1.0 0.1482102267
H  H4  1  0.14440000  0.50160000  0.43290000  1.0 0.1482102267
H  H5  1  0.50160000  0.43290000  0.14440000  1.0 0.1482102267
H  H6  1  0.43290000  0.14440000  0.50160000  1.0 0.1482102267
H  H7  1  0.64440000  0.93290000  0.00160000  1.0 0.1482102267
H  H8  1  0.93290000  0.00160000  0.64440000  1.0 0.1482102267
H  H9  1  0.00160000  0.64440000  0.93290000  1.0 0.1482102267
H  H10  1  0.85560000  0.49840000  0.56710000  1.0 0.1482102267
H  H11  1  0.49840000  0.56710000  0.85560000  1.0 0.1482102267
H  H12  1  0.56710000  0.85560000  0.49840000  1.0 0.1482102267
H  H13  1  0.28230000  0.08480000  0.05790000  1.0 0.1287533679
H  H14  1  0.08480000  0.05790000  0.28230000  1.0 0.1287533679
H  H15  1  0.05790000  0.28230000  0.08480000  1.0 0.1287533679
H  H16  1  0.21770000  0.44210000  0.41520000  1.0 0.1287533679
H  H17  1  0.44210000  0.41520000  0.21770000  1.0 0.1287533679
H  H18  1  0.41520000  0.21770000  0.44210000  1.0 0.1287533679
H  H19  1  0.71770000  0.91520000  0.94210000  1.0 0.1287533679
H  H20  1  0.91520000  0.94210000  0.71770000  1.0 0.1287533679
H  H21  1  0.94210000  0.71770000  0.91520000  1.0 0.1208330925
H  H22  1  0.78230000  0.55790000  0.58480000  1.0 0.1287533679
H  H23  1  0.55790000  0.58480000  0.78230000  1.0 0.1287533679
H  H24  1  0.58480000  0.78230000  0.55790000  1.0 0.1287533679
H  H25  1  0.24710000  0.05530000  0.04460000  1.0 0.1208330925
H  H26  1  0.05530000  0.04460000  0.24710000  1.0 0.1208330925
H  H27  1  0.04460000  0.24710000  0.05530000  1.0 0.1208330925
H  H28  1  0.25290000  0.45540000  0.44470000  1.0 0.1208330925
H  H29  1  0.45540000  0.44470000  0.25290000  1.0 0.1208330925
H  H30  1  0.44470000  0.25290000  0.45540000  1.0 0.1208330925
H  H31  1  0.75290000  0.94470000  0.95540000  1.0 0.1208330925
H  H32  1  0.94470000  0.95540000  0.75290000  1.0 0.1208330925
H  H33  1  0.95540000  0.75290000  0.94470000  1.0 0.1208330925
H  H34  1  0.74710000  0.54460000  0.55530000  1.0 0.1208330925
H  H35  1  0.54460000  0.55530000  0.74710000  1.0 0.1208330925
H  H36  1  0.55530000  0.74710000  0.54460000  1.0 0.1208330925
H  H37  1  0.31770000  0.04550000  0.97960000  1.0 0.1482102267
H  H38  1  0.04550000  0.97960000  0.31770000  1.0 0.1482102267
H  H39  1  0.97960000  0.31770000  0.04550000  1.0 0.1551668191
H  H40  1  0.18230000  0.52040000  0.45450000  1.0 0.1482102267
H  H41  1  0.52040000  0.45450000  0.18230000  1.0 0.1551668191
H  H42  1  0.45450000  0.18230000  0.52040000  1.0 0.1482102267
H  H43  1  0.68230000  0.95450000  0.02040000  1.0 0.1551668191
H  H44  1  0.95450000  0.02040000  0.68230000  1.0 0.1482102267
H  H45  1  0.02040000  0.68230000  0.95450000  1.0 0.1482102267
H  H46  1  0.81770000  0.47960000  0.54550000  1.0 0.1482102267
H  H47  1  0.47960000  0.54550000  0.81770000  1.0 0.1482102267
H  H48  1  0.54550000  0.81770000  0.47960000  1.0 0.1551668191
H  H49  1  0.40460000  0.07560000  0.84490000  1.0 0.141418599
H  H50  1  0.07560000  0.84490000  0.40460000  1.0 0.141418599
H  H51  1  0.84490000  0.40460000  0.07560000  1.0 0.141418599
H  H52  1  0.09540000  0.65510000  0.42440000  1.0 0.141418599
H  H53  1  0.65510000  0.42440000  0.09540000  1.0 0.141418599
H  H54  1  0.42440000  0.09540000  0.65510000  1.0 0.141418599
H  H55  1  0.59540000  0.92440000  0.15510000  1.0 0.141418599
H  H56  1  0.92440000  0.15510000  0.59540000  1.0 0.141418599
H  H57  1  0.15510000  0.59540000  0.92440000  1.0 0.141418599
H  H58  1  0.90460000  0.34490000  0.57560000  1.0 0.141418599
H  H59  1  0.34490000  0.57560000  0.90460000  1.0 0.141418599
H  H60  1  0.57560000  0.90460000  0.34490000  1.0 0.141418599
H  H61  1  0.40140000  0.02630000  0.85690000  1.0 0.1287533679
H  H62  1  0.02630000  0.85690000  0.40140000  1.0 0.1287533679
H  H63  1  0.85690000  0.40140000  0.02630000  1.0 0.1287533679
H  H64  1  0.09860000  0.64310000  0.47370000  1.0 0.1287533679
H  H65  1  0.64310000  0.47370000  0.09860000  1.0 0.1287533679
H  H66  1  0.47370000  0.09860000  0.64310000  1.0 0.1287533679
H  H67  1  0.59860000  0.97370000  0.14310000  1.0 0.1287533679
H  H68  1  0.97370000  0.14310000  0.59860000  1.0 0.1287533679
H  H69  1  0.14310000  0.59860000  0.97370000  1.0 0.1287533679
H  H70  1  0.90140000  0.35690000  0.52630000  1.0 0.1287533679
H  H71  1  0.35690000  0.52630000  0.90140000  1.0 0.1287533679
H  H72  1  0.52630000  0.90140000  0.35690000  1.0 0.1287533679
H  H73  1  0.47660000  0.91690000  0.92650000  1.0 0.1208330925
H  H74  1  0.91690000  0.92650000  0.47660000  1.0 0.1208330925
H  H75  1  0.92650000  0.47660000  0.91690000  1.0 0.1208330925
H  H76  1  0.02340000  0.57350000  0.58310000  1.0 0.1208330925
H  H77  1  0.57350000  0.58310000  0.02340000  1.0 0.1140885869
H  H78  1  0.58310000  0.02340000  0.57350000  1.0 0.1208330925
H  H79  1  0.52340000  0.08310000  0.07350000  1.0 0.1208330925
H  H80  1  0.08310000  0.07350000  0.52340000  1.0 0.1208330925
H  H81  1  0.07350000  0.52340000  0.08310000  1.0 0.1208330925
H  H82  1  0.97660000  0.42650000  0.41690000  1.0 0.1208330925
H  H83  1  0.42650000  0.41690000  0.97660000  1.0 0.1208330925
H  H84  1  0.41690000  0.97660000  0.42650000  1.0 0.1208330925
H  H85  1  0.48150000  0.96700000  0.91170000  1.0 0.141418599
H  H86  1  0.96700000  0.91170000  0.48150000  1.0 0.141418599
H  H87  1  0.91170000  0.48150000  0.96700000  1.0 0.141418599
H  H88  1  0.01850000  0.58830000  0.53300000  1.0 0.141418599
H  H89  1  0.58830000  0.53300000  0.01850000  1.0 0.141418599
H  H90  1  0.53300000  0.01850000  0.58830000  1.0 0.141418599
H  H91  1  0.51850000  0.03300000  0.08830000  1.0 0.141418599
H  H92  1  0.03300000  0.08830000  0.51850000  1.0 0.141418599
H  H93  1  0.08830000  0.51850000  0.03300000  1.0 0.141418599
H  H94  1  0.98150000  0.41170000  0.46700000  1.0 0.141418599
H  H95  1  0.41170000  0.46700000  0.98150000  1.0 0.141418599
H  H96  1  0.46700000  0.98150000  0.41170000  1.0 0.141418599
H  H97  1  0.31370000  0.19770000  0.93490000  1.0 0.141418599
H  H98  1  0.19770000  0.93490000  0.31370000  1.0 0.141418599
H  H99  1  0.93490000  0.31370000  0.19770000  1.0 0.141418599
H  H100  1  0.18630000  0.56510000  0.30230000  1.0 0.141418599
H  H101  1  0.56510000  0.30230000  0.18630000  1.0 0.141418599
H  H102  1  0.30230000  0.18630000  0.56510000  1.0 0.141418599
H  H103  1  0.68630000  0.80230000  0.06510000  1.0 0.141418599
H  H104  1  0.80230000  0.06510000  0.68630000  1.0 0.141418599
H  H105  1  0.06510000  0.68630000  0.80230000  1.0 0.141418599
H  H106  1  0.81370000  0.43490000  0.69770000  1.0 0.141418599
H  H107  1  0.43490000  0.69770000  0.81370000  1.0 0.141418599
H  H108  1  0.69770000  0.81370000  0.43490000  1.0 0.141418599
H  H109  1  0.27350000  0.17060000  0.01540000  1.0 0.1208330925
H  H110  1  0.17060000  0.01540000  0.27350000  1.0 0.1208330925
H  H111  1  0.01540000  0.27350000  0.17060000  1.0 0.1208330925
H  H112  1  0.22650000  0.48460000  0.32940000  1.0 0.1208330925
H  H113  1  0.48460000  0.32940000  0.22650000  1.0 0.1208330925
H  H114  1  0.32940000  0.22650000  0.48460000  1.0 0.1208330925
H  H115  1  0.72650000  0.82940000  0.98460000  1.0 0.1208330925
H  H116  1  0.82940000  0.98460000  0.72650000  1.0 0.1208330925
H  H117  1  0.98460000  0.72650000  0.82940000  1.0 0.1208330925
H  H118  1  0.77350000  0.51540000  0.67060000  1.0 0.1208330925
H  H119  1  0.51540000  0.67060000  0.77350000  1.0 0.1208330925
H  H120  1  0.67060000  0.77350000  0.51540000  1.0 0.1208330925
H  H121  1  0.39400000  0.07190000  0.02180000  1.0 0.1287533679
H  H122  1  0.07190000  0.02180000  0.39400000  1.0 0.1287533679
H  H123  1  0.02180000  0.39400000  0.07190000  1.0 0.1287533679
H  H124  1  0.10600000  0.47820000  0.42810000  1.0 0.1287533679
H  H125  1  0.47820000  0.42810000  0.10600000  1.0 0.1287533679
H  H126  1  0.42810000  0.10600000  0.47820000  1.0 0.1287533679
H  H127  1  0.60600000  0.92810000  0.97820000  1.0 0.1287533679
H  H128  1  0.92810000  0.97820000  0.60600000  1.0 0.1287533679
H  H129  1  0.97820000  0.60600000  0.92810000  1.0 0.1287533679
H  H130  1  0.89400000  0.52180000  0.57190000  1.0 0.1287533679
H  H131  1  0.52180000  0.57190000  0.89400000  1.0 0.1287533679
H  H132  1  0.57190000  0.89400000  0.52180000  1.0 0.1287533679
H  H133  1  0.43270000  0.09890000  0.94230000  1.0 0.1482102267
H  H134  1  0.09890000  0.94230000  0.43270000  1.0 0.1482102267
H  H135  1  0.94230000  0.43270000  0.09890000  1.0 0.1482102267
H  H136  1  0.06730000  0.55770000  0.40110000  1.0 0.1482102267
H  H137  1  0.55770000  0.40110000  0.06730000  1.0 0.1482102267
H  H138  1  0.40110000  0.06730000  0.55770000  1.0 0.1482102267
H  H139  1  0.56730000  0.90110000  0.05770000  1.0 0.1482102267
H  H140  1  0.90110000  0.05770000  0.56730000  1.0 0.1482102267
H  H141  1  0.05770000  0.56730000  0.90110000  1.0 0.1482102267
H  H142  1  0.93270000  0.44230000  0.59890000  1.0 0.1482102267
H  H143  1  0.44230000  0.59890000  0.93270000  1.0 0.1482102267
H  H144  1  0.59890000  0.93270000  0.44230000  1.0 0.1482102267
H  H145  1  0.50970000  0.08920000  0.80510000  1.0 0.141418599
H  H146  1  0.08920000  0.80510000  0.50970000  1.0 0.141418599
H  H147  1  0.80510000  0.50970000  0.08920000  1.0 0.141418599
H  H148  1  0.99030000  0.69490000  0.41080000  1.0 0.141418599
H  H149  1  0.69490000  0.41080000  0.99030000  1.0 0.141418599
H  H150  1  0.41080000  0.99030000  0.69490000  1.0 0.141418599
H  H151  1  0.49030000  0.91080000  0.19490000  1.0 0.141418599
H  H152  1  0.91080000  0.19490000  0.49030000  1.0 0.141418599
H  H153  1  0.19490000  0.49030000  0.91080000  1.0 0.141418599
H  H154  1  0.00970000  0.30510000  0.58920000  1.0 0.141418599
H  H155  1  0.30510000  0.58920000  0.00970000  1.0 0.141418599
H  H156  1  0.58920000  0.00970000  0.30510000  1.0 0.141418599
H  H157  1  0.58050000  0.03150000  0.80790000  1.0 0.1287533679
H  H158  1  0.03150000  0.80790000  0.58050000  1.0 0.1287533679
H  H159  1  0.80790000  0.58050000  0.03150000  1.0 0.1287533679
H  H160  1  0.91950000  0.69210000  0.46850000  1.0 0.1287533679
H  H161  1  0.69210000  0.46850000  0.91950000  1.0 0.1287533679
H  H162  1  0.46850000  0.91950000  0.69210000  1.0 0.1287533679
H  H163  1  0.41950000  0.96850000  0.19210000  1.0 0.1287533679
H  H164  1  0.96850000  0.19210000  0.41950000  1.0 0.1287533679
H  H165  1  0.19210000  0.41950000  0.96850000  1.0 0.1287533679
H  H166  1  0.08050000  0.30790000  0.53150000  1.0 0.1287533679
H  H167  1  0.30790000  0.53150000  0.08050000  1.0 0.1287533679
H  H168  1  0.53150000  0.08050000  0.30790000  1.0 0.1287533679
H  H169  1  0.56530000  0.10030000  0.82810000  1.0 0.1287533679
H  H170  1  0.10030000  0.82810000  0.56530000  1.0 0.1287533679
H  H171  1  0.82810000  0.56530000  0.10030000  1.0 0.1287533679
H  H172  1  0.93470000  0.67190000  0.39970000  1.0 0.1287533679
H  H173  1  0.67190000  0.39970000  0.93470000  1.0 0.1287533679
H  H174  1  0.39970000  0.93470000  0.67190000  1.0 0.1287533679
H  H175  1  0.43470000  0.89970000  0.17190000  1.0 0.1208330925
H  H176  1  0.89970000  0.17190000  0.43470000  1.0 0.1287533679
H  H177  1  0.17190000  0.43470000  0.89970000  1.0 0.1287533679
H  H178  1  0.06530000  0.32810000  0.60030000  1.0 0.1287533679
H  H179  1  0.32810000  0.60030000  0.06530000  1.0 0.1208330925
H  H180  1  0.60030000  0.06530000  0.32810000  1.0 0.1287533679
H  H181  1  0.49020000  0.15700000  0.82940000  1.0 0.1482102267
H  H182  1  0.15700000  0.82940000  0.49020000  1.0 0.1482102267
H  H183  1  0.82940000  0.49020000  0.15700000  1.0 0.1482102267
H  H184  1  0.00980000  0.67060000  0.34300000  1.0 0.1482102267
H  H185  1  0.67060000  0.34300000  0.00980000  1.0 0.1482102267
H  H186  1  0.34300000  0.00980000  0.67060000  1.0 0.1482102267
H  H187  1  0.50980000  0.84300000  0.17060000  1.0 0.1482102267
H  H188  1  0.84300000  0.17060000  0.50980000  1.0 0.1482102267
H  H189  1  0.17060000  0.50980000  0.84300000  1.0 0.1482102267
H  H190  1  0.99020000  0.32940000  0.65700000  1.0 0.1482102267
H  H191  1  0.32940000  0.65700000  0.99020000  1.0 0.1482102267
H  H192  1  0.65700000  0.99020000  0.32940000  1.0 0.1482102267
H  H193  1  0.26580000  0.27760000  0.86090000  1.0 0.1482102267
H  H194  1  0.27760000  0.86090000  0.26580000  1.0 0.1482102267
H  H195  1  0.86090000  0.26580000  0.27760000  1.0 0.1482102267
H  H196  1  0.23420000  0.63910000  0.22240000  1.0 0.1482102267
H  H197  1  0.63910000  0.22240000  0.23420000  1.0 0.1482102267
H  H198  1  0.22240000  0.23420000  0.63910000  1.0 0.1482102267
H  H199  1  0.73420000  0.72240000  0.13910000  1.0 0.1482102267
H  H200  1  0.72240000  0.13910000  0.73420000  1.0 0.1482102267
H  H201  1  0.13910000  0.73420000  0.72240000  1.0 0.1482102267
H  H202  1  0.76580000  0.36090000  0.77760000  1.0 0.1482102267
H  H203  1  0.36090000  0.77760000  0.76580000  1.0 0.1482102267
H  H204  1  0.77760000  0.76580000  0.36090000  1.0 0.1482102267
H  H205  1  0.21780000  0.29820000  0.91710000  1.0 0.1287533679
H  H206  1  0.29820000  0.91710000  0.21780000  1.0 0.1287533679
H  H207  1  0.91710000  0.21780000  0.29820000  1.0 0.1287533679
H  H208  1  0.28220000  0.58290000  0.20180000  1.0 0.1287533679
H  H209  1  0.58290000  0.20180000  0.28220000  1.0 0.1287533679
H  H210  1  0.20180000  0.28220000  0.58290000  1.0 0.1287533679
H  H211  1  0.78220000  0.70180000  0.08290000  1.0 0.1287533679
H  H212  1  0.70180000  0.08290000  0.78220000  1.0 0.1287533679
H  H213  1  0.08290000  0.78220000  0.70180000  1.0 0.1287533679
H  H214  1  0.71780000  0.41710000  0.79820000  1.0 0.1287533679
H  H215  1  0.41710000  0.79820000  0.71780000  1.0 0.1287533679
H  H216  1  0.79820000  0.71780000  0.41710000  1.0 0.1287533679
H  H217  1  0.21710000  0.17430000  0.01650000  1.0 0.1287533679
H  H218  1  0.17430000  0.01650000  0.21710000  1.0 0.1287533679
H  H219  1  0.01650000  0.21710000  0.17430000  1.0 0.1287533679
H  H220  1  0.28290000  0.48350000  0.32570000  1.0 0.1287533679
H  H221  1  0.48350000  0.32570000  0.28290000  1.0 0.1287533679
H  H222  1  0.32570000  0.28290000  0.48350000  1.0 0.1287533679
H  H223  1  0.78290000  0.82570000  0.98350000  1.0 0.1287533679
H  H224  1  0.82570000  0.98350000  0.78290000  1.0 0.1287533679
H  H225  1  0.98350000  0.78290000  0.82570000  1.0 0.1287533679
H  H226  1  0.71710000  0.51650000  0.67430000  1.0 0.1287533679
H  H227  1  0.51650000  0.67430000  0.71710000  1.0 0.1287533679
H  H228  1  0.67430000  0.71710000  0.51650000  1.0 0.1287533679
H  H229  1  0.26150000  0.15620000  0.95990000  1.0 0.1482102267
H  H230  1  0.15620000  0.95990000  0.26150000  1.0 0.1482102267
H  H231  1  0.95990000  0.26150000  0.15620000  1.0 0.1482102267
H  H232  1  0.23850000  0.54010000  0.34380000  1.0 0.1482102267
H  H233  1  0.54010000  0.34380000  0.23850000  1.0 0.1482102267
H  H234  1  0.34380000  0.23850000  0.54010000  1.0 0.1482102267
H  H235  1  0.73850000  0.84380000  0.04010000  1.0 0.1482102267
H  H236  1  0.84380000  0.04010000  0.73850000  1.0 0.1482102267
H  H237  1  0.04010000  0.73850000  0.84380000  1.0 0.1482102267
H  H238  1  0.76150000  0.45990000  0.65620000  1.0 0.1482102267
H  H239  1  0.45990000  0.65620000  0.76150000  1.0 0.1482102267
H  H240  1  0.65620000  0.76150000  0.45990000  1.0 0.1482102267
H  H241  1  0.43740000  0.18240000  0.76530000  1.0 0.141418599
H  H242  1  0.18240000  0.76530000  0.43740000  1.0 0.141418599
H  H243  1  0.76530000  0.43740000  0.18240000  1.0 0.141418599
H  H244  1  0.06260000  0.73470000  0.31760000  1.0 0.141418599
H  H245  1  0.73470000  0.31760000  0.06260000  1.0 0.141418599
H  H246  1  0.31760000  0.06260000  0.73470000  1.0 0.141418599
H  H247  1  0.56260000  0.81760000  0.23470000  1.0 0.141418599
H  H248  1  0.81760000  0.23470000  0.56260000  1.0 0.141418599
H  H249  1  0.23470000  0.56260000  0.81760000  1.0 0.141418599
H  H250  1  0.93740000  0.26530000  0.68240000  1.0 0.141418599
H  H251  1  0.26530000  0.68240000  0.93740000  1.0 0.141418599
H  H252  1  0.68240000  0.93740000  0.26530000  1.0 0.141418599
H  H253  1  0.50690000  0.15250000  0.71100000  1.0 0.1287533679
H  H254  1  0.15250000  0.71100000  0.50690000  1.0 0.1287533679
H  H255  1  0.71100000  0.50690000  0.15250000  1.0 0.1287533679
H  H256  1  0.99310000  0.78900000  0.34750000  1.0 0.1287533679
H  H257  1  0.78900000  0.34750000  0.99310000  1.0 0.1287533679
H  H258  1  0.34750000  0.99310000  0.78900000  1.0 0.1287533679
H  H259  1  0.49310000  0.84750000  0.28900000  1.0 0.1287533679
H  H260  1  0.84750000  0.28900000  0.49310000  1.0 0.1287533679
H  H261  1  0.28900000  0.49310000  0.84750000  1.0 0.1287533679
H  H262  1  0.00690000  0.21100000  0.65250000  1.0 0.1287533679
H  H263  1  0.21100000  0.65250000  0.00690000  1.0 0.1287533679
H  H264  1  0.65250000  0.00690000  0.21100000  1.0 0.1287533679
H  H265  1  0.44200000  0.12660000  0.72830000  1.0 0.1287533679
H  H266  1  0.12660000  0.72830000  0.44200000  1.0 0.1287533679
H  H267  1  0.72830000  0.44200000  0.12660000  1.0 0.1287533679
H  H268  1  0.05800000  0.77170000  0.37340000  1.0 0.1287533679
H  H269  1  0.77170000  0.37340000  0.05800000  1.0 0.1287533679
H  H270  1  0.37340000  0.05800000  0.77170000  1.0 0.1287533679
H  H271  1  0.55800000  0.87340000  0.27170000  1.0 0.1287533679
H  H272  1  0.87340000  0.27170000  0.55800000  1.0 0.1287533679
H  H273  1  0.27170000  0.55800000  0.87340000  1.0 0.1287533679
H  H274  1  0.94200000  0.22830000  0.62660000  1.0 0.1287533679
H  H275  1  0.22830000  0.62660000  0.94200000  1.0 0.1287533679
H  H276  1  0.62660000  0.94200000  0.22830000  1.0 0.1287533679
H  H277  1  0.37240000  0.16450000  0.77530000  1.0 0.141418599
H  H278  1  0.16450000  0.77530000  0.37240000  1.0 0.141418599
H  H279  1  0.77530000  0.37240000  0.16450000  1.0 0.141418599
H  H280  1  0.12760000  0.72470000  0.33550000  1.0 0.1482102267
H  H281  1  0.72470000  0.33550000  0.12760000  1.0 0.141418599
H  H282  1  0.33550000  0.12760000  0.72470000  1.0 0.141418599
H  H283  1  0.62760000  0.83550000  0.22470000  1.0 0.141418599
H  H284  1  0.83550000  0.22470000  0.62760000  1.0 0.141418599
H  H285  1  0.22470000  0.62760000  0.83550000  1.0 0.141418599
H  H286  1  0.87240000  0.27530000  0.66450000  1.0 0.141418599
H  H287  1  0.27530000  0.66450000  0.87240000  1.0 0.141418599
H  H288  1  0.66450000  0.87240000  0.27530000  1.0 0.141418599
H  H289  1  0.85090000  0.83320000  0.73160000  1.0 0.141418599
H  H290  1  0.83320000  0.73160000  0.85090000  1.0 0.141418599
H  H291  1  0.73160000  0.85090000  0.83320000  1.0 0.141418599
H  H292  1  0.64910000  0.76840000  0.66680000  1.0 0.141418599
H  H293  1  0.76840000  0.66680000  0.64910000  1.0 0.141418599
H  H294  1  0.66680000  0.64910000  0.76840000  1.0 0.141418599
H  H295  1  0.14910000  0.16680000  0.26840000  1.0 0.141418599
H  H296  1  0.16680000  0.26840000  0.14910000  1.0 0.141418599
H  H297  1  0.26840000  0.14910000  0.16680000  1.0 0.141418599
H  H298  1  0.35090000  0.23160000  0.33320000  1.0 0.141418599
H  H299  1  0.23160000  0.33320000  0.35090000  1.0 0.141418599
H  H300  1  0.33320000  0.35090000  0.23160000  1.0 0.141418599
H  H301  1  0.83600000  0.85600000  0.76630000  1.0 0.1208330925
H  H302  1  0.85600000  0.76630000  0.83600000  1.0 0.1208330925
H  H303  1  0.76630000  0.83600000  0.85600000  1.0 0.1208330925
H  H304  1  0.66400000  0.73370000  0.64400000  1.0 0.1208330925
H  H305  1  0.73370000  0.64400000  0.66400000  1.0 0.1208330925
H  H306  1  0.64400000  0.66400000  0.73370000  1.0 0.1208330925
H  H307  1  0.16400000  0.14400000  0.23370000  1.0 0.1208330925
H  H308  1  0.14400000  0.23370000  0.16400000  1.0 0.1208330925
H  H309  1  0.23370000  0.16400000  0.14400000  1.0 0.1208330925
H  H310  1  0.33600000  0.26630000  0.35600000  1.0 0.1208330925
H  H311  1  0.26630000  0.35600000  0.33600000  1.0 0.1208330925
H  H312  1  0.35600000  0.33600000  0.26630000  1.0 0.1287533679
H  H313  1  0.71730000  0.96580000  0.75540000  1.0 0.1287533679
H  H314  1  0.96580000  0.75540000  0.71730000  1.0 0.1287533679
H  H315  1  0.75540000  0.71730000  0.96580000  1.0 0.1287533679
H  H316  1  0.78270000  0.74460000  0.53420000  1.0 0.1287533679
H  H317  1  0.74460000  0.53420000  0.78270000  1.0 0.1287533679
H  H318  1  0.53420000  0.78270000  0.74460000  1.0 0.1287533679
H  H319  1  0.28270000  0.03420000  0.24460000  1.0 0.1287533679
H  H320  1  0.03420000  0.24460000  0.28270000  1.0 0.1287533679
H  H321  1  0.24460000  0.28270000  0.03420000  1.0 0.1287533679
H  H322  1  0.21730000  0.25540000  0.46580000  1.0 0.1287533679
H  H323  1  0.25540000  0.46580000  0.21730000  1.0 0.1287533679
H  H324  1  0.46580000  0.21730000  0.25540000  1.0 0.1287533679
H  H325  1  0.72920000  0.93780000  0.72800000  1.0 0.1482102267
H  H326  1  0.93780000  0.72800000  0.72920000  1.0 0.1482102267
H  H327  1  0.72800000  0.72920000  0.93780000  1.0 0.1482102267
H  H328  1  0.77080000  0.77200000  0.56220000  1.0 0.1482102267
H  H329  1  0.77200000  0.56220000  0.77080000  1.0 0.1482102267
H  H330  1  0.56220000  0.77080000  0.77200000  1.0 0.1482102267
H  H331  1  0.27080000  0.06220000  0.27200000  1.0 0.1482102267
H  H332  1  0.06220000  0.27200000  0.27080000  1.0 0.1482102267
H  H333  1  0.27200000  0.27080000  0.06220000  1.0 0.1482102267
H  H334  1  0.22920000  0.22800000  0.43780000  1.0 0.1482102267
H  H335  1  0.22800000  0.43780000  0.22920000  1.0 0.1482102267
H  H336  1  0.43780000  0.22920000  0.22800000  1.0 0.1482102267
H  H337  1  0.78340000  0.91680000  0.63030000  1.0 0.1482102267
H  H338  1  0.91680000  0.63030000  0.78340000  1.0 0.1482102267
H  H339  1  0.63030000  0.78340000  0.91680000  1.0 0.1482102267
H  H340  1  0.71660000  0.86970000  0.58320000  1.0 0.1482102267
H  H341  1  0.86970000  0.58320000  0.71660000  1.0 0.1482102267
H  H342  1  0.58320000  0.71660000  0.86970000  1.0 0.1482102267
H  H343  1  0.21660000  0.08320000  0.36970000  1.0 0.1482102267
H  H344  1  0.08320000  0.36970000  0.21660000  1.0 0.1482102267
H  H345  1  0.36970000  0.21660000  0.08320000  1.0 0.1482102267
H  H346  1  0.28340000  0.13030000  0.41680000  1.0 0.1482102267
H  H347  1  0.13030000  0.41680000  0.28340000  1.0 0.1482102267
H  H348  1  0.41680000  0.28340000  0.13030000  1.0 0.1482102267
H  H349  1  0.71830000  0.98080000  0.61430000  1.0 0.1287533679
H  H350  1  0.98080000  0.61430000  0.71830000  1.0 0.1287533679
H  H351  1  0.61430000  0.71830000  0.98080000  1.0 0.1287533679
H  H352  1  0.78170000  0.88570000  0.51920000  1.0 0.1287533679
H  H353  1  0.88570000  0.51920000  0.78170000  1.0 0.1287533679
H  H354  1  0.51920000  0.78170000  0.88570000  1.0 0.1287533679
H  H355  1  0.28170000  0.01920000  0.38570000  1.0 0.1287533679
H  H356  1  0.01920000  0.38570000  0.28170000  1.0 0.1287533679
H  H357  1  0.38570000  0.28170000  0.01920000  1.0 0.1287533679
H  H358  1  0.21830000  0.11430000  0.48080000  1.0 0.1287533679
H  H359  1  0.11430000  0.48080000  0.21830000  1.0 0.1287533679
H  H360  1  0.48080000  0.21830000  0.11430000  1.0 0.1287533679
H  H361  1  0.64430000  0.90860000  0.73980000  1.0 0.1287533679
H  H362  1  0.90860000  0.73980000  0.64430000  1.0 0.1287533679
H  H363  1  0.73980000  0.64430000  0.90860000  1.0 0.1208330925
H  H364  1  0.85570000  0.76020000  0.59140000  1.0 0.1287533679
H  H365  1  0.76020000  0.59140000  0.85570000  1.0 0.1287533679
H  H366  1  0.59140000  0.85570000  0.76020000  1.0 0.1287533679
H  H367  1  0.35570000  0.09140000  0.26020000  1.0 0.1287533679
H  H368  1  0.09140000  0.26020000  0.35570000  1.0 0.1287533679
H  H369  1  0.26020000  0.35570000  0.09140000  1.0 0.1287533679
H  H370  1  0.14430000  0.23980000  0.40860000  1.0 0.1287533679
H  H371  1  0.23980000  0.40860000  0.14430000  1.0 0.1208330925
H  H372  1  0.40860000  0.14430000  0.23980000  1.0 0.1287533679
H  H373  1  0.70800000  0.84780000  0.75280000  1.0 0.141418599
H  H374  1  0.84780000  0.75280000  0.70800000  1.0 0.141418599
H  H375  1  0.75280000  0.70800000  0.84780000  1.0 0.141418599
H  H376  1  0.79200000  0.74720000  0.65220000  1.0 0.141418599
H  H377  1  0.74720000  0.65220000  0.79200000  1.0 0.141418599
H  H378  1  0.65220000  0.79200000  0.74720000  1.0 0.141418599
H  H379  1  0.29200000  0.15220000  0.24720000  1.0 0.141418599
H  H380  1  0.15220000  0.24720000  0.29200000  1.0 0.141418599
H  H381  1  0.24720000  0.29200000  0.15220000  1.0 0.141418599
H  H382  1  0.20800000  0.25280000  0.34780000  1.0 0.141418599
H  H383  1  0.25280000  0.34780000  0.20800000  1.0 0.141418599
H  H384  1  0.34780000  0.20800000  0.25280000  1.0 0.141418599
C  C1  1  0.34324000  0.05454000  0.98354000  1.0 0.3159274304
C  C2  1  0.05454000  0.98354000  0.34324000  1.0 0.3159274304
C  C3  1  0.98354000  0.34324000  0.05454000  1.0 0.3159274304
C  C4  1  0.15676000  0.51646000  0.44546000  1.0 0.3159274304
C  C5  1  0.51646000  0.44546000  0.15676000  1.0 0.3159274304
C  C6  1  0.44546000  0.15676000  0.51646000  1.0 0.3159274304
C  C7  1  0.65676000  0.94546000  0.01646000  1.0 0.3159274304
C  C8  1  0.94546000  0.01646000  0.65676000  1.0 0.3159274304
C  C9  1  0.01646000  0.65676000  0.94546000  1.0 0.3159274304
C  C10  1  0.84324000  0.48354000  0.55454000  1.0 0.3159274304
C  C11  1  0.48354000  0.55454000  0.84324000  1.0 0.3159274304
C  C12  1  0.55454000  0.84324000  0.48354000  1.0 0.3159274304
C  C13  1  0.33309000  0.06639000  0.00689000  1.0 -0.1902162759
C  C14  1  0.06639000  0.00689000  0.33309000  1.0 -0.1902162759
C  C15  1  0.00689000  0.33309000  0.06639000  1.0 -0.1902162759
C  C16  1  0.16691000  0.49311000  0.43361000  1.0 -0.1902162759
C  C17  1  0.49311000  0.43361000  0.16691000  1.0 -0.1902162759
C  C18  1  0.43361000  0.16691000  0.49311000  1.0 -0.1902162759
C  C19  1  0.66691000  0.93361000  0.99311000  1.0 -0.1902162759
C  C20  1  0.93361000  0.99311000  0.66691000  1.0 -0.1902162759
C  C21  1  0.99311000  0.66691000  0.93361000  1.0 -0.1902162759
C  C22  1  0.83309000  0.50689000  0.56639000  1.0 -0.1902162759
C  C23  1  0.50689000  0.56639000  0.83309000  1.0 -0.1902162759
C  C24  1  0.56639000  0.83309000  0.50689000  1.0 -0.1902162759
C  C25  1  0.28986000  0.07666000  0.04216000  1.0 -0.0498463633
C  C26  1  0.07666000  0.04216000  0.28986000  1.0 -0.0498463633
C  C27  1  0.04216000  0.28986000  0.07666000  1.0 -0.0498463633
C  C28  1  0.21014000  0.45784000  0.42334000  1.0 -0.0498463633
C  C29  1  0.45784000  0.42334000  0.21014000  1.0 -0.0498463633
C  C30  1  0.42334000  0.21014000  0.45784000  1.0 -0.0498463633
C  C31  1  0.71014000  0.92334000  0.95784000  1.0 -0.0498463633
C  C32  1  0.92334000  0.95784000  0.71014000  1.0 -0.0498463633
C  C33  1  0.95784000  0.71014000  0.92334000  1.0 -0.0498463633
C  C34  1  0.78986000  0.54216000  0.57666000  1.0 -0.0498463633
C  C35  1  0.54216000  0.57666000  0.78986000  1.0 -0.0498463633
C  C36  1  0.57666000  0.78986000  0.54216000  1.0 -0.0498463633
C  C37  1  0.25737000  0.07457000  0.05397000  1.0 -0.0760675217
C  C38  1  0.07457000  0.05397000  0.25737000  1.0 -0.0760675217
C  C39  1  0.05397000  0.25737000  0.07457000  1.0 -0.0760675217
C  C40  1  0.24263000  0.44603000  0.42543000  1.0 -0.0760675217
C  C41  1  0.44603000  0.42543000  0.24263000  1.0 -0.0760675217
C  C42  1  0.42543000  0.24263000  0.44603000  1.0 -0.0760675217
C  C43  1  0.74263000  0.92543000  0.94603000  1.0 -0.0760675217
C  C44  1  0.92543000  0.94603000  0.74263000  1.0 -0.0760675217
C  C45  1  0.94603000  0.74263000  0.92543000  1.0 -0.0760675217
C  C46  1  0.75737000  0.55397000  0.57457000  1.0 -0.0760675217
C  C47  1  0.55397000  0.57457000  0.75737000  1.0 -0.0760675217
C  C48  1  0.57457000  0.75737000  0.55397000  1.0 -0.0760675217
C  C49  1  0.26819000  0.05999000  0.03349000  1.0 -0.0703469537
C  C50  1  0.05999000  0.03349000  0.26819000  1.0 -0.0703469537
C  C51  1  0.03349000  0.26819000  0.05999000  1.0 -0.0703469537
C  C52  1  0.23181000  0.46651000  0.44001000  1.0 -0.0703469537
C  C53  1  0.46651000  0.44001000  0.23181000  1.0 -0.0703469537
C  C54  1  0.44001000  0.23181000  0.46651000  1.0 -0.0703469537
C  C55  1  0.73181000  0.94001000  0.96651000  1.0 -0.0703469537
C  C56  1  0.94001000  0.96651000  0.73181000  1.0 -0.0703469537
C  C57  1  0.96651000  0.73181000  0.94001000  1.0 -0.0703469537
C  C58  1  0.76819000  0.53349000  0.55999000  1.0 -0.0703469537
C  C59  1  0.53349000  0.55999000  0.76819000  1.0 -0.0703469537
C  C60  1  0.55999000  0.76819000  0.53349000  1.0 -0.0703469537
C  C61  1  0.31101000  0.05221000  0.99611000  1.0 -0.1992797388
C  C62  1  0.05221000  0.99611000  0.31101000  1.0 -0.1992797388
C  C63  1  0.99611000  0.31101000  0.05221000  1.0 -0.1992797388
C  C64  1  0.18899000  0.50389000  0.44779000  1.0 -0.1992797388
C  C65  1  0.50389000  0.44779000  0.18899000  1.0 -0.1992797388
C  C66  1  0.44779000  0.18899000  0.50389000  1.0 -0.1992797388
C  C67  1  0.68899000  0.94779000  0.00389000  1.0 -0.1992797388
C  C68  1  0.94779000  0.00389000  0.68899000  1.0 -0.1992797388
C  C69  1  0.00389000  0.68899000  0.94779000  1.0 -0.1992797388
C  C70  1  0.81101000  0.49611000  0.55221000  1.0 -0.1992797388
C  C71  1  0.49611000  0.55221000  0.81101000  1.0 -0.1992797388
C  C72  1  0.55221000  0.81101000  0.49611000  1.0 -0.1992797388
C  C73  1  0.21151000  0.08861000  0.08831000  1.0 0.5710250432
C  C74  1  0.08861000  0.08831000  0.21151000  1.0 0.5710250432
C  C75  1  0.08831000  0.21151000  0.08861000  1.0 0.5710250432
C  C76  1  0.28849000  0.41169000  0.41139000  1.0 0.5710250432
C  C77  1  0.41169000  0.41139000  0.28849000  1.0 0.5710250432
C  C78  1  0.41139000  0.28849000  0.41169000  1.0 0.5710250432
C  C79  1  0.78849000  0.91139000  0.91169000  1.0 0.5710250432
C  C80  1  0.91139000  0.91169000  0.78849000  1.0 0.5710250432
C  C81  1  0.91169000  0.78849000  0.91139000  1.0 0.5710250432
C  C82  1  0.71151000  0.58831000  0.58861000  1.0 0.5710250432
C  C83  1  0.58831000  0.58861000  0.71151000  1.0 0.5710250432
C  C84  1  0.58861000  0.71151000  0.58831000  1.0 0.5710250432
C  C85  1  0.44330000  0.02490000  0.87730000  1.0 0.280322892
C  C86  1  0.02490000  0.87730000  0.44330000  1.0 0.280322892
C  C87  1  0.87730000  0.44330000  0.02490000  1.0 0.280322892
C  C88  1  0.05670000  0.62270000  0.47510000  1.0 0.280322892
C  C89  1  0.62270000  0.47510000  0.05670000  1.0 0.280322892
C  C90  1  0.47510000  0.05670000  0.62270000  1.0 0.280322892
C  C91  1  0.55670000  0.97510000  0.12270000  1.0 0.2685724187
C  C92  1  0.97510000  0.12270000  0.55670000  1.0 0.280322892
C  C93  1  0.12270000  0.55670000  0.97510000  1.0 0.280322892
C  C94  1  0.94330000  0.37730000  0.52490000  1.0 0.280322892
C  C95  1  0.37730000  0.52490000  0.94330000  1.0 0.280322892
C  C96  1  0.52490000  0.94330000  0.37730000  1.0 0.280322892
C  C97  1  0.41970000  0.04370000  0.86050000  1.0 -0.1902162759
C  C98  1  0.04370000  0.86050000  0.41970000  1.0 -0.1902162759
C  C99  1  0.86050000  0.41970000  0.04370000  1.0 -0.1902162759
C  C100  1  0.08030000  0.63950000  0.45630000  1.0 -0.1902162759
C  C101  1  0.63950000  0.45630000  0.08030000  1.0 -0.1902162759
C  C102  1  0.45630000  0.08030000  0.63950000  1.0 -0.1902162759
C  C103  1  0.58030000  0.95630000  0.13950000  1.0 -0.1902162759
C  C104  1  0.95630000  0.13950000  0.58030000  1.0 -0.1902162759
C  C105  1  0.13950000  0.58030000  0.95630000  1.0 -0.1902162759
C  C106  1  0.91970000  0.36050000  0.54370000  1.0 -0.1902162759
C  C107  1  0.36050000  0.54370000  0.91970000  1.0 -0.1902162759
C  C108  1  0.54370000  0.91970000  0.36050000  1.0 -0.1902162759
C  C109  1  0.41841000  0.01431000  0.86691000  1.0 -0.0498463633
C  C110  1  0.01431000  0.86691000  0.41841000  1.0 -0.0498463633
C  C111  1  0.86691000  0.41841000  0.01431000  1.0 -0.0498463633
C  C112  1  0.08159000  0.63309000  0.48569000  1.0 -0.0498463633
C  C113  1  0.63309000  0.48569000  0.08159000  1.0 -0.0498463633
C  C114  1  0.48569000  0.08159000  0.63309000  1.0 -0.0498463633
C  C115  1  0.58159000  0.98569000  0.13309000  1.0 -0.0498463633
C  C116  1  0.98569000  0.13309000  0.58159000  1.0 -0.0498463633
C  C117  1  0.13309000  0.58159000  0.98569000  1.0 -0.0498463633
C  C118  1  0.91841000  0.36691000  0.51431000  1.0 -0.0498463633
C  C119  1  0.36691000  0.51431000  0.91841000  1.0 -0.0498463633
C  C120  1  0.51431000  0.91841000  0.36691000  1.0 -0.0498463633
C  C121  1  0.44290000  0.96720000  0.88860000  1.0 -0.0498463633
C  C122  1  0.96720000  0.88860000  0.44290000  1.0 -0.0422265177
C  C123  1  0.88860000  0.44290000  0.96720000  1.0 -0.0422265177
C  C124  1  0.05710000  0.61140000  0.53280000  1.0 -0.0498463633
C  C125  1  0.61140000  0.53280000  0.05710000  1.0 -0.0498463633
C  C126  1  0.53280000  0.05710000  0.61140000  1.0 -0.0498463633
C  C127  1  0.55710000  0.03280000  0.11140000  1.0 -0.0422265177
C  C128  1  0.03280000  0.11140000  0.55710000  1.0 -0.0498463633
C  C129  1  0.11140000  0.55710000  0.03280000  1.0 -0.0498463633
C  C130  1  0.94290000  0.38860000  0.46720000  1.0 -0.0422265177
C  C131  1  0.38860000  0.46720000  0.94290000  1.0 -0.0498463633
C  C132  1  0.46720000  0.94290000  0.38860000  1.0 -0.0422265177
C  C133  1  0.46378000  0.94858000  0.90848000  1.0 -0.0588653595
C  C134  1  0.94858000  0.90848000  0.46378000  1.0 -0.0588653595
C  C135  1  0.90848000  0.46378000  0.94858000  1.0 -0.0588653595
C  C136  1  0.03622000  0.59152000  0.55142000  1.0 -0.0588653595
C  C137  1  0.59152000  0.55142000  0.03622000  1.0 -0.0588653595
C  C138  1  0.55142000  0.03622000  0.59152000  1.0 -0.0588653595
C  C139  1  0.53622000  0.05142000  0.09152000  1.0 -0.0588653595
C  C140  1  0.05142000  0.09152000  0.53622000  1.0 -0.0588653595
C  C141  1  0.09152000  0.53622000  0.05142000  1.0 -0.0588653595
C  C142  1  0.96378000  0.40848000  0.44858000  1.0 -0.0588653595
C  C143  1  0.40848000  0.44858000  0.96378000  1.0 -0.0588653595
C  C144  1  0.44858000  0.96378000  0.40848000  1.0 -0.0588653595
C  C145  1  0.46549000  0.97859000  0.90079000  1.0 -0.169042204
C  C146  1  0.97859000  0.90079000  0.46549000  1.0 -0.169042204
C  C147  1  0.90079000  0.46549000  0.97859000  1.0 -0.169042204
C  C148  1  0.03451000  0.59921000  0.52141000  1.0 -0.169042204
C  C149  1  0.59921000  0.52141000  0.03451000  1.0 -0.169042204
C  C150  1  0.52141000  0.03451000  0.59921000  1.0 -0.169042204
C  C151  1  0.53451000  0.02141000  0.09921000  1.0 -0.169042204
C  C152  1  0.02141000  0.09921000  0.53451000  1.0 -0.169042204
C  C153  1  0.09921000  0.53451000  0.02141000  1.0 -0.169042204
C  C154  1  0.96549000  0.40079000  0.47859000  1.0 -0.169042204
C  C155  1  0.40079000  0.47859000  0.96549000  1.0 -0.169042204
C  C156  1  0.47859000  0.96549000  0.40079000  1.0 -0.169042204
C  C157  1  0.44207000  0.93587000  0.89637000  1.0 0.5000132082
C  C158  1  0.93587000  0.89637000  0.44207000  1.0 0.491820159
C  C159  1  0.89637000  0.44207000  0.93587000  1.0 0.5000132082
C  C160  1  0.05793000  0.60363000  0.56413000  1.0 0.5000132082
C  C161  1  0.60363000  0.56413000  0.05793000  1.0 0.5000132082
C  C162  1  0.56413000  0.05793000  0.60363000  1.0 0.491820159
C  C163  1  0.55793000  0.06413000  0.10363000  1.0 0.491820159
C  C164  1  0.06413000  0.10363000  0.55793000  1.0 0.491820159
C  C165  1  0.10363000  0.55793000  0.06413000  1.0 0.5000132082
C  C166  1  0.94207000  0.39637000  0.43587000  1.0 0.491820159
C  C167  1  0.39637000  0.43587000  0.94207000  1.0 0.5000132082
C  C168  1  0.43587000  0.94207000  0.39637000  1.0 0.5000132082
C  C169  1  0.37614000  0.15064000  0.93254000  1.0 0.2933807659
C  C170  1  0.15064000  0.93254000  0.37614000  1.0 0.280322892
C  C171  1  0.93254000  0.37614000  0.15064000  1.0 0.2933807659
C  C172  1  0.12386000  0.56746000  0.34936000  1.0 0.280322892
C  C173  1  0.56746000  0.34936000  0.12386000  1.0 0.280322892
C  C174  1  0.34936000  0.12386000  0.56746000  1.0 0.280322892
C  C175  1  0.62386000  0.84936000  0.06746000  1.0 0.280322892
C  C176  1  0.84936000  0.06746000  0.62386000  1.0 0.280322892
C  C177  1  0.06746000  0.62386000  0.84936000  1.0 0.280322892
C  C178  1  0.87614000  0.43254000  0.65064000  1.0 0.2933807659
C  C179  1  0.43254000  0.65064000  0.87614000  1.0 0.280322892
C  C180  1  0.65064000  0.87614000  0.43254000  1.0 0.280322892
C  C181  1  0.32965000  0.17235000  0.95255000  1.0 -0.2056710279
C  C182  1  0.17235000  0.95255000  0.32965000  1.0 -0.2056710279
C  C183  1  0.95255000  0.32965000  0.17235000  1.0 -0.2056710279
C  C184  1  0.17035000  0.54745000  0.32765000  1.0 -0.1992797388
C  C185  1  0.54745000  0.32765000  0.17035000  1.0 -0.2056710279
C  C186  1  0.32765000  0.17035000  0.54745000  1.0 -0.1992797388
C  C187  1  0.67035000  0.82765000  0.04745000  1.0 -0.2056710279
C  C188  1  0.82765000  0.04745000  0.67035000  1.0 -0.2056710279
C  C189  1  0.04745000  0.67035000  0.82765000  1.0 -0.2056710279
C  C190  1  0.82965000  0.45255000  0.67235000  1.0 -0.2056710279
C  C191  1  0.45255000  0.67235000  0.82965000  1.0 -0.1992797388
C  C192  1  0.67235000  0.82965000  0.45255000  1.0 -0.1992797388
C  C193  1  0.30562000  0.15612000  0.00052000  1.0 -0.0422265177
C  C194  1  0.15612000  0.00052000  0.30562000  1.0 -0.0422265177
C  C195  1  0.00052000  0.30562000  0.15612000  1.0 -0.0422265177
C  C196  1  0.19438000  0.49948000  0.34388000  1.0 -0.0422265177
C  C197  1  0.49948000  0.34388000  0.19438000  1.0 -0.0422265177
C  C198  1  0.34388000  0.19438000  0.49948000  1.0 -0.0422265177
C  C199  1  0.69438000  0.84388000  0.99948000  1.0 -0.0422265177
C  C200  1  0.84388000  0.99948000  0.69438000  1.0 -0.0422265177
C  C201  1  0.99948000  0.69438000  0.84388000  1.0 -0.0422265177
C  C202  1  0.80562000  0.50052000  0.65612000  1.0 -0.0422265177
C  C203  1  0.50052000  0.65612000  0.80562000  1.0 -0.0422265177
C  C204  1  0.65612000  0.80562000  0.50052000  1.0 -0.0422265177
C  C205  1  0.33108000  0.11818000  0.02458000  1.0 -0.0703469537
C  C206  1  0.11818000  0.02458000  0.33108000  1.0 -0.0703469537
C  C207  1  0.02458000  0.33108000  0.11818000  1.0 -0.0703469537
C  C208  1  0.16892000  0.47542000  0.38182000  1.0 -0.0703469537
C  C209  1  0.47542000  0.38182000  0.16892000  1.0 -0.0703469537
C  C210  1  0.38182000  0.16892000  0.47542000  1.0 -0.0703469537
C  C211  1  0.66892000  0.88182000  0.97542000  1.0 -0.0703469537
C  C212  1  0.88182000  0.97542000  0.66892000  1.0 -0.0760675217
C  C213  1  0.97542000  0.66892000  0.88182000  1.0 -0.0703469537
C  C214  1  0.83108000  0.52458000  0.61818000  1.0 -0.0703469537
C  C215  1  0.52458000  0.61818000  0.83108000  1.0 -0.0703469537
C  C216  1  0.61818000  0.83108000  0.52458000  1.0 -0.0703469537
C  C217  1  0.37774000  0.09684000  0.00454000  1.0 -0.0588653595
C  C218  1  0.09684000  0.00454000  0.37774000  1.0 -0.0588653595
C  C219  1  0.00454000  0.37774000  0.09684000  1.0 -0.0588653595
C  C220  1  0.12226000  0.49546000  0.40316000  1.0 -0.0588653595
C  C221  1  0.49546000  0.40316000  0.12226000  1.0 -0.0588653595
C  C222  1  0.40316000  0.12226000  0.49546000  1.0 -0.0588653595
C  C223  1  0.62226000  0.90316000  0.99546000  1.0 -0.0588653595
C  C224  1  0.90316000  0.99546000  0.62226000  1.0 -0.0588653595
C  C225  1  0.99546000  0.62226000  0.90316000  1.0 -0.0588653595
C  C226  1  0.87774000  0.50454000  0.59684000  1.0 -0.0588653595
C  C227  1  0.50454000  0.59684000  0.87774000  1.0 -0.0588653595
C  C228  1  0.59684000  0.87774000  0.50454000  1.0 -0.0588653595
C  C229  1  0.40061000  0.11331000  0.95731000  1.0 -0.1902162759
C  C230  1  0.11331000  0.95731000  0.40061000  1.0 -0.1902162759
C  C231  1  0.95731000  0.40061000  0.11331000  1.0 -0.1902162759
C  C232  1  0.09939000  0.54269000  0.38669000  1.0 -0.1902162759
C  C233  1  0.54269000  0.38669000  0.09939000  1.0 -0.1902162759
C  C234  1  0.38669000  0.09939000  0.54269000  1.0 -0.1902162759
C  C235  1  0.59939000  0.88669000  0.04269000  1.0 -0.1902162759
C  C236  1  0.88669000  0.04269000  0.59939000  1.0 -0.1902162759
C  C237  1  0.04269000  0.59939000  0.88669000  1.0 -0.1902162759
C  C238  1  0.90061000  0.45731000  0.61331000  1.0 -0.1902162759
C  C239  1  0.45731000  0.61331000  0.90061000  1.0 -0.1902162759
C  C240  1  0.61331000  0.90061000  0.45731000  1.0 -0.1902162759
C  C241  1  0.30555000  0.10015000  0.07405000  1.0 0.5782393493
C  C242  1  0.10015000  0.07405000  0.30555000  1.0 0.5782393493
C  C243  1  0.07405000  0.30555000  0.10015000  1.0 0.5782393493
C  C244  1  0.19445000  0.42595000  0.39985000  1.0 0.5782393493
C  C245  1  0.42595000  0.39985000  0.19445000  1.0 0.5782393493
C  C246  1  0.39985000  0.19445000  0.42595000  1.0 0.5782393493
C  C247  1  0.69445000  0.89985000  0.92595000  1.0 0.5782393493
C  C248  1  0.89985000  0.92595000  0.69445000  1.0 0.5782393493
C  C249  1  0.92595000  0.69445000  0.89985000  1.0 0.5782393493
C  C250  1  0.80555000  0.57405000  0.60015000  1.0 0.5782393493
C  C251  1  0.57405000  0.60015000  0.80555000  1.0 0.5782393493
C  C252  1  0.60015000  0.80555000  0.57405000  1.0 0.5782393493
C  C253  1  0.49522000  0.12772000  0.81712000  1.0 0.280322892
C  C254  1  0.12772000  0.81712000  0.49522000  1.0 0.280322892
C  C255  1  0.81712000  0.49522000  0.12772000  1.0 0.280322892
C  C256  1  0.00478000  0.68288000  0.37228000  1.0 0.280322892
C  C257  1  0.68288000  0.37228000  0.00478000  1.0 0.280322892
C  C258  1  0.37228000  0.00478000  0.68288000  1.0 0.280322892
C  C259  1  0.50478000  0.87228000  0.18288000  1.0 0.280322892
C  C260  1  0.87228000  0.18288000  0.50478000  1.0 0.280322892
C  C261  1  0.18288000  0.50478000  0.87228000  1.0 0.280322892
C  C262  1  0.99522000  0.31712000  0.62772000  1.0 0.280322892
C  C263  1  0.31712000  0.62772000  0.99522000  1.0 0.280322892
C  C264  1  0.62772000  0.99522000  0.31712000  1.0 0.280322892
C  C265  1  0.52085000  0.09045000  0.81055000  1.0 -0.169042204
C  C266  1  0.09045000  0.81055000  0.52085000  1.0 -0.169042204
C  C267  1  0.81055000  0.52085000  0.09045000  1.0 -0.169042204
C  C268  1  0.97915000  0.68945000  0.40955000  1.0 -0.1644203222
C  C269  1  0.68945000  0.40955000  0.97915000  1.0 -0.1644203222
C  C270  1  0.40955000  0.97915000  0.68945000  1.0 -0.169042204
C  C271  1  0.47915000  0.90955000  0.18945000  1.0 -0.169042204
C  C272  1  0.90955000  0.18945000  0.47915000  1.0 -0.169042204
C  C273  1  0.18945000  0.47915000  0.90955000  1.0 -0.169042204
C  C274  1  0.02085000  0.31055000  0.59045000  1.0 -0.169042204
C  C275  1  0.31055000  0.59045000  0.02085000  1.0 -0.169042204
C  C276  1  0.59045000  0.02085000  0.31055000  1.0 -0.1644203222
C  C277  1  0.56256000  0.05636000  0.81226000  1.0 -0.0588653595
C  C278  1  0.05636000  0.81226000  0.56256000  1.0 -0.0588653595
C  C279  1  0.81226000  0.56256000  0.05636000  1.0 -0.0703469537
C  C280  1  0.93744000  0.68774000  0.44364000  1.0 -0.0703469537
C  C281  1  0.68774000  0.44364000  0.93744000  1.0 -0.0703469537
C  C282  1  0.44364000  0.93744000  0.68774000  1.0 -0.0588653595
C  C283  1  0.43744000  0.94364000  0.18774000  1.0 -0.0588653595
C  C284  1  0.94364000  0.18774000  0.43744000  1.0 -0.0588653595
C  C285  1  0.18774000  0.43744000  0.94364000  1.0 -0.0588653595
C  C286  1  0.06256000  0.31226000  0.55636000  1.0 -0.0588653595
C  C287  1  0.31226000  0.55636000  0.06256000  1.0 -0.0588653595
C  C288  1  0.55636000  0.06256000  0.31226000  1.0 -0.0703469537
C  C289  1  0.57693000  0.06013000  0.82043000  1.0 -0.0422265177
C  C290  1  0.06013000  0.82043000  0.57693000  1.0 -0.0422265177
C  C291  1  0.82043000  0.57693000  0.06013000  1.0 -0.0422265177
C  C292  1  0.92307000  0.67957000  0.43987000  1.0 -0.0422265177
C  C293  1  0.67957000  0.43987000  0.92307000  1.0 -0.0422265177
C  C294  1  0.43987000  0.92307000  0.67957000  1.0 -0.0422265177
C  C295  1  0.42307000  0.93987000  0.17957000  1.0 -0.0422265177
C  C296  1  0.93987000  0.17957000  0.42307000  1.0 -0.0422265177
C  C297  1  0.17957000  0.42307000  0.93987000  1.0 -0.0422265177
C  C298  1  0.07693000  0.32043000  0.56013000  1.0 -0.0422265177
C  C299  1  0.32043000  0.56013000  0.07693000  1.0 -0.0422265177
C  C300  1  0.56013000  0.07693000  0.32043000  1.0 -0.0422265177
C  C301  1  0.55319000  0.09779000  0.82499000  1.0 -0.0703469537
C  C302  1  0.09779000  0.82499000  0.55319000  1.0 -0.0703469537
C  C303  1  0.82499000  0.55319000  0.09779000  1.0 -0.0703469537
C  C304  1  0.94681000  0.67501000  0.40221000  1.0 -0.0703469537
C  C305  1  0.67501000  0.40221000  0.94681000  1.0 -0.0703469537
C  C306  1  0.40221000  0.94681000  0.67501000  1.0 -0.0703469537
C  C307  1  0.44681000  0.90221000  0.17501000  1.0 -0.0703469537
C  C308  1  0.90221000  0.17501000  0.44681000  1.0 -0.0703469537
C  C309  1  0.17501000  0.44681000  0.90221000  1.0 -0.0703469537
C  C310  1  0.05319000  0.32499000  0.59779000  1.0 -0.0703469537
C  C311  1  0.32499000  0.59779000  0.05319000  1.0 -0.0588653595
C  C312  1  0.59779000  0.05319000  0.32499000  1.0 -0.0703469537
C  C313  1  0.50879000  0.13219000  0.82449000  1.0 -0.1992797388
C  C314  1  0.13219000  0.82449000  0.50879000  1.0 -0.1992797388
C  C315  1  0.82449000  0.50879000  0.13219000  1.0 -0.1992797388
C  C316  1  0.99121000  0.67551000  0.36781000  1.0 -0.1992797388
C  C317  1  0.67551000  0.36781000  0.99121000  1.0 -0.1992797388
C  C318  1  0.36781000  0.99121000  0.67551000  1.0 -0.1992797388
C  C319  1  0.49121000  0.86781000  0.17551000  1.0 -0.1992797388
C  C320  1  0.86781000  0.17551000  0.49121000  1.0 -0.1992797388
C  C321  1  0.17551000  0.49121000  0.86781000  1.0 -0.1992797388
C  C322  1  0.00879000  0.32449000  0.63219000  1.0 -0.1992797388
C  C323  1  0.32449000  0.63219000  0.00879000  1.0 -0.1992797388
C  C324  1  0.63219000  0.00879000  0.32449000  1.0 -0.1992797388
C  C325  1  0.61990000  0.02440000  0.82390000  1.0 0.5302802567
C  C326  1  0.02440000  0.82390000  0.61990000  1.0 0.5302802567
C  C327  1  0.82390000  0.61990000  0.02440000  1.0 0.5302802567
C  C328  1  0.88010000  0.67610000  0.47560000  1.0 0.5302802567
C  C329  1  0.67610000  0.47560000  0.88010000  1.0 0.5302802567
C  C330  1  0.47560000  0.88010000  0.67610000  1.0 0.5302802567
C  C331  1  0.38010000  0.97560000  0.17610000  1.0 0.5302802567
C  C332  1  0.97560000  0.17610000  0.38010000  1.0 0.5302802567
C  C333  1  0.17610000  0.38010000  0.97560000  1.0 0.5302802567
C  C334  1  0.11990000  0.32390000  0.52440000  1.0 0.5302802567
C  C335  1  0.32390000  0.52440000  0.11990000  1.0 0.5302802567
C  C336  1  0.52440000  0.11990000  0.32390000  1.0 0.5302802567
C  C337  1  0.26848000  0.21478000  0.90538000  1.0 0.2951705897
C  C338  1  0.21478000  0.90538000  0.26848000  1.0 0.2951705897
C  C339  1  0.90538000  0.26848000  0.21478000  1.0 0.2933807659
C  C340  1  0.23152000  0.59462000  0.28522000  1.0 0.2933807659
C  C341  1  0.59462000  0.28522000  0.23152000  1.0 0.2933807659
C  C342  1  0.28522000  0.23152000  0.59462000  1.0 0.2933807659
C  C343  1  0.73152000  0.78522000  0.09462000  1.0 0.2933807659
C  C344  1  0.78522000  0.09462000  0.73152000  1.0 0.2933807659
C  C345  1  0.09462000  0.73152000  0.78522000  1.0 0.2933807659
C  C346  1  0.76848000  0.40538000  0.71478000  1.0 0.2933807659
C  C347  1  0.40538000  0.71478000  0.76848000  1.0 0.2933807659
C  C348  1  0.71478000  0.76848000  0.40538000  1.0 0.2933807659
C  C349  1  0.25582000  0.25702000  0.89212000  1.0 -0.1822318766
C  C350  1  0.25702000  0.89212000  0.25582000  1.0 -0.1822318766
C  C351  1  0.89212000  0.25582000  0.25702000  1.0 -0.1822318766
C  C352  1  0.24418000  0.60788000  0.24298000  1.0 -0.1822318766
C  C353  1  0.60788000  0.24298000  0.24418000  1.0 -0.1822318766
C  C354  1  0.24298000  0.24418000  0.60788000  1.0 -0.1822318766
C  C355  1  0.74418000  0.74298000  0.10788000  1.0 -0.1822318766
C  C356  1  0.74298000  0.10788000  0.74418000  1.0 -0.1822318766
C  C357  1  0.10788000  0.74418000  0.74298000  1.0 -0.1822318766
C  C358  1  0.75582000  0.39212000  0.75702000  1.0 -0.1822318766
C  C359  1  0.39212000  0.75702000  0.75582000  1.0 -0.1822318766
C  C360  1  0.75702000  0.75582000  0.39212000  1.0 -0.1822318766
C  C361  1  0.22786000  0.26916000  0.92546000  1.0 -0.0588653595
C  C362  1  0.26916000  0.92546000  0.22786000  1.0 -0.0588653595
C  C363  1  0.92546000  0.22786000  0.26916000  1.0 -0.0588653595
C  C364  1  0.27214000  0.57454000  0.23084000  1.0 -0.0588653595
C  C365  1  0.57454000  0.23084000  0.27214000  1.0 -0.0588653595
C  C366  1  0.23084000  0.27214000  0.57454000  1.0 -0.0588653595
C  C367  1  0.77214000  0.73084000  0.07454000  1.0 -0.0588653595
C  C368  1  0.73084000  0.07454000  0.77214000  1.0 -0.0588653595
C  C369  1  0.07454000  0.77214000  0.73084000  1.0 -0.0588653595
C  C370  1  0.72786000  0.42546000  0.76916000  1.0 -0.0588653595
C  C371  1  0.42546000  0.76916000  0.72786000  1.0 -0.0588653595
C  C372  1  0.76916000  0.72786000  0.42546000  1.0 -0.0588653595
C  C373  1  0.21578000  0.23758000  0.97038000  1.0 -0.0760675217
C  C374  1  0.23758000  0.97038000  0.21578000  1.0 -0.0760675217
C  C375  1  0.97038000  0.21578000  0.23758000  1.0 -0.0760675217
C  C376  1  0.28422000  0.52962000  0.26242000  1.0 -0.0760675217
C  C377  1  0.52962000  0.26242000  0.28422000  1.0 -0.0760675217
C  C378  1  0.26242000  0.28422000  0.52962000  1.0 -0.0760675217
C  C379  1  0.78422000  0.76242000  0.02962000  1.0 -0.0760675217
C  C380  1  0.76242000  0.02962000  0.78422000  1.0 -0.0760675217
C  C381  1  0.02962000  0.78422000  0.76242000  1.0 -0.0760675217
C  C382  1  0.71578000  0.47038000  0.73758000  1.0 -0.0760675217
C  C383  1  0.47038000  0.73758000  0.71578000  1.0 -0.0760675217
C  C384  1  0.73758000  0.71578000  0.47038000  1.0 -0.0760675217
C  C385  1  0.22702000  0.19482000  0.98522000  1.0 -0.0422265177
C  C386  1  0.19482000  0.98522000  0.22702000  1.0 -0.0422265177
C  C387  1  0.98522000  0.22702000  0.19482000  1.0 -0.0422265177
C  C388  1  0.27298000  0.51478000  0.30518000  1.0 -0.0422265177
C  C389  1  0.51478000  0.30518000  0.27298000  1.0 -0.0422265177
C  C390  1  0.30518000  0.27298000  0.51478000  1.0 -0.0422265177
C  C391  1  0.77298000  0.80518000  0.01478000  1.0 -0.0422265177
C  C392  1  0.80518000  0.01478000  0.77298000  1.0 -0.0422265177
C  C393  1  0.01478000  0.77298000  0.80518000  1.0 -0.0422265177
C  C394  1  0.72702000  0.48522000  0.69482000  1.0 -0.0422265177
C  C395  1  0.48522000  0.69482000  0.72702000  1.0 -0.0422265177
C  C396  1  0.69482000  0.72702000  0.48522000  1.0 -0.0422265177
C  C397  1  0.25359000  0.18419000  0.95149000  1.0 -0.1992797388
C  C398  1  0.18419000  0.95149000  0.25359000  1.0 -0.1992797388
C  C399  1  0.95149000  0.25359000  0.18419000  1.0 -0.1992797388
C  C400  1  0.24641000  0.54851000  0.31581000  1.0 -0.1992797388
C  C401  1  0.54851000  0.31581000  0.24641000  1.0 -0.1992797388
C  C402  1  0.31581000  0.24641000  0.54851000  1.0 -0.1992797388
C  C403  1  0.74641000  0.81581000  0.04851000  1.0 -0.1992797388
C  C404  1  0.81581000  0.04851000  0.74641000  1.0 -0.1992797388
C  C405  1  0.04851000  0.74641000  0.81581000  1.0 -0.1992797388
C  C406  1  0.75359000  0.45149000  0.68419000  1.0 -0.1992797388
C  C407  1  0.45149000  0.68419000  0.75359000  1.0 -0.1992797388
C  C408  1  0.68419000  0.75359000  0.45149000  1.0 -0.1992797388
C  C409  1  0.19168000  0.24698000  0.00518000  1.0 0.5782393493
C  C410  1  0.24698000  0.00518000  0.19168000  1.0 0.5782393493
C  C411  1  0.00518000  0.19168000  0.24698000  1.0 0.5782393493
C  C412  1  0.30832000  0.49482000  0.25302000  1.0 0.5782393493
C  C413  1  0.49482000  0.25302000  0.30832000  1.0 0.5782393493
C  C414  1  0.25302000  0.30832000  0.49482000  1.0 0.5782393493
C  C415  1  0.80832000  0.75302000  0.99482000  1.0 0.5782393493
C  C416  1  0.75302000  0.99482000  0.80832000  1.0 0.5782393493
C  C417  1  0.99482000  0.80832000  0.75302000  1.0 0.5782393493
C  C418  1  0.69168000  0.50518000  0.74698000  1.0 0.5782393493
C  C419  1  0.50518000  0.74698000  0.69168000  1.0 0.5782393493
C  C420  1  0.74698000  0.69168000  0.50518000  1.0 0.5782393493
C  C421  1  0.39956000  0.17336000  0.77576000  1.0 0.2685724187
C  C422  1  0.17336000  0.77576000  0.39956000  1.0 0.2685724187
C  C423  1  0.77576000  0.39956000  0.17336000  1.0 0.2685724187
C  C424  1  0.10044000  0.72424000  0.32664000  1.0 0.2685724187
C  C425  1  0.72424000  0.32664000  0.10044000  1.0 0.2685724187
C  C426  1  0.32664000  0.10044000  0.72424000  1.0 0.2685724187
C  C427  1  0.60044000  0.82664000  0.22424000  1.0 0.2685724187
C  C428  1  0.82664000  0.22424000  0.60044000  1.0 0.2685724187
C  C429  1  0.22424000  0.60044000  0.82664000  1.0 0.2685724187
C  C430  1  0.89956000  0.27576000  0.67336000  1.0 0.2685724187
C  C431  1  0.27576000  0.67336000  0.89956000  1.0 0.2685724187
C  C432  1  0.67336000  0.89956000  0.27576000  1.0 0.2685724187
C  C433  1  0.43881000  0.17181000  0.75681000  1.0 -0.1822318766
C  C434  1  0.17181000  0.75681000  0.43881000  1.0 -0.1822318766
C  C435  1  0.75681000  0.43881000  0.17181000  1.0 -0.1822318766
C  C436  1  0.06119000  0.74319000  0.32819000  1.0 -0.1822318766
C  C437  1  0.74319000  0.32819000  0.06119000  1.0 -0.1822318766
C  C438  1  0.32819000  0.06119000  0.74319000  1.0 -0.1822318766
C  C439  1  0.56119000  0.82819000  0.24319000  1.0 -0.1822318766
C  C440  1  0.82819000  0.24319000  0.56119000  1.0 -0.1822318766
C  C441  1  0.24319000  0.56119000  0.82819000  1.0 -0.1822318766
C  C442  1  0.93881000  0.25681000  0.67181000  1.0 -0.1822318766
C  C443  1  0.25681000  0.67181000  0.93881000  1.0 -0.1822318766
C  C444  1  0.67181000  0.93881000  0.25681000  1.0 -0.1822318766
C  C445  1  0.48020000  0.15370000  0.72480000  1.0 -0.0498463633
C  C446  1  0.15370000  0.72480000  0.48020000  1.0 -0.0498463633
C  C447  1  0.72480000  0.48020000  0.15370000  1.0 -0.0498463633
C  C448  1  0.01980000  0.77520000  0.34630000  1.0 -0.0498463633
C  C449  1  0.77520000  0.34630000  0.01980000  1.0 -0.0498463633
C  C450  1  0.34630000  0.01980000  0.77520000  1.0 -0.0498463633
C  C451  1  0.51980000  0.84630000  0.27520000  1.0 -0.0498463633
C  C452  1  0.84630000  0.27520000  0.51980000  1.0 -0.0498463633
C  C453  1  0.27520000  0.51980000  0.84630000  1.0 -0.0498463633
C  C454  1  0.98020000  0.22480000  0.65370000  1.0 -0.0498463633
C  C455  1  0.22480000  0.65370000  0.98020000  1.0 -0.0498463633
C  C456  1  0.65370000  0.98020000  0.22480000  1.0 -0.0498463633
C  C457  1  0.48106000  0.13786000  0.71386000  1.0 -0.0422265177
C  C458  1  0.13786000  0.71386000  0.48106000  1.0 -0.0422265177
C  C459  1  0.71386000  0.48106000  0.13786000  1.0 -0.0422265177
C  C460  1  0.01894000  0.78614000  0.36214000  1.0 -0.0422265177
C  C461  1  0.78614000  0.36214000  0.01894000  1.0 -0.0422265177
C  C462  1  0.36214000  0.01894000  0.78614000  1.0 -0.0422265177
C  C463  1  0.51894000  0.86214000  0.28614000  1.0 -0.0422265177
C  C464  1  0.86214000  0.28614000  0.51894000  1.0 -0.0422265177
C  C465  1  0.28614000  0.51894000  0.86214000  1.0 -0.0422265177
C  C466  1  0.98106000  0.21386000  0.63786000  1.0 -0.0422265177
C  C467  1  0.21386000  0.63786000  0.98106000  1.0 -0.0422265177
C  C468  1  0.63786000  0.98106000  0.21386000  1.0 -0.0422265177
C  C469  1  0.44112000  0.13902000  0.73422000  1.0 -0.0498463633
C  C470  1  0.13902000  0.73422000  0.44112000  1.0 -0.0498463633
C  C471  1  0.73422000  0.44112000  0.13902000  1.0 -0.0498463633
C  C472  1  0.05888000  0.76578000  0.36098000  1.0 -0.0498463633
C  C473  1  0.76578000  0.36098000  0.05888000  1.0 -0.0498463633
C  C474  1  0.36098000  0.05888000  0.76578000  1.0 -0.0498463633
C  C475  1  0.55888000  0.86098000  0.26578000  1.0 -0.0498463633
C  C476  1  0.86098000  0.26578000  0.55888000  1.0 -0.0498463633
C  C477  1  0.26578000  0.55888000  0.86098000  1.0 -0.0498463633
C  C478  1  0.94112000  0.23422000  0.63902000  1.0 -0.0498463633
C  C479  1  0.23422000  0.63902000  0.94112000  1.0 -0.0498463633
C  C480  1  0.63902000  0.94112000  0.23422000  1.0 -0.0498463633
C  C481  1  0.40013000  0.16003000  0.76383000  1.0 -0.1822318766
C  C482  1  0.16003000  0.76383000  0.40013000  1.0 -0.1822318766
C  C483  1  0.76383000  0.40013000  0.16003000  1.0 -0.1822318766
C  C484  1  0.09987000  0.73617000  0.33997000  1.0 -0.1822318766
C  C485  1  0.73617000  0.33997000  0.09987000  1.0 -0.1822318766
C  C486  1  0.33997000  0.09987000  0.73617000  1.0 -0.1822318766
C  C487  1  0.59987000  0.83997000  0.23617000  1.0 -0.1822318766
C  C488  1  0.83997000  0.23617000  0.59987000  1.0 -0.1822318766
C  C489  1  0.23617000  0.59987000  0.83997000  1.0 -0.1822318766
C  C490  1  0.90013000  0.26383000  0.66003000  1.0 -0.1822318766
C  C491  1  0.26383000  0.66003000  0.90013000  1.0 -0.1822318766
C  C492  1  0.66003000  0.90013000  0.26383000  1.0 -0.1822318766
C  C493  1  0.52310000  0.11800000  0.68160000  1.0 0.5000132082
C  C494  1  0.11800000  0.68160000  0.52310000  1.0 0.5000132082
C  C495  1  0.68160000  0.52310000  0.11800000  1.0 0.5000132082
C  C496  1  0.97690000  0.81840000  0.38200000  1.0 0.5000132082
C  C497  1  0.81840000  0.38200000  0.97690000  1.0 0.5000132082
C  C498  1  0.38200000  0.97690000  0.81840000  1.0 0.5000132082
C  C499  1  0.47690000  0.88200000  0.31840000  1.0 0.5000132082
C  C500  1  0.88200000  0.31840000  0.47690000  1.0 0.5000132082
C  C501  1  0.31840000  0.47690000  0.88200000  1.0 0.5000132082
C  C502  1  0.02310000  0.18160000  0.61800000  1.0 0.5000132082
C  C503  1  0.18160000  0.61800000  0.02310000  1.0 0.5000132082
C  C504  1  0.61800000  0.02310000  0.18160000  1.0 0.5000132082
C  C505  1  0.78989000  0.88699000  0.72529000  1.0 0.2933807659
C  C506  1  0.88699000  0.72529000  0.78989000  1.0 0.2933807659
C  C507  1  0.72529000  0.78989000  0.88699000  1.0 0.2933807659
C  C508  1  0.71011000  0.77471000  0.61301000  1.0 0.2933807659
C  C509  1  0.77471000  0.61301000  0.71011000  1.0 0.2933807659
C  C510  1  0.61301000  0.71011000  0.77471000  1.0 0.2933807659
C  C511  1  0.21011000  0.11301000  0.27471000  1.0 0.2933807659
C  C512  1  0.11301000  0.27471000  0.21011000  1.0 0.2933807659
C  C513  1  0.27471000  0.21011000  0.11301000  1.0 0.2933807659
C  C514  1  0.28989000  0.22529000  0.38699000  1.0 0.2951705897
C  C515  1  0.22529000  0.38699000  0.28989000  1.0 0.2933807659
C  C516  1  0.38699000  0.28989000  0.22529000  1.0 0.2951705897
C  C517  1  0.82421000  0.85901000  0.73701000  1.0 -0.1822318766
C  C518  1  0.85901000  0.73701000  0.82421000  1.0 -0.1822318766
C  C519  1  0.73701000  0.82421000  0.85901000  1.0 -0.1822318766
C  C520  1  0.67579000  0.76299000  0.64099000  1.0 -0.1822318766
C  C521  1  0.76299000  0.64099000  0.67579000  1.0 -0.1822318766
C  C522  1  0.64099000  0.67579000  0.76299000  1.0 -0.1822318766
C  C523  1  0.17579000  0.14099000  0.26299000  1.0 -0.1822318766
C  C524  1  0.14099000  0.26299000  0.17579000  1.0 -0.1822318766
C  C525  1  0.26299000  0.17579000  0.14099000  1.0 -0.1822318766
C  C526  1  0.32421000  0.23701000  0.35901000  1.0 -0.1822318766
C  C527  1  0.23701000  0.35901000  0.32421000  1.0 -0.1822318766
C  C528  1  0.35901000  0.32421000  0.23701000  1.0 -0.1822318766
C  C529  1  0.81504000  0.87304000  0.75744000  1.0 -0.0588653595
C  C530  1  0.87304000  0.75744000  0.81504000  1.0 -0.0498463633
C  C531  1  0.75744000  0.81504000  0.87304000  1.0 -0.0498463633
C  C532  1  0.68496000  0.74256000  0.62696000  1.0 -0.0588653595
C  C533  1  0.74256000  0.62696000  0.68496000  1.0 -0.0498463633
C  C534  1  0.62696000  0.68496000  0.74256000  1.0 -0.0588653595
C  C535  1  0.18496000  0.12696000  0.24256000  1.0 -0.0588653595
C  C536  1  0.12696000  0.24256000  0.18496000  1.0 -0.0588653595
C  C537  1  0.24256000  0.18496000  0.12696000  1.0 -0.0588653595
C  C538  1  0.31504000  0.25744000  0.37304000  1.0 -0.0588653595
C  C539  1  0.25744000  0.37304000  0.31504000  1.0 -0.0588653595
C  C540  1  0.37304000  0.31504000  0.25744000  1.0 -0.0498463633
C  C541  1  0.77587000  0.91127000  0.76447000  1.0 -0.0703469537
C  C542  1  0.91127000  0.76447000  0.77587000  1.0 -0.0703469537
C  C543  1  0.76447000  0.77587000  0.91127000  1.0 -0.0760675217
C  C544  1  0.72413000  0.73553000  0.58873000  1.0 -0.0703469537
C  C545  1  0.73553000  0.58873000  0.72413000  1.0 -0.0760675217
C  C546  1  0.58873000  0.72413000  0.73553000  1.0 -0.0760675217
C  C547  1  0.22413000  0.08873000  0.23553000  1.0 -0.0703469537
C  C548  1  0.08873000  0.23553000  0.22413000  1.0 -0.0703469537
C  C549  1  0.23553000  0.22413000  0.08873000  1.0 -0.0703469537
C  C550  1  0.27587000  0.26447000  0.41127000  1.0 -0.0703469537
C  C551  1  0.26447000  0.41127000  0.27587000  1.0 -0.0703469537
C  C552  1  0.41127000  0.27587000  0.26447000  1.0 -0.0703469537
C  C553  1  0.74302000  0.93872000  0.75202000  1.0 -0.0422265177
C  C554  1  0.93872000  0.75202000  0.74302000  1.0 -0.0422265177
C  C555  1  0.75202000  0.74302000  0.93872000  1.0 -0.0422265177
C  C556  1  0.75698000  0.74798000  0.56128000  1.0 -0.0422265177
C  C557  1  0.74798000  0.56128000  0.75698000  1.0 -0.0422265177
C  C558  1  0.56128000  0.75698000  0.74798000  1.0 -0.0422265177
C  C559  1  0.25698000  0.06128000  0.24798000  1.0 -0.0422265177
C  C560  1  0.06128000  0.24798000  0.25698000  1.0 -0.0422265177
C  C561  1  0.24798000  0.25698000  0.06128000  1.0 -0.0422265177
C  C562  1  0.24302000  0.25202000  0.43872000  1.0 -0.0422265177
C  C563  1  0.25202000  0.43872000  0.24302000  1.0 -0.0422265177
C  C564  1  0.43872000  0.24302000  0.25202000  1.0 -0.0422265177
C  C565  1  0.75161000  0.92261000  0.73401000  1.0 -0.1902162759
C  C566  1  0.92261000  0.73401000  0.75161000  1.0 -0.1902162759
C  C567  1  0.73401000  0.75161000  0.92261000  1.0 -0.1902162759
C  C568  1  0.74839000  0.76599000  0.57739000  1.0 -0.1902162759
C  C569  1  0.76599000  0.57739000  0.74839000  1.0 -0.1902162759
C  C570  1  0.57739000  0.74839000  0.76599000  1.0 -0.1902162759
C  C571  1  0.24839000  0.07739000  0.26599000  1.0 -0.1902162759
C  C572  1  0.07739000  0.26599000  0.24839000  1.0 -0.1902162759
C  C573  1  0.26599000  0.24839000  0.07739000  1.0 -0.1902162759
C  C574  1  0.25161000  0.23401000  0.42261000  1.0 -0.1902162759
C  C575  1  0.23401000  0.42261000  0.25161000  1.0 -0.1902162759
C  C576  1  0.42261000  0.25161000  0.23401000  1.0 -0.1902162759
C  C577  1  0.76710000  0.92420000  0.78620000  1.0 0.5782393493
C  C578  1  0.92420000  0.78620000  0.76710000  1.0 0.5782393493
C  C579  1  0.78620000  0.76710000  0.92420000  1.0 0.5782393493
C  C580  1  0.73290000  0.71380000  0.57580000  1.0 0.5782393493
C  C581  1  0.71380000  0.57580000  0.73290000  1.0 0.5782393493
C  C582  1  0.57580000  0.73290000  0.71380000  1.0 0.5782393493
C  C583  1  0.23290000  0.07580000  0.21380000  1.0 0.5782393493
C  C584  1  0.07580000  0.21380000  0.23290000  1.0 0.5782393493
C  C585  1  0.21380000  0.23290000  0.07580000  1.0 0.5782393493
C  C586  1  0.26710000  0.28620000  0.42420000  1.0 0.5782393493
C  C587  1  0.28620000  0.42420000  0.26710000  1.0 0.5782393493
C  C588  1  0.42420000  0.26710000  0.28620000  1.0 0.5782393493
C  C589  1  0.74966000  0.87796000  0.69376000  1.0 0.2685724187
C  C590  1  0.87796000  0.69376000  0.74966000  1.0 0.2685724187
C  C591  1  0.69376000  0.74966000  0.87796000  1.0 0.2685724187
C  C592  1  0.75034000  0.80624000  0.62204000  1.0 0.2685724187
C  C593  1  0.80624000  0.62204000  0.75034000  1.0 0.2685724187
C  C594  1  0.62204000  0.75034000  0.80624000  1.0 0.2685724187
C  C595  1  0.25034000  0.12204000  0.30624000  1.0 0.2685724187
C  C596  1  0.12204000  0.30624000  0.25034000  1.0 0.2685724187
C  C597  1  0.30624000  0.25034000  0.12204000  1.0 0.2685724187
C  C598  1  0.24966000  0.19376000  0.37796000  1.0 0.2685724187
C  C599  1  0.19376000  0.37796000  0.24966000  1.0 0.2685724187
C  C600  1  0.37796000  0.24966000  0.19376000  1.0 0.2685724187
C  C601  1  0.75521000  0.91601000  0.65181000  1.0 -0.1902162759
C  C602  1  0.91601000  0.65181000  0.75521000  1.0 -0.1902162759
C  C603  1  0.65181000  0.75521000  0.91601000  1.0 -0.1902162759
C  C604  1  0.74479000  0.84819000  0.58399000  1.0 -0.1902162759
C  C605  1  0.84819000  0.58399000  0.74479000  1.0 -0.1902162759
C  C606  1  0.58399000  0.74479000  0.84819000  1.0 -0.1902162759
C  C607  1  0.24479000  0.08399000  0.34819000  1.0 -0.1902162759
C  C608  1  0.08399000  0.34819000  0.24479000  1.0 -0.1902162759
C  C609  1  0.34819000  0.24479000  0.08399000  1.0 -0.1902162759
C  C610  1  0.25521000  0.15181000  0.41601000  1.0 -0.1902162759
C  C611  1  0.15181000  0.41601000  0.25521000  1.0 -0.1902162759
C  C612  1  0.41601000  0.25521000  0.15181000  1.0 -0.1902162759
C  C613  1  0.71591000  0.95441000  0.64251000  1.0 -0.0498463633
C  C614  1  0.95441000  0.64251000  0.71591000  1.0 -0.0498463633
C  C615  1  0.64251000  0.71591000  0.95441000  1.0 -0.0588653595
C  C616  1  0.78409000  0.85749000  0.54559000  1.0 -0.0498463633
C  C617  1  0.85749000  0.54559000  0.78409000  1.0 -0.0588653595
C  C618  1  0.54559000  0.78409000  0.85749000  1.0 -0.0588653595
C  C619  1  0.28409000  0.04559000  0.35749000  1.0 -0.0588653595
C  C620  1  0.04559000  0.35749000  0.28409000  1.0 -0.0588653595
C  C621  1  0.35749000  0.28409000  0.04559000  1.0 -0.0498463633
C  C622  1  0.21591000  0.14251000  0.45441000  1.0 -0.0588653595
C  C623  1  0.14251000  0.45441000  0.21591000  1.0 -0.0498463633
C  C624  1  0.45441000  0.21591000  0.14251000  1.0 -0.0498463633
C  C625  1  0.67482000  0.95172000  0.67582000  1.0 -0.0498463633
C  C626  1  0.95172000  0.67582000  0.67482000  1.0 -0.0498463633
C  C627  1  0.67582000  0.67482000  0.95172000  1.0 -0.0498463633
C  C628  1  0.82518000  0.82418000  0.54828000  1.0 -0.0498463633
C  C629  1  0.82418000  0.54828000  0.82518000  1.0 -0.0498463633
C  C630  1  0.54828000  0.82518000  0.82418000  1.0 -0.0498463633
C  C631  1  0.32518000  0.04828000  0.32418000  1.0 -0.0498463633
C  C632  1  0.04828000  0.32418000  0.32518000  1.0 -0.0498463633
C  C633  1  0.32418000  0.32518000  0.04828000  1.0 -0.0498463633
C  C634  1  0.17482000  0.17582000  0.45172000  1.0 -0.0498463633
C  C635  1  0.17582000  0.45172000  0.17482000  1.0 -0.0498463633
C  C636  1  0.45172000  0.17482000  0.17582000  1.0 -0.0498463633
C  C637  1  0.67189000  0.91079000  0.71779000  1.0 -0.0498463633
C  C638  1  0.91079000  0.71779000  0.67189000  1.0 -0.0498463633
C  C639  1  0.71779000  0.67189000  0.91079000  1.0 -0.0498463633
C  C640  1  0.82811000  0.78221000  0.58921000  1.0 -0.0498463633
C  C641  1  0.78221000  0.58921000  0.82811000  1.0 -0.0498463633
C  C642  1  0.58921000  0.82811000  0.78221000  1.0 -0.0498463633
C  C643  1  0.32811000  0.08921000  0.28221000  1.0 -0.0498463633
C  C644  1  0.08921000  0.28221000  0.32811000  1.0 -0.0498463633
C  C645  1  0.28221000  0.32811000  0.08921000  1.0 -0.0498463633
C  C646  1  0.17189000  0.21779000  0.41079000  1.0 -0.0498463633
C  C647  1  0.21779000  0.41079000  0.17189000  1.0 -0.0498463633
C  C648  1  0.41079000  0.17189000  0.21779000  1.0 -0.0498463633
C  C649  1  0.70957000  0.87497000  0.72547000  1.0 -0.169042204
C  C650  1  0.87497000  0.72547000  0.70957000  1.0 -0.169042204
C  C651  1  0.72547000  0.70957000  0.87497000  1.0 -0.169042204
C  C652  1  0.79043000  0.77453000  0.62503000  1.0 -0.169042204
C  C653  1  0.77453000  0.62503000  0.79043000  1.0 -0.169042204
C  C654  1  0.62503000  0.79043000  0.77453000  1.0 -0.169042204
C  C655  1  0.29043000  0.12503000  0.27453000  1.0 -0.169042204
C  C656  1  0.12503000  0.27453000  0.29043000  1.0 -0.169042204
C  C657  1  0.27453000  0.29043000  0.12503000  1.0 -0.169042204
C  C658  1  0.20957000  0.22547000  0.37497000  1.0 -0.169042204
C  C659  1  0.22547000  0.37497000  0.20957000  1.0 -0.169042204
C  C660  1  0.37497000  0.20957000  0.22547000  1.0 -0.169042204
C  C661  1  0.63304000  0.98974000  0.67064000  1.0 0.5067502284
C  C662  1  0.98974000  0.67064000  0.63304000  1.0 0.5000132082
C  C663  1  0.67064000  0.63304000  0.98974000  1.0 0.5067502284
C  C664  1  0.86696000  0.82936000  0.51026000  1.0 0.5067502284
C  C665  1  0.82936000  0.51026000  0.86696000  1.0 0.5067502284
C  C666  1  0.51026000  0.86696000  0.82936000  1.0 0.5000132082
C  C667  1  0.36696000  0.01026000  0.32936000  1.0 0.5067502284
C  C668  1  0.01026000  0.32936000  0.36696000  1.0 0.5067502284
C  C669  1  0.32936000  0.36696000  0.01026000  1.0 0.5067502284
C  C670  1  0.13304000  0.17064000  0.48974000  1.0 0.5067502284
C  C671  1  0.17064000  0.48974000  0.13304000  1.0 0.5067502284
C  C672  1  0.48974000  0.13304000  0.17064000  1.0 0.5067502284
N  N1  1  0.36925000  0.18865000  0.84715000  1.0 -0.8122033682
N  N2  1  0.18865000  0.84715000  0.36925000  1.0 -0.8122033682
N  N3  1  0.84715000  0.36925000  0.18865000  1.0 -0.8122033682
N  N4  1  0.13075000  0.65285000  0.31135000  1.0 -0.8122033682
N  N5  1  0.65285000  0.31135000  0.13075000  1.0 -0.8122033682
N  N6  1  0.31135000  0.13075000  0.65285000  1.0 -0.8122033682
N  N7  1  0.63075000  0.81135000  0.15285000  1.0 -0.8122033682
N  N8  1  0.81135000  0.15285000  0.63075000  1.0 -0.8122033682
N  N9  1  0.15285000  0.63075000  0.81135000  1.0 -0.8122033682
N  N10  1  0.86925000  0.34715000  0.68865000  1.0 -0.8122033682
N  N11  1  0.34715000  0.68865000  0.86925000  1.0 -0.8122033682
N  N12  1  0.68865000  0.86925000  0.34715000  1.0 -0.8122033682
N  N13  1  0.36157000  0.12027000  0.88397000  1.0 -0.8010184224
N  N14  1  0.12027000  0.88397000  0.36157000  1.0 -0.8010184224
N  N15  1  0.88397000  0.36157000  0.12027000  1.0 -0.8010184224
N  N16  1  0.13843000  0.61603000  0.37973000  1.0 -0.8010184224
N  N17  1  0.61603000  0.37973000  0.13843000  1.0 -0.8010184224
N  N18  1  0.37973000  0.13843000  0.61603000  1.0 -0.8010184224
N  N19  1  0.63843000  0.87973000  0.11603000  1.0 -0.8010184224
N  N20  1  0.87973000  0.11603000  0.63843000  1.0 -0.8010184224
N  N21  1  0.11603000  0.63843000  0.87973000  1.0 -0.8010184224
N  N22  1  0.86157000  0.38397000  0.62027000  1.0 -0.8010184224
N  N23  1  0.38397000  0.62027000  0.86157000  1.0 -0.8010184224
N  N24  1  0.62027000  0.86157000  0.38397000  1.0 -0.8010184224
N  N25  1  0.41923000  0.10163000  0.89103000  1.0 -0.8010184224
N  N26  1  0.10163000  0.89103000  0.41923000  1.0 -0.8010184224
N  N27  1  0.89103000  0.41923000  0.10163000  1.0 -0.8010184224
N  N28  1  0.08077000  0.60897000  0.39837000  1.0 -0.8010184224
N  N29  1  0.60897000  0.39837000  0.08077000  1.0 -0.8010184224
N  N30  1  0.39837000  0.08077000  0.60897000  1.0 -0.8010184224
N  N31  1  0.58077000  0.89837000  0.10897000  1.0 -0.8010184224
N  N32  1  0.89837000  0.10897000  0.58077000  1.0 -0.8010184224
N  N33  1  0.10897000  0.58077000  0.89837000  1.0 -0.8010184224
N  N34  1  0.91923000  0.39103000  0.60163000  1.0 -0.8010184224
N  N35  1  0.39103000  0.60163000  0.91923000  1.0 -0.8010184224
N  N36  1  0.60163000  0.91923000  0.39103000  1.0 -0.8010184224
N  N37  1  0.74302000  0.83752000  0.78092000  1.0 -0.7865856511
N  N38  1  0.83752000  0.78092000  0.74302000  1.0 -0.7865856511
N  N39  1  0.78092000  0.74302000  0.83752000  1.0 -0.7865856511
N  N40  1  0.75698000  0.71908000  0.66248000  1.0 -0.7846439636
N  N41  1  0.71908000  0.66248000  0.75698000  1.0 -0.7865856511
N  N42  1  0.66248000  0.75698000  0.71908000  1.0 -0.7865856511
N  N43  1  0.25698000  0.16248000  0.21908000  1.0 -0.7865856511
N  N44  1  0.16248000  0.21908000  0.25698000  1.0 -0.7846439636
N  N45  1  0.21908000  0.25698000  0.16248000  1.0 -0.7865856511
N  N46  1  0.24302000  0.28092000  0.33752000  1.0 -0.7865856511
N  N47  1  0.28092000  0.33752000  0.24302000  1.0 -0.7846439636
N  N48  1  0.33752000  0.24302000  0.28092000  1.0 -0.7865856511
O  O1  1  0.19861000  0.11151000  0.10201000  1.0 -0.5423255435
O  O2  1  0.11151000  0.10201000  0.19861000  1.0 -0.5423255435
O  O3  1  0.10201000  0.19861000  0.11151000  1.0 -0.5423255435
O  O4  1  0.30139000  0.39799000  0.38849000  1.0 -0.5423255435
O  O5  1  0.39799000  0.38849000  0.30139000  1.0 -0.5423255435
O  O6  1  0.38849000  0.30139000  0.39799000  1.0 -0.5423255435
O  O7  1  0.80139000  0.88849000  0.89799000  1.0 -0.5423255435
O  O8  1  0.88849000  0.89799000  0.80139000  1.0 -0.5423255435
O  O9  1  0.89799000  0.80139000  0.88849000  1.0 -0.5488496648
O  O10  1  0.69861000  0.60201000  0.61151000  1.0 -0.5423255435
O  O11  1  0.60201000  0.61151000  0.69861000  1.0 -0.5423255435
O  O12  1  0.61151000  0.69861000  0.60201000  1.0 -0.5423255435
O  O13  1  0.17710000  0.08070000  0.11200000  1.0 -0.656472912
O  O14  1  0.08070000  0.11200000  0.17710000  1.0 -0.656472912
O  O15  1  0.11200000  0.17710000  0.08070000  1.0 -0.656472912
O  O16  1  0.32290000  0.38800000  0.41930000  1.0 -0.656472912
O  O17  1  0.38800000  0.41930000  0.32290000  1.0 -0.656472912
O  O18  1  0.41930000  0.32290000  0.38800000  1.0 -0.656472912
O  O19  1  0.82290000  0.91930000  0.88800000  1.0 -0.656472912
O  O20  1  0.91930000  0.88800000  0.82290000  1.0 -0.656472912
O  O21  1  0.88800000  0.82290000  0.91930000  1.0 -0.656472912
O  O22  1  0.67710000  0.61200000  0.58070000  1.0 -0.656472912
O  O23  1  0.61200000  0.58070000  0.67710000  1.0 -0.656472912
O  O24  1  0.58070000  0.67710000  0.61200000  1.0 -0.656472912
O  O25  1  0.42446000  0.95346000  0.87326000  1.0 -0.5701638907
O  O26  1  0.95346000  0.87326000  0.42446000  1.0 -0.5701638907
O  O27  1  0.87326000  0.42446000  0.95346000  1.0 -0.5701638907
O  O28  1  0.07554000  0.62674000  0.54654000  1.0 -0.5701638907
O  O29  1  0.62674000  0.54654000  0.07554000  1.0 -0.5701638907
O  O30  1  0.54654000  0.07554000  0.62674000  1.0 -0.5701638907
O  O31  1  0.57554000  0.04654000  0.12674000  1.0 -0.5701638907
O  O32  1  0.04654000  0.12674000  0.57554000  1.0 -0.5701638907
O  O33  1  0.12674000  0.57554000  0.04654000  1.0 -0.5701638907
O  O34  1  0.92446000  0.37326000  0.45346000  1.0 -0.5701638907
O  O35  1  0.37326000  0.45346000  0.92446000  1.0 -0.5701638907
O  O36  1  0.45346000  0.92446000  0.37326000  1.0 -0.5701638907
O  O37  1  0.45887000  0.88857000  0.92627000  1.0 -0.4803848455
O  O38  1  0.88857000  0.92627000  0.45887000  1.0 -0.4803848455
O  O39  1  0.92627000  0.45887000  0.88857000  1.0 -0.4803848455
O  O40  1  0.04113000  0.57373000  0.61143000  1.0 -0.4803848455
O  O41  1  0.57373000  0.61143000  0.04113000  1.0 -0.4865041381
O  O42  1  0.61143000  0.04113000  0.57373000  1.0 -0.4803848455
O  O43  1  0.54113000  0.11143000  0.07373000  1.0 -0.4865041381
O  O44  1  0.11143000  0.07373000  0.54113000  1.0 -0.4865041381
O  O45  1  0.07373000  0.54113000  0.11143000  1.0 -0.4865041381
O  O46  1  0.95887000  0.42627000  0.38857000  1.0 -0.4865041381
O  O47  1  0.42627000  0.38857000  0.95887000  1.0 -0.4803848455
O  O48  1  0.38857000  0.95887000  0.42627000  1.0 -0.4865041381
O  O49  1  0.25885000  0.11785000  0.09645000  1.0 -0.5701638907
O  O50  1  0.11785000  0.09645000  0.25885000  1.0 -0.5701638907
O  O51  1  0.09645000  0.25885000  0.11785000  1.0 -0.5701638907
O  O52  1  0.24115000  0.40355000  0.38215000  1.0 -0.5701638907
O  O53  1  0.40355000  0.38215000  0.24115000  1.0 -0.5701638907
O  O54  1  0.38215000  0.24115000  0.40355000  1.0 -0.5701638907
O  O55  1  0.74115000  0.88215000  0.90355000  1.0 -0.5701638907
O  O56  1  0.88215000  0.90355000  0.74115000  1.0 -0.5701638907
O  O57  1  0.90355000  0.74115000  0.88215000  1.0 -0.5701638907
O  O58  1  0.75885000  0.59645000  0.61785000  1.0 -0.5701638907
O  O59  1  0.59645000  0.61785000  0.75885000  1.0 -0.5701638907
O  O60  1  0.61785000  0.75885000  0.59645000  1.0 -0.5701638907
O  O61  1  0.32711000  0.06381000  0.10161000  1.0 -0.5921670878
O  O62  1  0.06381000  0.10161000  0.32711000  1.0 -0.5921670878
O  O63  1  0.10161000  0.32711000  0.06381000  1.0 -0.5921670878
O  O64  1  0.17289000  0.39839000  0.43619000  1.0 -0.5921670878
O  O65  1  0.39839000  0.43619000  0.17289000  1.0 -0.5921670878
O  O66  1  0.43619000  0.17289000  0.39839000  1.0 -0.5921670878
O  O67  1  0.67289000  0.93619000  0.89839000  1.0 -0.5921670878
O  O68  1  0.93619000  0.89839000  0.67289000  1.0 -0.5921670878
O  O69  1  0.89839000  0.67289000  0.93619000  1.0 -0.5921670878
O  O70  1  0.82711000  0.60161000  0.56381000  1.0 -0.5921670878
O  O71  1  0.60161000  0.56381000  0.82711000  1.0 -0.5921670878
O  O72  1  0.56381000  0.82711000  0.60161000  1.0 -0.5921670878
O  O73  1  0.64896000  0.98246000  0.82256000  1.0 -0.599142966
O  O74  1  0.98246000  0.82256000  0.64896000  1.0 -0.599142966
O  O75  1  0.82256000  0.64896000  0.98246000  1.0 -0.599142966
O  O76  1  0.85104000  0.67744000  0.51754000  1.0 -0.599142966
O  O77  1  0.67744000  0.51754000  0.85104000  1.0 -0.599142966
O  O78  1  0.51754000  0.85104000  0.67744000  1.0 -0.599142966
O  O79  1  0.35104000  0.01754000  0.17744000  1.0 -0.599142966
O  O80  1  0.01754000  0.17744000  0.35104000  1.0 -0.599142966
O  O81  1  0.17744000  0.35104000  0.01754000  1.0 -0.599142966
O  O82  1  0.14896000  0.32256000  0.48246000  1.0 -0.599142966
O  O83  1  0.32256000  0.48246000  0.14896000  1.0 -0.599142966
O  O84  1  0.48246000  0.14896000  0.32256000  1.0 -0.599142966
O  O85  1  0.63117000  0.03407000  0.83017000  1.0 -0.599142966
O  O86  1  0.03407000  0.83017000  0.63117000  1.0 -0.599142966
O  O87  1  0.83017000  0.63117000  0.03407000  1.0 -0.599142966
O  O88  1  0.86883000  0.66983000  0.46593000  1.0 -0.599142966
O  O89  1  0.66983000  0.46593000  0.86883000  1.0 -0.599142966
O  O90  1  0.46593000  0.86883000  0.66983000  1.0 -0.5921670878
O  O91  1  0.36883000  0.96593000  0.16983000  1.0 -0.599142966
O  O92  1  0.96593000  0.16983000  0.36883000  1.0 -0.599142966
O  O93  1  0.16983000  0.36883000  0.96593000  1.0 -0.599142966
O  O94  1  0.13117000  0.33017000  0.53407000  1.0 -0.599142966
O  O95  1  0.33017000  0.53407000  0.13117000  1.0 -0.599142966
O  O96  1  0.53407000  0.13117000  0.33017000  1.0 -0.599142966
O  O97  1  0.17392000  0.28952000  0.99522000  1.0 -0.5787335359
O  O98  1  0.28952000  0.99522000  0.17392000  1.0 -0.5787335359
O  O99  1  0.99522000  0.17392000  0.28952000  1.0 -0.5787335359
O  O100  1  0.32608000  0.50478000  0.21048000  1.0 -0.5787335359
O  O101  1  0.50478000  0.21048000  0.32608000  1.0 -0.5787335359
O  O102  1  0.21048000  0.32608000  0.50478000  1.0 -0.5787335359
O  O103  1  0.82608000  0.71048000  0.00478000  1.0 -0.5787335359
O  O104  1  0.71048000  0.00478000  0.82608000  1.0 -0.5787335359
O  O105  1  0.00478000  0.82608000  0.71048000  1.0 -0.5787335359
O  O106  1  0.67392000  0.49522000  0.78952000  1.0 -0.5787335359
O  O107  1  0.49522000  0.78952000  0.67392000  1.0 -0.5787335359
O  O108  1  0.78952000  0.67392000  0.49522000  1.0 -0.5787335359
O  O109  1  0.18269000  0.21499000  0.05039000  1.0 -0.5701638907
O  O110  1  0.21499000  0.05039000  0.18269000  1.0 -0.5787335359
O  O111  1  0.05039000  0.18269000  0.21499000  1.0 -0.5787335359
O  O112  1  0.31731000  0.44961000  0.28501000  1.0 -0.5787335359
O  O113  1  0.44961000  0.28501000  0.31731000  1.0 -0.5701638907
O  O114  1  0.28501000  0.31731000  0.44961000  1.0 -0.5787335359
O  O115  1  0.81731000  0.78501000  0.94961000  1.0 -0.5701638907
O  O116  1  0.78501000  0.94961000  0.81731000  1.0 -0.5787335359
O  O117  1  0.94961000  0.81731000  0.78501000  1.0 -0.5701638907
O  O118  1  0.68269000  0.55039000  0.71499000  1.0 -0.5701638907
O  O119  1  0.55039000  0.71499000  0.68269000  1.0 -0.5701638907
O  O120  1  0.71499000  0.68269000  0.55039000  1.0 -0.5787335359
O  O121  1  0.52104000  0.09374000  0.68164000  1.0 -0.5423255435
O  O122  1  0.09374000  0.68164000  0.52104000  1.0 -0.5423255435
O  O123  1  0.68164000  0.52104000  0.09374000  1.0 -0.5488496648
O  O124  1  0.97896000  0.81836000  0.40626000  1.0 -0.5423255435
O  O125  1  0.81836000  0.40626000  0.97896000  1.0 -0.5423255435
O  O126  1  0.40626000  0.97896000  0.81836000  1.0 -0.5423255435
O  O127  1  0.47896000  0.90626000  0.31836000  1.0 -0.5488496648
O  O128  1  0.90626000  0.31836000  0.47896000  1.0 -0.5423255435
O  O129  1  0.31836000  0.47896000  0.90626000  1.0 -0.5423255435
O  O130  1  0.02104000  0.18164000  0.59374000  1.0 -0.5488496648
O  O131  1  0.18164000  0.59374000  0.02104000  1.0 -0.5423255435
O  O132  1  0.59374000  0.02104000  0.18164000  1.0 -0.5488496648
O  O133  1  0.56285000  0.12115000  0.65535000  1.0 -0.5488496648
O  O134  1  0.12115000  0.65535000  0.56285000  1.0 -0.5488496648
O  O135  1  0.65535000  0.56285000  0.12115000  1.0 -0.5488496648
O  O136  1  0.93715000  0.84465000  0.37885000  1.0 -0.5488496648
O  O137  1  0.84465000  0.37885000  0.93715000  1.0 -0.5488496648
O  O138  1  0.37885000  0.93715000  0.84465000  1.0 -0.5488496648
O  O139  1  0.43715000  0.87885000  0.34465000  1.0 -0.5488496648
O  O140  1  0.87885000  0.34465000  0.43715000  1.0 -0.5488496648
O  O141  1  0.34465000  0.43715000  0.87885000  1.0 -0.5488496648
O  O142  1  0.06285000  0.15535000  0.62115000  1.0 -0.5488496648
O  O143  1  0.15535000  0.62115000  0.06285000  1.0 -0.5488496648
O  O144  1  0.62115000  0.06285000  0.15535000  1.0 -0.5488496648
O  O145  1  0.79390000  0.89500000  0.80570000  1.0 -0.5701638907
O  O146  1  0.89500000  0.80570000  0.79390000  1.0 -0.5701638907
O  O147  1  0.80570000  0.79390000  0.89500000  1.0 -0.5701638907
O  O148  1  0.70610000  0.69430000  0.60500000  1.0 -0.5701638907
O  O149  1  0.69430000  0.60500000  0.70610000  1.0 -0.5701638907
O  O150  1  0.60500000  0.70610000  0.69430000  1.0 -0.5701638907
O  O151  1  0.20610000  0.10500000  0.19430000  1.0 -0.5701638907
O  O152  1  0.10500000  0.19430000  0.20610000  1.0 -0.5701638907
O  O153  1  0.19430000  0.20610000  0.10500000  1.0 -0.5701638907
O  O154  1  0.29390000  0.30570000  0.39500000  1.0 -0.5701638907
O  O155  1  0.30570000  0.39500000  0.29390000  1.0 -0.5701638907
O  O156  1  0.39500000  0.29390000  0.30570000  1.0 -0.5701638907
O  O157  1  0.72896000  0.96336000  0.79256000  1.0 -0.5921670878
O  O158  1  0.96336000  0.79256000  0.72896000  1.0 -0.5921670878
O  O159  1  0.79256000  0.72896000  0.96336000  1.0 -0.5921670878
O  O160  1  0.77104000  0.70744000  0.53664000  1.0 -0.5921670878
O  O161  1  0.70744000  0.53664000  0.77104000  1.0 -0.5921670878
O  O162  1  0.53664000  0.77104000  0.70744000  1.0 -0.5921670878
O  O163  1  0.27104000  0.03664000  0.20744000  1.0 -0.5921670878
O  O164  1  0.03664000  0.20744000  0.27104000  1.0 -0.5921670878
O  O165  1  0.20744000  0.27104000  0.03664000  1.0 -0.5921670878
O  O166  1  0.22896000  0.29256000  0.46336000  1.0 -0.5921670878
O  O167  1  0.29256000  0.46336000  0.22896000  1.0 -0.5921670878
O  O168  1  0.46336000  0.22896000  0.29256000  1.0 -0.5921670878
O  O169  1  0.59028000  0.98778000  0.70378000  1.0 -0.4803848455
O  O170  1  0.98778000  0.70378000  0.59028000  1.0 -0.4803848455
O  O171  1  0.70378000  0.59028000  0.98778000  1.0 -0.4803848455
O  O172  1  0.90972000  0.79622000  0.51222000  1.0 -0.4803848455
O  O173  1  0.79622000  0.51222000  0.90972000  1.0 -0.4803848455
O  O174  1  0.51222000  0.90972000  0.79622000  1.0 -0.4803848455
O  O175  1  0.40972000  0.01222000  0.29622000  1.0 -0.4803848455
O  O176  1  0.01222000  0.29622000  0.40972000  1.0 -0.4803848455
O  O177  1  0.29622000  0.40972000  0.01222000  1.0 -0.4803848455
O  O178  1  0.09028000  0.20378000  0.48778000  1.0 -0.4803848455
O  O179  1  0.20378000  0.48778000  0.09028000  1.0 -0.4803848455
O  O180  1  0.48778000  0.09028000  0.20378000  1.0 -0.4803848455
O  O181  1  0.63077000  0.03327000  0.63247000  1.0 -0.5641796545
O  O182  1  0.03327000  0.63247000  0.63077000  1.0 -0.5641796545
O  O183  1  0.63247000  0.63077000  0.03327000  1.0 -0.5701638907
O  O184  1  0.86923000  0.86753000  0.46673000  1.0 -0.5701638907
O  O185  1  0.86753000  0.46673000  0.86923000  1.0 -0.5701638907
O  O186  1  0.46673000  0.86923000  0.86753000  1.0 -0.5701638907
O  O187  1  0.36923000  0.96673000  0.36753000  1.0 -0.5701638907
O  O188  1  0.96673000  0.36753000  0.36923000  1.0 -0.5701638907
O  O189  1  0.36753000  0.36923000  0.96673000  1.0 -0.5701638907
O  O190  1  0.13077000  0.13247000  0.53327000  1.0 -0.5701638907
O  O191  1  0.13247000  0.53327000  0.13077000  1.0 -0.5701638907
O  O192  1  0.53327000  0.13077000  0.13247000  1.0 -0.5641796545
O  O193  1  0.38661000  0.04591000  0.94691000  1.0 -0.3723121499
O  O194  1  0.04591000  0.94691000  0.38661000  1.0 -0.3723121499
O  O195  1  0.94691000  0.38661000  0.04591000  1.0 -0.3723121499
O  O196  1  0.11339000  0.55309000  0.45409000  1.0 -0.3818709972
O  O197  1  0.55309000  0.45409000  0.11339000  1.0 -0.3723121499
O  O198  1  0.45409000  0.11339000  0.55309000  1.0 -0.3723121499
O  O199  1  0.61339000  0.95409000  0.05309000  1.0 -0.3723121499
O  O200  1  0.95409000  0.05309000  0.61339000  1.0 -0.3723121499
O  O201  1  0.05309000  0.61339000  0.95409000  1.0 -0.3723121499
O  O202  1  0.88661000  0.44691000  0.54591000  1.0 -0.3723121499
O  O203  1  0.44691000  0.54591000  0.88661000  1.0 -0.3818709972
O  O204  1  0.54591000  0.88661000  0.44691000  1.0 -0.3723121499
O  O205  1  0.44452000  0.05352000  0.87182000  1.0 -0.3868033161
O  O206  1  0.05352000  0.87182000  0.44452000  1.0 -0.3868033161
O  O207  1  0.87182000  0.44452000  0.05352000  1.0 -0.3818709972
O  O208  1  0.05548000  0.62818000  0.44648000  1.0 -0.3868033161
O  O209  1  0.62818000  0.44648000  0.05548000  1.0 -0.3868033161
O  O210  1  0.44648000  0.05548000  0.62818000  1.0 -0.3868033161
O  O211  1  0.55548000  0.94648000  0.12818000  1.0 -0.3868033161
O  O212  1  0.94648000  0.12818000  0.55548000  1.0 -0.3818709972
O  O213  1  0.12818000  0.55548000  0.94648000  1.0 -0.3818709972
O  O214  1  0.94452000  0.37182000  0.55352000  1.0 -0.3868033161
O  O215  1  0.37182000  0.55352000  0.94452000  1.0 -0.3868033161
O  O216  1  0.55352000  0.94452000  0.37182000  1.0 -0.3818709972
O  O217  1  0.39937000  0.16717000  0.88477000  1.0 -0.3970463928
O  O218  1  0.16717000  0.88477000  0.39937000  1.0 -0.3970463928
O  O219  1  0.88477000  0.39937000  0.16717000  1.0 -0.3970463928
O  O220  1  0.10063000  0.61523000  0.33283000  1.0 -0.3970463928
O  O221  1  0.61523000  0.33283000  0.10063000  1.0 -0.3970463928
O  O222  1  0.33283000  0.10063000  0.61523000  1.0 -0.3970463928
O  O223  1  0.60063000  0.83283000  0.11523000  1.0 -0.3970463928
O  O224  1  0.83283000  0.11523000  0.60063000  1.0 -0.3970463928
O  O225  1  0.11523000  0.60063000  0.83283000  1.0 -0.3970463928
O  O226  1  0.89937000  0.38477000  0.66717000  1.0 -0.3970463928
O  O227  1  0.38477000  0.66717000  0.89937000  1.0 -0.3970463928
O  O228  1  0.66717000  0.89937000  0.38477000  1.0 -0.3970463928
O  O229  1  0.45202000  0.15922000  0.81712000  1.0 -0.3818709972
O  O230  1  0.15922000  0.81712000  0.45202000  1.0 -0.3818709972
O  O231  1  0.81712000  0.45202000  0.15922000  1.0 -0.3818709972
O  O232  1  0.04798000  0.68288000  0.34078000  1.0 -0.3818709972
O  O233  1  0.68288000  0.34078000  0.04798000  1.0 -0.3818709972
O  O234  1  0.34078000  0.04798000  0.68288000  1.0 -0.3818709972
O  O235  1  0.54798000  0.84078000  0.18288000  1.0 -0.3818709972
O  O236  1  0.84078000  0.18288000  0.54798000  1.0 -0.3818709972
O  O237  1  0.18288000  0.54798000  0.84078000  1.0 -0.3818709972
O  O238  1  0.95202000  0.31712000  0.65922000  1.0 -0.3818709972
O  O239  1  0.31712000  0.65922000  0.95202000  1.0 -0.3818709972
O  O240  1  0.65922000  0.95202000  0.31712000  1.0 -0.3818709972
O  O241  1  0.29598000  0.20338000  0.87128000  1.0 -0.3723121499
O  O242  1  0.20338000  0.87128000  0.29598000  1.0 -0.3723121499
O  O243  1  0.87128000  0.29598000  0.20338000  1.0 -0.3723121499
O  O244  1  0.20402000  0.62872000  0.29662000  1.0 -0.3723121499
O  O245  1  0.62872000  0.29662000  0.20402000  1.0 -0.3723121499
O  O246  1  0.29662000  0.20402000  0.62872000  1.0 -0.3723121499
O  O247  1  0.70402000  0.79662000  0.12872000  1.0 -0.3723121499
O  O248  1  0.79662000  0.12872000  0.70402000  1.0 -0.3723121499
O  O249  1  0.12872000  0.70402000  0.79662000  1.0 -0.3723121499
O  O250  1  0.79598000  0.37128000  0.70338000  1.0 -0.3723121499
O  O251  1  0.37128000  0.70338000  0.79598000  1.0 -0.3723121499
O  O252  1  0.70338000  0.79598000  0.37128000  1.0 -0.3723121499
O  O253  1  0.35785000  0.19355000  0.80595000  1.0 -0.3723121499
O  O254  1  0.19355000  0.80595000  0.35785000  1.0 -0.3723121499
O  O255  1  0.80595000  0.35785000  0.19355000  1.0 -0.3723121499
O  O256  1  0.14215000  0.69405000  0.30645000  1.0 -0.3723121499
O  O257  1  0.69405000  0.30645000  0.14215000  1.0 -0.3723121499
O  O258  1  0.30645000  0.14215000  0.69405000  1.0 -0.3723121499
O  O259  1  0.64215000  0.80645000  0.19405000  1.0 -0.3723121499
O  O260  1  0.80645000  0.19405000  0.64215000  1.0 -0.3723121499
O  O261  1  0.19405000  0.64215000  0.80645000  1.0 -0.3723121499
O  O262  1  0.85785000  0.30595000  0.69355000  1.0 -0.3723121499
O  O263  1  0.30595000  0.69355000  0.85785000  1.0 -0.3723121499
O  O264  1  0.69355000  0.85785000  0.30595000  1.0 -0.3723121499
O  O265  1  0.79899000  0.87329000  0.70469000  1.0 -0.3868033161
O  O266  1  0.87329000  0.70469000  0.79899000  1.0 -0.3868033161
O  O267  1  0.70469000  0.79899000  0.87329000  1.0 -0.3868033161
O  O268  1  0.70101000  0.79531000  0.62671000  1.0 -0.3868033161
O  O269  1  0.79531000  0.62671000  0.70101000  1.0 -0.3868033161
O  O270  1  0.62671000  0.70101000  0.79531000  1.0 -0.3868033161
O  O271  1  0.20101000  0.12671000  0.29531000  1.0 -0.3868033161
O  O272  1  0.12671000  0.29531000  0.20101000  1.0 -0.3868033161
O  O273  1  0.29531000  0.20101000  0.12671000  1.0 -0.3868033161
O  O274  1  0.29899000  0.20469000  0.37329000  1.0 -0.3868033161
O  O275  1  0.20469000  0.37329000  0.29899000  1.0 -0.3868033161
O  O276  1  0.37329000  0.29899000  0.20469000  1.0 -0.3868033161
O  O277  1  0.78682000  0.84002000  0.70432000  1.0 -0.3723121499
O  O278  1  0.84002000  0.70432000  0.78682000  1.0 -0.3723121499
O  O279  1  0.70432000  0.78682000  0.84002000  1.0 -0.3723121499
O  O280  1  0.71318000  0.79568000  0.65998000  1.0 -0.3723121499
O  O281  1  0.79568000  0.65998000  0.71318000  1.0 -0.3723121499
O  O282  1  0.65998000  0.71318000  0.79568000  1.0 -0.3723121499
O  O283  1  0.21318000  0.15998000  0.29568000  1.0 -0.3723121499
O  O284  1  0.15998000  0.29568000  0.21318000  1.0 -0.3723121499
O  O285  1  0.29568000  0.21318000  0.15998000  1.0 -0.3723121499
O  O286  1  0.28682000  0.20432000  0.34002000  1.0 -0.3723121499
O  O287  1  0.20432000  0.34002000  0.28682000  1.0 -0.3723121499
O  O288  1  0.34002000  0.28682000  0.20432000  1.0 -0.3723121499
O  O289  1  0.84697000  0.84697000  0.84697000  1.0 -0.8851178443
O  O290  1  0.65303000  0.65303000  0.65303000  1.0 -0.8839207645
O  O291  1  0.15303000  0.15303000  0.15303000  1.0 -0.8839207645
O  O292  1  0.34697000  0.34697000  0.34697000  1.0 -0.8839207645
