# DDEC6 charges by PACMAN v1.1 (https://github.com/mtap-research/PACMAN-charge/)
data_WIVRIE_ASR_pacman
_symmetry_space_group_name_H-M   'P 1'
_cell_length_a   40.83350000
_cell_length_b   36.49180000
_cell_length_c   18.99320000
_cell_angle_alpha   88.96580000
_cell_angle_beta   63.31990000
_cell_angle_gamma   27.71430000
_symmetry_Int_Tables_number   1
_chemical_formula_structural   Cd2H24(C11O4)3
_chemical_formula_sum   'Cd8 H96 C132 O48'
_cell_volume   4794.42238949
_cell_formula_units_Z   4
loop_
 _symmetry_equiv_pos_site_id
 _symmetry_equiv_pos_as_xyz
  1  'x, y, z'
loop_
 _atom_site_type_symbol
 _atom_site_label
 _atom_site_symmetry_multiplicity
 _atom_site_fract_x
 _atom_site_fract_y
 _atom_site_fract_z
 _atom_site_occupancy
 _atom_site_charge
Cd  Cd1  1  0.95789000  0.18113000  0.80499000  1.0 0.9673809721
Cd  Cd2  1  0.05599000  0.80499000  0.18113000  1.0 0.9673809721
Cd  Cd3  1  0.06887000  0.29211000  0.19401000  1.0 0.9673809721
Cd  Cd4  1  0.44501000  0.19401000  0.29211000  1.0 0.9673809721
Cd  Cd5  1  0.43615000  0.68931000  0.37873000  1.0 1.0745788528
Cd  Cd6  1  0.49581000  0.37873000  0.68931000  1.0 1.0745788528
Cd  Cd7  1  0.56069000  0.81385000  0.75419000  1.0 1.0745788528
Cd  Cd8  1  0.87127000  0.75419000  0.81385000  1.0 1.0745788528
H  H1  1  0.11200000  0.99400000  0.23840000  1.0 0.1012684288
H  H2  1  0.65560000  0.23840000  0.99400000  1.0 0.1012684288
H  H3  1  0.25600000  0.13800000  0.59440000  1.0 0.1012684288
H  H4  1  0.01160000  0.59440000  0.13800000  1.0 0.1012684288
H  H5  1  0.11990000  0.02950000  0.22410000  1.0 0.1012684288
H  H6  1  0.62650000  0.22410000  0.02950000  1.0 0.1012684288
H  H7  1  0.22050000  0.13010000  0.62350000  1.0 0.1012684288
H  H8  1  0.02590000  0.62350000  0.13010000  1.0 0.1012684288
H  H9  1  0.38520000  0.75440000  0.03900000  1.0 0.1111472817
H  H10  1  0.82140000  0.03900000  0.75440000  1.0 0.1111472817
H  H11  1  0.49560000  0.86480000  0.42860000  1.0 0.1111472817
H  H12  1  0.21100000  0.42860000  0.86480000  1.0 0.1111472817
H  H13  1  0.63620000  0.50840000  0.88560000  1.0 0.1111472817
H  H14  1  0.96980000  0.88560000  0.50840000  1.0 0.1111472817
H  H15  1  0.74160000  0.61380000  0.28020000  1.0 0.1111472817
H  H16  1  0.36440000  0.28020000  0.61380000  1.0 0.1111472817
H  H17  1  0.25460000  0.87720000  0.39940000  1.0 0.1206244427
H  H18  1  0.46880000  0.39940000  0.87720000  1.0 0.1206244427
H  H19  1  0.37280000  0.99540000  0.78120000  1.0 0.1206244427
H  H20  1  0.85060000  0.78120000  0.99540000  1.0 0.1206244427
H  H21  1  0.00270000  0.12370000  0.55330000  1.0 0.1445780559
H  H22  1  0.32030000  0.55330000  0.12370000  1.0 0.1445780559
H  H23  1  0.12630000  0.24730000  0.92970000  1.0 0.1445780559
H  H24  1  0.69670000  0.92970000  0.24730000  1.0 0.1479527904
H  H25  1  0.84070000  0.22410000  0.46670000  1.0 0.0934410602
H  H26  1  0.46850000  0.46670000  0.22410000  1.0 0.0934410602
H  H27  1  0.02590000  0.40930000  0.78150000  1.0 0.0934410602
H  H28  1  0.78330000  0.78150000  0.40930000  1.0 0.0934410602
H  H29  1  0.77040000  0.30780000  0.60560000  1.0 0.1111472817
H  H30  1  0.31620000  0.60560000  0.30780000  1.0 0.1111472817
H  H31  1  0.94220000  0.47960000  0.93380000  1.0 0.1111472817
H  H32  1  0.64440000  0.93380000  0.47960000  1.0 0.1111472817
H  H33  1  0.75020000  0.26480000  0.55540000  1.0 0.1206244427
H  H34  1  0.42960000  0.55540000  0.26480000  1.0 0.1206244427
H  H35  1  0.98520000  0.49980000  0.82040000  1.0 0.1206244427
H  H36  1  0.69460000  0.82040000  0.49980000  1.0 0.1206244427
H  H37  1  0.59960000  0.35600000  0.68900000  1.0 0.1206244427
H  H38  1  0.35540000  0.68900000  0.35600000  1.0 0.1206244427
H  H39  1  0.89400000  0.65040000  0.89460000  1.0 0.1206244427
H  H40  1  0.56100000  0.89460000  0.65040000  1.0 0.1206244427
H  H41  1  0.08450000  0.91190000  0.15110000  1.0 0.1111472817
H  H42  1  0.85250000  0.15110000  0.91190000  1.0 0.1111472817
H  H43  1  0.33810000  0.16550000  0.39750000  1.0 0.1111472817
H  H44  1  0.09890000  0.39750000  0.16550000  1.0 0.1111472817
H  H45  1  0.23460000  0.82100000  0.01800000  1.0 0.1271060346
H  H46  1  0.92640000  0.01800000  0.82100000  1.0 0.1271060346
H  H47  1  0.42900000  0.01540000  0.32360000  1.0 0.1271060346
H  H48  1  0.23200000  0.32360000  0.01540000  1.0 0.1271060346
H  H49  1  0.56300000  0.58000000  0.72760000  1.0 0.0934410602
H  H50  1  0.12940000  0.72760000  0.58000000  1.0 0.0934410602
H  H51  1  0.67000000  0.68700000  0.12060000  1.0 0.0934410602
H  H52  1  0.52240000  0.12060000  0.68700000  1.0 0.0934410602
H  H53  1  0.65350000  0.48830000  0.71990000  1.0 0.1012684288
H  H54  1  0.13830000  0.71990000  0.48830000  1.0 0.1012684288
H  H55  1  0.76170000  0.59650000  0.11170000  1.0 0.1012684288
H  H56  1  0.53010000  0.11170000  0.59650000  1.0 0.1012684288
H  H57  1  0.38500000  0.79560000  0.95560000  1.0 0.1012684288
H  H58  1  0.86380000  0.95560000  0.79560000  1.0 0.1012684288
H  H59  1  0.45440000  0.86500000  0.38620000  1.0 0.1012684288
H  H60  1  0.29440000  0.38620000  0.86500000  1.0 0.1012684288
H  H61  1  0.18130000  0.04530000  0.13590000  1.0 0.1206244427
H  H62  1  0.63750000  0.13590000  0.04530000  1.0 0.1206244427
H  H63  1  0.20470000  0.06870000  0.61250000  1.0 0.1206244427
H  H64  1  0.11410000  0.61250000  0.06870000  1.0 0.1206244427
H  H65  1  0.60360000  0.68840000  0.64900000  1.0 0.1206244427
H  H66  1  0.05900000  0.64900000  0.68840000  1.0 0.1206244427
H  H67  1  0.56160000  0.64640000  0.19100000  1.0 0.1206244427
H  H68  1  0.60100000  0.19100000  0.64640000  1.0 0.1206244427
H  H69  1  0.80480000  0.44120000  0.46980000  1.0 0.1479527904
H  H70  1  0.28420000  0.46980000  0.44120000  1.0 0.1479527904
H  H71  1  0.80880000  0.44520000  0.96580000  1.0 0.1479527904
H  H72  1  0.78020000  0.96580000  0.44520000  1.0 0.1479527904
H  H73  1  0.75230000  0.36210000  0.44670000  1.0 0.1012684288
H  H74  1  0.43890000  0.44670000  0.36210000  1.0 0.1012684288
H  H75  1  0.88790000  0.49770000  0.81110000  1.0 0.1012684288
H  H76  1  0.80330000  0.81110000  0.49770000  1.0 0.1012684288
H  H77  1  0.83960000  0.31540000  0.37560000  1.0 0.1012684288
H  H78  1  0.46940000  0.37560000  0.31540000  1.0 0.1012684288
H  H79  1  0.93460000  0.41040000  0.78060000  1.0 0.1012684288
H  H80  1  0.87440000  0.78060000  0.41040000  1.0 0.1012684288
H  H81  1  0.81610000  0.33190000  0.28230000  1.0 0.1206244427
H  H82  1  0.56970000  0.28230000  0.33190000  1.0 0.1206244427
H  H83  1  0.91810000  0.43390000  0.68030000  1.0 0.1206244427
H  H84  1  0.96770000  0.68030000  0.43390000  1.0 0.1206244427
H  H85  1  0.87050000  0.27970000  0.11230000  1.0 0.1206244427
H  H86  1  0.73750000  0.11230000  0.27970000  1.0 0.1206244427
H  H87  1  0.97030000  0.37950000  0.51250000  1.0 0.1206244427
H  H88  1  0.13770000  0.51250000  0.37950000  1.0 0.1206244427
H  H89  1  0.35370000  0.74690000  0.69170000  1.0 0.1111472817
H  H90  1  0.20770000  0.69170000  0.74690000  1.0 0.1111472817
H  H91  1  0.50310000  0.89630000  0.04230000  1.0 0.1111472817
H  H92  1  0.55830000  0.04230000  0.89630000  1.0 0.1111472817
H  H93  1  0.30030000  0.79850000  0.86050000  1.0 0.1271060346
H  H94  1  0.04070000  0.86050000  0.79850000  1.0 0.1271060346
H  H95  1  0.45150000  0.94970000  0.20930000  1.0 0.1271060346
H  H96  1  0.38950000  0.20930000  0.94970000  1.0 0.1271060346
C  C1  1  0.84153000  0.28233000  0.46767000  1.0 0.0568629088
C  C2  1  0.40847000  0.46767000  0.28233000  1.0 0.0568629088
C  C3  1  0.96767000  0.40847000  0.84153000  1.0 0.0568629088
C  C4  1  0.78233000  0.84153000  0.40847000  1.0 0.0568629088
C  C5  1  0.04416000  0.08316000  0.31204000  1.0 -0.0896819761
C  C6  1  0.56064000  0.31204000  0.08316000  1.0 -0.0896819761
C  C7  1  0.16684000  0.20584000  0.68936000  1.0 -0.0896819761
C  C8  1  0.93796000  0.68936000  0.20584000  1.0 -0.0896819761
C  C9  1  0.16913000  0.96353000  0.31147000  1.0 0.2619585483
C  C10  1  0.55587000  0.31147000  0.96353000  1.0 0.2619585483
C  C11  1  0.28647000  0.08087000  0.69413000  1.0 0.2619585483
C  C12  1  0.93853000  0.69413000  0.08087000  1.0 0.2619585483
C  C13  1  0.35920000  0.77880000  0.11120000  1.0 -0.2573262216
C  C14  1  0.75080000  0.11120000  0.77880000  1.0 -0.2573262216
C  C15  1  0.47120000  0.89080000  0.49920000  1.0 -0.2573262216
C  C16  1  0.13880000  0.49920000  0.89080000  1.0 -0.2573262216
C  C17  1  0.50890000  0.63210000  0.01990000  1.0 -0.0803782326
C  C18  1  0.83910000  0.01990000  0.63210000  1.0 -0.0803782326
C  C19  1  0.61790000  0.74110000  0.41090000  1.0 -0.0803782326
C  C20  1  0.23010000  0.41090000  0.74110000  1.0 -0.0803782326
C  C21  1  0.47133000  0.66753000  0.12607000  1.0 -0.0409315434
C  C22  1  0.73507000  0.12607000  0.66753000  1.0 -0.0409315434
C  C23  1  0.58247000  0.77867000  0.51493000  1.0 -0.0409315434
C  C24  1  0.12393000  0.51493000  0.77867000  1.0 -0.0409315434
C  C25  1  0.28088000  0.85248000  0.32692000  1.0 -0.0803782326
C  C26  1  0.53972000  0.32692000  0.85248000  1.0 -0.0803782326
C  C27  1  0.39752000  0.96912000  0.71028000  1.0 -0.0803782326
C  C28  1  0.92308000  0.71028000  0.96912000  1.0 -0.0803782326
C  C29  1  0.12990000  0.00030000  0.41910000  1.0 -0.2107233131
C  C30  1  0.45070000  0.41910000  0.00030000  1.0 -0.2107233131
C  C31  1  0.24970000  0.12010000  0.79930000  1.0 -0.2107233131
C  C32  1  0.83090000  0.79930000  0.12010000  1.0 -0.2107233131
C  C33  1  0.63528000  0.50068000  0.02692000  1.0 0.568496616
C  C34  1  0.83712000  0.02692000  0.50068000  1.0 0.568496616
C  C35  1  0.74932000  0.61472000  0.41288000  1.0 0.568496616
C  C36  1  0.22308000  0.41288000  0.61472000  1.0 0.568496616
C  C37  1  0.76450000  0.31750000  0.56050000  1.0 -0.0704561929
C  C38  1  0.35750000  0.56050000  0.31750000  1.0 -0.0704561929
C  C39  1  0.93250000  0.48550000  0.89250000  1.0 -0.0704561929
C  C40  1  0.68950000  0.89250000  0.48550000  1.0 -0.0704561929
C  C41  1  0.50700000  0.53420000  0.77380000  1.0 0.2370089156
C  C42  1  0.18500000  0.77380000  0.53420000  1.0 0.2370089156
C  C43  1  0.71580000  0.74300000  0.06500000  1.0 0.2370089156
C  C44  1  0.47620000  0.06500000  0.74300000  1.0 0.2370089156
C  C45  1  0.61640000  0.39480000  0.67520000  1.0 -0.2297988949
C  C46  1  0.31360000  0.67520000  0.39480000  1.0 -0.2297988949
C  C47  1  0.85520000  0.63360000  0.93640000  1.0 -0.2297988949
C  C48  1  0.57480000  0.93640000  0.63360000  1.0 -0.2297988949
C  C49  1  0.52650000  0.44910000  0.75490000  1.0 -0.0704561929
C  C50  1  0.26950000  0.75490000  0.44910000  1.0 -0.0704561929
C  C51  1  0.80090000  0.72350000  0.98050000  1.0 -0.0704561929
C  C52  1  0.49510000  0.98050000  0.72350000  1.0 -0.0704561929
C  C53  1  0.32824000  0.64184000  0.93216000  1.0 -0.0803782326
C  C54  1  0.09776000  0.93216000  0.64184000  1.0 -0.0803782326
C  C55  1  0.60816000  0.92176000  0.15224000  1.0 -0.0803782326
C  C56  1  0.31784000  0.15224000  0.92176000  1.0 -0.0803782326
C  C57  1  0.21790000  0.78230000  0.03170000  1.0 -0.0704561929
C  C58  1  0.96810000  0.03170000  0.78230000  1.0 -0.0704561929
C  C59  1  0.46770000  0.03210000  0.28190000  1.0 -0.0704561929
C  C60  1  0.21830000  0.28190000  0.03210000  1.0 -0.0704561929
C  C61  1  0.30770000  0.72790000  0.95210000  1.0 -0.2297988949
C  C62  1  0.01230000  0.95210000  0.72790000  1.0 -0.2297988949
C  C63  1  0.52210000  0.94230000  0.23770000  1.0 -0.2297988949
C  C64  1  0.29790000  0.23770000  0.94230000  1.0 -0.2297988949
C  C65  1  0.22331000  0.71071000  0.02729000  1.0 0.5580613328
C  C66  1  0.03869000  0.02729000  0.71071000  1.0 0.5580613328
C  C67  1  0.53929000  0.02669000  0.21131000  1.0 0.5580613328
C  C68  1  0.22271000  0.21131000  0.02669000  1.0 0.5580613328
C  C69  1  0.68152000  0.46552000  0.64448000  1.0 -0.0803782326
C  C70  1  0.20848000  0.64448000  0.46552000  1.0 -0.0803782326
C  C71  1  0.78448000  0.56848000  0.04152000  1.0 -0.0803782326
C  C72  1  0.60552000  0.04152000  0.56848000  1.0 -0.0803782326
C  C73  1  0.61550000  0.59310000  0.69490000  1.0 0.2257555513
C  C74  1  0.09650000  0.69490000  0.59310000  1.0 0.2257555513
C  C75  1  0.65690000  0.63450000  0.15350000  1.0 0.2257555513
C  C76  1  0.55510000  0.15350000  0.63450000  1.0 0.2257555513
C  C77  1  0.42890000  0.77430000  0.89370000  1.0 -0.2168647783
C  C78  1  0.90310000  0.89370000  0.77430000  1.0 -0.2168647783
C  C79  1  0.47570000  0.82110000  0.34690000  1.0 -0.2168647783
C  C80  1  0.35630000  0.34690000  0.82110000  1.0 -0.2168647783
C  C81  1  0.30660000  0.92400000  0.00200000  1.0 -0.0978088701
C  C82  1  0.76740000  0.00200000  0.92400000  1.0 -0.0978088701
C  C83  1  0.32600000  0.94340000  0.48260000  1.0 -0.0978088701
C  C84  1  0.24800000  0.48260000  0.94340000  1.0 -0.0978088701
C  C85  1  0.37100000  0.89320000  0.91080000  1.0 -0.0409315434
C  C86  1  0.82500000  0.91080000  0.89320000  1.0 -0.0409315434
C  C87  1  0.35680000  0.87900000  0.42500000  1.0 -0.0409315434
C  C88  1  0.33920000  0.42500000  0.87900000  1.0 -0.0409315434
C  C89  1  0.55880000  0.71080000  0.71120000  1.0 -0.0896819761
C  C90  1  0.01920000  0.71120000  0.71080000  1.0 -0.0896819761
C  C91  1  0.53920000  0.69120000  0.23080000  1.0 -0.0896819761
C  C92  1  0.53880000  0.23080000  0.69120000  1.0 -0.0896819761
C  C93  1  0.67970000  0.56230000  0.60370000  1.0 -0.1758230539
C  C94  1  0.15430000  0.60370000  0.56230000  1.0 -0.1758230539
C  C95  1  0.68770000  0.57030000  0.09570000  1.0 -0.1758230539
C  C96  1  0.64630000  0.09570000  0.57030000  1.0 -0.1758230539
C  C97  1  0.25736000  0.03976000  0.01224000  1.0 0.5902257575
C  C98  1  0.69064000  0.01224000  0.03976000  1.0 0.5902257575
C  C99  1  0.21024000  0.99264000  0.55936000  1.0 0.5902257575
C  C100  1  0.23776000  0.55936000  0.99264000  1.0 0.5902257575
C  C101  1  0.85680000  0.27280000  0.37120000  1.0 -0.0130203232
C  C102  1  0.49920000  0.37120000  0.27280000  1.0 -0.0130203232
C  C103  1  0.97720000  0.39320000  0.75080000  1.0 -0.0130203232
C  C104  1  0.87880000  0.75080000  0.39320000  1.0 -0.0130203232
C  C105  1  0.05130000  0.07190000  0.09010000  1.0 0.2149016871
C  C106  1  0.78670000  0.09010000  0.07190000  1.0 0.2149016871
C  C107  1  0.17810000  0.19870000  0.46330000  1.0 0.2149016871
C  C108  1  0.15990000  0.46330000  0.19870000  1.0 0.2152299149
C  C109  1  0.92520000  0.21340000  0.16260000  1.0 -0.2297988949
C  C110  1  0.69880000  0.16260000  0.21340000  1.0 -0.2297988949
C  C111  1  0.03660000  0.32480000  0.55120000  1.0 -0.2297988949
C  C112  1  0.08740000  0.55120000  0.32480000  1.0 -0.2297988949
C  C113  1  0.95720000  0.18260000  0.06140000  1.0 -0.0614900352
C  C114  1  0.79880000  0.06140000  0.18260000  1.0 -0.0614900352
C  C115  1  0.06740000  0.29280000  0.45120000  1.0 -0.0614900352
C  C116  1  0.18860000  0.45120000  0.29280000  1.0 -0.0614900352
C  C117  1  0.11780000  0.00780000  0.88420000  1.0 -0.0614900352
C  C118  1  0.99020000  0.88420000  0.00780000  1.0 -0.0614900352
C  C119  1  0.24220000  0.13220000  0.25980000  1.0 -0.0614900352
C  C120  1  0.36580000  0.25980000  0.13220000  1.0 -0.0614900352
C  C121  1  0.24510000  0.86510000  0.81090000  1.0 -0.0704561929
C  C122  1  0.07890000  0.81090000  0.86510000  1.0 -0.0704561929
C  C123  1  0.38490000  0.00490000  0.17110000  1.0 -0.0704561929
C  C124  1  0.43910000  0.17110000  0.00490000  1.0 -0.0704561929
C  C125  1  0.21290000  0.89610000  0.91190000  1.0 -0.2168647783
C  C126  1  0.97910000  0.91190000  0.89610000  1.0 -0.2168647783
C  C127  1  0.35390000  0.03710000  0.27090000  1.0 -0.2168647783
C  C128  1  0.33810000  0.27090000  0.03710000  1.0 -0.2168647783
C  C129  1  0.14030000  0.98590000  0.78610000  1.0 0.5902257575
C  C130  1  0.08770000  0.78610000  0.98590000  1.0 0.5902257575
C  C131  1  0.26410000  0.10970000  0.16230000  1.0 0.5902257575
C  C132  1  0.46390000  0.16230000  0.10970000  1.0 0.5902257575
O  O1  1  0.01169000  0.11775000  0.41665000  1.0 -0.1735130237
O  O2  1  0.45391000  0.41665000  0.11775000  1.0 -0.1735130237
O  O3  1  0.13225000  0.23831000  0.79609000  1.0 -0.1735130237
O  O4  1  0.83335000  0.79609000  0.23831000  1.0 -0.1735130237
O  O5  1  0.61643000  0.51843000  0.10677000  1.0 -0.5351665305
O  O6  1  0.75837000  0.10677000  0.51843000  1.0 -0.5341010974
O  O7  1  0.73157000  0.63357000  0.49163000  1.0 -0.5351665305
O  O8  1  0.14323000  0.49163000  0.63357000  1.0 -0.5351665305
O  O9  1  0.80895000  0.32995000  0.83665000  1.0 -0.5600702079
O  O10  1  0.02445000  0.83665000  0.32995000  1.0 -0.5600702079
O  O11  1  0.92005000  0.44105000  0.22555000  1.0 -0.5600702079
O  O12  1  0.41335000  0.22555000  0.44105000  1.0 -0.5600702079
O  O13  1  0.57879000  0.49979000  0.71021000  1.0 -0.190035122
O  O14  1  0.21121000  0.71021000  0.49979000  1.0 -0.190035122
O  O15  1  0.75021000  0.67121000  0.03879000  1.0 -0.190035122
O  O16  1  0.53979000  0.03879000  0.67121000  1.0 -0.190035122
O  O17  1  0.04969000  0.88089000  0.18491000  1.0 -0.4785656022
O  O18  1  0.88451000  0.18491000  0.88089000  1.0 -0.4785656022
O  O19  1  0.36911000  0.20031000  0.36549000  1.0 -0.4785656022
O  O20  1  0.06509000  0.36549000  0.20031000  1.0 -0.4785656022
O  O21  1  0.31472000  0.59152000  0.93748000  1.0 -0.5600702079
O  O22  1  0.15628000  0.93748000  0.59152000  1.0 -0.5600702079
O  O23  1  0.65848000  0.93528000  0.09372000  1.0 -0.5600702079
O  O24  1  0.31252000  0.09372000  0.93528000  1.0 -0.5600702079
O  O25  1  0.77452000  0.40892000  0.54668000  1.0 -0.2297988949
O  O26  1  0.26988000  0.54668000  0.40892000  1.0 -0.2297988949
O  O27  1  0.84108000  0.47548000  0.98012000  1.0 -0.2297988949
O  O28  1  0.70332000  0.98012000  0.47548000  1.0 -0.2297988949
O  O29  1  0.07400000  0.21920000  0.19280000  1.0 -0.5464405702
O  O30  1  0.51400000  0.19280000  0.21920000  1.0 -0.5464405702
O  O31  1  0.03080000  0.17600000  0.73600000  1.0 -0.5464405702
O  O32  1  0.05720000  0.73600000  0.17600000  1.0 -0.5464405702
O  O33  1  0.34191000  0.98691000  0.92549000  1.0 -0.584743707
O  O34  1  0.74569000  0.92549000  0.98691000  1.0 -0.584743707
O  O35  1  0.26309000  0.90809000  0.50431000  1.0 -0.584743707
O  O36  1  0.32451000  0.50431000  0.90809000  1.0 -0.584743707
O  O37  1  0.01963000  0.10203000  0.19277000  1.0 -0.1453455375
O  O38  1  0.68557000  0.19277000  0.10203000  1.0 -0.1453455375
O  O39  1  0.14797000  0.23037000  0.56443000  1.0 -0.1453455375
O  O40  1  0.05723000  0.56443000  0.23037000  1.0 -0.1453455375
O  O41  1  0.98672000  0.14832000  0.89388000  1.0 -0.5906768726
O  O42  1  0.97108000  0.89388000  0.14832000  1.0 -0.5906768726
O  O43  1  0.10168000  0.26328000  0.27892000  1.0 -0.5906768726
O  O44  1  0.35612000  0.27892000  0.26328000  1.0 -0.5906768726
O  O45  1  0.31227000  0.81047000  0.59853000  1.0 -0.6281930046
O  O46  1  0.27873000  0.59853000  0.81047000  1.0 -0.6281930046
O  O47  1  0.43953000  0.93773000  0.97127000  1.0 -0.6281930046
O  O48  1  0.65147000  0.97127000  0.93773000  1.0 -0.6281930046
