# DDEC6 charges by PACMAN v1.1 (https://github.com/mtap-research/PACMAN-charge/)
data_WIYMOJ_FSR_pacman
_symmetry_space_group_name_H-M   'P 1'
_cell_length_a   18.82500000
_cell_length_b   18.82500000
_cell_length_c   25.09800000
_cell_angle_alpha   64.77330000
_cell_angle_beta   115.22700000
_cell_angle_gamma   105.92100000
_symmetry_Int_Tables_number   1
_chemical_formula_structural   Eu2H42C37(NO2)8
_chemical_formula_sum   'Eu8 H168 C148 N32 O64'
_cell_volume   7231.80143078
_cell_formula_units_Z   4
loop_
 _symmetry_equiv_pos_site_id
 _symmetry_equiv_pos_as_xyz
  1  'x, y, z'
loop_
 _atom_site_type_symbol
 _atom_site_label
 _atom_site_symmetry_multiplicity
 _atom_site_fract_x
 _atom_site_fract_y
 _atom_site_fract_z
 _atom_site_occupancy
 _atom_site_charge
Eu  Eu1  1  0.20692000  0.14160000  0.39673000  1.0 2.0518589844
Eu  Eu2  1  0.14160000  0.20692000  0.10327000  1.0 2.0518589844
Eu  Eu3  1  0.08689000  0.08689000  0.25000000  1.0 1.9351203073
Eu  Eu4  1  0.26574000  0.26574000  0.25000000  1.0 2.1456468929
Eu  Eu5  1  0.79308000  0.85840000  0.60327000  1.0 2.0518589844
Eu  Eu6  1  0.85840000  0.79308000  0.89673000  1.0 2.0518589844
Eu  Eu7  1  0.91311000  0.91311000  0.75000000  1.0 1.9346910347
Eu  Eu8  1  0.73426000  0.73426000  0.75000000  1.0 2.1456468929
H  H1  1  0.85980000  0.12660000  0.26690000  1.0 0.1121778412
H  H2  1  0.67930000  0.03510000  0.46990000  1.0 0.2797400434
H  H3  1  0.78060000  0.04460000  0.46070000  1.0 0.2797400434
H  H4  1  0.52710000  0.09550000  0.32750000  1.0 0.1292062232
H  H5  1  0.44870000  0.30570000  0.31170000  1.0 0.4120097786
H  H6  1  0.41260000  0.33360000  0.34350000  1.0 0.4120097786
H  H7  1  0.60960000  0.07020000  0.51030000  1.0 0.1199275541
H  H8  1  0.84700000  0.20920000  0.00240000  1.0 0.1006411601
H  H9  1  0.49100000  0.09720000  0.49820000  1.0 0.1121778412
H  H10  1  0.01110000  0.06610000  0.44590000  1.0 0.1006411601
H  H11  1  0.80530000  0.23490000  0.16150000  1.0 0.1121778412
H  H12  1  0.41030000  0.13310000  0.31270000  1.0 0.1199275541
H  H13  1  0.42210000  0.28210000  0.01050000  1.0 0.1006411601
H  H14  1  0.72300000  0.22820000  0.98640000  1.0 0.1006411601
H  H15  1  0.90670000  0.04410000  0.47930000  1.0 0.1199275541
H  H16  1  0.75610000  0.11370000  0.30010000  1.0 0.1292062232
H  H17  1  0.33160000  0.28960000  0.04520000  1.0 0.1121778412
H  H18  1  0.09470000  0.27330000  0.33110000  1.0 0.4120097786
H  H19  1  0.10210000  0.24310000  0.39820000  1.0 0.395080172
H  H20  1  0.48420000  0.22160000  0.22390000  1.0 0.1199275541
H  H21  1  0.58060000  0.22140000  0.18960000  1.0 0.1199275541
H  H22  1  0.92890000  0.21990000  0.17450000  1.0 0.1199275541
H  H23  1  0.17750000  0.13750000  0.50710000  1.0 0.3330141087
H  H24  1  0.24240000  0.09580000  0.53520000  1.0 0.3397231777
H  H25  1  0.65050000  0.27630000  0.02020000  1.0 0.1496565272
H  H26  1  0.55610000  0.29770000  0.02780000  1.0 0.1121778412
H  H27  1  0.03820000  0.87820000  0.29690000  1.0 0.0902153025
H  H28  1  0.00680000  0.75780000  0.33460000  1.0 0.0766961057
H  H29  1  0.95210000  0.72430000  0.37640000  1.0 0.0508897342
H  H30  1  0.04620000  0.72800000  0.40980000  1.0 0.0508897342
H  H31  1  0.06320000  0.90680000  0.42550000  1.0 0.1121778412
H  H32  1  0.03500000  0.81840000  0.46360000  1.0 0.0584493649
H  H33  1  0.97200000  0.88080000  0.41790000  1.0 0.1006411601
H  H34  1  0.63810000  0.21930000  0.02610000  1.0 0.1378327035
H  H35  1  0.53600000  0.22460000  0.03890000  1.0 0.1006411601
H  H36  1  0.00440000  0.90020000  0.26700000  1.0 0.0508897342
H  H37  1  0.06210000  0.81130000  0.44870000  1.0 0.0902153025
H  H38  1  0.98620000  0.75860000  0.41770000  1.0 0.0584493649
H  H39  1  0.98210000  0.84990000  0.40050000  1.0 0.1006411601
H  H40  1  0.09050000  0.72950000  0.38160000  1.0 0.0748634641
H  H41  1  0.14780000  0.80780000  0.36090000  1.0 0.1378327035
H  H42  1  0.07120000  0.78300000  0.30860000  1.0 0.0766961057
H  H43  1  0.12660000  0.85980000  0.23310000  1.0 0.1121778412
H  H44  1  0.03510000  0.67930000  0.03010000  1.0 0.2797400434
H  H45  1  0.04460000  0.78060000  0.03930000  1.0 0.2797400434
H  H46  1  0.09550000  0.52710000  0.17250000  1.0 0.1292062232
H  H47  1  0.30570000  0.44870000  0.18830000  1.0 0.4120097786
H  H48  1  0.33360000  0.41260000  0.15650000  1.0 0.4120097786
H  H49  1  0.07020000  0.60960000  0.98970000  1.0 0.1199275541
H  H50  1  0.20920000  0.84700000  0.49760000  1.0 0.1006411601
H  H51  1  0.09720000  0.49100000  0.00180000  1.0 0.1121778412
H  H52  1  0.06610000  0.01110000  0.05410000  1.0 0.1006411601
H  H53  1  0.23490000  0.80530000  0.33850000  1.0 0.1121778412
H  H54  1  0.13310000  0.41030000  0.18730000  1.0 0.1199275541
H  H55  1  0.28210000  0.42210000  0.48950000  1.0 0.1006411601
H  H56  1  0.22820000  0.72300000  0.51360000  1.0 0.1006411601
H  H57  1  0.04410000  0.90670000  0.02070000  1.0 0.1199275541
H  H58  1  0.11370000  0.75610000  0.19990000  1.0 0.1292062232
H  H59  1  0.28960000  0.33160000  0.45480000  1.0 0.1121778412
H  H60  1  0.27330000  0.09470000  0.16890000  1.0 0.4120097786
H  H61  1  0.24310000  0.10210000  0.10180000  1.0 0.3948392798
H  H62  1  0.22160000  0.48420000  0.27610000  1.0 0.1199275541
H  H63  1  0.22140000  0.58060000  0.31040000  1.0 0.1199275541
H  H64  1  0.21990000  0.92890000  0.32550000  1.0 0.1199275541
H  H65  1  0.13750000  0.17750000  0.99290000  1.0 0.3330141087
H  H66  1  0.09580000  0.24240000  0.96480000  1.0 0.3397231777
H  H67  1  0.27630000  0.65050000  0.47980000  1.0 0.1496565272
H  H68  1  0.29770000  0.55610000  0.47220000  1.0 0.1121778412
H  H69  1  0.87820000  0.03820000  0.20310000  1.0 0.0902153025
H  H70  1  0.75780000  0.00680000  0.16540000  1.0 0.0766961057
H  H71  1  0.72430000  0.95210000  0.12360000  1.0 0.0508897342
H  H72  1  0.72800000  0.04620000  0.09020000  1.0 0.0584493649
H  H73  1  0.90680000  0.06320000  0.07450000  1.0 0.1121778412
H  H74  1  0.81840000  0.03500000  0.03640000  1.0 0.0584493649
H  H75  1  0.88080000  0.97200000  0.08210000  1.0 0.1006411601
H  H76  1  0.21930000  0.63810000  0.47390000  1.0 0.1378327035
H  H77  1  0.22460000  0.53600000  0.46110000  1.0 0.1006411601
H  H78  1  0.90020000  0.00440000  0.23300000  1.0 0.0508897342
H  H79  1  0.81130000  0.06210000  0.05130000  1.0 0.0902153025
H  H80  1  0.75860000  0.98620000  0.08230000  1.0 0.0584493649
H  H81  1  0.84990000  0.98210000  0.09950000  1.0 0.1006411601
H  H82  1  0.72950000  0.09050000  0.11840000  1.0 0.0748634641
H  H83  1  0.80780000  0.14780000  0.13910000  1.0 0.1378327035
H  H84  1  0.78300000  0.07120000  0.19140000  1.0 0.0766961057
H  H85  1  0.14020000  0.87340000  0.73310000  1.0 0.1121778412
H  H86  1  0.32070000  0.96490000  0.53010000  1.0 0.2797400434
H  H87  1  0.21940000  0.95540000  0.53930000  1.0 0.2797400434
H  H88  1  0.47290000  0.90450000  0.67250000  1.0 0.1292062232
H  H89  1  0.55130000  0.69430000  0.68830000  1.0 0.4120097786
H  H90  1  0.58740000  0.66640000  0.65650000  1.0 0.4120097786
H  H91  1  0.39040000  0.92980000  0.48970000  1.0 0.1199275541
H  H92  1  0.15300000  0.79080000  0.99760000  1.0 0.1006411601
H  H93  1  0.50900000  0.90280000  0.50180000  1.0 0.1121778412
H  H94  1  0.98890000  0.93390000  0.55410000  1.0 0.1006411601
H  H95  1  0.19470000  0.76510000  0.83850000  1.0 0.1121778412
H  H96  1  0.58970000  0.86690000  0.68730000  1.0 0.1199275541
H  H97  1  0.57790000  0.71790000  0.98950000  1.0 0.1006411601
H  H98  1  0.27700000  0.77180000  0.01360000  1.0 0.1006411601
H  H99  1  0.09330000  0.95590000  0.52070000  1.0 0.1199275541
H  H100  1  0.24390000  0.88630000  0.69990000  1.0 0.1292062232
H  H101  1  0.66840000  0.71040000  0.95480000  1.0 0.1121778412
H  H102  1  0.90530000  0.72670000  0.66890000  1.0 0.4120097786
H  H103  1  0.89790000  0.75690000  0.60180000  1.0 0.395080172
H  H104  1  0.51580000  0.77840000  0.77610000  1.0 0.1199275541
H  H105  1  0.41940000  0.77860000  0.81040000  1.0 0.1199275541
H  H106  1  0.07110000  0.78010000  0.82550000  1.0 0.1199275541
H  H107  1  0.82250000  0.86250000  0.49290000  1.0 0.3330141087
H  H108  1  0.75760000  0.90420000  0.46480000  1.0 0.3397231777
H  H109  1  0.34950000  0.72370000  0.97980000  1.0 0.1496565272
H  H110  1  0.44390000  0.70230000  0.97220000  1.0 0.1121778412
H  H111  1  0.96180000  0.12180000  0.70310000  1.0 0.0902153025
H  H112  1  0.99320000  0.24220000  0.66540000  1.0 0.0766961057
H  H113  1  0.04790000  0.27570000  0.62360000  1.0 0.0508897342
H  H114  1  0.95380000  0.27200000  0.59020000  1.0 0.0584493649
H  H115  1  0.93680000  0.09320000  0.57450000  1.0 0.1121778412
H  H116  1  0.96500000  0.18160000  0.53640000  1.0 0.0584493649
H  H117  1  0.02800000  0.11920000  0.58210000  1.0 0.1006411601
H  H118  1  0.36190000  0.78070000  0.97390000  1.0 0.1378327035
H  H119  1  0.46400000  0.77540000  0.96110000  1.0 0.1006411601
H  H120  1  0.99560000  0.09980000  0.73300000  1.0 0.0508897342
H  H121  1  0.93790000  0.18870000  0.55130000  1.0 0.0902153025
H  H122  1  0.01380000  0.24140000  0.58230000  1.0 0.0584493649
H  H123  1  0.01790000  0.15010000  0.59950000  1.0 0.1006411601
H  H124  1  0.90950000  0.27050000  0.61840000  1.0 0.0766961057
H  H125  1  0.85220000  0.19220000  0.63910000  1.0 0.1378327035
H  H126  1  0.92880000  0.21700000  0.69140000  1.0 0.0766961057
H  H127  1  0.87340000  0.14020000  0.76690000  1.0 0.1121778412
H  H128  1  0.96490000  0.32070000  0.96990000  1.0 0.2797400434
H  H129  1  0.95540000  0.21940000  0.96070000  1.0 0.2797400434
H  H130  1  0.90450000  0.47290000  0.82750000  1.0 0.1292062232
H  H131  1  0.69430000  0.55130000  0.81170000  1.0 0.4120097786
H  H132  1  0.66640000  0.58740000  0.84350000  1.0 0.4120097786
H  H133  1  0.92980000  0.39040000  0.01030000  1.0 0.1199275541
H  H134  1  0.79080000  0.15300000  0.50240000  1.0 0.1006411601
H  H135  1  0.90280000  0.50900000  0.99820000  1.0 0.1121778412
H  H136  1  0.93390000  0.98890000  0.94590000  1.0 0.1006411601
H  H137  1  0.76510000  0.19470000  0.66150000  1.0 0.1121778412
H  H138  1  0.86690000  0.58970000  0.81270000  1.0 0.1199275541
H  H139  1  0.71790000  0.57790000  0.51050000  1.0 0.1006411601
H  H140  1  0.77180000  0.27700000  0.48640000  1.0 0.1006411601
H  H141  1  0.95590000  0.09330000  0.97930000  1.0 0.1199275541
H  H142  1  0.88630000  0.24390000  0.80010000  1.0 0.1292062232
H  H143  1  0.71040000  0.66840000  0.54520000  1.0 0.1121778412
H  H144  1  0.72670000  0.90530000  0.83110000  1.0 0.4120097786
H  H145  1  0.75690000  0.89790000  0.89820000  1.0 0.395080172
H  H146  1  0.77840000  0.51580000  0.72390000  1.0 0.1199275541
H  H147  1  0.77860000  0.41940000  0.68960000  1.0 0.1199275541
H  H148  1  0.78010000  0.07110000  0.67450000  1.0 0.1199275541
H  H149  1  0.86250000  0.82250000  0.00710000  1.0 0.3330141087
H  H150  1  0.90420000  0.75760000  0.03520000  1.0 0.3397231777
H  H151  1  0.72370000  0.34950000  0.52020000  1.0 0.1496565272
H  H152  1  0.70230000  0.44390000  0.52780000  1.0 0.1121778412
H  H153  1  0.12180000  0.96180000  0.79690000  1.0 0.0902153025
H  H154  1  0.24220000  0.99320000  0.83460000  1.0 0.0766961057
H  H155  1  0.27570000  0.04790000  0.87640000  1.0 0.0508897342
H  H156  1  0.27200000  0.95380000  0.90980000  1.0 0.0584493649
H  H157  1  0.09320000  0.93680000  0.92550000  1.0 0.1121778412
H  H158  1  0.18160000  0.96500000  0.96360000  1.0 0.0584493649
H  H159  1  0.11920000  0.02800000  0.91790000  1.0 0.1006411601
H  H160  1  0.78070000  0.36190000  0.52610000  1.0 0.1378327035
H  H161  1  0.77540000  0.46400000  0.53890000  1.0 0.1006411601
H  H162  1  0.09980000  0.99560000  0.76700000  1.0 0.0508897342
H  H163  1  0.18870000  0.93790000  0.94870000  1.0 0.0902153025
H  H164  1  0.24140000  0.01380000  0.91770000  1.0 0.0584493649
H  H165  1  0.15010000  0.01790000  0.90050000  1.0 0.1006411601
H  H166  1  0.27050000  0.90950000  0.88160000  1.0 0.0766961057
H  H167  1  0.19220000  0.85220000  0.86090000  1.0 0.1378327035
H  H168  1  0.21700000  0.92880000  0.80860000  1.0 0.0766961057
C  C1  1  0.86930000  0.10950000  0.31060000  1.0 -0.1003869904
C  C2  1  0.52070000  0.09910000  0.36180000  1.0 -0.1917581424
C  C3  1  0.82300000  0.07860000  0.39320000  1.0 0.2187267174
C  C4  1  0.58210000  0.08510000  0.41880000  1.0 0.2415183712
C  C5  1  0.94430000  0.09210000  0.35400000  1.0 -0.0475263591
C  C6  1  0.56900000  0.08280000  0.46990000  1.0 -0.2125539105
C  C7  1  0.83850000  0.21550000  0.03480000  1.0 -0.1828605267
C  C8  1  0.49860000  0.09840000  0.46270000  1.0 -0.1003869904
C  C9  1  0.95890000  0.07270000  0.41610000  1.0 -0.1072231582
C  C10  1  0.43900000  0.11560000  0.40640000  1.0 -0.0596341635
C  C11  1  0.69040000  0.08880000  0.38780000  1.0 0.6063359309
C  C12  1  0.90190000  0.21430000  0.09020000  1.0 -0.0696531231
C  C13  1  0.81340000  0.22980000  0.12850000  1.0 -0.240087905
C  C14  1  0.75100000  0.23120000  0.07360000  1.0 0.178673726
C  C15  1  0.45050000  0.11830000  0.35330000  1.0 -0.1003869904
C  C16  1  0.43530000  0.27130000  0.05400000  1.0 -0.2125539105
C  C17  1  0.76480000  0.22540000  0.02550000  1.0 -0.2668583463
C  C18  1  0.51200000  0.25140000  0.09740000  1.0 0.2034803112
C  C19  1  0.89730000  0.06250000  0.43550000  1.0 -0.240087905
C  C20  1  0.80760000  0.10240000  0.33000000  1.0 -0.1953436504
C  C21  1  0.38230000  0.27490000  0.07440000  1.0 -0.0891400645
C  C22  1  0.40070000  0.25730000  0.13860000  1.0 -0.0421633886
C  C23  1  0.36150000  0.13070000  0.39950000  1.0 0.6063359309
C  C24  1  0.47270000  0.23590000  0.18010000  1.0 -0.0891400645
C  C25  1  0.52940000  0.23440000  0.16010000  1.0 -0.2341480772
C  C26  1  0.98170000  0.20490000  0.09780000  1.0 0.5604189862
C  C27  1  0.88680000  0.22120000  0.13590000  1.0 -0.1269156506
C  C28  1  0.00820000  0.09860000  0.33280000  1.0 0.5844499101
C  C29  1  0.33570000  0.25790000  0.15840000  1.0 0.5993111957
C  C30  1  0.64920000  0.25760000  0.10020000  1.0 0.2589443703
C  C31  1  0.02810000  0.89430000  0.32390000  1.0 -0.0421633886
C  C32  1  0.00250000  0.75450000  0.37310000  1.0 -0.1413089871
C  C33  1  0.02030000  0.86350000  0.42400000  1.0 -0.240087905
C  C34  1  0.63620000  0.22300000  0.10060000  1.0 0.2127913464
C  C35  1  0.02500000  0.90100000  0.30800000  1.0 -0.1413089871
C  C36  1  0.01600000  0.81200000  0.41100000  1.0 -0.0157394433
C  C37  1  0.09250000  0.78350000  0.35100000  1.0 -0.3812567959
C  C38  1  0.10950000  0.86930000  0.18940000  1.0 -0.1003869904
C  C39  1  0.09910000  0.52070000  0.13820000  1.0 -0.1917581424
C  C40  1  0.07860000  0.82300000  0.10680000  1.0 0.2187267174
C  C41  1  0.08510000  0.58210000  0.08120000  1.0 0.2415183712
C  C42  1  0.09210000  0.94430000  0.14600000  1.0 -0.0475263591
C  C43  1  0.08280000  0.56900000  0.03010000  1.0 -0.2125539105
C  C44  1  0.21550000  0.83850000  0.46520000  1.0 -0.1828605267
C  C45  1  0.09840000  0.49860000  0.03730000  1.0 -0.1003869904
C  C46  1  0.07270000  0.95890000  0.08390000  1.0 -0.1072231582
C  C47  1  0.11560000  0.43900000  0.09360000  1.0 -0.0596341635
C  C48  1  0.08880000  0.69040000  0.11220000  1.0 0.6063359309
C  C49  1  0.21430000  0.90190000  0.40980000  1.0 -0.0696531231
C  C50  1  0.22980000  0.81340000  0.37150000  1.0 -0.240087905
C  C51  1  0.23120000  0.75100000  0.42640000  1.0 0.178673726
C  C52  1  0.11830000  0.45050000  0.14670000  1.0 -0.1003869904
C  C53  1  0.27130000  0.43530000  0.44600000  1.0 -0.2125539105
C  C54  1  0.22540000  0.76480000  0.47450000  1.0 -0.2668583463
C  C55  1  0.25140000  0.51200000  0.40260000  1.0 0.2034803112
C  C56  1  0.06250000  0.89730000  0.06450000  1.0 -0.240087905
C  C57  1  0.10240000  0.80760000  0.17000000  1.0 -0.1953436504
C  C58  1  0.27490000  0.38230000  0.42560000  1.0 -0.0891400645
C  C59  1  0.25730000  0.40070000  0.36140000  1.0 -0.0421633886
C  C60  1  0.13070000  0.36150000  0.10050000  1.0 0.6063359309
C  C61  1  0.23590000  0.47270000  0.31990000  1.0 -0.0891400645
C  C62  1  0.23440000  0.52940000  0.33990000  1.0 -0.2341480772
C  C63  1  0.20490000  0.98170000  0.40220000  1.0 0.5604189862
C  C64  1  0.22120000  0.88680000  0.36410000  1.0 -0.1269156506
C  C65  1  0.09860000  0.00820000  0.16720000  1.0 0.5844499101
C  C66  1  0.25790000  0.33570000  0.34160000  1.0 0.5993111957
C  C67  1  0.25760000  0.64920000  0.39980000  1.0 0.2589443703
C  C68  1  0.89430000  0.02810000  0.17610000  1.0 -0.0421633886
C  C69  1  0.75450000  0.00250000  0.12690000  1.0 -0.1413089871
C  C70  1  0.86350000  0.02030000  0.07600000  1.0 -0.240087905
C  C71  1  0.22300000  0.63620000  0.39940000  1.0 0.2127913464
C  C72  1  0.90100000  0.02500000  0.19200000  1.0 -0.1413089871
C  C73  1  0.81200000  0.01600000  0.08900000  1.0 -0.0135100647
C  C74  1  0.78350000  0.09250000  0.14900000  1.0 -0.3812567959
C  C75  1  0.13070000  0.89050000  0.68940000  1.0 -0.1003869904
C  C76  1  0.47930000  0.90090000  0.63820000  1.0 -0.1917581424
C  C77  1  0.17700000  0.92140000  0.60680000  1.0 0.2187267174
C  C78  1  0.41790000  0.91490000  0.58120000  1.0 0.2415183712
C  C79  1  0.05570000  0.90790000  0.64600000  1.0 -0.0475263591
C  C80  1  0.43100000  0.91720000  0.53010000  1.0 -0.2125539105
C  C81  1  0.16150000  0.78450000  0.96520000  1.0 -0.1828605267
C  C82  1  0.50140000  0.90160000  0.53730000  1.0 -0.1003869904
C  C83  1  0.04110000  0.92730000  0.58390000  1.0 -0.1072231582
C  C84  1  0.56100000  0.88440000  0.59360000  1.0 -0.0596341635
C  C85  1  0.30960000  0.91120000  0.61220000  1.0 0.6063359309
C  C86  1  0.09810000  0.78570000  0.90980000  1.0 -0.0696531231
C  C87  1  0.18660000  0.77020000  0.87150000  1.0 -0.240087905
C  C88  1  0.24900000  0.76880000  0.92640000  1.0 0.178673726
C  C89  1  0.54950000  0.88170000  0.64670000  1.0 -0.1003869904
C  C90  1  0.56470000  0.72870000  0.94600000  1.0 -0.2125539105
C  C91  1  0.23520000  0.77460000  0.97450000  1.0 -0.2668583463
C  C92  1  0.48800000  0.74860000  0.90260000  1.0 0.2034803112
C  C93  1  0.10270000  0.93750000  0.56450000  1.0 -0.240087905
C  C94  1  0.19240000  0.89760000  0.67000000  1.0 -0.1953436504
C  C95  1  0.61770000  0.72510000  0.92560000  1.0 -0.0891400645
C  C96  1  0.59930000  0.74270000  0.86140000  1.0 -0.0421633886
C  C97  1  0.63850000  0.86930000  0.60050000  1.0 0.6063359309
C  C98  1  0.52730000  0.76410000  0.81990000  1.0 -0.0891400645
C  C99  1  0.47060000  0.76560000  0.83990000  1.0 -0.2341480772
C  C100  1  0.01830000  0.79510000  0.90220000  1.0 0.5604189862
C  C101  1  0.11320000  0.77880000  0.86410000  1.0 -0.1269156506
C  C102  1  0.99180000  0.90140000  0.66720000  1.0 0.5844499101
C  C103  1  0.66430000  0.74210000  0.84160000  1.0 0.5993111957
C  C104  1  0.35080000  0.74240000  0.89980000  1.0 0.2589443703
C  C105  1  0.97190000  0.10570000  0.67610000  1.0 -0.0421633886
C  C106  1  0.99750000  0.24550000  0.62690000  1.0 -0.1413089871
C  C107  1  0.97970000  0.13650000  0.57600000  1.0 -0.240087905
C  C108  1  0.36380000  0.77700000  0.89940000  1.0 0.2127913464
C  C109  1  0.97500000  0.09900000  0.69200000  1.0 -0.1413089871
C  C110  1  0.98400000  0.18800000  0.58900000  1.0 -0.0135100647
C  C111  1  0.90750000  0.21650000  0.64900000  1.0 -0.3812567959
C  C112  1  0.89050000  0.13070000  0.81060000  1.0 -0.1003869904
C  C113  1  0.90090000  0.47930000  0.86180000  1.0 -0.1917581424
C  C114  1  0.92140000  0.17700000  0.89320000  1.0 0.2187267174
C  C115  1  0.91490000  0.41790000  0.91880000  1.0 0.2415183712
C  C116  1  0.90790000  0.05570000  0.85400000  1.0 -0.0475263591
C  C117  1  0.91720000  0.43100000  0.96990000  1.0 -0.2125539105
C  C118  1  0.78450000  0.16150000  0.53480000  1.0 -0.1828605267
C  C119  1  0.90160000  0.50140000  0.96270000  1.0 -0.1003869904
C  C120  1  0.92730000  0.04110000  0.91610000  1.0 -0.1072231582
C  C121  1  0.88440000  0.56100000  0.90640000  1.0 -0.0596341635
C  C122  1  0.91120000  0.30960000  0.88780000  1.0 0.6063359309
C  C123  1  0.78570000  0.09810000  0.59020000  1.0 -0.0696531231
C  C124  1  0.77020000  0.18660000  0.62850000  1.0 -0.240087905
C  C125  1  0.76880000  0.24900000  0.57360000  1.0 0.178673726
C  C126  1  0.88170000  0.54950000  0.85330000  1.0 -0.1003869904
C  C127  1  0.72870000  0.56470000  0.55400000  1.0 -0.2125539105
C  C128  1  0.77460000  0.23520000  0.52550000  1.0 -0.2668583463
C  C129  1  0.74860000  0.48800000  0.59740000  1.0 0.2034803112
C  C130  1  0.93750000  0.10270000  0.93550000  1.0 -0.240087905
C  C131  1  0.89760000  0.19240000  0.83000000  1.0 -0.1953436504
C  C132  1  0.72510000  0.61770000  0.57440000  1.0 -0.0891400645
C  C133  1  0.74270000  0.59930000  0.63860000  1.0 -0.0421633886
C  C134  1  0.86930000  0.63850000  0.89950000  1.0 0.6063359309
C  C135  1  0.76410000  0.52730000  0.68010000  1.0 -0.0891400645
C  C136  1  0.76560000  0.47060000  0.66010000  1.0 -0.2341480772
C  C137  1  0.79510000  0.01830000  0.59780000  1.0 0.5604189862
C  C138  1  0.77880000  0.11320000  0.63590000  1.0 -0.1269156506
C  C139  1  0.90140000  0.99180000  0.83280000  1.0 0.5844499101
C  C140  1  0.74210000  0.66430000  0.65840000  1.0 0.5993111957
C  C141  1  0.74240000  0.35080000  0.60020000  1.0 0.2589443703
C  C142  1  0.10570000  0.97190000  0.82390000  1.0 -0.0421633886
C  C143  1  0.24550000  0.99750000  0.87310000  1.0 -0.1413089871
C  C144  1  0.13650000  0.97970000  0.92400000  1.0 -0.2451112639
C  C145  1  0.77700000  0.36380000  0.60060000  1.0 0.2127913464
C  C146  1  0.09900000  0.97500000  0.80800000  1.0 -0.1413089871
C  C147  1  0.18800000  0.98400000  0.91100000  1.0 -0.0157394433
C  C148  1  0.21650000  0.90750000  0.85100000  1.0 -0.3812567959
N  N1  1  0.65430000  0.06530000  0.43120000  1.0 -0.4252299439
N  N2  1  0.76620000  0.06760000  0.41950000  1.0 -0.4650811027
N  N3  1  0.67860000  0.25780000  0.05950000  1.0 -0.1269156506
N  N4  1  0.57110000  0.27430000  0.06810000  1.0 -0.1191040208
N  N5  1  0.00630000  0.83950000  0.37100000  1.0 0.1199275541
N  N6  1  0.66970000  0.22370000  0.06170000  1.0 -0.1269156506
N  N7  1  0.56030000  0.23210000  0.07410000  1.0 -0.1553330343
N  N8  1  0.04290000  0.83290000  0.35700000  1.0 0.1292062232
N  N9  1  0.06530000  0.65430000  0.06880000  1.0 -0.4252299439
N  N10  1  0.06760000  0.76620000  0.08050000  1.0 -0.4650811027
N  N11  1  0.25780000  0.67860000  0.44050000  1.0 -0.1269156506
N  N12  1  0.27430000  0.57110000  0.43190000  1.0 -0.1191040208
N  N13  1  0.83950000  0.00630000  0.12900000  1.0 0.1199275541
N  N14  1  0.22370000  0.66970000  0.43830000  1.0 -0.1269156506
N  N15  1  0.23210000  0.56030000  0.42590000  1.0 -0.1553330343
N  N16  1  0.83290000  0.04290000  0.14300000  1.0 0.1292062232
N  N17  1  0.34570000  0.93470000  0.56880000  1.0 -0.4252299439
N  N18  1  0.23380000  0.93240000  0.58050000  1.0 -0.4650811027
N  N19  1  0.32140000  0.74220000  0.94050000  1.0 -0.1269156506
N  N20  1  0.42890000  0.72570000  0.93190000  1.0 -0.1191040208
N  N21  1  0.99370000  0.16050000  0.62900000  1.0 0.1199275541
N  N22  1  0.33030000  0.77630000  0.93830000  1.0 -0.1269156506
N  N23  1  0.43970000  0.76790000  0.92590000  1.0 -0.1553330343
N  N24  1  0.95710000  0.16710000  0.64300000  1.0 0.1292062232
N  N25  1  0.93470000  0.34570000  0.93120000  1.0 -0.4252299439
N  N26  1  0.93240000  0.23380000  0.91950000  1.0 -0.4650811027
N  N27  1  0.74220000  0.32140000  0.55950000  1.0 -0.1269156506
N  N28  1  0.72570000  0.42890000  0.56810000  1.0 -0.1191040208
N  N29  1  0.16050000  0.99370000  0.87100000  1.0 0.1199275541
N  N30  1  0.77630000  0.33030000  0.56170000  1.0 -0.1269156506
N  N31  1  0.76790000  0.43970000  0.57410000  1.0 -0.1553330343
N  N32  1  0.16710000  0.95710000  0.85700000  1.0 0.1292062232
O  O1  1  0.66210000  0.12230000  0.33270000  1.0 -0.4778325702
O  O2  1  0.35450000  0.24130000  0.21620000  1.0 -0.6211578916
O  O3  1  0.34490000  0.11250000  0.44670000  1.0 -0.6107925495
O  O4  1  0.99500000  0.21260000  0.05140000  1.0 -0.6107925495
O  O5  1  0.99200000  0.11700000  0.27460000  1.0 -0.6107925495
O  O6  1  0.07530000  0.08370000  0.37270000  1.0 -0.6675397749
O  O7  1  0.40060000  0.30960000  0.31360000  1.0 -0.8236067663
O  O8  1  0.03530000  0.19090000  0.15150000  1.0 -0.6401614319
O  O9  1  0.26840000  0.27260000  0.11910000  1.0 -0.6675397749
O  O10  1  0.03510000  0.96190000  0.31470000  1.0 -0.326884977
O  O11  1  0.31060000  0.15960000  0.34340000  1.0 -0.7101060818
O  O12  1  0.19720000  0.15360000  0.21500000  1.0 -1.011891521
O  O13  1  0.11740000  0.23800000  0.37020000  1.0 -0.7858313392
O  O14  1  0.20950000  0.12110000  0.50030000  1.0 -0.776030309
O  O15  1  0.68710000  0.25710000  0.15130000  1.0 -0.1191040208
O  O16  1  0.67470000  0.21250000  0.15820000  1.0 -0.1917581424
O  O17  1  0.12230000  0.66210000  0.16730000  1.0 -0.4778325702
O  O18  1  0.24130000  0.35450000  0.28380000  1.0 -0.6211578916
O  O19  1  0.11250000  0.34490000  0.05330000  1.0 -0.6107925495
O  O20  1  0.21260000  0.99500000  0.44860000  1.0 -0.6107925495
O  O21  1  0.11700000  0.99200000  0.22540000  1.0 -0.6107925495
O  O22  1  0.08370000  0.07530000  0.12730000  1.0 -0.6675397749
O  O23  1  0.30960000  0.40060000  0.18640000  1.0 -0.8236067663
O  O24  1  0.19090000  0.03530000  0.34850000  1.0 -0.6401614319
O  O25  1  0.27260000  0.26840000  0.38090000  1.0 -0.6675397749
O  O26  1  0.96190000  0.03510000  0.18530000  1.0 -0.326884977
O  O27  1  0.15960000  0.31060000  0.15660000  1.0 -0.7101060818
O  O28  1  0.15360000  0.19720000  0.28500000  1.0 -1.011891521
O  O29  1  0.23800000  0.11740000  0.12980000  1.0 -0.7858313392
O  O30  1  0.12110000  0.20950000  0.99970000  1.0 -0.776030309
O  O31  1  0.25710000  0.68710000  0.34870000  1.0 -0.1191040208
O  O32  1  0.21250000  0.67470000  0.34180000  1.0 -0.1917581424
O  O33  1  0.33790000  0.87770000  0.66730000  1.0 -0.4778325702
O  O34  1  0.64550000  0.75870000  0.78380000  1.0 -0.6211578916
O  O35  1  0.65510000  0.88750000  0.55330000  1.0 -0.6107925495
O  O36  1  0.00500000  0.78740000  0.94860000  1.0 -0.6107925495
O  O37  1  0.00800000  0.88300000  0.72540000  1.0 -0.6107925495
O  O38  1  0.92470000  0.91630000  0.62730000  1.0 -0.6675397749
O  O39  1  0.59940000  0.69040000  0.68640000  1.0 -0.8236067663
O  O40  1  0.96470000  0.80910000  0.84850000  1.0 -0.6401614319
O  O41  1  0.73160000  0.72740000  0.88090000  1.0 -0.6675397749
O  O42  1  0.96490000  0.03810000  0.68530000  1.0 -0.326884977
O  O43  1  0.68940000  0.84040000  0.65660000  1.0 -0.7101060818
O  O44  1  0.80280000  0.84640000  0.78500000  1.0 -1.011891521
O  O45  1  0.88260000  0.76200000  0.62980000  1.0 -0.7858313392
O  O46  1  0.79050000  0.87890000  0.49970000  1.0 -0.776030309
O  O47  1  0.31290000  0.74290000  0.84870000  1.0 -0.1191040208
O  O48  1  0.32530000  0.78750000  0.84180000  1.0 -0.1917581424
O  O49  1  0.87770000  0.33790000  0.83270000  1.0 -0.4778325702
O  O50  1  0.75870000  0.64550000  0.71620000  1.0 -0.6211578916
O  O51  1  0.88750000  0.65510000  0.94670000  1.0 -0.6107925495
O  O52  1  0.78740000  0.00500000  0.55140000  1.0 -0.6107925495
O  O53  1  0.88300000  0.00800000  0.77460000  1.0 -0.6107925495
O  O54  1  0.91630000  0.92470000  0.87270000  1.0 -0.6675397749
O  O55  1  0.69040000  0.59940000  0.81360000  1.0 -0.8236067663
O  O56  1  0.80910000  0.96470000  0.65150000  1.0 -0.6401614319
O  O57  1  0.72740000  0.73160000  0.61910000  1.0 -0.6675397749
O  O58  1  0.03810000  0.96490000  0.81470000  1.0 -0.326884977
O  O59  1  0.84040000  0.68940000  0.84340000  1.0 -0.7101060818
O  O60  1  0.84640000  0.80280000  0.71500000  1.0 -1.011891521
O  O61  1  0.76200000  0.88260000  0.87020000  1.0 -0.7858313392
O  O62  1  0.87890000  0.79050000  0.00030000  1.0 -0.776030309
O  O63  1  0.74290000  0.31290000  0.65130000  1.0 -0.1191040208
O  O64  1  0.78750000  0.32530000  0.65820000  1.0 -0.1917581424
