# DDEC6 charges by PACMAN v1.1 (https://github.com/mtap-research/PACMAN-charge/)
data_WIYZOU_ASR_pacman
_symmetry_space_group_name_H-M   'P 1'
_cell_length_a   12.61620000
_cell_length_b   11.37680000
_cell_length_c   15.34010000
_cell_angle_alpha   90.00000000
_cell_angle_beta   91.53900000
_cell_angle_gamma   90.00000000
_symmetry_Int_Tables_number   1
_chemical_formula_structural   Co5H2(C11O10)2
_chemical_formula_sum   'Co10 H4 C44 O40'
_cell_volume   2201.00074840
_cell_formula_units_Z   2
loop_
 _symmetry_equiv_pos_site_id
 _symmetry_equiv_pos_as_xyz
  1  'x, y, z'
loop_
 _atom_site_type_symbol
 _atom_site_label
 _atom_site_symmetry_multiplicity
 _atom_site_fract_x
 _atom_site_fract_y
 _atom_site_fract_z
 _atom_site_occupancy
 _atom_site_charge
Co  Co1  1  0.00000000  0.00000000  0.00000000  1.0 1.129343581
Co  Co2  1  0.00000000  0.50000000  0.50000000  1.0 1.1242255686
Co  Co3  1  0.28766000  0.90004000  0.77122000  1.0 1.0430931566
Co  Co4  1  0.71234000  0.40004000  0.72878000  1.0 1.0457027672
Co  Co5  1  0.71234000  0.09996000  0.22878000  1.0 1.0457027672
Co  Co6  1  0.28766000  0.59996000  0.27122000  1.0 1.0430931566
Co  Co7  1  0.50599000  0.99803000  0.70758000  1.0 1.0183260558
Co  Co8  1  0.49401000  0.49803000  0.79242000  1.0 1.0183260558
Co  Co9  1  0.49401000  0.00197000  0.29242000  1.0 1.0183260558
Co  Co10  1  0.50599000  0.50197000  0.20758000  1.0 1.0183260558
H  H1  1  0.32000000  0.07400000  0.06400000  1.0 0.1454008488
H  H2  1  0.68000000  0.57400000  0.43600000  1.0 0.1454008488
H  H3  1  0.68000000  0.92600000  0.93600000  1.0 0.144969341
H  H4  1  0.32000000  0.42600000  0.56400000  1.0 0.1454008488
C  C1  1  0.31790000  0.11190000  0.92948000  1.0 -0.0421458365
C  C2  1  0.68210000  0.61190000  0.57052000  1.0 -0.0421458365
C  C3  1  0.68210000  0.88810000  0.07052000  1.0 -0.0421458365
C  C4  1  0.31790000  0.38810000  0.42948000  1.0 -0.0421458365
C  C5  1  0.37890000  0.15280000  0.86109000  1.0 -0.0798856871
C  C6  1  0.62110000  0.65280000  0.63891000  1.0 -0.0798856871
C  C7  1  0.62110000  0.84720000  0.13891000  1.0 -0.0798856871
C  C8  1  0.37890000  0.34720000  0.36109000  1.0 -0.0798856871
C  C9  1  0.48250000  0.19360000  0.87821000  1.0 -0.0912028042
C  C10  1  0.51750000  0.69360000  0.62179000  1.0 -0.0912028042
C  C11  1  0.51750000  0.80640000  0.12179000  1.0 -0.0912028042
C  C12  1  0.48250000  0.30640000  0.37821000  1.0 -0.0912028042
C  C13  1  0.52740000  0.18900000  0.96226000  1.0 -0.0175180169
C  C14  1  0.47260000  0.68900000  0.53774000  1.0 -0.0175180169
C  C15  1  0.47260000  0.81100000  0.03774000  1.0 -0.0175180169
C  C16  1  0.52740000  0.31100000  0.46226000  1.0 -0.0175180169
C  C17  1  0.46740000  0.14050000  0.02933000  1.0 -0.0421458365
C  C18  1  0.53260000  0.64050000  0.47067000  1.0 -0.0421458365
C  C19  1  0.53260000  0.85950000  0.97067000  1.0 -0.0456038484
C  C20  1  0.46740000  0.35950000  0.52933000  1.0 -0.0421458365
C  C21  1  0.36320000  0.10720000  0.01299000  1.0 -0.0963767221
C  C22  1  0.63680000  0.60720000  0.48701000  1.0 -0.0963767221
C  C23  1  0.63680000  0.89280000  0.98701000  1.0 -0.0963767221
C  C24  1  0.36320000  0.39280000  0.51299000  1.0 -0.0963767221
C  C25  1  0.20830000  0.06310000  0.91562000  1.0 0.6361853002
C  C26  1  0.79170000  0.56310000  0.58438000  1.0 0.6361853002
C  C27  1  0.79170000  0.93690000  0.08438000  1.0 0.6361853002
C  C28  1  0.20830000  0.43690000  0.41562000  1.0 0.6361853002
C  C29  1  0.33460000  0.15210000  0.76873000  1.0 0.6093005655
C  C30  1  0.66540000  0.65210000  0.73127000  1.0 0.6093005655
C  C31  1  0.66540000  0.84790000  0.23127000  1.0 0.6093005655
C  C32  1  0.33460000  0.34790000  0.26873000  1.0 0.6093005655
C  C33  1  0.54920000  0.23380000  0.80420000  1.0 0.6277004896
C  C34  1  0.45080000  0.73380000  0.69580000  1.0 0.6277004896
C  C35  1  0.45080000  0.76620000  0.19580000  1.0 0.6277004896
C  C36  1  0.54920000  0.26620000  0.30420000  1.0 0.6277004896
C  C37  1  0.64000000  0.23330000  0.97750000  1.0 0.6002294538
C  C38  1  0.36000000  0.73330000  0.52250000  1.0 0.6002294538
C  C39  1  0.36000000  0.76670000  0.02250000  1.0 0.6002294538
C  C40  1  0.64000000  0.26670000  0.47750000  1.0 0.6002294538
C  C41  1  0.51670000  0.10880000  0.11586000  1.0 0.6093005655
C  C42  1  0.48330000  0.60880000  0.38414000  1.0 0.6093005655
C  C43  1  0.48330000  0.89120000  0.88414000  1.0 0.6093005655
C  C44  1  0.51670000  0.39120000  0.61586000  1.0 0.6093005655
O  O1  1  0.14565000  0.07881000  0.97667000  1.0 -0.565694678
O  O2  1  0.85435000  0.57881000  0.52333000  1.0 -0.5603261473
O  O3  1  0.85435000  0.92119000  0.02333000  1.0 -0.5603261473
O  O4  1  0.14565000  0.42119000  0.47667000  1.0 -0.565694678
O  O5  1  0.18520000  0.00811000  0.84568000  1.0 -0.592950392
O  O6  1  0.81480000  0.50811000  0.65432000  1.0 -0.592950392
O  O7  1  0.81480000  0.99189000  0.15432000  1.0 -0.592950392
O  O8  1  0.18520000  0.49189000  0.34568000  1.0 -0.592950392
O  O9  1  0.34849000  0.05758000  0.72448000  1.0 -0.6177414538
O  O10  1  0.65151000  0.55758000  0.77552000  1.0 -0.6177414538
O  O11  1  0.65151000  0.94242000  0.27552000  1.0 -0.6177414538
O  O12  1  0.34849000  0.44242000  0.22448000  1.0 -0.6177414538
O  O13  1  0.28910000  0.24048000  0.74003000  1.0 -0.4269045772
O  O14  1  0.71090000  0.74048000  0.75997000  1.0 -0.4269045772
O  O15  1  0.71090000  0.75952000  0.25997000  1.0 -0.4235310735
O  O16  1  0.28910000  0.25952000  0.24003000  1.0 -0.4269045772
O  O17  1  0.56497000  0.16590000  0.74240000  1.0 -0.5286097856
O  O18  1  0.43503000  0.66590000  0.75760000  1.0 -0.5286097856
O  O19  1  0.43503000  0.83410000  0.25760000  1.0 -0.5286097856
O  O20  1  0.56497000  0.33410000  0.24240000  1.0 -0.5286097856
O  O21  1  0.58893000  0.33691000  0.81084000  1.0 -0.6177414538
O  O22  1  0.41107000  0.83691000  0.68916000  1.0 -0.6177414538
O  O23  1  0.41107000  0.66309000  0.18916000  1.0 -0.6177414538
O  O24  1  0.58893000  0.16309000  0.31084000  1.0 -0.6177414538
O  O25  1  0.71278000  0.18143000  0.93825000  1.0 -0.5209506782
O  O26  1  0.28722000  0.68143000  0.56175000  1.0 -0.5209506782
O  O27  1  0.28722000  0.81857000  0.06175000  1.0 -0.5209506782
O  O28  1  0.71278000  0.31857000  0.43825000  1.0 -0.5209506782
O  O29  1  0.65348000  0.32275000  0.02459000  1.0 -0.5083925011
O  O30  1  0.34652000  0.82275000  0.47541000  1.0 -0.5083925011
O  O31  1  0.34652000  0.67725000  0.97541000  1.0 -0.5083925011
O  O32  1  0.65348000  0.17725000  0.52459000  1.0 -0.5083925011
O  O33  1  0.45653000  0.07045000  0.17373000  1.0 -0.5522435289
O  O34  1  0.54347000  0.57045000  0.32627000  1.0 -0.5603261473
O  O35  1  0.54347000  0.92955000  0.82627000  1.0 -0.5603261473
O  O36  1  0.45653000  0.42955000  0.67373000  1.0 -0.5522435289
O  O37  1  0.61612000  0.11596000  0.12230000  1.0 -0.5522435289
O  O38  1  0.38388000  0.61596000  0.37770000  1.0 -0.5522435289
O  O39  1  0.38388000  0.88404000  0.87770000  1.0 -0.5522435289
O  O40  1  0.61612000  0.38404000  0.62230000  1.0 -0.5522435289
