# DDEC6 charges by PACMAN v1.1 (https://github.com/mtap-research/PACMAN-charge/)
data_WODXEU_FSR_pacman
_symmetry_space_group_name_H-M   'P 1'
_cell_length_a   10.45800000
_cell_length_b   12.27400000
_cell_length_c   12.40100000
_cell_angle_alpha   86.14000000
_cell_angle_beta   79.87000000
_cell_angle_gamma   76.58000000
_symmetry_Int_Tables_number   1
_chemical_formula_structural   LaZnH10C20N3O13
_chemical_formula_sum   'La2 Zn2 H20 C40 N6 O26'
_cell_volume   1523.62575079
_cell_formula_units_Z   2
loop_
 _symmetry_equiv_pos_site_id
 _symmetry_equiv_pos_as_xyz
  1  'x, y, z'
loop_
 _atom_site_type_symbol
 _atom_site_label
 _atom_site_symmetry_multiplicity
 _atom_site_fract_x
 _atom_site_fract_y
 _atom_site_fract_z
 _atom_site_occupancy
 _atom_site_charge
La  La1  1  0.95736000  0.12531000  0.82907000  1.0 1.8440119331
La  La2  1  0.04264000  0.87469000  0.17093000  1.0 1.8440119331
Zn  Zn1  1  0.18644000  0.35029000  0.19024000  1.0 0.7167014187
Zn  Zn2  1  0.81356000  0.64971000  0.80976000  1.0 0.7167014187
H  H1  1  0.32660000  0.71890000  0.97700000  1.0 0.140081287
H  H2  1  0.67340000  0.28110000  0.02300000  1.0 0.140081287
H  H3  1  0.23680000  0.53230000  0.34090000  1.0 0.1279891635
H  H4  1  0.76320000  0.46770000  0.65910000  1.0 0.1279891635
H  H5  1  0.32200000  0.38170000  0.89610000  1.0 0.1279891635
H  H6  1  0.67800000  0.61830000  0.10390000  1.0 0.1279891635
H  H7  1  0.11260000  0.66760000  0.78540000  1.0 0.1279891635
H  H8  1  0.88740000  0.33240000  0.21460000  1.0 0.1279891635
H  H9  1  0.54620000  0.62530000  0.94380000  1.0 0.1136989077
H  H10  1  0.45380000  0.37470000  0.05620000  1.0 0.1136989077
H  H11  1  0.31400000  0.55920000  0.81800000  1.0 0.140081287
H  H12  1  0.68600000  0.44080000  0.18200000  1.0 0.140081287
H  H13  1  0.15650000  0.43410000  0.65280000  1.0 0.1168309493
H  H14  1  0.84350000  0.56590000  0.34720000  1.0 0.1168309493
H  H15  1  0.22780000  0.56150000  0.52300000  1.0 0.140081287
H  H16  1  0.77220000  0.43850000  0.47700000  1.0 0.140081287
H  H17  1  0.40860000  0.93700000  0.73550000  1.0 0.1500047451
H  H18  1  0.59140000  0.06300000  0.26450000  1.0 0.1500047451
H  H19  1  0.62660000  0.84350000  0.71360000  1.0 0.1168309493
H  H20  1  0.37340000  0.15650000  0.28640000  1.0 0.1168309493
C  C1  1  0.01170000  0.44990000  0.87270000  1.0 0.0588274529
C  C2  1  0.98830000  0.55010000  0.12730000  1.0 0.066988804
C  C3  1  0.12790000  0.38190000  0.90050000  1.0 -0.0697120441
C  C4  1  0.87210000  0.61810000  0.09950000  1.0 -0.0697120441
C  C5  1  0.87740000  0.41740000  0.88760000  1.0 0.5476274794
C  C6  1  0.12260000  0.58260000  0.11240000  1.0 0.5476274794
C  C7  1  0.14400000  0.26750000  0.95850000  1.0 0.5997759705
C  C8  1  0.85600000  0.73250000  0.04150000  1.0 0.5997759705
C  C9  1  0.12700000  0.32130000  0.43400000  1.0 0.0588274529
C  C10  1  0.87300000  0.67870000  0.56600000  1.0 0.0588274529
C  C11  1  0.08990000  0.22530000  0.38510000  1.0 0.4960915153
C  C12  1  0.91010000  0.77470000  0.61490000  1.0 0.4960915153
C  C13  1  0.38620000  0.74520000  0.92250000  1.0 -0.15361119
C  C14  1  0.61380000  0.25480000  0.07750000  1.0 -0.15361119
C  C15  1  0.20730000  0.48140000  0.39290000  1.0 0.0978942072
C  C16  1  0.79270000  0.51860000  0.60710000  1.0 0.0978942072
C  C17  1  0.34330000  0.84000000  0.86060000  1.0 0.0160275768
C  C18  1  0.65670000  0.16000000  0.13940000  1.0 0.0160275768
C  C19  1  0.24190000  0.42490000  0.87950000  1.0 -0.0697120441
C  C20  1  0.75810000  0.57510000  0.12050000  1.0 -0.0697120441
C  C21  1  0.11720000  0.59480000  0.81320000  1.0 0.078696478
C  C22  1  0.88280000  0.40520000  0.18680000  1.0 0.078696478
C  C23  1  0.11700000  0.33440000  0.54550000  1.0 -0.0415752748
C  C24  1  0.88300000  0.66560000  0.45450000  1.0 -0.0415752748
C  C25  1  0.20090000  0.90580000  0.88200000  1.0 0.5997759705
C  C26  1  0.79910000  0.09420000  0.11800000  1.0 0.5997759705
C  C27  1  0.51860000  0.69010000  0.90270000  1.0 0.066988804
C  C28  1  0.48140000  0.30990000  0.09730000  1.0 0.066988804
C  C29  1  0.23730000  0.53120000  0.83410000  1.0 -0.1311691994
C  C30  1  0.76270000  0.46880000  0.16590000  1.0 -0.1311691994
C  C31  1  0.15840000  0.42450000  0.57870000  1.0 -0.0697120441
C  C32  1  0.84160000  0.57550000  0.42130000  1.0 -0.0697120441
C  C33  1  0.20220000  0.49960000  0.50170000  1.0 -0.1311691994
C  C34  1  0.79780000  0.50040000  0.49830000  1.0 -0.1311691994
C  C35  1  0.06640000  0.25690000  0.63410000  1.0 0.5476274794
C  C36  1  0.93360000  0.74310000  0.36590000  1.0 0.5476274794
C  C37  1  0.43500000  0.87490000  0.78030000  1.0 -0.1433949986
C  C38  1  0.56500000  0.12510000  0.21970000  1.0 -0.1433949986
C  C39  1  0.56540000  0.81760000  0.76690000  1.0 0.078696478
C  C40  1  0.43460000  0.18240000  0.23310000  1.0 0.078696478
N  N1  1  0.17180000  0.39400000  0.35870000  1.0 -0.2603342677
N  N2  1  0.82820000  0.60600000  0.64130000  1.0 -0.2603342677
N  N3  1  0.60920000  0.72570000  0.82680000  1.0 -0.2151241297
N  N4  1  0.39080000  0.27430000  0.17320000  1.0 -0.2142212237
N  N5  1  0.00710000  0.55460000  0.83170000  1.0 -0.2477675969
N  N6  1  0.99290000  0.44540000  0.16830000  1.0 -0.2477675969
O  O1  1  0.13450000  0.90120000  0.97560000  1.0 -0.5944145019
O  O2  1  0.86550000  0.09880000  0.02440000  1.0 -0.5944145019
O  O3  1  0.18640000  0.26080000  0.04680000  1.0 -0.4858139301
O  O4  1  0.81360000  0.73920000  0.95320000  1.0 -0.4858139301
O  O5  1  0.94570000  0.04660000  0.64360000  1.0 0.140081287
O  O6  1  0.05430000  0.95340000  0.35640000  1.0 0.140081287
O  O7  1  0.85980000  0.95190000  0.85840000  1.0 0.078696478
O  O8  1  0.14020000  0.04810000  0.14160000  1.0 0.066988804
O  O9  1  0.03980000  0.15790000  0.44800000  1.0 -0.426784783
O  O10  1  0.96020000  0.84210000  0.55200000  1.0 -0.426784783
O  O11  1  0.94680000  0.28080000  0.67600000  1.0 -0.5599597688
O  O12  1  0.05320000  0.71920000  0.32400000  1.0 -0.5599597688
O  O13  1  0.14770000  0.17580000  0.66690000  1.0 -0.5484425122
O  O14  1  0.85230000  0.82420000  0.33310000  1.0 -0.5484425122
O  O15  1  0.70940000  0.18110000  0.81080000  1.0 -0.4618253107
O  O16  1  0.29060000  0.81890000  0.18920000  1.0 -0.4711263473
O  O17  1  0.77850000  0.49470000  0.87280000  1.0 -0.5115226204
O  O18  1  0.22150000  0.50530000  0.12720000  1.0 -0.5115226204
O  O19  1  0.11220000  0.22090000  0.28240000  1.0 -0.5040655727
O  O20  1  0.88780000  0.77910000  0.71760000  1.0 -0.5040655727
O  O21  1  0.12620000  0.18480000  0.91430000  1.0 -0.5797358001
O  O22  1  0.87380000  0.81520000  0.08570000  1.0 -0.5797358001
O  O23  1  0.15790000  0.96450000  0.80320000  1.0 -0.5797358001
O  O24  1  0.84210000  0.03550000  0.19680000  1.0 -0.5797358001
O  O25  1  0.87210000  0.31910000  0.91270000  1.0 -0.5363700682
O  O26  1  0.12790000  0.68090000  0.08730000  1.0 -0.5363700682
