# DDEC6 charges by PACMAN v1.1 (https://github.com/mtap-research/PACMAN-charge/)
data_WOFVIX_ASR_pacman
_symmetry_space_group_name_H-M   'P 1'
_cell_length_a   14.48020000
_cell_length_b   14.48020000
_cell_length_c   8.78840000
_cell_angle_alpha   90.00000000
_cell_angle_beta   90.00000000
_cell_angle_gamma   120.00000000
_symmetry_Int_Tables_number   1
_chemical_formula_structural   Ag2H12C15N2O3
_chemical_formula_sum   'Ag8 H48 C60 N8 O12'
_cell_volume   1595.84081316
_cell_formula_units_Z   4
loop_
 _symmetry_equiv_pos_site_id
 _symmetry_equiv_pos_as_xyz
  1  'x, y, z'
loop_
 _atom_site_type_symbol
 _atom_site_label
 _atom_site_symmetry_multiplicity
 _atom_site_fract_x
 _atom_site_fract_y
 _atom_site_fract_z
 _atom_site_occupancy
 _atom_site_charge
Ag  Ag1  1  0.66666667  0.33333333  0.68141000  1.0 0.4834061203
Ag  Ag2  1  0.33333333  0.66666667  0.31859000  1.0 0.4834061203
Ag  Ag3  1  0.89594000  0.59922000  0.10093000  1.0 0.3968374816
Ag  Ag4  1  0.40078000  0.29672000  0.10093000  1.0 0.3968374816
Ag  Ag5  1  0.70328000  0.10406000  0.10093000  1.0 0.3968374816
Ag  Ag6  1  0.10406000  0.40078000  0.89907000  1.0 0.3968374816
Ag  Ag7  1  0.59922000  0.70328000  0.89907000  1.0 0.3968374816
Ag  Ag8  1  0.29672000  0.89594000  0.89907000  1.0 0.3968374816
H  H1  1  0.95530000  0.69760000  0.62460000  1.0 0.1201352378
H  H2  1  0.30240000  0.25770000  0.62460000  1.0 0.1201352378
H  H3  1  0.74230000  0.04470000  0.62460000  1.0 0.1201352378
H  H4  1  0.04470000  0.30240000  0.37540000  1.0 0.1201352378
H  H5  1  0.69760000  0.74230000  0.37540000  1.0 0.1201352378
H  H6  1  0.25770000  0.95530000  0.37540000  1.0 0.1201352378
H  H7  1  0.00290000  0.81690000  0.43320000  1.0 0.1096872932
H  H8  1  0.18310000  0.18600000  0.43320000  1.0 0.1096872932
H  H9  1  0.81400000  0.99710000  0.43320000  1.0 0.1096872932
H  H10  1  0.99710000  0.18310000  0.56680000  1.0 0.1096872932
H  H11  1  0.81690000  0.81400000  0.56680000  1.0 0.1096872932
H  H12  1  0.18600000  0.00290000  0.56680000  1.0 0.1096872932
H  H13  1  0.07620000  0.79460000  0.20730000  1.0 0.1201352378
H  H14  1  0.20540000  0.28160000  0.20730000  1.0 0.1201352378
H  H15  1  0.71840000  0.92380000  0.20730000  1.0 0.1201352378
H  H16  1  0.92380000  0.20540000  0.79270000  1.0 0.1201352378
H  H17  1  0.79460000  0.71840000  0.79270000  1.0 0.1201352378
H  H18  1  0.28160000  0.07620000  0.79270000  1.0 0.1201352378
H  H19  1  0.09740000  0.64900000  0.17640000  1.0 0.1201352378
H  H20  1  0.35100000  0.44840000  0.17640000  1.0 0.1201352378
H  H21  1  0.55160000  0.90260000  0.17640000  1.0 0.1201352378
H  H22  1  0.90260000  0.35100000  0.82360000  1.0 0.1201352378
H  H23  1  0.64900000  0.55160000  0.82360000  1.0 0.1201352378
H  H24  1  0.44840000  0.09740000  0.82360000  1.0 0.1201352378
H  H25  1  0.50640000  0.25160000  0.39790000  1.0 0.1096872932
H  H26  1  0.74840000  0.25480000  0.39790000  1.0 0.1096872932
H  H27  1  0.74520000  0.49360000  0.39790000  1.0 0.1096872932
H  H28  1  0.49360000  0.74840000  0.60210000  1.0 0.1096872932
H  H29  1  0.25160000  0.74520000  0.60210000  1.0 0.1096872932
H  H30  1  0.25480000  0.50640000  0.60210000  1.0 0.1096872932
H  H31  1  0.55390000  0.37560000  0.39820000  1.0 0.0893111391
H  H32  1  0.62440000  0.17830000  0.39820000  1.0 0.0893111391
H  H33  1  0.82170000  0.44610000  0.39820000  1.0 0.0893111391
H  H34  1  0.44610000  0.62440000  0.60180000  1.0 0.0893111391
H  H35  1  0.37560000  0.82170000  0.60180000  1.0 0.0893111391
H  H36  1  0.17830000  0.55390000  0.60180000  1.0 0.0893111391
H  H37  1  0.65250000  0.42240000  0.02770000  1.0 0.1201352378
H  H38  1  0.57760000  0.23010000  0.02770000  1.0 0.1201352378
H  H39  1  0.76990000  0.34750000  0.02770000  1.0 0.1201352378
H  H40  1  0.34750000  0.57760000  0.97230000  1.0 0.1201352378
H  H41  1  0.42240000  0.76990000  0.97230000  1.0 0.1201352378
H  H42  1  0.23010000  0.65250000  0.97230000  1.0 0.1201352378
H  H43  1  0.64300000  0.47930000  0.17400000  1.0 0.1096872932
H  H44  1  0.52070000  0.16370000  0.17400000  1.0 0.1096872932
H  H45  1  0.83630000  0.35700000  0.17400000  1.0 0.1096872932
H  H46  1  0.35700000  0.52070000  0.82600000  1.0 0.1096872932
H  H47  1  0.47930000  0.83630000  0.82600000  1.0 0.1096872932
H  H48  1  0.16370000  0.64300000  0.82600000  1.0 0.1096872932
C  C1  1  0.91100000  0.53060000  0.78390000  1.0 0.554903054
C  C2  1  0.46940000  0.38040000  0.78390000  1.0 0.554903054
C  C3  1  0.61960000  0.08900000  0.78390000  1.0 0.554903054
C  C4  1  0.08900000  0.46940000  0.21610000  1.0 0.554903054
C  C5  1  0.53060000  0.61960000  0.21610000  1.0 0.554903054
C  C6  1  0.38040000  0.91100000  0.21610000  1.0 0.5551175115
C  C7  1  0.95690000  0.51520000  0.63610000  1.0 -0.1399425578
C  C8  1  0.48480000  0.44170000  0.63610000  1.0 -0.1399425578
C  C9  1  0.55830000  0.04310000  0.63610000  1.0 -0.1399425578
C  C10  1  0.04310000  0.48480000  0.36390000  1.0 -0.1399425578
C  C11  1  0.51520000  0.55830000  0.36390000  1.0 -0.1399425578
C  C12  1  0.44170000  0.95690000  0.36390000  1.0 -0.1399425578
C  C13  1  0.99230000  0.59320000  0.52200000  1.0 0.035078605
C  C14  1  0.40680000  0.39910000  0.52200000  1.0 0.035078605
C  C15  1  0.60090000  0.00770000  0.52200000  1.0 0.0294160574
C  C16  1  0.00770000  0.40680000  0.47800000  1.0 0.035078605
C  C17  1  0.59320000  0.60090000  0.47800000  1.0 0.035078605
C  C18  1  0.39910000  0.99230000  0.47800000  1.0 0.035078605
C  C19  1  0.98250000  0.68630000  0.53520000  1.0 -0.1399425578
C  C20  1  0.31370000  0.29620000  0.53520000  1.0 -0.1399425578
C  C21  1  0.70380000  0.01750000  0.53520000  1.0 -0.1399425578
C  C22  1  0.01750000  0.31370000  0.46480000  1.0 -0.1399425578
C  C23  1  0.68630000  0.70380000  0.46480000  1.0 -0.1399425578
C  C24  1  0.29620000  0.98250000  0.46480000  1.0 -0.1399425578
C  C25  1  0.01160000  0.75790000  0.42190000  1.0 -0.1181570937
C  C26  1  0.24210000  0.25370000  0.42190000  1.0 -0.1181570937
C  C27  1  0.74630000  0.98840000  0.42190000  1.0 -0.1181570937
C  C28  1  0.98840000  0.24210000  0.57810000  1.0 -0.1181570937
C  C29  1  0.75790000  0.74630000  0.57810000  1.0 -0.1181570937
C  C30  1  0.25370000  0.01160000  0.57810000  1.0 -0.1181570937
C  C31  1  0.05570000  0.74420000  0.28460000  1.0 -0.1181570937
C  C32  1  0.25580000  0.31150000  0.28460000  1.0 -0.1181570937
C  C33  1  0.68850000  0.94430000  0.28460000  1.0 -0.1181570937
C  C34  1  0.94430000  0.25580000  0.71540000  1.0 -0.1181570937
C  C35  1  0.74420000  0.68850000  0.71540000  1.0 -0.1181570937
C  C36  1  0.31150000  0.05570000  0.71540000  1.0 -0.1181570937
C  C37  1  0.06790000  0.65690000  0.26610000  1.0 -0.1824179056
C  C38  1  0.34310000  0.41100000  0.26610000  1.0 -0.1824179056
C  C39  1  0.58900000  0.93210000  0.26610000  1.0 -0.1824179056
C  C40  1  0.93210000  0.34310000  0.73390000  1.0 -0.1824179056
C  C41  1  0.65690000  0.58900000  0.73390000  1.0 -0.1824179056
C  C42  1  0.41100000  0.06790000  0.73390000  1.0 -0.1824179056
C  C43  1  0.96410000  0.42230000  0.61700000  1.0 0.0294160574
C  C44  1  0.57770000  0.54180000  0.61700000  1.0 0.0294160574
C  C45  1  0.45820000  0.03590000  0.61700000  1.0 0.0294160574
C  C46  1  0.03590000  0.57770000  0.38300000  1.0 0.0294160574
C  C47  1  0.42230000  0.45820000  0.38300000  1.0 0.0294160574
C  C48  1  0.54180000  0.96410000  0.38300000  1.0 0.0294160574
C  C49  1  0.56460000  0.31870000  0.36070000  1.0 -0.0430960102
C  C50  1  0.68130000  0.24590000  0.36070000  1.0 -0.0430960102
C  C51  1  0.75410000  0.43540000  0.36070000  1.0 -0.0430960102
C  C52  1  0.43540000  0.68130000  0.63930000  1.0 -0.0430960102
C  C53  1  0.31870000  0.75410000  0.63930000  1.0 -0.0430960102
C  C54  1  0.24590000  0.56460000  0.63930000  1.0 -0.0430960102
C  C55  1  0.65260000  0.42130000  0.13810000  1.0 -0.0430960102
C  C56  1  0.57870000  0.23130000  0.13810000  1.0 -0.0430960102
C  C57  1  0.76870000  0.34740000  0.13810000  1.0 -0.0430960102
C  C58  1  0.34740000  0.57870000  0.86190000  1.0 -0.0430960102
C  C59  1  0.42130000  0.76870000  0.86190000  1.0 -0.0430960102
C  C60  1  0.23130000  0.65260000  0.86190000  1.0 -0.0430960102
N  N1  1  0.66666667  0.33333333  0.42060000  1.0 -0.1518977123
N  N2  1  0.33333333  0.66666667  0.57940000  1.0 -0.1518977123
N  N3  1  0.56280000  0.31860000  0.19230000  1.0 -0.1344402146
N  N4  1  0.68140000  0.24420000  0.19230000  1.0 -0.1344402146
N  N5  1  0.75580000  0.43720000  0.19230000  1.0 -0.1344402146
N  N6  1  0.43720000  0.68140000  0.80770000  1.0 -0.1344402146
N  N7  1  0.31860000  0.75580000  0.80770000  1.0 -0.1344402146
N  N8  1  0.24420000  0.56280000  0.80770000  1.0 -0.1344402146
O  O1  1  0.81330000  0.47480000  0.80900000  1.0 -0.5598111513
O  O2  1  0.52520000  0.33850000  0.80900000  1.0 -0.5598111513
O  O3  1  0.66150000  0.18670000  0.80900000  1.0 -0.5598111513
O  O4  1  0.18670000  0.52520000  0.19100000  1.0 -0.5598111513
O  O5  1  0.47480000  0.66150000  0.19100000  1.0 -0.5598111513
O  O6  1  0.33850000  0.81330000  0.19100000  1.0 -0.5598111513
O  O7  1  0.97660000  0.60080000  0.87330000  1.0 -0.5456833603
O  O8  1  0.39920000  0.37580000  0.87330000  1.0 -0.5456833603
O  O9  1  0.62420000  0.02340000  0.87330000  1.0 -0.5456833603
O  O10  1  0.02340000  0.39920000  0.12670000  1.0 -0.5456833603
O  O11  1  0.60080000  0.62420000  0.12670000  1.0 -0.5456833603
O  O12  1  0.37580000  0.97660000  0.12670000  1.0 -0.5456833603
