# DDEC6 charges by PACMAN v1.1 (https://github.com/mtap-research/PACMAN-charge/)
data_WOGHEG_ASR_pacman
_symmetry_space_group_name_H-M   'P 1'
_cell_length_a   7.92730000
_cell_length_b   10.55600000
_cell_length_c   13.15500000
_cell_angle_alpha   107.26000000
_cell_angle_beta   107.06000000
_cell_angle_gamma   90.65000000
_symmetry_Int_Tables_number   1
_chemical_formula_structural   ZnH10C16N3O4
_chemical_formula_sum   'Zn2 H20 C32 N6 O8'
_cell_volume   999.13582990
_cell_formula_units_Z   2
loop_
 _symmetry_equiv_pos_site_id
 _symmetry_equiv_pos_as_xyz
  1  'x, y, z'
loop_
 _atom_site_type_symbol
 _atom_site_label
 _atom_site_symmetry_multiplicity
 _atom_site_fract_x
 _atom_site_fract_y
 _atom_site_fract_z
 _atom_site_occupancy
 _atom_site_charge
Zn  Zn1  1  0.72617000  0.04537000  0.29817000  1.0 0.8646896524
Zn  Zn2  1  0.38573000  0.87077000  0.17794000  1.0 0.826214139
H  H1  1  0.44980000  0.84140000  0.85940000  1.0 0.1217393756
H  H2  1  0.43400000  0.84820000  0.67740000  1.0 0.1217393756
H  H3  1  0.76190000  0.15850000  0.82390000  1.0 0.1217393756
H  H4  1  0.78040000  0.15060000  0.99420000  1.0 0.1217393756
H  H5  1  0.69330000  0.06720000  0.61810000  1.0 0.1298468329
H  H6  1  0.42030000  0.85960000  0.53910000  1.0 0.1362345783
H  H7  1  0.75970000  0.54790000  0.19720000  1.0 0.1217393756
H  H8  1  0.08190000  0.71410000  0.27120000  1.0 0.1298468329
H  H9  1  0.87480000  0.37270000  0.18850000  1.0 0.1217393756
H  H10  1  0.04940000  0.19240000  0.18170000  1.0 0.1298468329
H  H11  1  0.49300000  0.42440000  0.30980000  1.0 0.1298468329
H  H12  1  0.33510000  0.60380000  0.30280000  1.0 0.1298468329
H  H13  1  0.28720000  0.60470000  0.00370000  1.0 0.1298468329
H  H14  1  0.03570000  0.47000000  0.87530000  1.0 0.1362345783
H  H15  1  0.73160000  0.75360000  0.97380000  1.0 0.1298468329
H  H16  1  0.98300000  0.88840000  0.10210000  1.0 0.1298468329
H  H17  1  0.37940000  0.17860000  0.49270000  1.0 0.1298468329
H  H18  1  0.12770000  0.05510000  0.35490000  1.0 0.1298468329
H  H19  1  0.82110000  0.29860000  0.50070000  1.0 0.1298468329
H  H20  1  0.07280000  0.42200000  0.63850000  1.0 0.1298468329
C  C1  1  0.60700000  0.98300000  0.05640000  1.0 0.5576549811
C  C2  1  0.60900000  0.99400000  0.95320000  1.0 -0.0689590382
C  C3  1  0.51800000  0.91200000  0.85670000  1.0 -0.0793972246
C  C4  1  0.50800000  0.91300000  0.73980000  1.0 -0.1322633954
C  C5  1  0.60800000  0.01100000  0.72550000  1.0 0.0887714369
C  C6  1  0.69300000  0.08680000  0.82380000  1.0 -0.1322633954
C  C7  1  0.70400000  0.08510000  0.93330000  1.0 -0.0793972246
C  C8  1  0.61200000  0.00900000  0.62500000  1.0 -0.0793972246
C  C9  1  0.49800000  0.92100000  0.53270000  1.0 -0.2010194617
C  C10  1  0.49900000  0.92400000  0.41050000  1.0 0.6071649833
C  C11  1  0.72100000  0.75060000  0.22050000  1.0 0.6254844112
C  C12  1  0.82500000  0.63080000  0.22000000  1.0 -0.2269939216
C  C13  1  0.01200000  0.63400000  0.25110000  1.0 -0.1016194628
C  C14  1  0.09100000  0.51500000  0.25140000  1.0 0.0999104312
C  C15  1  0.99800000  0.38680000  0.21300000  1.0 -0.1191292399
C  C16  1  0.10900000  0.27800000  0.21500000  1.0 -0.1016194628
C  C17  1  0.28500000  0.28590000  0.25870000  1.0 -0.055883679
C  C18  1  0.38000000  0.16800000  0.25280000  1.0 0.5897017164
C  C19  1  0.36970000  0.41160000  0.28730000  1.0 -0.0936282085
C  C20  1  0.27200000  0.52080000  0.28280000  1.0 -0.1191292399
C  C21  1  0.17580000  0.63460000  0.99770000  1.0 0.0887714369
C  C22  1  0.02520000  0.55390000  0.92080000  1.0 -0.1512509244
C  C23  1  0.85870000  0.59850000  0.91180000  1.0 0.0562969973
C  C24  1  0.84290000  0.72380000  0.97980000  1.0 -0.1411951787
C  C25  1  0.99360000  0.80450000  0.05660000  1.0 0.0999104312
C  C26  1  0.69520000  0.51730000  0.82840000  1.0 0.2889670772
C  C27  1  0.38890000  0.36840000  0.66930000  1.0 0.1991677923
C  C28  1  0.25100000  0.31260000  0.57930000  1.0 0.0359025752
C  C29  1  0.26750000  0.20260000  0.49430000  1.0 -0.1411951787
C  C30  1  0.11670000  0.12870000  0.41170000  1.0 0.0795517458
C  C31  1  0.93300000  0.27450000  0.49910000  1.0 0.0887714369
C  C32  1  0.08380000  0.34850000  0.58170000  1.0 -0.1411951787
N  N1  1  0.16000000  0.75990000  0.06560000  1.0 -0.2400746303
N  N2  1  0.53270000  0.56880000  0.81850000  1.0 -0.2178053664
N  N3  1  0.37950000  0.49440000  0.73890000  1.0 -0.1850832658
N  N4  1  0.55140000  0.31690000  0.67930000  1.0 -0.1788197266
N  N5  1  0.70460000  0.39130000  0.75890000  1.0 -0.2466883319
N  N6  1  0.94940000  0.16460000  0.41410000  1.0 -0.2269939216
O  O1  1  0.47600000  0.91880000  0.05990000  1.0 -0.5190931814
O  O2  1  0.74000000  0.04990000  0.14740000  1.0 -0.5520106511
O  O3  1  0.38100000  0.86240000  0.33230000  1.0 -0.4743195431
O  O4  1  0.62700000  0.00600000  0.41590000  1.0 -0.576828237
O  O5  1  0.55800000  0.72660000  0.18150000  1.0 -0.5394118683
O  O6  1  0.82280000  0.86440000  0.26400000  1.0 -0.576828237
O  O7  1  0.29900000  0.05390000  0.20670000  1.0 -0.5190931814
O  O8  1  0.55020000  0.18240000  0.29530000  1.0 -0.5394118683
