# DDEC6 charges by PACMAN v1.1 (https://github.com/mtap-research/PACMAN-charge/)
data_WOGHUV01_FSR_pacman
_symmetry_space_group_name_H-M   'P 1'
_cell_length_a   9.04893000
_cell_length_b   9.04893000
_cell_length_c   22.99790000
_cell_angle_alpha   77.57250000
_cell_angle_beta   102.42800000
_cell_angle_gamma   125.71500000
_symmetry_Int_Tables_number   1
_chemical_formula_structural   Zn7P6(H2O13)2
_chemical_formula_sum   'Zn14 P12 H8 O52'
_cell_volume   1483.59288330
_cell_formula_units_Z   2
loop_
 _symmetry_equiv_pos_site_id
 _symmetry_equiv_pos_as_xyz
  1  'x, y, z'
loop_
 _atom_site_type_symbol
 _atom_site_label
 _atom_site_symmetry_multiplicity
 _atom_site_fract_x
 _atom_site_fract_y
 _atom_site_fract_z
 _atom_site_occupancy
 _atom_site_charge
Zn  Zn1  1  0.54330000  0.14630000  0.57380000  1.0 1.1198047029
Zn  Zn2  1  0.14630000  0.54330000  0.92620000  1.0 1.1198047029
Zn  Zn3  1  0.45670000  0.85370000  0.42620000  1.0 1.1198047029
Zn  Zn4  1  0.85370000  0.45670000  0.07380000  1.0 1.1198047029
Zn  Zn5  1  0.17000000  0.17000000  0.75000000  1.0 1.1384482013
Zn  Zn6  1  0.83000000  0.83000000  0.25000000  1.0 1.1342556106
Zn  Zn7  1  0.00130000  0.29910000  0.57270000  1.0 1.1504055189
Zn  Zn8  1  0.29910000  0.00130000  0.92730000  1.0 1.1504055189
Zn  Zn9  1  0.99870000  0.70090000  0.42730000  1.0 1.1504055189
Zn  Zn10  1  0.70090000  0.99870000  0.07270000  1.0 1.1504055189
Zn  Zn11  1  0.35360000  0.88160000  0.69550000  1.0 1.1198047029
Zn  Zn12  1  0.88160000  0.35360000  0.80450000  1.0 1.1198047029
Zn  Zn13  1  0.64640000  0.11840000  0.30450000  1.0 1.1198047029
Zn  Zn14  1  0.11840000  0.64640000  0.19550000  1.0 1.1198047029
P  P1  1  0.80840000  0.17020000  0.68930000  1.0 1.5424260126
P  P2  1  0.17020000  0.80840000  0.81070000  1.0 1.5424260126
P  P3  1  0.19160000  0.82980000  0.31070000  1.0 1.5424260126
P  P4  1  0.82980000  0.19160000  0.18930000  1.0 1.5424260126
P  P5  1  0.27760000  0.74160000  0.54410000  1.0 1.5254574644
P  P6  1  0.74160000  0.27760000  0.95590000  1.0 1.5197791385
P  P7  1  0.72240000  0.25840000  0.45590000  1.0 1.5197791385
P  P8  1  0.25840000  0.72240000  0.04410000  1.0 1.5254574644
P  P9  1  0.26260000  0.15920000  0.63300000  1.0 1.5197791385
P  P10  1  0.15920000  0.26260000  0.86700000  1.0 1.5197791385
P  P11  1  0.73740000  0.84080000  0.36700000  1.0 1.5134037363
P  P12  1  0.84080000  0.73740000  0.13300000  1.0 1.5134037363
H  H1  1  0.15620000  0.54800000  0.70740000  1.0 0.3865644114
H  H2  1  0.54800000  0.15620000  0.79260000  1.0 0.3784980999
H  H3  1  0.84380000  0.45200000  0.29260000  1.0 0.3784980999
H  H4  1  0.45200000  0.84380000  0.20740000  1.0 0.3865644114
H  H5  1  0.23540000  0.58240000  0.66370000  1.0 0.3784980999
H  H6  1  0.58240000  0.23540000  0.83630000  1.0 0.3784980999
H  H7  1  0.76460000  0.41760000  0.33630000  1.0 0.3784980999
H  H8  1  0.41760000  0.76460000  0.16370000  1.0 0.3784980999
O  O1  1  0.39490000  0.88270000  0.58970000  1.0 -0.7578464521
O  O2  1  0.88270000  0.39490000  0.91030000  1.0 -0.7578464521
O  O3  1  0.60510000  0.11730000  0.41030000  1.0 -0.7578464521
O  O4  1  0.11730000  0.60510000  0.08970000  1.0 -0.7578464521
O  O5  1  0.40540000  0.74760000  0.50750000  1.0 -0.7284127398
O  O6  1  0.74760000  0.40540000  0.99250000  1.0 -0.7284127398
O  O7  1  0.59460000  0.25240000  0.49250000  1.0 -0.7284127398
O  O8  1  0.25240000  0.59460000  0.00750000  1.0 -0.7284127398
O  O9  1  0.43160000  0.25140000  0.59850000  1.0 -0.70127227
O  O10  1  0.25140000  0.43160000  0.90150000  1.0 -0.70127227
O  O11  1  0.56840000  0.74860000  0.40150000  1.0 -0.70127227
O  O12  1  0.74860000  0.56840000  0.09850000  1.0 -0.70127227
O  O13  1  0.79220000  0.21920000  0.61900000  1.0 -0.7499133169
O  O14  1  0.21920000  0.79220000  0.88100000  1.0 -0.7499133169
O  O15  1  0.20780000  0.78080000  0.38100000  1.0 -0.7499133169
O  O16  1  0.78080000  0.20780000  0.11900000  1.0 -0.7499133169
O  O17  1  0.32220000  0.27180000  0.68490000  1.0 -0.7284127398
O  O18  1  0.27180000  0.32220000  0.81510000  1.0 -0.7284127398
O  O19  1  0.67780000  0.72820000  0.31510000  1.0 -0.7284127398
O  O20  1  0.72820000  0.67780000  0.18490000  1.0 -0.7284127398
O  O21  1  0.93090000  0.10110000  0.70530000  1.0 -0.7284127398
O  O22  1  0.10110000  0.93090000  0.79470000  1.0 -0.7284127398
O  O23  1  0.06910000  0.89890000  0.29470000  1.0 -0.7284127398
O  O24  1  0.89890000  0.06910000  0.20530000  1.0 -0.7284127398
O  O25  1  0.17670000  0.55510000  0.58200000  1.0 -0.7207565231
O  O26  1  0.55510000  0.17670000  0.91800000  1.0 -0.7207565231
O  O27  1  0.82330000  0.44490000  0.41800000  1.0 -0.7207565231
O  O28  1  0.44490000  0.82330000  0.08200000  1.0 -0.7207565231
O  O29  1  0.10300000  0.15400000  0.59010000  1.0 -0.70127227
O  O30  1  0.15400000  0.10300000  0.90990000  1.0 -0.70127227
O  O31  1  0.89700000  0.84600000  0.40990000  1.0 -0.70127227
O  O32  1  0.84600000  0.89700000  0.09010000  1.0 -0.70127227
O  O33  1  0.14610000  0.78190000  0.50320000  1.0 -0.7439468278
O  O34  1  0.78190000  0.14610000  0.99680000  1.0 -0.7439468278
O  O35  1  0.85390000  0.21810000  0.49680000  1.0 -0.7499133169
O  O36  1  0.21810000  0.85390000  0.00320000  1.0 -0.7499133169
O  O37  1  0.19740000  0.96020000  0.65620000  1.0 -0.7499133169
O  O38  1  0.96020000  0.19740000  0.84380000  1.0 -0.7439468278
O  O39  1  0.80260000  0.03980000  0.34380000  1.0 -0.7499133169
O  O40  1  0.03980000  0.80260000  0.15620000  1.0 -0.7499133169
O  O41  1  0.61690000  0.02810000  0.70720000  1.0 -0.7499133169
O  O42  1  0.02810000  0.61690000  0.79280000  1.0 -0.7499133169
O  O43  1  0.38310000  0.97190000  0.29280000  1.0 -0.7499133169
O  O44  1  0.97190000  0.38310000  0.20720000  1.0 -0.7499133169
O  O45  1  0.89340000  0.34820000  0.71720000  1.0 -0.70127227
O  O46  1  0.34820000  0.89340000  0.78280000  1.0 -0.70127227
O  O47  1  0.10660000  0.65180000  0.28280000  1.0 -0.7066005839
O  O48  1  0.65180000  0.10660000  0.21720000  1.0 -0.70127227
O  O49  1  0.25300000  0.61860000  0.69750000  1.0 -0.5366875006
O  O50  1  0.61860000  0.25300000  0.80250000  1.0 -0.5366875006
O  O51  1  0.74700000  0.38140000  0.30250000  1.0 -0.5366875006
O  O52  1  0.38140000  0.74700000  0.19750000  1.0 -0.5366875006
