# DDEC6 charges by PACMAN v1.1 (https://github.com/mtap-research/PACMAN-charge/)
data_WOHCII_ASR_pacman
_symmetry_space_group_name_H-M   'P 1'
_cell_length_a   10.72830000
_cell_length_b   10.72830000
_cell_length_c   10.72830000
_cell_angle_alpha   98.73730000
_cell_angle_beta   98.73730000
_cell_angle_gamma   134.12200000
_symmetry_Int_Tables_number   1
_chemical_formula_structural   ZrZnH48C56(N2F3)2
_chemical_formula_sum   'Zr1 Zn1 H48 C56 N4 F6'
_cell_volume   816.30921467
_cell_formula_units_Z   1
loop_
 _symmetry_equiv_pos_site_id
 _symmetry_equiv_pos_as_xyz
  1  'x, y, z'
loop_
 _atom_site_type_symbol
 _atom_site_label
 _atom_site_symmetry_multiplicity
 _atom_site_fract_x
 _atom_site_fract_y
 _atom_site_fract_z
 _atom_site_occupancy
 _atom_site_charge
Zr  Zr1  1  0.50000000  0.50000000  0.00000000  1.0 1.5234792262
Zn  Zn1  1  0.00000000  0.00000000  0.00000000  1.0 0.5568168789
H  H1  1  0.61598000  0.72608000  0.77368000  1.0 0.054011102
H  H2  1  0.43818000  0.71780000  0.60932000  1.0 0.0653466313
H  H3  1  0.95240000  0.84230000  0.22632000  1.0 0.054011102
H  H4  1  0.10848000  0.82886000  0.39068000  1.0 0.0653466313
H  H5  1  0.84230000  0.61598000  0.88990000  1.0 0.054011102
H  H6  1  0.82886000  0.43818000  0.72038000  1.0 0.0653466313
H  H7  1  0.72608000  0.95240000  0.11010000  1.0 0.054011102
H  H8  1  0.71780000  0.10848000  0.27962000  1.0 0.0653466313
H  H9  1  0.38402000  0.15770000  0.11010000  1.0 0.054011102
H  H10  1  0.56182000  0.17114000  0.27962000  1.0 0.0653466313
H  H11  1  0.04760000  0.27392000  0.88990000  1.0 0.054011102
H  H12  1  0.89152000  0.28220000  0.72038000  1.0 0.0653466313
H  H13  1  0.15770000  0.04760000  0.77368000  1.0 0.054011102
H  H14  1  0.17114000  0.89152000  0.60932000  1.0 0.0653466313
H  H15  1  0.27392000  0.38402000  0.22632000  1.0 0.054011102
H  H16  1  0.28220000  0.56182000  0.39068000  1.0 0.0653466313
H  H17  1  0.38402000  0.27392000  0.22632000  1.0 0.054011102
H  H18  1  0.56182000  0.28220000  0.39068000  1.0 0.0653466313
H  H19  1  0.04760000  0.15770000  0.77368000  1.0 0.054011102
H  H20  1  0.89152000  0.17114000  0.60932000  1.0 0.0653466313
H  H21  1  0.15770000  0.38402000  0.11010000  1.0 0.054011102
H  H22  1  0.17114000  0.56182000  0.27962000  1.0 0.0653466313
H  H23  1  0.27392000  0.04760000  0.88990000  1.0 0.054011102
H  H24  1  0.28220000  0.89152000  0.72038000  1.0 0.0653466313
H  H25  1  0.61598000  0.84230000  0.88990000  1.0 0.054011102
H  H26  1  0.43818000  0.82886000  0.72038000  1.0 0.0653466313
H  H27  1  0.95240000  0.72608000  0.11010000  1.0 0.054011102
H  H28  1  0.10848000  0.71780000  0.27962000  1.0 0.0653466313
H  H29  1  0.84230000  0.95240000  0.22632000  1.0 0.054011102
H  H30  1  0.82886000  0.10848000  0.39068000  1.0 0.0653466313
H  H31  1  0.72608000  0.61598000  0.77368000  1.0 0.054011102
H  H32  1  0.71780000  0.43818000  0.60932000  1.0 0.0653466313
H  H33  1  0.59183000  0.76337000  0.82846000  1.0 0.0604606649
H  H34  1  0.41848000  0.75635000  0.66213000  1.0 0.0604606649
H  H35  1  0.93491000  0.76337000  0.17154000  1.0 0.0604606649
H  H36  1  0.09422000  0.75635000  0.33787000  1.0 0.0604606649
H  H37  1  0.76337000  0.59183000  0.82846000  1.0 0.0604606649
H  H38  1  0.75635000  0.41848000  0.66213000  1.0 0.0604606649
H  H39  1  0.76337000  0.93491000  0.17154000  1.0 0.0604606649
H  H40  1  0.75635000  0.09422000  0.33787000  1.0 0.0604606649
H  H41  1  0.40817000  0.23663000  0.17154000  1.0 0.0604606649
H  H42  1  0.58152000  0.24365000  0.33787000  1.0 0.0604606649
H  H43  1  0.06509000  0.23663000  0.82846000  1.0 0.0604606649
H  H44  1  0.90578000  0.24365000  0.66213000  1.0 0.0604606649
H  H45  1  0.23663000  0.06509000  0.82846000  1.0 0.0604606649
H  H46  1  0.24365000  0.90578000  0.66213000  1.0 0.0604606649
H  H47  1  0.23663000  0.40817000  0.17154000  1.0 0.0604606649
H  H48  1  0.24365000  0.58152000  0.33787000  1.0 0.0604606649
C  C1  1  0.67040000  0.84050000  0.76370000  1.0 0.0179553546
C  C2  1  0.56470000  0.83380000  0.66430000  1.0 -0.0199172957
C  C3  1  0.07680000  0.90670000  0.23630000  1.0 0.0179553546
C  C4  1  0.16950000  0.90040000  0.33570000  1.0 -0.0199172957
C  C5  1  0.90670000  0.67040000  0.82990000  1.0 0.0179553546
C  C6  1  0.90040000  0.56470000  0.73090000  1.0 -0.0199172957
C  C7  1  0.84050000  0.07680000  0.17010000  1.0 0.0179553546
C  C8  1  0.83380000  0.16950000  0.26910000  1.0 -0.0199172957
C  C9  1  0.32960000  0.09330000  0.17010000  1.0 0.0179553546
C  C10  1  0.43530000  0.09960000  0.26910000  1.0 -0.0199172957
C  C11  1  0.92320000  0.15950000  0.82990000  1.0 0.0179553546
C  C12  1  0.83050000  0.16620000  0.73090000  1.0 -0.0199172957
C  C13  1  0.09330000  0.92320000  0.76370000  1.0 0.0179553546
C  C14  1  0.09960000  0.83050000  0.66430000  1.0 -0.0199172957
C  C15  1  0.15950000  0.32960000  0.23630000  1.0 0.0179553546
C  C16  1  0.16620000  0.43530000  0.33570000  1.0 -0.0199172957
C  C17  1  0.32960000  0.15950000  0.23630000  1.0 0.0179553546
C  C18  1  0.43530000  0.16620000  0.33570000  1.0 -0.0199172957
C  C19  1  0.92320000  0.09330000  0.76370000  1.0 0.0179553546
C  C20  1  0.83050000  0.09960000  0.66430000  1.0 -0.0199172957
C  C21  1  0.09330000  0.32960000  0.17010000  1.0 0.0179553546
C  C22  1  0.09960000  0.43530000  0.26910000  1.0 -0.0199172957
C  C23  1  0.15950000  0.92320000  0.82990000  1.0 0.0179553546
C  C24  1  0.16620000  0.83050000  0.73090000  1.0 -0.0199172957
C  C25  1  0.67040000  0.90670000  0.82990000  1.0 0.0179553546
C  C26  1  0.56470000  0.90040000  0.73090000  1.0 -0.0199172957
C  C27  1  0.07680000  0.84050000  0.17010000  1.0 0.0179553546
C  C28  1  0.16950000  0.83380000  0.26910000  1.0 -0.0199172957
C  C29  1  0.90670000  0.07680000  0.23630000  1.0 0.0179553546
C  C30  1  0.90040000  0.16950000  0.33570000  1.0 -0.0199172957
C  C31  1  0.84050000  0.67040000  0.76370000  1.0 0.0179553546
C  C32  1  0.83380000  0.56470000  0.66430000  1.0 -0.0199172957
C  C33  1  0.64560000  0.00000000  0.64560000  1.0 0.0179553546
C  C34  1  0.54280000  0.00000000  0.54280000  1.0 -0.2786314756
C  C35  1  0.35440000  0.00000000  0.35440000  1.0 0.0179553546
C  C36  1  0.45720000  0.00000000  0.45720000  1.0 -0.2786314756
C  C37  1  0.00000000  0.64560000  0.64560000  1.0 0.0179553546
C  C38  1  0.00000000  0.54280000  0.54280000  1.0 -0.2786314756
C  C39  1  0.00000000  0.35440000  0.35440000  1.0 0.0179553546
C  C40  1  0.00000000  0.45720000  0.45720000  1.0 -0.2786314756
C  C41  1  0.65710000  0.86290000  0.79420000  1.0 -0.0056608447
C  C42  1  0.55220000  0.85680000  0.69540000  1.0 -0.0199172957
C  C43  1  0.06870000  0.86290000  0.20580000  1.0 -0.0056608447
C  C44  1  0.16140000  0.85680000  0.30460000  1.0 -0.0199172957
C  C45  1  0.86290000  0.65710000  0.79420000  1.0 -0.0056608447
C  C46  1  0.85680000  0.55220000  0.69540000  1.0 -0.0199172957
C  C47  1  0.86290000  0.06870000  0.20580000  1.0 -0.0056608447
C  C48  1  0.85680000  0.16140000  0.30460000  1.0 -0.0199172957
C  C49  1  0.34290000  0.13710000  0.20580000  1.0 -0.0056608447
C  C50  1  0.44780000  0.14320000  0.30460000  1.0 -0.0199172957
C  C51  1  0.93130000  0.13710000  0.79420000  1.0 -0.0056608447
C  C52  1  0.83860000  0.14320000  0.69540000  1.0 -0.0199172957
C  C53  1  0.13710000  0.93130000  0.79420000  1.0 -0.0056608447
C  C54  1  0.14320000  0.83860000  0.69540000  1.0 -0.0199172957
C  C55  1  0.13710000  0.34290000  0.20580000  1.0 -0.0056608447
C  C56  1  0.14320000  0.44780000  0.30460000  1.0 -0.0199172957
N  N1  1  0.84590000  0.00000000  0.84590000  1.0 -0.1521282912
N  N2  1  0.15410000  0.00000000  0.15410000  1.0 -0.1521282912
N  N3  1  0.00000000  0.84590000  0.84590000  1.0 -0.1521282912
N  N4  1  0.00000000  0.15410000  0.15410000  1.0 -0.1521282912
F  F1  1  0.25550000  0.25550000  0.00000000  1.0 -0.4988192738
F  F2  1  0.74450000  0.74450000  0.00000000  1.0 -0.4988192738
F  F3  1  0.35840000  0.50000000  0.85840000  1.0 -0.5181295246
F  F4  1  0.64160000  0.50000000  0.14160000  1.0 -0.5181295246
F  F5  1  0.50000000  0.35840000  0.85840000  1.0 -0.5181295246
F  F6  1  0.50000000  0.64160000  0.14160000  1.0 -0.5181295246
