# DDEC6 charges by PACMAN v1.1 (https://github.com/mtap-research/PACMAN-charge/)
data_WOHPIV_ASR_pacman
_symmetry_space_group_name_H-M   'P 1'
_cell_length_a   35.83100000
_cell_length_b   35.83100000
_cell_length_c   31.84300000
_cell_angle_alpha   90.00000000
_cell_angle_beta   90.00000000
_cell_angle_gamma   90.00000000
_symmetry_Int_Tables_number   1
_chemical_formula_structural   CuH10C27(NO2)2
_chemical_formula_sum   'Cu24 H240 C648 N48 O96'
_cell_volume   40881.97184392
_cell_formula_units_Z   24
loop_
 _symmetry_equiv_pos_site_id
 _symmetry_equiv_pos_as_xyz
  1  'x, y, z'
loop_
 _atom_site_type_symbol
 _atom_site_label
 _atom_site_symmetry_multiplicity
 _atom_site_fract_x
 _atom_site_fract_y
 _atom_site_fract_z
 _atom_site_occupancy
 _atom_site_charge
Cu  Cu1  1  0.50000000  0.00000000  0.36778000  1.0 0.8285916026
Cu  Cu2  1  0.50000000  0.00000000  0.28453000  1.0 0.8490507877
Cu  Cu3  1  0.50000000  0.00000000  0.86778000  1.0 0.8285916026
Cu  Cu4  1  0.50000000  0.00000000  0.78453000  1.0 0.8490507877
Cu  Cu5  1  0.76170000  0.50000000  0.06332000  1.0 0.8490507877
Cu  Cu6  1  0.68771000  0.50000000  0.06047000  1.0 0.7584685188
Cu  Cu7  1  0.23830000  0.50000000  0.06332000  1.0 0.8490507877
Cu  Cu8  1  0.31229000  0.50000000  0.06047000  1.0 0.7584685188
Cu  Cu9  1  0.00000000  0.26170000  0.56332000  1.0 0.8562629497
Cu  Cu10  1  0.00000000  0.18771000  0.56047000  1.0 0.7584685188
Cu  Cu11  1  0.00000000  0.73830000  0.56332000  1.0 0.8562629497
Cu  Cu12  1  0.00000000  0.81229000  0.56047000  1.0 0.7584685188
Cu  Cu13  1  0.00000000  0.50000000  0.13222000  1.0 0.8285916026
Cu  Cu14  1  0.00000000  0.50000000  0.21547000  1.0 0.8490507877
Cu  Cu15  1  0.00000000  0.50000000  0.63222000  1.0 0.8285916026
Cu  Cu16  1  0.00000000  0.50000000  0.71547000  1.0 0.8490507877
Cu  Cu17  1  0.26170000  0.00000000  0.43668000  1.0 0.8562629497
Cu  Cu18  1  0.18771000  0.00000000  0.43953000  1.0 0.7584685188
Cu  Cu19  1  0.73830000  0.00000000  0.43668000  1.0 0.8562629497
Cu  Cu20  1  0.81229000  0.00000000  0.43953000  1.0 0.7584685188
Cu  Cu21  1  0.50000000  0.23830000  0.93668000  1.0 0.8562629497
Cu  Cu22  1  0.50000000  0.31229000  0.93953000  1.0 0.7584685188
Cu  Cu23  1  0.50000000  0.76170000  0.93668000  1.0 0.8562629497
Cu  Cu24  1  0.50000000  0.68771000  0.93953000  1.0 0.7584685188
H  H1  1  0.58822000  0.91812000  0.38814000  1.0 0.1393096329
H  H2  1  0.63052000  0.86970000  0.38734000  1.0 0.1301240312
H  H3  1  0.62424000  0.86620000  0.26391000  1.0 0.1301240312
H  H4  1  0.57941000  0.91281000  0.26333000  1.0 0.1301240312
H  H5  1  0.68235000  0.74778000  0.27735000  1.0 0.1393096329
H  H6  1  0.78410000  0.71019000  0.31605000  1.0 0.1393096329
H  H7  1  0.74272000  0.80473000  0.36412000  1.0 0.1301240312
H  H8  1  0.67018000  0.63912000  0.19749000  1.0 0.1198514593
H  H9  1  0.66892000  0.59035000  0.14922000  1.0 0.1198514593
H  H10  1  0.77959000  0.57832000  0.16128000  1.0 0.1198514593
H  H11  1  0.78066000  0.62597000  0.21156000  1.0 0.1198514593
H  H12  1  0.86539000  0.82330000  0.41815000  1.0 0.1198514593
H  H13  1  0.91210000  0.82698000  0.46549000  1.0 0.1301240312
H  H14  1  0.91557000  0.71591000  0.47487000  1.0 0.1301240312
H  H15  1  0.86568000  0.71234000  0.42556000  1.0 0.1198514593
H  H16  1  0.41178000  0.08188000  0.38814000  1.0 0.1393096329
H  H17  1  0.36948000  0.13030000  0.38734000  1.0 0.1301240312
H  H18  1  0.37576000  0.13380000  0.26391000  1.0 0.1301240312
H  H19  1  0.42059000  0.08719000  0.26333000  1.0 0.1301240312
H  H20  1  0.31765000  0.25222000  0.27735000  1.0 0.145168605
H  H21  1  0.21590000  0.28981000  0.31605000  1.0 0.1393096329
H  H22  1  0.25728000  0.19527000  0.36412000  1.0 0.1301240312
H  H23  1  0.32982000  0.36088000  0.19749000  1.0 0.1198514593
H  H24  1  0.33108000  0.40965000  0.14922000  1.0 0.1198514593
H  H25  1  0.22041000  0.42168000  0.16128000  1.0 0.1198514593
H  H26  1  0.21934000  0.37403000  0.21156000  1.0 0.1198514593
H  H27  1  0.13461000  0.17670000  0.41815000  1.0 0.1198514593
H  H28  1  0.08790000  0.17302000  0.46549000  1.0 0.1301240312
H  H29  1  0.08443000  0.28409000  0.47487000  1.0 0.1301240312
H  H30  1  0.13432000  0.28766000  0.42556000  1.0 0.1198514593
H  H31  1  0.58188000  0.08822000  0.88814000  1.0 0.1393096329
H  H32  1  0.63030000  0.13052000  0.88734000  1.0 0.1301240312
H  H33  1  0.63380000  0.12424000  0.76391000  1.0 0.1301240312
H  H34  1  0.58719000  0.07941000  0.76333000  1.0 0.1301240312
H  H35  1  0.75222000  0.18235000  0.77735000  1.0 0.145168605
H  H36  1  0.78981000  0.28410000  0.81605000  1.0 0.1393096329
H  H37  1  0.69527000  0.24272000  0.86412000  1.0 0.1301240312
H  H38  1  0.86088000  0.17018000  0.69749000  1.0 0.1301240312
H  H39  1  0.90965000  0.16892000  0.64922000  1.0 0.1198514593
H  H40  1  0.92168000  0.27959000  0.66128000  1.0 0.1198514593
H  H41  1  0.87403000  0.28066000  0.71156000  1.0 0.1198514593
H  H42  1  0.67670000  0.36539000  0.91815000  1.0 0.1198514593
H  H43  1  0.67302000  0.41210000  0.96549000  1.0 0.1301240312
H  H44  1  0.78409000  0.41557000  0.97487000  1.0 0.1301240312
H  H45  1  0.78766000  0.36568000  0.92556000  1.0 0.1198514593
H  H46  1  0.41812000  0.91178000  0.88814000  1.0 0.1393096329
H  H47  1  0.36970000  0.86948000  0.88734000  1.0 0.1301240312
H  H48  1  0.36620000  0.87576000  0.76391000  1.0 0.1301240312
H  H49  1  0.41281000  0.92059000  0.76333000  1.0 0.1301240312
H  H50  1  0.24778000  0.81765000  0.77735000  1.0 0.145168605
H  H51  1  0.21019000  0.71590000  0.81605000  1.0 0.1393096329
H  H52  1  0.30473000  0.75728000  0.86412000  1.0 0.1301240312
H  H53  1  0.13912000  0.82982000  0.69749000  1.0 0.1301240312
H  H54  1  0.09035000  0.83108000  0.64922000  1.0 0.1198514593
H  H55  1  0.07832000  0.72041000  0.66128000  1.0 0.1198514593
H  H56  1  0.12597000  0.71934000  0.71156000  1.0 0.1198514593
H  H57  1  0.32330000  0.63461000  0.91815000  1.0 0.1198514593
H  H58  1  0.32698000  0.58790000  0.96549000  1.0 0.1301240312
H  H59  1  0.21591000  0.58443000  0.97487000  1.0 0.1301240312
H  H60  1  0.21234000  0.63432000  0.92556000  1.0 0.1198514593
H  H61  1  0.41178000  0.91812000  0.38814000  1.0 0.1393096329
H  H62  1  0.36948000  0.86970000  0.38734000  1.0 0.1301240312
H  H63  1  0.37576000  0.86620000  0.26391000  1.0 0.1301240312
H  H64  1  0.42059000  0.91281000  0.26333000  1.0 0.1301240312
H  H65  1  0.31765000  0.74778000  0.27735000  1.0 0.145168605
H  H66  1  0.21590000  0.71019000  0.31605000  1.0 0.1393096329
H  H67  1  0.25728000  0.80473000  0.36412000  1.0 0.1301240312
H  H68  1  0.32982000  0.63912000  0.19749000  1.0 0.1198514593
H  H69  1  0.33108000  0.59035000  0.14922000  1.0 0.1198514593
H  H70  1  0.22041000  0.57832000  0.16128000  1.0 0.1198514593
H  H71  1  0.21934000  0.62597000  0.21156000  1.0 0.1198514593
H  H72  1  0.13461000  0.82330000  0.41815000  1.0 0.1198514593
H  H73  1  0.08790000  0.82698000  0.46549000  1.0 0.1301240312
H  H74  1  0.08443000  0.71591000  0.47487000  1.0 0.1301240312
H  H75  1  0.13432000  0.71234000  0.42556000  1.0 0.1198514593
H  H76  1  0.58822000  0.08188000  0.38814000  1.0 0.1393096329
H  H77  1  0.63052000  0.13030000  0.38734000  1.0 0.1301240312
H  H78  1  0.62424000  0.13380000  0.26391000  1.0 0.1301240312
H  H79  1  0.57941000  0.08719000  0.26333000  1.0 0.1301240312
H  H80  1  0.68235000  0.25222000  0.27735000  1.0 0.145168605
H  H81  1  0.78410000  0.28981000  0.31605000  1.0 0.1393096329
H  H82  1  0.74272000  0.19527000  0.36412000  1.0 0.1301240312
H  H83  1  0.67018000  0.36088000  0.19749000  1.0 0.1198514593
H  H84  1  0.66892000  0.40965000  0.14922000  1.0 0.1198514593
H  H85  1  0.77959000  0.42168000  0.16128000  1.0 0.1198514593
H  H86  1  0.78066000  0.37403000  0.21156000  1.0 0.1198514593
H  H87  1  0.86539000  0.17670000  0.41815000  1.0 0.1198514593
H  H88  1  0.91210000  0.17302000  0.46549000  1.0 0.1301240312
H  H89  1  0.91557000  0.28409000  0.47487000  1.0 0.1301240312
H  H90  1  0.86568000  0.28766000  0.42556000  1.0 0.1198514593
H  H91  1  0.41812000  0.08822000  0.88814000  1.0 0.1393096329
H  H92  1  0.36970000  0.13052000  0.88734000  1.0 0.1301240312
H  H93  1  0.36620000  0.12424000  0.76391000  1.0 0.1301240312
H  H94  1  0.41281000  0.07941000  0.76333000  1.0 0.1301240312
H  H95  1  0.24778000  0.18235000  0.77735000  1.0 0.145168605
H  H96  1  0.21019000  0.28410000  0.81605000  1.0 0.1393096329
H  H97  1  0.30473000  0.24272000  0.86412000  1.0 0.1301240312
H  H98  1  0.13912000  0.17018000  0.69749000  1.0 0.1301240312
H  H99  1  0.09035000  0.16892000  0.64922000  1.0 0.1198514593
H  H100  1  0.07832000  0.27959000  0.66128000  1.0 0.1198514593
H  H101  1  0.12597000  0.28066000  0.71156000  1.0 0.1198514593
H  H102  1  0.32330000  0.36539000  0.91815000  1.0 0.1198514593
H  H103  1  0.32698000  0.41210000  0.96549000  1.0 0.1301240312
H  H104  1  0.21591000  0.41557000  0.97487000  1.0 0.1301240312
H  H105  1  0.21234000  0.36568000  0.92556000  1.0 0.1198514593
H  H106  1  0.58188000  0.91178000  0.88814000  1.0 0.1393096329
H  H107  1  0.63030000  0.86948000  0.88734000  1.0 0.1301240312
H  H108  1  0.63380000  0.87576000  0.76391000  1.0 0.1301240312
H  H109  1  0.58719000  0.92059000  0.76333000  1.0 0.1301240312
H  H110  1  0.75222000  0.81765000  0.77735000  1.0 0.145168605
H  H111  1  0.78981000  0.71590000  0.81605000  1.0 0.1393096329
H  H112  1  0.69527000  0.75728000  0.86412000  1.0 0.1301240312
H  H113  1  0.86088000  0.82982000  0.69749000  1.0 0.1301240312
H  H114  1  0.90965000  0.83108000  0.64922000  1.0 0.1198514593
H  H115  1  0.92168000  0.72041000  0.66128000  1.0 0.1198514593
H  H116  1  0.87403000  0.71934000  0.71156000  1.0 0.1198514593
H  H117  1  0.67670000  0.63461000  0.91815000  1.0 0.1198514593
H  H118  1  0.67302000  0.58790000  0.96549000  1.0 0.1301240312
H  H119  1  0.78409000  0.58443000  0.97487000  1.0 0.1301240312
H  H120  1  0.78766000  0.63432000  0.92556000  1.0 0.1198514593
H  H121  1  0.08822000  0.58188000  0.11186000  1.0 0.1393096329
H  H122  1  0.13052000  0.63030000  0.11266000  1.0 0.1301240312
H  H123  1  0.12424000  0.63380000  0.23609000  1.0 0.1301240312
H  H124  1  0.07941000  0.58719000  0.23667000  1.0 0.1301240312
H  H125  1  0.18235000  0.75222000  0.22265000  1.0 0.1393096329
H  H126  1  0.28410000  0.78981000  0.18395000  1.0 0.1393096329
H  H127  1  0.24272000  0.69527000  0.13588000  1.0 0.1301240312
H  H128  1  0.17018000  0.86088000  0.30251000  1.0 0.1198514593
H  H129  1  0.16892000  0.90965000  0.35078000  1.0 0.1198514593
H  H130  1  0.27959000  0.92168000  0.33872000  1.0 0.1198514593
H  H131  1  0.28066000  0.87403000  0.28844000  1.0 0.1198514593
H  H132  1  0.36539000  0.67670000  0.08185000  1.0 0.1198514593
H  H133  1  0.41210000  0.67302000  0.03451000  1.0 0.1301240312
H  H134  1  0.41557000  0.78409000  0.02513000  1.0 0.1301240312
H  H135  1  0.36568000  0.78766000  0.07444000  1.0 0.1198514593
H  H136  1  0.91178000  0.41812000  0.11186000  1.0 0.1393096329
H  H137  1  0.86948000  0.36970000  0.11266000  1.0 0.1301240312
H  H138  1  0.87576000  0.36620000  0.23609000  1.0 0.1301240312
H  H139  1  0.92059000  0.41281000  0.23667000  1.0 0.1301240312
H  H140  1  0.81765000  0.24778000  0.22265000  1.0 0.1393096329
H  H141  1  0.71590000  0.21019000  0.18395000  1.0 0.1393096329
H  H142  1  0.75728000  0.30473000  0.13588000  1.0 0.1301240312
H  H143  1  0.82982000  0.13912000  0.30251000  1.0 0.1198514593
H  H144  1  0.83108000  0.09035000  0.35078000  1.0 0.1198514593
H  H145  1  0.72041000  0.07832000  0.33872000  1.0 0.1198514593
H  H146  1  0.71934000  0.12597000  0.28844000  1.0 0.1198514593
H  H147  1  0.63461000  0.32330000  0.08185000  1.0 0.1198514593
H  H148  1  0.58790000  0.32698000  0.03451000  1.0 0.1301240312
H  H149  1  0.58443000  0.21591000  0.02513000  1.0 0.1301240312
H  H150  1  0.63432000  0.21234000  0.07444000  1.0 0.1198514593
H  H151  1  0.08188000  0.41178000  0.61186000  1.0 0.1393096329
H  H152  1  0.13030000  0.36948000  0.61266000  1.0 0.1301240312
H  H153  1  0.13380000  0.37576000  0.73609000  1.0 0.1301240312
H  H154  1  0.08719000  0.42059000  0.73667000  1.0 0.1301240312
H  H155  1  0.25222000  0.31765000  0.72265000  1.0 0.145168605
H  H156  1  0.28981000  0.21590000  0.68395000  1.0 0.1393096329
H  H157  1  0.19527000  0.25728000  0.63588000  1.0 0.1301240312
H  H158  1  0.36088000  0.32982000  0.80251000  1.0 0.1198514593
H  H159  1  0.40965000  0.33108000  0.85078000  1.0 0.1198514593
H  H160  1  0.42168000  0.22041000  0.83872000  1.0 0.1198514593
H  H161  1  0.37403000  0.21934000  0.78844000  1.0 0.1198514593
H  H162  1  0.17670000  0.13461000  0.58185000  1.0 0.1198514593
H  H163  1  0.17302000  0.08790000  0.53451000  1.0 0.1301240312
H  H164  1  0.28409000  0.08443000  0.52513000  1.0 0.1301240312
H  H165  1  0.28766000  0.13432000  0.57444000  1.0 0.1198514593
H  H166  1  0.91812000  0.58822000  0.61186000  1.0 0.1393096329
H  H167  1  0.86970000  0.63052000  0.61266000  1.0 0.1301240312
H  H168  1  0.86620000  0.62424000  0.73609000  1.0 0.1301240312
H  H169  1  0.91281000  0.57941000  0.73667000  1.0 0.1301240312
H  H170  1  0.74778000  0.68235000  0.72265000  1.0 0.145168605
H  H171  1  0.71019000  0.78410000  0.68395000  1.0 0.1393096329
H  H172  1  0.80473000  0.74272000  0.63588000  1.0 0.1301240312
H  H173  1  0.63912000  0.67018000  0.80251000  1.0 0.1198514593
H  H174  1  0.59035000  0.66892000  0.85078000  1.0 0.1198514593
H  H175  1  0.57832000  0.77959000  0.83872000  1.0 0.1198514593
H  H176  1  0.62597000  0.78066000  0.78844000  1.0 0.1198514593
H  H177  1  0.82330000  0.86539000  0.58185000  1.0 0.1198514593
H  H178  1  0.82698000  0.91210000  0.53451000  1.0 0.1301240312
H  H179  1  0.71591000  0.91557000  0.52513000  1.0 0.1301240312
H  H180  1  0.71234000  0.86568000  0.57444000  1.0 0.1198514593
H  H181  1  0.91178000  0.58188000  0.11186000  1.0 0.1393096329
H  H182  1  0.86948000  0.63030000  0.11266000  1.0 0.1301240312
H  H183  1  0.87576000  0.63380000  0.23609000  1.0 0.1301240312
H  H184  1  0.92059000  0.58719000  0.23667000  1.0 0.1301240312
H  H185  1  0.81765000  0.75222000  0.22265000  1.0 0.1393096329
H  H186  1  0.71590000  0.78981000  0.18395000  1.0 0.1393096329
H  H187  1  0.75728000  0.69527000  0.13588000  1.0 0.1301240312
H  H188  1  0.82982000  0.86088000  0.30251000  1.0 0.1198514593
H  H189  1  0.83108000  0.90965000  0.35078000  1.0 0.1198514593
H  H190  1  0.72041000  0.92168000  0.33872000  1.0 0.1198514593
H  H191  1  0.71934000  0.87403000  0.28844000  1.0 0.1198514593
H  H192  1  0.63461000  0.67670000  0.08185000  1.0 0.1198514593
H  H193  1  0.58790000  0.67302000  0.03451000  1.0 0.1301240312
H  H194  1  0.58443000  0.78409000  0.02513000  1.0 0.1301240312
H  H195  1  0.63432000  0.78766000  0.07444000  1.0 0.1198514593
H  H196  1  0.08822000  0.41812000  0.11186000  1.0 0.1393096329
H  H197  1  0.13052000  0.36970000  0.11266000  1.0 0.1301240312
H  H198  1  0.12424000  0.36620000  0.23609000  1.0 0.1301240312
H  H199  1  0.07941000  0.41281000  0.23667000  1.0 0.1301240312
H  H200  1  0.18235000  0.24778000  0.22265000  1.0 0.145168605
H  H201  1  0.28410000  0.21019000  0.18395000  1.0 0.1393096329
H  H202  1  0.24272000  0.30473000  0.13588000  1.0 0.1301240312
H  H203  1  0.17018000  0.13912000  0.30251000  1.0 0.1198514593
H  H204  1  0.16892000  0.09035000  0.35078000  1.0 0.1198514593
H  H205  1  0.27959000  0.07832000  0.33872000  1.0 0.1198514593
H  H206  1  0.28066000  0.12597000  0.28844000  1.0 0.1198514593
H  H207  1  0.36539000  0.32330000  0.08185000  1.0 0.1198514593
H  H208  1  0.41210000  0.32698000  0.03451000  1.0 0.1301240312
H  H209  1  0.41557000  0.21591000  0.02513000  1.0 0.1301240312
H  H210  1  0.36568000  0.21234000  0.07444000  1.0 0.1198514593
H  H211  1  0.91812000  0.41178000  0.61186000  1.0 0.1393096329
H  H212  1  0.86970000  0.36948000  0.61266000  1.0 0.1301240312
H  H213  1  0.86620000  0.37576000  0.73609000  1.0 0.1301240312
H  H214  1  0.91281000  0.42059000  0.73667000  1.0 0.1301240312
H  H215  1  0.74778000  0.31765000  0.72265000  1.0 0.145168605
H  H216  1  0.71019000  0.21590000  0.68395000  1.0 0.1393096329
H  H217  1  0.80473000  0.25728000  0.63588000  1.0 0.1301240312
H  H218  1  0.63912000  0.32982000  0.80251000  1.0 0.1198514593
H  H219  1  0.59035000  0.33108000  0.85078000  1.0 0.1198514593
H  H220  1  0.57832000  0.22041000  0.83872000  1.0 0.1198514593
H  H221  1  0.62597000  0.21934000  0.78844000  1.0 0.1198514593
H  H222  1  0.82330000  0.13461000  0.58185000  1.0 0.1198514593
H  H223  1  0.82698000  0.08790000  0.53451000  1.0 0.1301240312
H  H224  1  0.71591000  0.08443000  0.52513000  1.0 0.1301240312
H  H225  1  0.71234000  0.13432000  0.57444000  1.0 0.1198514593
H  H226  1  0.08188000  0.58822000  0.61186000  1.0 0.1393096329
H  H227  1  0.13030000  0.63052000  0.61266000  1.0 0.1301240312
H  H228  1  0.13380000  0.62424000  0.73609000  1.0 0.1301240312
H  H229  1  0.08719000  0.57941000  0.73667000  1.0 0.1301240312
H  H230  1  0.25222000  0.68235000  0.72265000  1.0 0.145168605
H  H231  1  0.28981000  0.78410000  0.68395000  1.0 0.1393096329
H  H232  1  0.19527000  0.74272000  0.63588000  1.0 0.1301240312
H  H233  1  0.36088000  0.67018000  0.80251000  1.0 0.1198514593
H  H234  1  0.40965000  0.66892000  0.85078000  1.0 0.1198514593
H  H235  1  0.42168000  0.77959000  0.83872000  1.0 0.1198514593
H  H236  1  0.37403000  0.78066000  0.78844000  1.0 0.1198514593
H  H237  1  0.17670000  0.86539000  0.58185000  1.0 0.1198514593
H  H238  1  0.17302000  0.91210000  0.53451000  1.0 0.1301240312
H  H239  1  0.28409000  0.91557000  0.52513000  1.0 0.1301240312
H  H240  1  0.28766000  0.86568000  0.57444000  1.0 0.1198514593
C  C1  1  0.54960000  0.94970000  0.32600000  1.0 0.5720360851
C  C2  1  0.57870000  0.91890000  0.32680000  1.0 -0.0200068738
C  C3  1  0.59460000  0.90680000  0.36250000  1.0 -0.0978343878
C  C4  1  0.62000000  0.87840000  0.36210000  1.0 -0.1398443531
C  C5  1  0.62970000  0.86270000  0.32480000  1.0 0.1198514593
C  C6  1  0.61580000  0.87620000  0.28950000  1.0 -0.1398443531
C  C7  1  0.58950000  0.90410000  0.28870000  1.0 -0.0922498337
C  C8  1  0.65640000  0.83260000  0.32390000  1.0 -0.0978343878
C  C9  1  0.68010000  0.80720000  0.32370000  1.0 -0.0922498337
C  C10  1  0.70710000  0.77950000  0.32240000  1.0 0.1393096329
C  C11  1  0.70370000  0.74970000  0.29440000  1.0 -0.1706527837
C  C12  1  0.73080000  0.72360000  0.29160000  1.0 0.1393096329
C  C13  1  0.76480000  0.72780000  0.31800000  1.0 -0.1811041662
C  C14  1  0.76800000  0.75700000  0.34500000  1.0 0.1301240312
C  C15  1  0.73990000  0.78370000  0.34670000  1.0 -0.1811041662
C  C16  1  0.72730000  0.69260000  0.26450000  1.0 -0.0922498337
C  C17  1  0.72560000  0.66630000  0.24040000  1.0 -0.1134557847
C  C18  1  0.72540000  0.63690000  0.21170000  1.0 0.1393096329
C  C19  1  0.69240000  0.62650000  0.19110000  1.0 -0.1398443531
C  C20  1  0.69170000  0.59770000  0.16130000  1.0 -0.0922498337
C  C21  1  0.72290000  0.58110000  0.15040000  1.0 -0.0200068738
C  C22  1  0.75750000  0.59070000  0.16900000  1.0 -0.0922498337
C  C23  1  0.75780000  0.61900000  0.19930000  1.0 -0.1486077918
C  C24  1  0.72390000  0.55070000  0.11890000  1.0 0.5720360851
C  C25  1  0.80150000  0.76010000  0.36980000  1.0 -0.0922498337
C  C26  1  0.82750000  0.76330000  0.39160000  1.0 -0.0922498337
C  C27  1  0.85910000  0.76720000  0.41910000  1.0 0.1198514593
C  C28  1  0.87470000  0.80130000  0.43020000  1.0 -0.1398443531
C  C29  1  0.90280000  0.80340000  0.45780000  1.0 -0.0978343878
C  C30  1  0.91870000  0.77150000  0.47540000  1.0 -0.0095346977
C  C31  1  0.90520000  0.73790000  0.46380000  1.0 -0.0978343878
C  C32  1  0.87470000  0.73570000  0.43420000  1.0 -0.1282426619
C  C33  1  0.94990000  0.77360000  0.50690000  1.0 0.5720360851
C  C34  1  0.60800000  0.48860000  0.02610000  1.0 0.0570329905
C  C35  1  0.56930000  0.49050000  0.02590000  1.0 -0.042661575
C  C36  1  0.55030000  0.50370000  0.06090000  1.0 -0.0095346977
C  C37  1  0.57010000  0.51510000  0.09620000  1.0 -0.042661575
C  C38  1  0.60890000  0.51330000  0.09640000  1.0 0.0530317113
C  C39  1  0.45040000  0.05030000  0.32600000  1.0 0.5720360851
C  C40  1  0.42130000  0.08110000  0.32680000  1.0 -0.0200068738
C  C41  1  0.40540000  0.09320000  0.36250000  1.0 -0.0978343878
C  C42  1  0.38000000  0.12160000  0.36210000  1.0 -0.1398443531
C  C43  1  0.37030000  0.13730000  0.32480000  1.0 0.1198514593
C  C44  1  0.38420000  0.12380000  0.28950000  1.0 -0.1398443531
C  C45  1  0.41050000  0.09590000  0.28870000  1.0 -0.0922498337
C  C46  1  0.34360000  0.16740000  0.32390000  1.0 -0.0978343878
C  C47  1  0.31990000  0.19280000  0.32370000  1.0 -0.0922498337
C  C48  1  0.29290000  0.22050000  0.32240000  1.0 0.1393096329
C  C49  1  0.29630000  0.25030000  0.29440000  1.0 -0.1706527837
C  C50  1  0.26920000  0.27640000  0.29160000  1.0 0.1393096329
C  C51  1  0.23520000  0.27220000  0.31800000  1.0 -0.1811041662
C  C52  1  0.23200000  0.24300000  0.34500000  1.0 0.1301240312
C  C53  1  0.26010000  0.21630000  0.34670000  1.0 -0.1811041662
C  C54  1  0.27270000  0.30740000  0.26450000  1.0 -0.0922498337
C  C55  1  0.27440000  0.33370000  0.24040000  1.0 -0.1134557847
C  C56  1  0.27460000  0.36310000  0.21170000  1.0 0.1393096329
C  C57  1  0.30760000  0.37350000  0.19110000  1.0 -0.1398443531
C  C58  1  0.30830000  0.40230000  0.16130000  1.0 -0.0922498337
C  C59  1  0.27710000  0.41890000  0.15040000  1.0 -0.0200068738
C  C60  1  0.24250000  0.40930000  0.16900000  1.0 -0.0922498337
C  C61  1  0.24220000  0.38100000  0.19930000  1.0 -0.1486077918
C  C62  1  0.27610000  0.44930000  0.11890000  1.0 0.5720360851
C  C63  1  0.19850000  0.23990000  0.36980000  1.0 -0.0922498337
C  C64  1  0.17250000  0.23670000  0.39160000  1.0 -0.0922498337
C  C65  1  0.14090000  0.23280000  0.41910000  1.0 0.1198514593
C  C66  1  0.12530000  0.19870000  0.43020000  1.0 -0.1398443531
C  C67  1  0.09720000  0.19660000  0.45780000  1.0 -0.0978343878
C  C68  1  0.08130000  0.22850000  0.47540000  1.0 -0.0095346977
C  C69  1  0.09480000  0.26210000  0.46380000  1.0 -0.0978343878
C  C70  1  0.12530000  0.26430000  0.43420000  1.0 -0.1282426619
C  C71  1  0.05010000  0.22640000  0.50690000  1.0 0.5720360851
C  C72  1  0.39200000  0.51140000  0.02610000  1.0 0.0570329905
C  C73  1  0.43070000  0.50950000  0.02590000  1.0 -0.042661575
C  C74  1  0.44970000  0.49630000  0.06090000  1.0 -0.0095346977
C  C75  1  0.42990000  0.48490000  0.09620000  1.0 -0.042661575
C  C76  1  0.39110000  0.48670000  0.09640000  1.0 0.0530317113
C  C77  1  0.55030000  0.04960000  0.82600000  1.0 0.5720360851
C  C78  1  0.58110000  0.07870000  0.82680000  1.0 -0.0200068738
C  C79  1  0.59320000  0.09460000  0.86250000  1.0 -0.0978343878
C  C80  1  0.62160000  0.12000000  0.86210000  1.0 -0.1398443531
C  C81  1  0.63730000  0.12970000  0.82480000  1.0 0.1198514593
C  C82  1  0.62380000  0.11580000  0.78950000  1.0 -0.1398443531
C  C83  1  0.59590000  0.08950000  0.78870000  1.0 -0.0922498337
C  C84  1  0.66740000  0.15640000  0.82390000  1.0 -0.0922498337
C  C85  1  0.69280000  0.18010000  0.82370000  1.0 -0.0922498337
C  C86  1  0.72050000  0.20710000  0.82240000  1.0 0.1393096329
C  C87  1  0.75030000  0.20370000  0.79440000  1.0 -0.1706527837
C  C88  1  0.77640000  0.23080000  0.79160000  1.0 0.1393096329
C  C89  1  0.77220000  0.26480000  0.81800000  1.0 -0.1811041662
C  C90  1  0.74300000  0.26800000  0.84500000  1.0 0.1301240312
C  C91  1  0.71630000  0.23990000  0.84670000  1.0 -0.1811041662
C  C92  1  0.80740000  0.22730000  0.76450000  1.0 -0.0922498337
C  C93  1  0.83370000  0.22560000  0.74040000  1.0 -0.1134557847
C  C94  1  0.86310000  0.22540000  0.71170000  1.0 0.1393096329
C  C95  1  0.87350000  0.19240000  0.69110000  1.0 -0.1398443531
C  C96  1  0.90230000  0.19170000  0.66130000  1.0 -0.0922498337
C  C97  1  0.91890000  0.22290000  0.65040000  1.0 -0.0200068738
C  C98  1  0.90930000  0.25750000  0.66900000  1.0 -0.0922498337
C  C99  1  0.88100000  0.25780000  0.69930000  1.0 -0.1486077918
C  C100  1  0.94930000  0.22390000  0.61890000  1.0 0.5720360851
C  C101  1  0.73990000  0.30150000  0.86980000  1.0 -0.0922498337
C  C102  1  0.73670000  0.32750000  0.89160000  1.0 -0.0922498337
C  C103  1  0.73280000  0.35910000  0.91910000  1.0 0.1139660339
C  C104  1  0.69870000  0.37470000  0.93020000  1.0 -0.1398443531
C  C105  1  0.69660000  0.40280000  0.95780000  1.0 -0.0978343878
C  C106  1  0.72850000  0.41870000  0.97540000  1.0 -0.0095346977
C  C107  1  0.76210000  0.40520000  0.96380000  1.0 -0.0978343878
C  C108  1  0.76430000  0.37470000  0.93420000  1.0 -0.1282426619
C  C109  1  0.72640000  0.44990000  0.00690000  1.0 0.5720360851
C  C110  1  0.01140000  0.10800000  0.52610000  1.0 0.0570329905
C  C111  1  0.00950000  0.06930000  0.52590000  1.0 -0.042661575
C  C112  1  0.99630000  0.05030000  0.56090000  1.0 -0.0095346977
C  C113  1  0.98490000  0.07010000  0.59620000  1.0 -0.042661575
C  C114  1  0.98670000  0.10890000  0.59640000  1.0 0.0530317113
C  C115  1  0.44970000  0.95040000  0.82600000  1.0 0.5720360851
C  C116  1  0.41890000  0.92130000  0.82680000  1.0 -0.0200068738
C  C117  1  0.40680000  0.90540000  0.86250000  1.0 -0.0978343878
C  C118  1  0.37840000  0.88000000  0.86210000  1.0 -0.1398443531
C  C119  1  0.36270000  0.87030000  0.82480000  1.0 0.1198514593
C  C120  1  0.37620000  0.88420000  0.78950000  1.0 -0.1398443531
C  C121  1  0.40410000  0.91050000  0.78870000  1.0 -0.0922498337
C  C122  1  0.33260000  0.84360000  0.82390000  1.0 -0.0978343878
C  C123  1  0.30720000  0.81990000  0.82370000  1.0 -0.0922498337
C  C124  1  0.27950000  0.79290000  0.82240000  1.0 0.1393096329
C  C125  1  0.24970000  0.79630000  0.79440000  1.0 -0.1706527837
C  C126  1  0.22360000  0.76920000  0.79160000  1.0 0.1393096329
C  C127  1  0.22780000  0.73520000  0.81800000  1.0 -0.1811041662
C  C128  1  0.25700000  0.73200000  0.84500000  1.0 0.1301240312
C  C129  1  0.28370000  0.76010000  0.84670000  1.0 -0.1811041662
C  C130  1  0.19260000  0.77270000  0.76450000  1.0 -0.0922498337
C  C131  1  0.16630000  0.77440000  0.74040000  1.0 -0.1134557847
C  C132  1  0.13690000  0.77460000  0.71170000  1.0 0.1393096329
C  C133  1  0.12650000  0.80760000  0.69110000  1.0 -0.1398443531
C  C134  1  0.09770000  0.80830000  0.66130000  1.0 -0.0922498337
C  C135  1  0.08110000  0.77710000  0.65040000  1.0 -0.0200068738
C  C136  1  0.09070000  0.74250000  0.66900000  1.0 -0.0922498337
C  C137  1  0.11900000  0.74220000  0.69930000  1.0 -0.1486077918
C  C138  1  0.05070000  0.77610000  0.61890000  1.0 0.5720360851
C  C139  1  0.26010000  0.69850000  0.86980000  1.0 -0.0978343878
C  C140  1  0.26330000  0.67250000  0.89160000  1.0 -0.0922498337
C  C141  1  0.26720000  0.64090000  0.91910000  1.0 0.1139660339
C  C142  1  0.30130000  0.62530000  0.93020000  1.0 -0.1398443531
C  C143  1  0.30340000  0.59720000  0.95780000  1.0 -0.0978343878
C  C144  1  0.27150000  0.58130000  0.97540000  1.0 -0.0095346977
C  C145  1  0.23790000  0.59480000  0.96380000  1.0 -0.0978343878
C  C146  1  0.23570000  0.62530000  0.93420000  1.0 -0.1282426619
C  C147  1  0.27360000  0.55010000  0.00690000  1.0 0.5720360851
C  C148  1  0.98860000  0.89200000  0.52610000  1.0 0.0570329905
C  C149  1  0.99050000  0.93070000  0.52590000  1.0 -0.042661575
C  C150  1  0.00370000  0.94970000  0.56090000  1.0 -0.0095346977
C  C151  1  0.01510000  0.92990000  0.59620000  1.0 -0.042661575
C  C152  1  0.01330000  0.89110000  0.59640000  1.0 0.0530317113
C  C153  1  0.45040000  0.94970000  0.32600000  1.0 0.5720360851
C  C154  1  0.42130000  0.91890000  0.32680000  1.0 -0.0200068738
C  C155  1  0.40540000  0.90680000  0.36250000  1.0 -0.0978343878
C  C156  1  0.38000000  0.87840000  0.36210000  1.0 -0.1398443531
C  C157  1  0.37030000  0.86270000  0.32480000  1.0 0.1198514593
C  C158  1  0.38420000  0.87620000  0.28950000  1.0 -0.1398443531
C  C159  1  0.41050000  0.90410000  0.28870000  1.0 -0.0922498337
C  C160  1  0.34360000  0.83260000  0.32390000  1.0 -0.0978343878
C  C161  1  0.31990000  0.80720000  0.32370000  1.0 -0.0922498337
C  C162  1  0.29290000  0.77950000  0.32240000  1.0 0.1393096329
C  C163  1  0.29630000  0.74970000  0.29440000  1.0 -0.1706527837
C  C164  1  0.26920000  0.72360000  0.29160000  1.0 0.1393096329
C  C165  1  0.23520000  0.72780000  0.31800000  1.0 -0.1811041662
C  C166  1  0.23200000  0.75700000  0.34500000  1.0 0.1301240312
C  C167  1  0.26010000  0.78370000  0.34670000  1.0 -0.1811041662
C  C168  1  0.27270000  0.69260000  0.26450000  1.0 -0.0922498337
C  C169  1  0.27440000  0.66630000  0.24040000  1.0 -0.1134557847
C  C170  1  0.27460000  0.63690000  0.21170000  1.0 0.1393096329
C  C171  1  0.30760000  0.62650000  0.19110000  1.0 -0.1398443531
C  C172  1  0.30830000  0.59770000  0.16130000  1.0 -0.0922498337
C  C173  1  0.27710000  0.58110000  0.15040000  1.0 -0.0200068738
C  C174  1  0.24250000  0.59070000  0.16900000  1.0 -0.0922498337
C  C175  1  0.24220000  0.61900000  0.19930000  1.0 -0.1486077918
C  C176  1  0.27610000  0.55070000  0.11890000  1.0 0.5720360851
C  C177  1  0.19850000  0.76010000  0.36980000  1.0 -0.0922498337
C  C178  1  0.17250000  0.76330000  0.39160000  1.0 -0.0922498337
C  C179  1  0.14090000  0.76720000  0.41910000  1.0 0.1198514593
C  C180  1  0.12530000  0.80130000  0.43020000  1.0 -0.1398443531
C  C181  1  0.09720000  0.80340000  0.45780000  1.0 -0.0978343878
C  C182  1  0.08130000  0.77150000  0.47540000  1.0 -0.0095346977
C  C183  1  0.09480000  0.73790000  0.46380000  1.0 -0.0978343878
C  C184  1  0.12530000  0.73570000  0.43420000  1.0 -0.1282426619
C  C185  1  0.05010000  0.77360000  0.50690000  1.0 0.5720360851
C  C186  1  0.39200000  0.48860000  0.02610000  1.0 0.0570329905
C  C187  1  0.43070000  0.49050000  0.02590000  1.0 -0.042661575
C  C188  1  0.44970000  0.50370000  0.06090000  1.0 -0.0095346977
C  C189  1  0.42990000  0.51510000  0.09620000  1.0 -0.042661575
C  C190  1  0.39110000  0.51330000  0.09640000  1.0 0.0530317113
C  C191  1  0.54960000  0.05030000  0.32600000  1.0 0.5720360851
C  C192  1  0.57870000  0.08110000  0.32680000  1.0 -0.0200068738
C  C193  1  0.59460000  0.09320000  0.36250000  1.0 -0.0978343878
C  C194  1  0.62000000  0.12160000  0.36210000  1.0 -0.1398443531
C  C195  1  0.62970000  0.13730000  0.32480000  1.0 0.1198514593
C  C196  1  0.61580000  0.12380000  0.28950000  1.0 -0.1398443531
C  C197  1  0.58950000  0.09590000  0.28870000  1.0 -0.0922498337
C  C198  1  0.65640000  0.16740000  0.32390000  1.0 -0.0978343878
C  C199  1  0.68010000  0.19280000  0.32370000  1.0 -0.0922498337
C  C200  1  0.70710000  0.22050000  0.32240000  1.0 0.1393096329
C  C201  1  0.70370000  0.25030000  0.29440000  1.0 -0.1706527837
C  C202  1  0.73080000  0.27640000  0.29160000  1.0 0.1393096329
C  C203  1  0.76480000  0.27220000  0.31800000  1.0 -0.1811041662
C  C204  1  0.76800000  0.24300000  0.34500000  1.0 0.1301240312
C  C205  1  0.73990000  0.21630000  0.34670000  1.0 -0.1811041662
C  C206  1  0.72730000  0.30740000  0.26450000  1.0 -0.0922498337
C  C207  1  0.72560000  0.33370000  0.24040000  1.0 -0.1134557847
C  C208  1  0.72540000  0.36310000  0.21170000  1.0 0.1393096329
C  C209  1  0.69240000  0.37350000  0.19110000  1.0 -0.1398443531
C  C210  1  0.69170000  0.40230000  0.16130000  1.0 -0.0922498337
C  C211  1  0.72290000  0.41890000  0.15040000  1.0 -0.0200068738
C  C212  1  0.75750000  0.40930000  0.16900000  1.0 -0.0922498337
C  C213  1  0.75780000  0.38100000  0.19930000  1.0 -0.1486077918
C  C214  1  0.72390000  0.44930000  0.11890000  1.0 0.5720360851
C  C215  1  0.80150000  0.23990000  0.36980000  1.0 -0.0922498337
C  C216  1  0.82750000  0.23670000  0.39160000  1.0 -0.0922498337
C  C217  1  0.85910000  0.23280000  0.41910000  1.0 0.1198514593
C  C218  1  0.87470000  0.19870000  0.43020000  1.0 -0.1398443531
C  C219  1  0.90280000  0.19660000  0.45780000  1.0 -0.0978343878
C  C220  1  0.91870000  0.22850000  0.47540000  1.0 -0.0095346977
C  C221  1  0.90520000  0.26210000  0.46380000  1.0 -0.0978343878
C  C222  1  0.87470000  0.26430000  0.43420000  1.0 -0.1282426619
C  C223  1  0.94990000  0.22640000  0.50690000  1.0 0.5720360851
C  C224  1  0.60800000  0.51140000  0.02610000  1.0 0.0570329905
C  C225  1  0.56930000  0.50950000  0.02590000  1.0 -0.042661575
C  C226  1  0.55030000  0.49630000  0.06090000  1.0 -0.0095346977
C  C227  1  0.57010000  0.48490000  0.09620000  1.0 -0.042661575
C  C228  1  0.60890000  0.48670000  0.09640000  1.0 0.0530317113
C  C229  1  0.44970000  0.04960000  0.82600000  1.0 0.5720360851
C  C230  1  0.41890000  0.07870000  0.82680000  1.0 -0.0200068738
C  C231  1  0.40680000  0.09460000  0.86250000  1.0 -0.0978343878
C  C232  1  0.37840000  0.12000000  0.86210000  1.0 -0.1398443531
C  C233  1  0.36270000  0.12970000  0.82480000  1.0 0.1198514593
C  C234  1  0.37620000  0.11580000  0.78950000  1.0 -0.1398443531
C  C235  1  0.40410000  0.08950000  0.78870000  1.0 -0.0922498337
C  C236  1  0.33260000  0.15640000  0.82390000  1.0 -0.0922498337
C  C237  1  0.30720000  0.18010000  0.82370000  1.0 -0.0922498337
C  C238  1  0.27950000  0.20710000  0.82240000  1.0 0.1393096329
C  C239  1  0.24970000  0.20370000  0.79440000  1.0 -0.1706527837
C  C240  1  0.22360000  0.23080000  0.79160000  1.0 0.1393096329
C  C241  1  0.22780000  0.26480000  0.81800000  1.0 -0.1811041662
C  C242  1  0.25700000  0.26800000  0.84500000  1.0 0.1301240312
C  C243  1  0.28370000  0.23990000  0.84670000  1.0 -0.1811041662
C  C244  1  0.19260000  0.22730000  0.76450000  1.0 -0.0922498337
C  C245  1  0.16630000  0.22560000  0.74040000  1.0 -0.1134557847
C  C246  1  0.13690000  0.22540000  0.71170000  1.0 0.1393096329
C  C247  1  0.12650000  0.19240000  0.69110000  1.0 -0.1398443531
C  C248  1  0.09770000  0.19170000  0.66130000  1.0 -0.0922498337
C  C249  1  0.08110000  0.22290000  0.65040000  1.0 -0.0200068738
C  C250  1  0.09070000  0.25750000  0.66900000  1.0 -0.0922498337
C  C251  1  0.11900000  0.25780000  0.69930000  1.0 -0.1486077918
C  C252  1  0.05070000  0.22390000  0.61890000  1.0 0.5720360851
C  C253  1  0.26010000  0.30150000  0.86980000  1.0 -0.0922498337
C  C254  1  0.26330000  0.32750000  0.89160000  1.0 -0.0922498337
C  C255  1  0.26720000  0.35910000  0.91910000  1.0 0.1139660339
C  C256  1  0.30130000  0.37470000  0.93020000  1.0 -0.1398443531
C  C257  1  0.30340000  0.40280000  0.95780000  1.0 -0.0978343878
C  C258  1  0.27150000  0.41870000  0.97540000  1.0 -0.0095346977
C  C259  1  0.23790000  0.40520000  0.96380000  1.0 -0.0978343878
C  C260  1  0.23570000  0.37470000  0.93420000  1.0 -0.1282426619
C  C261  1  0.27360000  0.44990000  0.00690000  1.0 0.5720360851
C  C262  1  0.98860000  0.10800000  0.52610000  1.0 0.0570329905
C  C263  1  0.99050000  0.06930000  0.52590000  1.0 -0.042661575
C  C264  1  0.00370000  0.05030000  0.56090000  1.0 -0.0095346977
C  C265  1  0.01510000  0.07010000  0.59620000  1.0 -0.042661575
C  C266  1  0.01330000  0.10890000  0.59640000  1.0 0.0530317113
C  C267  1  0.55030000  0.95040000  0.82600000  1.0 0.5720360851
C  C268  1  0.58110000  0.92130000  0.82680000  1.0 -0.0200068738
C  C269  1  0.59320000  0.90540000  0.86250000  1.0 -0.0978343878
C  C270  1  0.62160000  0.88000000  0.86210000  1.0 -0.1398443531
C  C271  1  0.63730000  0.87030000  0.82480000  1.0 0.1198514593
C  C272  1  0.62380000  0.88420000  0.78950000  1.0 -0.1398443531
C  C273  1  0.59590000  0.91050000  0.78870000  1.0 -0.0922498337
C  C274  1  0.66740000  0.84360000  0.82390000  1.0 -0.0978343878
C  C275  1  0.69280000  0.81990000  0.82370000  1.0 -0.0922498337
C  C276  1  0.72050000  0.79290000  0.82240000  1.0 0.1393096329
C  C277  1  0.75030000  0.79630000  0.79440000  1.0 -0.1706527837
C  C278  1  0.77640000  0.76920000  0.79160000  1.0 0.1393096329
C  C279  1  0.77220000  0.73520000  0.81800000  1.0 -0.1811041662
C  C280  1  0.74300000  0.73200000  0.84500000  1.0 0.1301240312
C  C281  1  0.71630000  0.76010000  0.84670000  1.0 -0.1811041662
C  C282  1  0.80740000  0.77270000  0.76450000  1.0 -0.0922498337
C  C283  1  0.83370000  0.77440000  0.74040000  1.0 -0.1134557847
C  C284  1  0.86310000  0.77460000  0.71170000  1.0 0.1393096329
C  C285  1  0.87350000  0.80760000  0.69110000  1.0 -0.1398443531
C  C286  1  0.90230000  0.80830000  0.66130000  1.0 -0.0922498337
C  C287  1  0.91890000  0.77710000  0.65040000  1.0 -0.0200068738
C  C288  1  0.90930000  0.74250000  0.66900000  1.0 -0.0922498337
C  C289  1  0.88100000  0.74220000  0.69930000  1.0 -0.1486077918
C  C290  1  0.94930000  0.77610000  0.61890000  1.0 0.5720360851
C  C291  1  0.73990000  0.69850000  0.86980000  1.0 -0.0978343878
C  C292  1  0.73670000  0.67250000  0.89160000  1.0 -0.0922498337
C  C293  1  0.73280000  0.64090000  0.91910000  1.0 0.1139660339
C  C294  1  0.69870000  0.62530000  0.93020000  1.0 -0.1398443531
C  C295  1  0.69660000  0.59720000  0.95780000  1.0 -0.0978343878
C  C296  1  0.72850000  0.58130000  0.97540000  1.0 -0.0095346977
C  C297  1  0.76210000  0.59480000  0.96380000  1.0 -0.0978343878
C  C298  1  0.76430000  0.62530000  0.93420000  1.0 -0.1282426619
C  C299  1  0.72640000  0.55010000  0.00690000  1.0 0.5720360851
C  C300  1  0.01140000  0.89200000  0.52610000  1.0 0.0570329905
C  C301  1  0.00950000  0.93070000  0.52590000  1.0 -0.042661575
C  C302  1  0.99630000  0.94970000  0.56090000  1.0 -0.0095346977
C  C303  1  0.98490000  0.92990000  0.59620000  1.0 -0.042661575
C  C304  1  0.98670000  0.89110000  0.59640000  1.0 0.0530317113
C  C305  1  0.50000000  0.00000000  0.52300000  1.0 0.1301240312
C  C306  1  0.50000000  0.00000000  0.62890000  1.0 0.1393096329
C  C307  1  0.50000000  0.00000000  0.02300000  1.0 0.1393096329
C  C308  1  0.50000000  0.00000000  0.12890000  1.0 0.1393096329
C  C309  1  0.50000000  0.96690000  0.45650000  1.0 0.2122190918
C  C310  1  0.50000000  0.96730000  0.50060000  1.0 -0.2283989041
C  C311  1  0.50000000  0.96930000  0.69560000  1.0 0.1817803558
C  C312  1  0.50000000  0.96850000  0.65190000  1.0 -0.2415874455
C  C313  1  0.50000000  0.03310000  0.45650000  1.0 0.2122190918
C  C314  1  0.50000000  0.03270000  0.50060000  1.0 -0.2283989041
C  C315  1  0.50000000  0.03070000  0.69560000  1.0 0.1817803558
C  C316  1  0.50000000  0.03150000  0.65190000  1.0 -0.2415874455
C  C317  1  0.53310000  0.00000000  0.95650000  1.0 0.2122190918
C  C318  1  0.53270000  0.00000000  0.00060000  1.0 -0.2283989041
C  C319  1  0.53070000  0.00000000  0.19560000  1.0 0.191628861
C  C320  1  0.53150000  0.00000000  0.15190000  1.0 -0.2415874455
C  C321  1  0.46690000  0.00000000  0.95650000  1.0 0.2122190918
C  C322  1  0.46730000  0.00000000  0.00060000  1.0 -0.2283989041
C  C323  1  0.46930000  0.00000000  0.19560000  1.0 0.191628861
C  C324  1  0.46850000  0.00000000  0.15190000  1.0 -0.2415874455
C  C325  1  0.04960000  0.55030000  0.17400000  1.0 0.5720360851
C  C326  1  0.07870000  0.58110000  0.17320000  1.0 -0.0200068738
C  C327  1  0.09460000  0.59320000  0.13750000  1.0 -0.0978343878
C  C328  1  0.12000000  0.62160000  0.13790000  1.0 -0.1398443531
C  C329  1  0.12970000  0.63730000  0.17520000  1.0 0.1198514593
C  C330  1  0.11580000  0.62380000  0.21050000  1.0 -0.1398443531
C  C331  1  0.08950000  0.59590000  0.21130000  1.0 -0.0922498337
C  C332  1  0.15640000  0.66740000  0.17610000  1.0 -0.0978343878
C  C333  1  0.18010000  0.69280000  0.17630000  1.0 -0.0922498337
C  C334  1  0.20710000  0.72050000  0.17760000  1.0 0.1393096329
C  C335  1  0.20370000  0.75030000  0.20560000  1.0 -0.1706527837
C  C336  1  0.23080000  0.77640000  0.20840000  1.0 0.1393096329
C  C337  1  0.26480000  0.77220000  0.18200000  1.0 -0.1811041662
C  C338  1  0.26800000  0.74300000  0.15500000  1.0 0.1301240312
C  C339  1  0.23990000  0.71630000  0.15330000  1.0 -0.1811041662
C  C340  1  0.22730000  0.80740000  0.23550000  1.0 -0.0922498337
C  C341  1  0.22560000  0.83370000  0.25960000  1.0 -0.1134557847
C  C342  1  0.22540000  0.86310000  0.28830000  1.0 0.1393096329
C  C343  1  0.19240000  0.87350000  0.30890000  1.0 -0.1398443531
C  C344  1  0.19170000  0.90230000  0.33870000  1.0 -0.0922498337
C  C345  1  0.22290000  0.91890000  0.34960000  1.0 -0.0200068738
C  C346  1  0.25750000  0.90930000  0.33100000  1.0 -0.0922498337
C  C347  1  0.25780000  0.88100000  0.30070000  1.0 -0.1486077918
C  C348  1  0.22390000  0.94930000  0.38110000  1.0 0.5720360851
C  C349  1  0.30150000  0.73990000  0.13020000  1.0 -0.0922498337
C  C350  1  0.32750000  0.73670000  0.10840000  1.0 -0.0922498337
C  C351  1  0.35910000  0.73280000  0.08090000  1.0 0.1198514593
C  C352  1  0.37470000  0.69870000  0.06980000  1.0 -0.1398443531
C  C353  1  0.40280000  0.69660000  0.04220000  1.0 -0.0978343878
C  C354  1  0.41870000  0.72850000  0.02460000  1.0 -0.0095346977
C  C355  1  0.40520000  0.76210000  0.03620000  1.0 -0.0978343878
C  C356  1  0.37470000  0.76430000  0.06580000  1.0 -0.1282426619
C  C357  1  0.44990000  0.72640000  0.99310000  1.0 0.5720360851
C  C358  1  0.10800000  0.01140000  0.47390000  1.0 0.0570329905
C  C359  1  0.06930000  0.00950000  0.47410000  1.0 -0.042661575
C  C360  1  0.05030000  0.99630000  0.43910000  1.0 -0.0095346977
C  C361  1  0.07010000  0.98490000  0.40380000  1.0 -0.042661575
C  C362  1  0.10890000  0.98670000  0.40360000  1.0 0.0530317113
C  C363  1  0.95040000  0.44970000  0.17400000  1.0 0.5720360851
C  C364  1  0.92130000  0.41890000  0.17320000  1.0 -0.0200068738
C  C365  1  0.90540000  0.40680000  0.13750000  1.0 -0.0978343878
C  C366  1  0.88000000  0.37840000  0.13790000  1.0 -0.1398443531
C  C367  1  0.87030000  0.36270000  0.17520000  1.0 0.1198514593
C  C368  1  0.88420000  0.37620000  0.21050000  1.0 -0.1398443531
C  C369  1  0.91050000  0.40410000  0.21130000  1.0 -0.0922498337
C  C370  1  0.84360000  0.33260000  0.17610000  1.0 -0.0978343878
C  C371  1  0.81990000  0.30720000  0.17630000  1.0 -0.0922498337
C  C372  1  0.79290000  0.27950000  0.17760000  1.0 0.1393096329
C  C373  1  0.79630000  0.24970000  0.20560000  1.0 -0.1706527837
C  C374  1  0.76920000  0.22360000  0.20840000  1.0 0.1393096329
C  C375  1  0.73520000  0.22780000  0.18200000  1.0 -0.1811041662
C  C376  1  0.73200000  0.25700000  0.15500000  1.0 0.1301240312
C  C377  1  0.76010000  0.28370000  0.15330000  1.0 -0.1811041662
C  C378  1  0.77270000  0.19260000  0.23550000  1.0 -0.0922498337
C  C379  1  0.77440000  0.16630000  0.25960000  1.0 -0.1134557847
C  C380  1  0.77460000  0.13690000  0.28830000  1.0 0.1393096329
C  C381  1  0.80760000  0.12650000  0.30890000  1.0 -0.1398443531
C  C382  1  0.80830000  0.09770000  0.33870000  1.0 -0.0922498337
C  C383  1  0.77710000  0.08110000  0.34960000  1.0 -0.0200068738
C  C384  1  0.74250000  0.09070000  0.33100000  1.0 -0.0922498337
C  C385  1  0.74220000  0.11900000  0.30070000  1.0 -0.1486077918
C  C386  1  0.77610000  0.05070000  0.38110000  1.0 0.5720360851
C  C387  1  0.69850000  0.26010000  0.13020000  1.0 -0.0922498337
C  C388  1  0.67250000  0.26330000  0.10840000  1.0 -0.0922498337
C  C389  1  0.64090000  0.26720000  0.08090000  1.0 0.1139660339
C  C390  1  0.62530000  0.30130000  0.06980000  1.0 -0.1398443531
C  C391  1  0.59720000  0.30340000  0.04220000  1.0 -0.0978343878
C  C392  1  0.58130000  0.27150000  0.02460000  1.0 -0.0095346977
C  C393  1  0.59480000  0.23790000  0.03620000  1.0 -0.0978343878
C  C394  1  0.62530000  0.23570000  0.06580000  1.0 -0.1282426619
C  C395  1  0.55010000  0.27360000  0.99310000  1.0 0.5720360851
C  C396  1  0.89200000  0.98860000  0.47390000  1.0 0.0570329905
C  C397  1  0.93070000  0.99050000  0.47410000  1.0 -0.042661575
C  C398  1  0.94970000  0.00370000  0.43910000  1.0 -0.0095346977
C  C399  1  0.92990000  0.01510000  0.40380000  1.0 -0.042661575
C  C400  1  0.89110000  0.01330000  0.40360000  1.0 0.0530317113
C  C401  1  0.05030000  0.45040000  0.67400000  1.0 0.5720360851
C  C402  1  0.08110000  0.42130000  0.67320000  1.0 -0.0200068738
C  C403  1  0.09320000  0.40540000  0.63750000  1.0 -0.0978343878
C  C404  1  0.12160000  0.38000000  0.63790000  1.0 -0.1398443531
C  C405  1  0.13730000  0.37030000  0.67520000  1.0 0.1198514593
C  C406  1  0.12380000  0.38420000  0.71050000  1.0 -0.1398443531
C  C407  1  0.09590000  0.41050000  0.71130000  1.0 -0.0922498337
C  C408  1  0.16740000  0.34360000  0.67610000  1.0 -0.0978343878
C  C409  1  0.19280000  0.31990000  0.67630000  1.0 -0.0922498337
C  C410  1  0.22050000  0.29290000  0.67760000  1.0 0.1393096329
C  C411  1  0.25030000  0.29630000  0.70560000  1.0 -0.1706527837
C  C412  1  0.27640000  0.26920000  0.70840000  1.0 0.1393096329
C  C413  1  0.27220000  0.23520000  0.68200000  1.0 -0.1811041662
C  C414  1  0.24300000  0.23200000  0.65500000  1.0 0.1301240312
C  C415  1  0.21630000  0.26010000  0.65330000  1.0 -0.1811041662
C  C416  1  0.30740000  0.27270000  0.73550000  1.0 -0.0922498337
C  C417  1  0.33370000  0.27440000  0.75960000  1.0 -0.1134557847
C  C418  1  0.36310000  0.27460000  0.78830000  1.0 0.1393096329
C  C419  1  0.37350000  0.30760000  0.80890000  1.0 -0.1398443531
C  C420  1  0.40230000  0.30830000  0.83870000  1.0 -0.0922498337
C  C421  1  0.41890000  0.27710000  0.84960000  1.0 -0.0200068738
C  C422  1  0.40930000  0.24250000  0.83100000  1.0 -0.0922498337
C  C423  1  0.38100000  0.24220000  0.80070000  1.0 -0.1486077918
C  C424  1  0.44930000  0.27610000  0.88110000  1.0 0.5720360851
C  C425  1  0.23990000  0.19850000  0.63020000  1.0 -0.0922498337
C  C426  1  0.23670000  0.17250000  0.60840000  1.0 -0.0922498337
C  C427  1  0.23280000  0.14090000  0.58090000  1.0 0.1139660339
C  C428  1  0.19870000  0.12530000  0.56980000  1.0 -0.1398443531
C  C429  1  0.19660000  0.09720000  0.54220000  1.0 -0.0978343878
C  C430  1  0.22850000  0.08130000  0.52460000  1.0 -0.0095346977
C  C431  1  0.26210000  0.09480000  0.53620000  1.0 -0.0978343878
C  C432  1  0.26430000  0.12530000  0.56580000  1.0 -0.1282426619
C  C433  1  0.22640000  0.05010000  0.49310000  1.0 0.5720360851
C  C434  1  0.51140000  0.39200000  0.97390000  1.0 0.0570329905
C  C435  1  0.50950000  0.43070000  0.97410000  1.0 -0.042661575
C  C436  1  0.49630000  0.44970000  0.93910000  1.0 -0.0095346977
C  C437  1  0.48490000  0.42990000  0.90380000  1.0 -0.042661575
C  C438  1  0.48670000  0.39110000  0.90360000  1.0 0.0530317113
C  C439  1  0.94970000  0.54960000  0.67400000  1.0 0.5720360851
C  C440  1  0.91890000  0.57870000  0.67320000  1.0 -0.0200068738
C  C441  1  0.90680000  0.59460000  0.63750000  1.0 -0.0978343878
C  C442  1  0.87840000  0.62000000  0.63790000  1.0 -0.1398443531
C  C443  1  0.86270000  0.62970000  0.67520000  1.0 0.1198514593
C  C444  1  0.87620000  0.61580000  0.71050000  1.0 -0.1398443531
C  C445  1  0.90410000  0.58950000  0.71130000  1.0 -0.0922498337
C  C446  1  0.83260000  0.65640000  0.67610000  1.0 -0.0978343878
C  C447  1  0.80720000  0.68010000  0.67630000  1.0 -0.0922498337
C  C448  1  0.77950000  0.70710000  0.67760000  1.0 0.1393096329
C  C449  1  0.74970000  0.70370000  0.70560000  1.0 -0.1706527837
C  C450  1  0.72360000  0.73080000  0.70840000  1.0 0.1393096329
C  C451  1  0.72780000  0.76480000  0.68200000  1.0 -0.1811041662
C  C452  1  0.75700000  0.76800000  0.65500000  1.0 0.1301240312
C  C453  1  0.78370000  0.73990000  0.65330000  1.0 -0.1811041662
C  C454  1  0.69260000  0.72730000  0.73550000  1.0 -0.0922498337
C  C455  1  0.66630000  0.72560000  0.75960000  1.0 -0.1134557847
C  C456  1  0.63690000  0.72540000  0.78830000  1.0 0.1393096329
C  C457  1  0.62650000  0.69240000  0.80890000  1.0 -0.1398443531
C  C458  1  0.59770000  0.69170000  0.83870000  1.0 -0.0922498337
C  C459  1  0.58110000  0.72290000  0.84960000  1.0 -0.0200068738
C  C460  1  0.59070000  0.75750000  0.83100000  1.0 -0.0922498337
C  C461  1  0.61900000  0.75780000  0.80070000  1.0 -0.1486077918
C  C462  1  0.55070000  0.72390000  0.88110000  1.0 0.5720360851
C  C463  1  0.76010000  0.80150000  0.63020000  1.0 -0.0978343878
C  C464  1  0.76330000  0.82750000  0.60840000  1.0 -0.0922498337
C  C465  1  0.76720000  0.85910000  0.58090000  1.0 0.1139660339
C  C466  1  0.80130000  0.87470000  0.56980000  1.0 -0.1398443531
C  C467  1  0.80340000  0.90280000  0.54220000  1.0 -0.0978343878
C  C468  1  0.77150000  0.91870000  0.52460000  1.0 -0.0095346977
C  C469  1  0.73790000  0.90520000  0.53620000  1.0 -0.0978343878
C  C470  1  0.73570000  0.87470000  0.56580000  1.0 -0.1282426619
C  C471  1  0.77360000  0.94990000  0.49310000  1.0 0.5720360851
C  C472  1  0.48860000  0.60800000  0.97390000  1.0 0.0570329905
C  C473  1  0.49050000  0.56930000  0.97410000  1.0 -0.042661575
C  C474  1  0.50370000  0.55030000  0.93910000  1.0 -0.0095346977
C  C475  1  0.51510000  0.57010000  0.90380000  1.0 -0.042661575
C  C476  1  0.51330000  0.60890000  0.90360000  1.0 0.0530317113
C  C477  1  0.95040000  0.55030000  0.17400000  1.0 0.5720360851
C  C478  1  0.92130000  0.58110000  0.17320000  1.0 -0.0200068738
C  C479  1  0.90540000  0.59320000  0.13750000  1.0 -0.0978343878
C  C480  1  0.88000000  0.62160000  0.13790000  1.0 -0.1398443531
C  C481  1  0.87030000  0.63730000  0.17520000  1.0 0.1198514593
C  C482  1  0.88420000  0.62380000  0.21050000  1.0 -0.1398443531
C  C483  1  0.91050000  0.59590000  0.21130000  1.0 -0.0922498337
C  C484  1  0.84360000  0.66740000  0.17610000  1.0 -0.0978343878
C  C485  1  0.81990000  0.69280000  0.17630000  1.0 -0.0922498337
C  C486  1  0.79290000  0.72050000  0.17760000  1.0 0.1393096329
C  C487  1  0.79630000  0.75030000  0.20560000  1.0 -0.1706527837
C  C488  1  0.76920000  0.77640000  0.20840000  1.0 0.1393096329
C  C489  1  0.73520000  0.77220000  0.18200000  1.0 -0.1811041662
C  C490  1  0.73200000  0.74300000  0.15500000  1.0 0.1301240312
C  C491  1  0.76010000  0.71630000  0.15330000  1.0 -0.1811041662
C  C492  1  0.77270000  0.80740000  0.23550000  1.0 -0.0922498337
C  C493  1  0.77440000  0.83370000  0.25960000  1.0 -0.1134557847
C  C494  1  0.77460000  0.86310000  0.28830000  1.0 0.1393096329
C  C495  1  0.80760000  0.87350000  0.30890000  1.0 -0.1398443531
C  C496  1  0.80830000  0.90230000  0.33870000  1.0 -0.0922498337
C  C497  1  0.77710000  0.91890000  0.34960000  1.0 -0.0200068738
C  C498  1  0.74250000  0.90930000  0.33100000  1.0 -0.0922498337
C  C499  1  0.74220000  0.88100000  0.30070000  1.0 -0.1486077918
C  C500  1  0.77610000  0.94930000  0.38110000  1.0 0.5720360851
C  C501  1  0.69850000  0.73990000  0.13020000  1.0 -0.0922498337
C  C502  1  0.67250000  0.73670000  0.10840000  1.0 -0.0922498337
C  C503  1  0.64090000  0.73280000  0.08090000  1.0 0.1198514593
C  C504  1  0.62530000  0.69870000  0.06980000  1.0 -0.1398443531
C  C505  1  0.59720000  0.69660000  0.04220000  1.0 -0.0978343878
C  C506  1  0.58130000  0.72850000  0.02460000  1.0 -0.0095346977
C  C507  1  0.59480000  0.76210000  0.03620000  1.0 -0.0978343878
C  C508  1  0.62530000  0.76430000  0.06580000  1.0 -0.1282426619
C  C509  1  0.55010000  0.72640000  0.99310000  1.0 0.5720360851
C  C510  1  0.89200000  0.01140000  0.47390000  1.0 0.0570329905
C  C511  1  0.93070000  0.00950000  0.47410000  1.0 -0.042661575
C  C512  1  0.94970000  0.99630000  0.43910000  1.0 -0.0095346977
C  C513  1  0.92990000  0.98490000  0.40380000  1.0 -0.042661575
C  C514  1  0.89110000  0.98670000  0.40360000  1.0 0.0570329905
C  C515  1  0.04960000  0.44970000  0.17400000  1.0 0.5720360851
C  C516  1  0.07870000  0.41890000  0.17320000  1.0 -0.0200068738
C  C517  1  0.09460000  0.40680000  0.13750000  1.0 -0.0978343878
C  C518  1  0.12000000  0.37840000  0.13790000  1.0 -0.1398443531
C  C519  1  0.12970000  0.36270000  0.17520000  1.0 0.1198514593
C  C520  1  0.11580000  0.37620000  0.21050000  1.0 -0.1398443531
C  C521  1  0.08950000  0.40410000  0.21130000  1.0 -0.0922498337
C  C522  1  0.15640000  0.33260000  0.17610000  1.0 -0.0978343878
C  C523  1  0.18010000  0.30720000  0.17630000  1.0 -0.0922498337
C  C524  1  0.20710000  0.27950000  0.17760000  1.0 0.1393096329
C  C525  1  0.20370000  0.24970000  0.20560000  1.0 -0.1706527837
C  C526  1  0.23080000  0.22360000  0.20840000  1.0 0.1393096329
C  C527  1  0.26480000  0.22780000  0.18200000  1.0 -0.1811041662
C  C528  1  0.26800000  0.25700000  0.15500000  1.0 0.1301240312
C  C529  1  0.23990000  0.28370000  0.15330000  1.0 -0.1811041662
C  C530  1  0.22730000  0.19260000  0.23550000  1.0 -0.0922498337
C  C531  1  0.22560000  0.16630000  0.25960000  1.0 -0.1134557847
C  C532  1  0.22540000  0.13690000  0.28830000  1.0 0.1393096329
C  C533  1  0.19240000  0.12650000  0.30890000  1.0 -0.1398443531
C  C534  1  0.19170000  0.09770000  0.33870000  1.0 -0.0922498337
C  C535  1  0.22290000  0.08110000  0.34960000  1.0 -0.0200068738
C  C536  1  0.25750000  0.09070000  0.33100000  1.0 -0.0922498337
C  C537  1  0.25780000  0.11900000  0.30070000  1.0 -0.1486077918
C  C538  1  0.22390000  0.05070000  0.38110000  1.0 0.5720360851
C  C539  1  0.30150000  0.26010000  0.13020000  1.0 -0.0922498337
C  C540  1  0.32750000  0.26330000  0.10840000  1.0 -0.0922498337
C  C541  1  0.35910000  0.26720000  0.08090000  1.0 0.1139660339
C  C542  1  0.37470000  0.30130000  0.06980000  1.0 -0.1398443531
C  C543  1  0.40280000  0.30340000  0.04220000  1.0 -0.0978343878
C  C544  1  0.41870000  0.27150000  0.02460000  1.0 -0.0095346977
C  C545  1  0.40520000  0.23790000  0.03620000  1.0 -0.0978343878
C  C546  1  0.37470000  0.23570000  0.06580000  1.0 -0.1282426619
C  C547  1  0.44990000  0.27360000  0.99310000  1.0 0.5720360851
C  C548  1  0.10800000  0.98860000  0.47390000  1.0 0.0570329905
C  C549  1  0.06930000  0.99050000  0.47410000  1.0 -0.042661575
C  C550  1  0.05030000  0.00370000  0.43910000  1.0 -0.0095346977
C  C551  1  0.07010000  0.01510000  0.40380000  1.0 -0.042661575
C  C552  1  0.10890000  0.01330000  0.40360000  1.0 0.0530317113
C  C553  1  0.94970000  0.45040000  0.67400000  1.0 0.5720360851
C  C554  1  0.91890000  0.42130000  0.67320000  1.0 -0.0200068738
C  C555  1  0.90680000  0.40540000  0.63750000  1.0 -0.0978343878
C  C556  1  0.87840000  0.38000000  0.63790000  1.0 -0.1398443531
C  C557  1  0.86270000  0.37030000  0.67520000  1.0 0.1198514593
C  C558  1  0.87620000  0.38420000  0.71050000  1.0 -0.1398443531
C  C559  1  0.90410000  0.41050000  0.71130000  1.0 -0.0922498337
C  C560  1  0.83260000  0.34360000  0.67610000  1.0 -0.0978343878
C  C561  1  0.80720000  0.31990000  0.67630000  1.0 -0.0922498337
C  C562  1  0.77950000  0.29290000  0.67760000  1.0 0.1393096329
C  C563  1  0.74970000  0.29630000  0.70560000  1.0 -0.1706527837
C  C564  1  0.72360000  0.26920000  0.70840000  1.0 0.1393096329
C  C565  1  0.72780000  0.23520000  0.68200000  1.0 -0.1811041662
C  C566  1  0.75700000  0.23200000  0.65500000  1.0 0.1301240312
C  C567  1  0.78370000  0.26010000  0.65330000  1.0 -0.1811041662
C  C568  1  0.69260000  0.27270000  0.73550000  1.0 -0.0922498337
C  C569  1  0.66630000  0.27440000  0.75960000  1.0 -0.1134557847
C  C570  1  0.63690000  0.27460000  0.78830000  1.0 0.1393096329
C  C571  1  0.62650000  0.30760000  0.80890000  1.0 -0.1398443531
C  C572  1  0.59770000  0.30830000  0.83870000  1.0 -0.0922498337
C  C573  1  0.58110000  0.27710000  0.84960000  1.0 -0.0200068738
C  C574  1  0.59070000  0.24250000  0.83100000  1.0 -0.0922498337
C  C575  1  0.61900000  0.24220000  0.80070000  1.0 -0.1486077918
C  C576  1  0.55070000  0.27610000  0.88110000  1.0 0.5720360851
C  C577  1  0.76010000  0.19850000  0.63020000  1.0 -0.0922498337
C  C578  1  0.76330000  0.17250000  0.60840000  1.0 -0.0922498337
C  C579  1  0.76720000  0.14090000  0.58090000  1.0 0.1139660339
C  C580  1  0.80130000  0.12530000  0.56980000  1.0 -0.1398443531
C  C581  1  0.80340000  0.09720000  0.54220000  1.0 -0.0978343878
C  C582  1  0.77150000  0.08130000  0.52460000  1.0 -0.0095346977
C  C583  1  0.73790000  0.09480000  0.53620000  1.0 -0.0978343878
C  C584  1  0.73570000  0.12530000  0.56580000  1.0 -0.1282426619
C  C585  1  0.77360000  0.05010000  0.49310000  1.0 0.5720360851
C  C586  1  0.48860000  0.39200000  0.97390000  1.0 0.0570329905
C  C587  1  0.49050000  0.43070000  0.97410000  1.0 -0.042661575
C  C588  1  0.50370000  0.44970000  0.93910000  1.0 -0.0095346977
C  C589  1  0.51510000  0.42990000  0.90380000  1.0 -0.042661575
C  C590  1  0.51330000  0.39110000  0.90360000  1.0 0.0530317113
C  C591  1  0.05030000  0.54960000  0.67400000  1.0 0.5720360851
C  C592  1  0.08110000  0.57870000  0.67320000  1.0 -0.0200068738
C  C593  1  0.09320000  0.59460000  0.63750000  1.0 -0.0978343878
C  C594  1  0.12160000  0.62000000  0.63790000  1.0 -0.1398443531
C  C595  1  0.13730000  0.62970000  0.67520000  1.0 0.1198514593
C  C596  1  0.12380000  0.61580000  0.71050000  1.0 -0.1398443531
C  C597  1  0.09590000  0.58950000  0.71130000  1.0 -0.0922498337
C  C598  1  0.16740000  0.65640000  0.67610000  1.0 -0.0978343878
C  C599  1  0.19280000  0.68010000  0.67630000  1.0 -0.0922498337
C  C600  1  0.22050000  0.70710000  0.67760000  1.0 0.1393096329
C  C601  1  0.25030000  0.70370000  0.70560000  1.0 -0.1706527837
C  C602  1  0.27640000  0.73080000  0.70840000  1.0 0.1393096329
C  C603  1  0.27220000  0.76480000  0.68200000  1.0 -0.1811041662
C  C604  1  0.24300000  0.76800000  0.65500000  1.0 0.1301240312
C  C605  1  0.21630000  0.73990000  0.65330000  1.0 -0.1811041662
C  C606  1  0.30740000  0.72730000  0.73550000  1.0 -0.0922498337
C  C607  1  0.33370000  0.72560000  0.75960000  1.0 -0.1134557847
C  C608  1  0.36310000  0.72540000  0.78830000  1.0 0.1393096329
C  C609  1  0.37350000  0.69240000  0.80890000  1.0 -0.1398443531
C  C610  1  0.40230000  0.69170000  0.83870000  1.0 -0.0922498337
C  C611  1  0.41890000  0.72290000  0.84960000  1.0 -0.0200068738
C  C612  1  0.40930000  0.75750000  0.83100000  1.0 -0.0922498337
C  C613  1  0.38100000  0.75780000  0.80070000  1.0 -0.1486077918
C  C614  1  0.44930000  0.72390000  0.88110000  1.0 0.5720360851
C  C615  1  0.23990000  0.80150000  0.63020000  1.0 -0.0978343878
C  C616  1  0.23670000  0.82750000  0.60840000  1.0 -0.0922498337
C  C617  1  0.23280000  0.85910000  0.58090000  1.0 0.1139660339
C  C618  1  0.19870000  0.87470000  0.56980000  1.0 -0.1398443531
C  C619  1  0.19660000  0.90280000  0.54220000  1.0 -0.0978343878
C  C620  1  0.22850000  0.91870000  0.52460000  1.0 -0.0095346977
C  C621  1  0.26210000  0.90520000  0.53620000  1.0 -0.0978343878
C  C622  1  0.26430000  0.87470000  0.56580000  1.0 -0.1282426619
C  C623  1  0.22640000  0.94990000  0.49310000  1.0 0.5720360851
C  C624  1  0.51140000  0.60800000  0.97390000  1.0 0.0570329905
C  C625  1  0.50950000  0.56930000  0.97410000  1.0 -0.042661575
C  C626  1  0.49630000  0.55030000  0.93910000  1.0 -0.0095346977
C  C627  1  0.48490000  0.57010000  0.90380000  1.0 -0.042661575
C  C628  1  0.48670000  0.60890000  0.90360000  1.0 0.0530317113
C  C629  1  0.00000000  0.50000000  0.97700000  1.0 0.1301240312
C  C630  1  0.00000000  0.50000000  0.87110000  1.0 0.1393096329
C  C631  1  0.00000000  0.50000000  0.47700000  1.0 0.1393096329
C  C632  1  0.00000000  0.50000000  0.37110000  1.0 0.1393096329
C  C633  1  0.00000000  0.53310000  0.04350000  1.0 0.2122190918
C  C634  1  0.00000000  0.53270000  0.99940000  1.0 -0.2283989041
C  C635  1  0.00000000  0.53070000  0.80440000  1.0 0.191628861
C  C636  1  0.00000000  0.53150000  0.84810000  1.0 -0.2415874455
C  C637  1  0.00000000  0.46690000  0.04350000  1.0 0.2122190918
C  C638  1  0.00000000  0.46730000  0.99940000  1.0 -0.2283989041
C  C639  1  0.00000000  0.46930000  0.80440000  1.0 0.191628861
C  C640  1  0.00000000  0.46850000  0.84810000  1.0 -0.2415874455
C  C641  1  0.03310000  0.50000000  0.54350000  1.0 0.2208111088
C  C642  1  0.03270000  0.50000000  0.49940000  1.0 -0.2415874455
C  C643  1  0.03070000  0.50000000  0.30440000  1.0 0.1966739099
C  C644  1  0.03150000  0.50000000  0.34810000  1.0 -0.2415874455
C  C645  1  0.96690000  0.50000000  0.54350000  1.0 0.2208111088
C  C646  1  0.96730000  0.50000000  0.49940000  1.0 -0.2415874455
C  C647  1  0.96930000  0.50000000  0.30440000  1.0 0.1966739099
C  C648  1  0.96850000  0.50000000  0.34810000  1.0 -0.2415874455
N  N1  1  0.51240000  0.51230000  0.06830000  1.0 0.0530317113
N  N2  1  0.48760000  0.48770000  0.06830000  1.0 0.0530317113
N  N3  1  0.98770000  0.01240000  0.56830000  1.0 0.0570329905
N  N4  1  0.01230000  0.98760000  0.56830000  1.0 0.0530317113
N  N5  1  0.48760000  0.51230000  0.06830000  1.0 0.0530317113
N  N6  1  0.51240000  0.48770000  0.06830000  1.0 0.0530317113
N  N7  1  0.01230000  0.01240000  0.56830000  1.0 0.0530317113
N  N8  1  0.98770000  0.98760000  0.56830000  1.0 0.0570329905
N  N9  1  0.50000000  0.00000000  0.43360000  1.0 -0.3097225849
N  N10  1  0.50000000  0.00000000  0.72010000  1.0 -0.3038002078
N  N11  1  0.50000000  0.00000000  0.93360000  1.0 -0.3097225849
N  N12  1  0.50000000  0.00000000  0.22010000  1.0 -0.3097225849
N  N13  1  0.62780000  0.50000000  0.06140000  1.0 -0.1486077918
N  N14  1  0.37220000  0.50000000  0.06140000  1.0 -0.1486077918
N  N15  1  0.00000000  0.12780000  0.56140000  1.0 -0.1398443531
N  N16  1  0.00000000  0.87220000  0.56140000  1.0 -0.1486077918
N  N17  1  0.50000000  0.98610000  0.56440000  1.0 0.1393096329
N  N18  1  0.50000000  0.01500000  0.58770000  1.0 0.1301240312
N  N19  1  0.50000000  0.01390000  0.56440000  1.0 0.1393096329
N  N20  1  0.50000000  0.98500000  0.58770000  1.0 0.1301240312
N  N21  1  0.51390000  0.00000000  0.06440000  1.0 0.1393096329
N  N22  1  0.48500000  0.00000000  0.08770000  1.0 0.1301240312
N  N23  1  0.48610000  0.00000000  0.06440000  1.0 0.1393096329
N  N24  1  0.51500000  0.00000000  0.08770000  1.0 0.1301240312
N  N25  1  0.01240000  0.98770000  0.43170000  1.0 0.0530317113
N  N26  1  0.98760000  0.01230000  0.43170000  1.0 0.0530317113
N  N27  1  0.48770000  0.48760000  0.93170000  1.0 0.0570329905
N  N28  1  0.51230000  0.51240000  0.93170000  1.0 0.0570329905
N  N29  1  0.98760000  0.98770000  0.43170000  1.0 0.0570329905
N  N30  1  0.01240000  0.01230000  0.43170000  1.0 0.0530317113
N  N31  1  0.51230000  0.48760000  0.93170000  1.0 0.0570329905
N  N32  1  0.48770000  0.51240000  0.93170000  1.0 0.0570329905
N  N33  1  0.00000000  0.50000000  0.06640000  1.0 -0.3097225849
N  N34  1  0.00000000  0.50000000  0.77990000  1.0 -0.3097225849
N  N35  1  0.00000000  0.50000000  0.56640000  1.0 -0.3167189185
N  N36  1  0.00000000  0.50000000  0.27990000  1.0 -0.3097225849
N  N37  1  0.12780000  0.00000000  0.43860000  1.0 -0.1486077918
N  N38  1  0.87220000  0.00000000  0.43860000  1.0 -0.1486077918
N  N39  1  0.50000000  0.37220000  0.93860000  1.0 -0.1486077918
N  N40  1  0.50000000  0.62780000  0.93860000  1.0 -0.1486077918
N  N41  1  0.00000000  0.51390000  0.93560000  1.0 0.1393096329
N  N42  1  0.00000000  0.48500000  0.91230000  1.0 0.1301240312
N  N43  1  0.00000000  0.48610000  0.93560000  1.0 0.1393096329
N  N44  1  0.00000000  0.51500000  0.91230000  1.0 0.1301240312
N  N45  1  0.01390000  0.50000000  0.43560000  1.0 0.1393096329
N  N46  1  0.98500000  0.50000000  0.41230000  1.0 0.1301240312
N  N47  1  0.98610000  0.50000000  0.43560000  1.0 0.145168605
N  N48  1  0.01500000  0.50000000  0.41230000  1.0 0.1301240312
O  O1  1  0.53856000  0.96158000  0.29020000  1.0 -0.5103247005
O  O2  1  0.53870000  0.96137000  0.36090000  1.0 -0.4887837146
O  O3  1  0.69240000  0.53885000  0.10401000  1.0 -0.542417885
O  O4  1  0.75520000  0.53869000  0.10660000  1.0 -0.5103247005
O  O5  1  0.96143000  0.80550000  0.51795000  1.0 -0.5283584122
O  O6  1  0.96176000  0.74315000  0.52090000  1.0 -0.5103247005
O  O7  1  0.46144000  0.03842000  0.29020000  1.0 -0.5103247005
O  O8  1  0.46130000  0.03863000  0.36090000  1.0 -0.4887837146
O  O9  1  0.30760000  0.46115000  0.10401000  1.0 -0.542417885
O  O10  1  0.24480000  0.46131000  0.10660000  1.0 -0.5154967133
O  O11  1  0.03857000  0.19450000  0.51795000  1.0 -0.5283584122
O  O12  1  0.03824000  0.25685000  0.52090000  1.0 -0.5103247005
O  O13  1  0.53842000  0.03856000  0.79020000  1.0 -0.5103247005
O  O14  1  0.53863000  0.03870000  0.86090000  1.0 -0.4887837146
O  O15  1  0.96115000  0.19240000  0.60401000  1.0 -0.542417885
O  O16  1  0.96131000  0.25520000  0.60660000  1.0 -0.5103247005
O  O17  1  0.69450000  0.46143000  0.01795000  1.0 -0.5283584122
O  O18  1  0.75685000  0.46176000  0.02090000  1.0 -0.5103247005
O  O19  1  0.46158000  0.96144000  0.79020000  1.0 -0.5103247005
O  O20  1  0.46137000  0.96130000  0.86090000  1.0 -0.4887837146
O  O21  1  0.03885000  0.80760000  0.60401000  1.0 -0.542417885
O  O22  1  0.03869000  0.74480000  0.60660000  1.0 -0.5103247005
O  O23  1  0.30550000  0.53857000  0.01795000  1.0 -0.5283584122
O  O24  1  0.24315000  0.53824000  0.02090000  1.0 -0.5103247005
O  O25  1  0.46144000  0.96158000  0.29020000  1.0 -0.5103247005
O  O26  1  0.46130000  0.96137000  0.36090000  1.0 -0.4887837146
O  O27  1  0.30760000  0.53885000  0.10401000  1.0 -0.542417885
O  O28  1  0.24480000  0.53869000  0.10660000  1.0 -0.5154967133
O  O29  1  0.03857000  0.80550000  0.51795000  1.0 -0.5283584122
O  O30  1  0.03824000  0.74315000  0.52090000  1.0 -0.5103247005
O  O31  1  0.53856000  0.03842000  0.29020000  1.0 -0.5103247005
O  O32  1  0.53870000  0.03863000  0.36090000  1.0 -0.4887837146
O  O33  1  0.69240000  0.46115000  0.10401000  1.0 -0.542417885
O  O34  1  0.75520000  0.46131000  0.10660000  1.0 -0.5103247005
O  O35  1  0.96143000  0.19450000  0.51795000  1.0 -0.5283584122
O  O36  1  0.96176000  0.25685000  0.52090000  1.0 -0.5103247005
O  O37  1  0.46158000  0.03856000  0.79020000  1.0 -0.5103247005
O  O38  1  0.46137000  0.03870000  0.86090000  1.0 -0.4887837146
O  O39  1  0.03885000  0.19240000  0.60401000  1.0 -0.542417885
O  O40  1  0.03869000  0.25520000  0.60660000  1.0 -0.5103247005
O  O41  1  0.30550000  0.46143000  0.01795000  1.0 -0.5283584122
O  O42  1  0.24315000  0.46176000  0.02090000  1.0 -0.5103247005
O  O43  1  0.53842000  0.96144000  0.79020000  1.0 -0.5103247005
O  O44  1  0.53863000  0.96130000  0.86090000  1.0 -0.4887837146
O  O45  1  0.96115000  0.80760000  0.60401000  1.0 -0.542417885
O  O46  1  0.96131000  0.74480000  0.60660000  1.0 -0.5103247005
O  O47  1  0.69450000  0.53857000  0.01795000  1.0 -0.5283584122
O  O48  1  0.75685000  0.53824000  0.02090000  1.0 -0.5103247005
O  O49  1  0.03856000  0.53842000  0.20980000  1.0 -0.5103247005
O  O50  1  0.03870000  0.53863000  0.13910000  1.0 -0.4887837146
O  O51  1  0.19240000  0.96115000  0.39599000  1.0 -0.542417885
O  O52  1  0.25520000  0.96131000  0.39340000  1.0 -0.5154967133
O  O53  1  0.46143000  0.69450000  0.98205000  1.0 -0.5283584122
O  O54  1  0.46176000  0.75685000  0.97910000  1.0 -0.5103247005
O  O55  1  0.96144000  0.46158000  0.20980000  1.0 -0.5103247005
O  O56  1  0.96130000  0.46137000  0.13910000  1.0 -0.4887837146
O  O57  1  0.80760000  0.03885000  0.39599000  1.0 -0.542417885
O  O58  1  0.74480000  0.03869000  0.39340000  1.0 -0.5103247005
O  O59  1  0.53857000  0.30550000  0.98205000  1.0 -0.5283584122
O  O60  1  0.53824000  0.24315000  0.97910000  1.0 -0.5103247005
O  O61  1  0.03842000  0.46144000  0.70980000  1.0 -0.5103247005
O  O62  1  0.03863000  0.46130000  0.63910000  1.0 -0.4887837146
O  O63  1  0.46115000  0.30760000  0.89599000  1.0 -0.542417885
O  O64  1  0.46131000  0.24480000  0.89340000  1.0 -0.5103247005
O  O65  1  0.19450000  0.03857000  0.48205000  1.0 -0.5283584122
O  O66  1  0.25685000  0.03824000  0.47910000  1.0 -0.5103247005
O  O67  1  0.96158000  0.53856000  0.70980000  1.0 -0.5103247005
O  O68  1  0.96137000  0.53870000  0.63910000  1.0 -0.4887837146
O  O69  1  0.53885000  0.69240000  0.89599000  1.0 -0.542417885
O  O70  1  0.53869000  0.75520000  0.89340000  1.0 -0.5103247005
O  O71  1  0.80550000  0.96143000  0.48205000  1.0 -0.5283584122
O  O72  1  0.74315000  0.96176000  0.47910000  1.0 -0.5103247005
O  O73  1  0.96144000  0.53842000  0.20980000  1.0 -0.5103247005
O  O74  1  0.96130000  0.53863000  0.13910000  1.0 -0.4887837146
O  O75  1  0.80760000  0.96115000  0.39599000  1.0 -0.542417885
O  O76  1  0.74480000  0.96131000  0.39340000  1.0 -0.5154967133
O  O77  1  0.53857000  0.69450000  0.98205000  1.0 -0.5283584122
O  O78  1  0.53824000  0.75685000  0.97910000  1.0 -0.5103247005
O  O79  1  0.03856000  0.46158000  0.20980000  1.0 -0.5103247005
O  O80  1  0.03870000  0.46137000  0.13910000  1.0 -0.4887837146
O  O81  1  0.19240000  0.03885000  0.39599000  1.0 -0.542417885
O  O82  1  0.25520000  0.03869000  0.39340000  1.0 -0.5103247005
O  O83  1  0.46143000  0.30550000  0.98205000  1.0 -0.5283584122
O  O84  1  0.46176000  0.24315000  0.97910000  1.0 -0.5103247005
O  O85  1  0.96158000  0.46144000  0.70980000  1.0 -0.5103247005
O  O86  1  0.96137000  0.46130000  0.63910000  1.0 -0.4887837146
O  O87  1  0.53885000  0.30760000  0.89599000  1.0 -0.542417885
O  O88  1  0.53869000  0.24480000  0.89340000  1.0 -0.5103247005
O  O89  1  0.80550000  0.03857000  0.48205000  1.0 -0.5283584122
O  O90  1  0.74315000  0.03824000  0.47910000  1.0 -0.5103247005
O  O91  1  0.03842000  0.53856000  0.70980000  1.0 -0.5103247005
O  O92  1  0.03863000  0.53870000  0.63910000  1.0 -0.4887837146
O  O93  1  0.46115000  0.69240000  0.89599000  1.0 -0.542417885
O  O94  1  0.46131000  0.75520000  0.89340000  1.0 -0.5103247005
O  O95  1  0.19450000  0.96143000  0.48205000  1.0 -0.5283584122
O  O96  1  0.25685000  0.96176000  0.47910000  1.0 -0.5103247005
