# DDEC6 charges by PACMAN v1.1 (https://github.com/mtap-research/PACMAN-charge/)
data_WOHPAM_FSR_pacman
_symmetry_space_group_name_H-M   'P 1'
_cell_length_a   10.80770000
_cell_length_b   14.81090000
_cell_length_c   20.33000000
_cell_angle_alpha   94.01600000
_cell_angle_beta   92.26700000
_cell_angle_gamma   109.77900000
_symmetry_Int_Tables_number   1
_chemical_formula_structural   Cd2H36C52N8O13
_chemical_formula_sum   'Cd4 H72 C104 N16 O26'
_cell_volume   3047.81048588
_cell_formula_units_Z   2
loop_
 _symmetry_equiv_pos_site_id
 _symmetry_equiv_pos_as_xyz
  1  'x, y, z'
loop_
 _atom_site_type_symbol
 _atom_site_label
 _atom_site_symmetry_multiplicity
 _atom_site_fract_x
 _atom_site_fract_y
 _atom_site_fract_z
 _atom_site_occupancy
 _atom_site_charge
Cd  Cd1  1  0.30513000  0.39132000  0.66725000  1.0 0.8591962985
Cd  Cd2  1  0.19081000  0.12481000  0.68172000  1.0 0.8591962985
Cd  Cd3  1  0.69487000  0.60868000  0.33275000  1.0 0.8591962985
Cd  Cd4  1  0.80919000  0.87519000  0.31828000  1.0 0.8591962985
H  H1  1  0.41110000  0.37140000  0.33640000  1.0 0.2938849858
H  H2  1  0.21290000  0.37360000  0.99890000  1.0 0.2803309343
H  H3  1  0.07810000  0.11750000  0.34770000  1.0 0.2938849858
H  H4  1  0.28210000  0.13820000  0.01850000  1.0 0.2726182323
H  H5  1  0.54300000  0.14000000  0.68610000  1.0 0.1282779097
H  H6  1  0.73540000  0.09930000  0.68420000  1.0 0.1192087673
H  H7  1  0.94760000  0.37390000  0.65620000  1.0 0.1282779097
H  H8  1  0.75700000  0.41410000  0.65660000  1.0 0.1192087673
H  H9  1  0.07180000  0.62240000  0.63940000  1.0 0.1192087673
H  H10  1  0.04860000  0.77350000  0.64730000  1.0 0.1098025033
H  H11  1  0.44200000  0.89980000  0.68560000  1.0 0.1192087673
H  H12  1  0.46450000  0.74770000  0.68020000  1.0 0.1098025033
H  H13  1  0.48330000  0.36870000  0.55150000  1.0 0.1098025033
H  H14  1  0.49920000  0.36820000  0.43950000  1.0 0.1393565706
H  H15  1  0.13430000  0.38220000  0.42130000  1.0 0.1393565706
H  H16  1  0.12840000  0.38170000  0.53380000  1.0 0.1192087673
H  H17  1  0.19260000  0.47300000  0.20280000  1.0 0.1282779097
H  H18  1  0.23980000  0.46740000  0.09210000  1.0 0.1192087673
H  H19  1  0.46700000  0.30680000  0.12980000  1.0 0.1192087673
H  H20  1  0.42020000  0.31080000  0.23990000  1.0 0.1192087673
H  H21  1  0.10510000  0.36550000  0.89710000  1.0 0.1393565706
H  H22  1  0.11250000  0.37470000  0.78480000  1.0 0.1192087673
H  H23  1  0.48990000  0.41500000  0.79540000  1.0 0.0993335328
H  H24  1  0.49340000  0.40560000  0.90800000  1.0 0.1393565706
H  H25  1  0.00380000  0.12360000  0.55900000  1.0 0.1098025033
H  H26  1  0.98640000  0.11960000  0.44620000  1.0 0.1393565706
H  H27  1  0.35140000  0.10510000  0.44340000  1.0 0.1496123157
H  H28  1  0.36010000  0.11350000  0.55610000  1.0 0.1192087673
H  H29  1  0.05820000  0.16990000  0.25890000  1.0 0.1192087673
H  H30  1  0.00840000  0.17370000  0.14660000  1.0 0.1098025033
H  H31  1  0.27760000  0.04920000  0.10120000  1.0 0.1098025033
H  H32  1  0.32150000  0.04070000  0.21240000  1.0 0.1282779097
H  H33  1  0.99780000  0.10900000  0.91330000  1.0 0.1192087673
H  H34  1  0.00380000  0.11020000  0.80130000  1.0 0.1098025033
H  H35  1  0.38560000  0.17040000  0.81070000  1.0 0.1192087673
H  H36  1  0.39220000  0.16550000  0.92280000  1.0 0.1496123157
H  H37  1  0.58890000  0.62860000  0.66360000  1.0 0.2938849858
H  H38  1  0.78710000  0.62640000  0.00110000  1.0 0.2803309343
H  H39  1  0.92190000  0.88250000  0.65230000  1.0 0.2938849858
H  H40  1  0.71790000  0.86180000  0.98150000  1.0 0.2726182323
H  H41  1  0.45700000  0.86000000  0.31390000  1.0 0.1282779097
H  H42  1  0.26460000  0.90070000  0.31580000  1.0 0.1192087673
H  H43  1  0.05240000  0.62610000  0.34380000  1.0 0.1282779097
H  H44  1  0.24300000  0.58590000  0.34340000  1.0 0.1192087673
H  H45  1  0.92820000  0.37760000  0.36060000  1.0 0.1192087673
H  H46  1  0.95140000  0.22650000  0.35270000  1.0 0.1098025033
H  H47  1  0.55800000  0.10020000  0.31440000  1.0 0.1192087673
H  H48  1  0.53550000  0.25230000  0.31980000  1.0 0.1098025033
H  H49  1  0.51670000  0.63130000  0.44850000  1.0 0.1098025033
H  H50  1  0.50080000  0.63180000  0.56050000  1.0 0.1393565706
H  H51  1  0.86570000  0.61780000  0.57870000  1.0 0.1393565706
H  H52  1  0.87160000  0.61830000  0.46620000  1.0 0.1192087673
H  H53  1  0.80740000  0.52700000  0.79720000  1.0 0.1282779097
H  H54  1  0.76020000  0.53260000  0.90790000  1.0 0.1192087673
H  H55  1  0.53300000  0.69320000  0.87020000  1.0 0.1192087673
H  H56  1  0.57980000  0.68920000  0.76010000  1.0 0.1192087673
H  H57  1  0.89490000  0.63450000  0.10290000  1.0 0.1393565706
H  H58  1  0.88750000  0.62530000  0.21520000  1.0 0.1192087673
H  H59  1  0.51010000  0.58500000  0.20460000  1.0 0.0993335328
H  H60  1  0.50660000  0.59440000  0.09200000  1.0 0.1393565706
H  H61  1  0.99620000  0.87640000  0.44100000  1.0 0.1098025033
H  H62  1  0.01360000  0.88040000  0.55380000  1.0 0.1393565706
H  H63  1  0.64860000  0.89490000  0.55660000  1.0 0.1496123157
H  H64  1  0.63990000  0.88650000  0.44390000  1.0 0.1192087673
H  H65  1  0.94180000  0.83010000  0.74110000  1.0 0.1192087673
H  H66  1  0.99160000  0.82630000  0.85340000  1.0 0.1098025033
H  H67  1  0.72240000  0.95080000  0.89880000  1.0 0.1098025033
H  H68  1  0.67850000  0.95930000  0.78760000  1.0 0.1282779097
H  H69  1  0.00220000  0.89100000  0.08670000  1.0 0.1192087673
H  H70  1  0.99620000  0.88980000  0.19870000  1.0 0.1098025033
H  H71  1  0.61440000  0.82960000  0.18930000  1.0 0.1192087673
H  H72  1  0.60780000  0.83450000  0.07720000  1.0 0.1496123157
C  C1  1  0.51040000  0.30960000  0.67520000  1.0 0.5469689302
C  C2  1  0.63100000  0.28120000  0.67250000  1.0 -0.0281388892
C  C3  1  0.62520000  0.18810000  0.68020000  1.0 -0.0999968623
C  C4  1  0.74050000  0.16380000  0.67940000  1.0 -0.1090604179
C  C5  1  0.86160000  0.23370000  0.67160000  1.0 -0.0281388892
C  C6  1  0.86570000  0.32590000  0.66270000  1.0 -0.0999968623
C  C7  1  0.75190000  0.35010000  0.66300000  1.0 -0.0999968623
C  C8  1  0.98520000  0.20730000  0.67270000  1.0 0.5469689302
C  C9  1  0.28240000  0.57200000  0.66280000  1.0 0.542130091
C  C10  1  0.27070000  0.66950000  0.66060000  1.0 -0.0211777782
C  C11  1  0.14720000  0.67850000  0.64990000  1.0 -0.0999968623
C  C12  1  0.13320000  0.76820000  0.65450000  1.0 -0.1090604179
C  C13  1  0.24270000  0.85030000  0.66960000  1.0 -0.0211777782
C  C14  1  0.36640000  0.84330000  0.67760000  1.0 -0.0999968623
C  C15  1  0.37950000  0.75260000  0.67370000  1.0 -0.1090604179
C  C16  1  0.22780000  0.94730000  0.67740000  1.0 0.542130091
C  C17  1  0.41060000  0.37150000  0.52490000  1.0 0.0708847972
C  C18  1  0.42120000  0.37180000  0.45770000  1.0 -0.2407061982
C  C19  1  0.32040000  0.37730000  0.41650000  1.0 0.2726182323
C  C20  1  0.20840000  0.37990000  0.44690000  1.0 -0.2407061982
C  C21  1  0.20590000  0.37910000  0.51440000  1.0 0.0708847972
C  C22  1  0.25470000  0.39160000  0.30080000  1.0 0.4754628621
C  C23  1  0.29870000  0.39120000  0.23200000  1.0 -0.0211777782
C  C24  1  0.24730000  0.43830000  0.18790000  1.0 -0.0999968623
C  C25  1  0.27520000  0.43480000  0.12220000  1.0 -0.1473538198
C  C26  1  0.35560000  0.38370000  0.09960000  1.0 -0.0413910777
C  C27  1  0.40980000  0.33950000  0.14440000  1.0 -0.1090604179
C  C28  1  0.38260000  0.34210000  0.20970000  1.0 -0.1186928668
C  C29  1  0.38930000  0.38150000  0.02940000  1.0 0.4521369121
C  C30  1  0.29930000  0.38430000  0.91540000  1.0 0.2633037052
C  C31  1  0.18600000  0.37530000  0.87710000  1.0 -0.2512375581
C  C32  1  0.19120000  0.38070000  0.81000000  1.0 0.0993335328
C  C33  1  0.40980000  0.40380000  0.81650000  1.0 0.0708847972
C  C34  1  0.41330000  0.39890000  0.88380000  1.0 -0.2407061982
C  C35  1  0.07650000  0.12090000  0.53530000  1.0 0.0633926622
C  C36  1  0.06510000  0.11810000  0.46790000  1.0 -0.2407061982
C  C37  1  0.16920000  0.11300000  0.43080000  1.0 0.2726182323
C  C38  1  0.27830000  0.11010000  0.46590000  1.0 -0.2407061982
C  C39  1  0.28200000  0.11450000  0.53350000  1.0 0.0815251961
C  C40  1  0.23490000  0.09970000  0.31830000  1.0 0.4754628621
C  C41  1  0.19400000  0.10250000  0.24690000  1.0 -0.0211777782
C  C42  1  0.10170000  0.14420000  0.22680000  1.0 -0.1090604179
C  C43  1  0.07380000  0.14790000  0.16000000  1.0 -0.1300225177
C  C44  1  0.14050000  0.11430000  0.11240000  1.0 -0.0999968623
C  C45  1  0.23220000  0.07360000  0.13300000  1.0 -0.1395698406
C  C46  1  0.25800000  0.06840000  0.19930000  1.0 -0.0999968623
C  C47  1  0.10580000  0.12080000  0.04270000  1.0 0.397289016
C  C48  1  0.19550000  0.13420000  0.93230000  1.0 0.2339310578
C  C49  1  0.07900000  0.12000000  0.89340000  1.0 -0.2741270878
C  C50  1  0.08440000  0.12220000  0.82660000  1.0 0.0815251961
C  C51  1  0.30510000  0.15630000  0.83180000  1.0 0.0993335328
C  C52  1  0.31010000  0.15380000  0.89890000  1.0 -0.2407061982
C  C53  1  0.48960000  0.69040000  0.32480000  1.0 0.5469689302
C  C54  1  0.36900000  0.71880000  0.32750000  1.0 -0.0281388892
C  C55  1  0.37480000  0.81190000  0.31980000  1.0 -0.0999968623
C  C56  1  0.25950000  0.83620000  0.32060000  1.0 -0.1090604179
C  C57  1  0.13840000  0.76630000  0.32840000  1.0 -0.0281388892
C  C58  1  0.13430000  0.67410000  0.33730000  1.0 -0.0999968623
C  C59  1  0.24810000  0.64990000  0.33700000  1.0 -0.0999968623
C  C60  1  0.01480000  0.79270000  0.32730000  1.0 0.5469689302
C  C61  1  0.71760000  0.42800000  0.33720000  1.0 0.542130091
C  C62  1  0.72930000  0.33050000  0.33940000  1.0 -0.0211777782
C  C63  1  0.85280000  0.32150000  0.35010000  1.0 -0.0999968623
C  C64  1  0.86680000  0.23180000  0.34550000  1.0 -0.1090604179
C  C65  1  0.75730000  0.14970000  0.33040000  1.0 -0.0211777782
C  C66  1  0.63360000  0.15670000  0.32240000  1.0 -0.0999968623
C  C67  1  0.62050000  0.24740000  0.32630000  1.0 -0.1090604179
C  C68  1  0.77220000  0.05270000  0.32260000  1.0 0.542130091
C  C69  1  0.58940000  0.62850000  0.47510000  1.0 0.0708847972
C  C70  1  0.57880000  0.62820000  0.54230000  1.0 -0.2407061982
C  C71  1  0.67960000  0.62270000  0.58350000  1.0 0.2726182323
C  C72  1  0.79160000  0.62010000  0.55310000  1.0 -0.2407061982
C  C73  1  0.79410000  0.62090000  0.48560000  1.0 0.0708847972
C  C74  1  0.74530000  0.60840000  0.69920000  1.0 0.4754628621
C  C75  1  0.70130000  0.60880000  0.76800000  1.0 -0.0211777782
C  C76  1  0.75270000  0.56170000  0.81210000  1.0 -0.0999968623
C  C77  1  0.72480000  0.56520000  0.87780000  1.0 -0.1473538198
C  C78  1  0.64440000  0.61630000  0.90040000  1.0 -0.0413910777
C  C79  1  0.59020000  0.66050000  0.85560000  1.0 -0.1090604179
C  C80  1  0.61740000  0.65790000  0.79030000  1.0 -0.1186928668
C  C81  1  0.61070000  0.61850000  0.97060000  1.0 0.4521369121
C  C82  1  0.70070000  0.61570000  0.08460000  1.0 0.2633037052
C  C83  1  0.81400000  0.62470000  0.12290000  1.0 -0.2512375581
C  C84  1  0.80880000  0.61930000  0.19000000  1.0 0.0993335328
C  C85  1  0.59020000  0.59620000  0.18350000  1.0 0.0708847972
C  C86  1  0.58670000  0.60110000  0.11620000  1.0 -0.2407061982
C  C87  1  0.92350000  0.87910000  0.46470000  1.0 0.0633926622
C  C88  1  0.93490000  0.88190000  0.53210000  1.0 -0.2407061982
C  C89  1  0.83080000  0.88700000  0.56920000  1.0 0.2726182323
C  C90  1  0.72170000  0.88990000  0.53410000  1.0 -0.2407061982
C  C91  1  0.71800000  0.88550000  0.46650000  1.0 0.0815251961
C  C92  1  0.76510000  0.90030000  0.68170000  1.0 0.4754628621
C  C93  1  0.80600000  0.89750000  0.75310000  1.0 -0.0211777782
C  C94  1  0.89830000  0.85580000  0.77320000  1.0 -0.1090604179
C  C95  1  0.92620000  0.85210000  0.84000000  1.0 -0.1300225177
C  C96  1  0.85950000  0.88570000  0.88760000  1.0 -0.0999968623
C  C97  1  0.76780000  0.92640000  0.86700000  1.0 -0.1395698406
C  C98  1  0.74200000  0.93160000  0.80070000  1.0 -0.0999968623
C  C99  1  0.89420000  0.87920000  0.95730000  1.0 0.397289016
C  C100  1  0.80450000  0.86580000  0.06770000  1.0 0.2339310578
C  C101  1  0.92100000  0.88000000  0.10660000  1.0 -0.2741270878
C  C102  1  0.91560000  0.87780000  0.17340000  1.0 0.0815251961
C  C103  1  0.69490000  0.84370000  0.16820000  1.0 0.0993335328
C  C104  1  0.68990000  0.84620000  0.10110000  1.0 -0.2344252535
N  N1  1  0.30430000  0.37490000  0.55520000  1.0 -0.2512375581
N  N2  1  0.33830000  0.37910000  0.34940000  1.0 -0.3651466288
N  N3  1  0.28990000  0.37900000  0.98360000  1.0 -0.3852250197
N  N4  1  0.30060000  0.39390000  0.77850000  1.0 -0.2407061982
N  N5  1  0.18520000  0.12000000  0.57000000  1.0 -0.2512375581
N  N6  1  0.15140000  0.11090000  0.36320000  1.0 -0.3512579121
N  N7  1  0.20400000  0.13180000  0.00040000  1.0 -0.450662046
N  N8  1  0.19410000  0.14010000  0.79360000  1.0 -0.2407061982
N  N9  1  0.69570000  0.62510000  0.44480000  1.0 -0.2512375581
N  N10  1  0.66170000  0.62090000  0.65060000  1.0 -0.3651466288
N  N11  1  0.71010000  0.62100000  0.01640000  1.0 -0.3852250197
N  N12  1  0.69940000  0.60610000  0.22150000  1.0 -0.2407061982
N  N13  1  0.81480000  0.88000000  0.43000000  1.0 -0.2512375581
N  N14  1  0.84860000  0.88910000  0.63680000  1.0 -0.3512579121
N  N15  1  0.79600000  0.86820000  0.99960000  1.0 -0.450662046
N  N16  1  0.80590000  0.85990000  0.20640000  1.0 -0.2407061982
O  O1  1  0.39920000  0.24600000  0.67950000  1.0 -0.5841825821
O  O2  1  0.52450000  0.39680000  0.67230000  1.0 -0.5434045412
O  O3  1  0.97330000  0.12170000  0.68100000  1.0 -0.5480108478
O  O4  1  0.09450000  0.27120000  0.66560000  1.0 -0.5841825821
O  O5  1  0.17960000  0.49980000  0.66490000  1.0 -0.5434045412
O  O6  1  0.39430000  0.56450000  0.66380000  1.0 -0.5618821003
O  O7  1  0.11450000  0.95350000  0.66890000  1.0 -0.5723145224
O  O8  1  0.32750000  0.02140000  0.69310000  1.0 -0.5480108478
O  O9  1  0.14940000  0.39990000  0.31210000  1.0 -0.450662046
O  O10  1  0.49670000  0.38140000  0.01420000  1.0 -0.450662046
O  O11  1  0.34010000  0.09080000  0.33270000  1.0 -0.450662046
O  O12  1  0.98700000  0.10100000  0.01850000  1.0 -0.0413910777
O  O13  1  0.01000000  0.14500000  0.03110000  1.0 2.49422e-05
O  O14  1  0.60080000  0.75400000  0.32050000  1.0 -0.5841825821
O  O15  1  0.47550000  0.60320000  0.32770000  1.0 -0.5434045412
O  O16  1  0.02670000  0.87830000  0.31900000  1.0 -0.5480108478
O  O17  1  0.90550000  0.72880000  0.33440000  1.0 -0.5841825821
O  O18  1  0.82040000  0.50020000  0.33510000  1.0 -0.5434045412
O  O19  1  0.60570000  0.43550000  0.33620000  1.0 -0.5618821003
O  O20  1  0.88550000  0.04650000  0.33110000  1.0 -0.5723145224
O  O21  1  0.67250000  0.97860000  0.30690000  1.0 -0.5480108478
O  O22  1  0.85060000  0.60010000  0.68790000  1.0 -0.450662046
O  O23  1  0.50330000  0.61860000  0.98580000  1.0 -0.450662046
O  O24  1  0.65990000  0.90920000  0.66730000  1.0 -0.450662046
O  O25  1  0.01300000  0.89900000  0.98150000  1.0 -0.0413910777
O  O26  1  0.99000000  0.85500000  0.96890000  1.0 2.49422e-05
