# DDEC6 charges by PACMAN v1.1 (https://github.com/mtap-research/PACMAN-charge/)
data_WOHPOB_ASR_pacman
_symmetry_space_group_name_H-M   'P 1'
_cell_length_a   32.94700000
_cell_length_b   34.13300000
_cell_length_c   36.13000000
_cell_angle_alpha   94.63000000
_cell_angle_beta   93.84000000
_cell_angle_gamma   90.82000000
_symmetry_Int_Tables_number   1
_chemical_formula_structural   Cu3H34C71(NO6)2
_chemical_formula_sum   'Cu24 H272 C568 N16 O96'
_cell_volume   40399.62100310
_cell_formula_units_Z   8
loop_
 _symmetry_equiv_pos_site_id
 _symmetry_equiv_pos_as_xyz
  1  'x, y, z'
loop_
 _atom_site_type_symbol
 _atom_site_label
 _atom_site_symmetry_multiplicity
 _atom_site_fract_x
 _atom_site_fract_y
 _atom_site_fract_z
 _atom_site_occupancy
 _atom_site_charge
Cu  Cu1  1  0.22114000  0.00897000  0.71498000  1.0 0.7923133725
Cu  Cu2  1  0.21720000  0.93155000  0.70550000  1.0 0.8522065534
Cu  Cu3  1  0.21287000  0.39880000  0.71097000  1.0 0.7749912097
Cu  Cu4  1  0.21478000  0.47604000  0.72328000  1.0 0.8522065534
Cu  Cu5  1  0.40673000  0.21656000  0.21071000  1.0 0.7923133725
Cu  Cu6  1  0.48762000  0.21809000  0.22066000  1.0 0.8812336876
Cu  Cu7  1  0.99745000  0.21799000  0.21528000  1.0 0.8064373835
Cu  Cu8  1  0.91590000  0.21187000  0.20933000  1.0 0.8862898006
Cu  Cu9  1  0.72553000  0.69607000  0.91871000  1.0 0.8331389381
Cu  Cu10  1  0.73614000  0.70612000  0.99182000  1.0 0.8522065534
Cu  Cu11  1  0.70461000  0.73746000  0.48828000  1.0 0.8700727179
Cu  Cu12  1  0.69666000  0.72518000  0.41585000  1.0 0.8064373835
Cu  Cu13  1  0.77886000  0.99103000  0.28502000  1.0 0.7923133725
Cu  Cu14  1  0.78280000  0.06845000  0.29450000  1.0 0.8522065534
Cu  Cu15  1  0.78713000  0.60120000  0.28903000  1.0 0.7770178273
Cu  Cu16  1  0.78522000  0.52396000  0.27672000  1.0 0.8583425039
Cu  Cu17  1  0.59327000  0.78344000  0.78929000  1.0 0.795595999
Cu  Cu18  1  0.51238000  0.78191000  0.77934000  1.0 0.8812336876
Cu  Cu19  1  0.00255000  0.78201000  0.78472000  1.0 0.8064373835
Cu  Cu20  1  0.08410000  0.78813000  0.79067000  1.0 0.8862898006
Cu  Cu21  1  0.27447000  0.30393000  0.08129000  1.0 0.8331389381
Cu  Cu22  1  0.26386000  0.29388000  0.00818000  1.0 0.8583425039
Cu  Cu23  1  0.29539000  0.26254000  0.51172000  1.0 0.8583425039
Cu  Cu24  1  0.30334000  0.27482000  0.58415000  1.0 0.8064373835
H  H1  1  0.30209000  0.90182000  0.79085000  1.0 0.1220481728
H  H2  1  0.34656000  0.89429000  0.84259000  1.0 0.1290212572
H  H3  1  0.34699000  0.01150000  0.86879000  1.0 0.1220481728
H  H4  1  0.30251000  0.01903000  0.81705000  1.0 0.1290212572
H  H5  1  0.45983000  0.89675000  0.92823000  1.0 0.1290212572
H  H6  1  0.50491000  0.93803000  0.03081000  1.0 0.1403786516
H  H7  1  0.40667000  0.98804000  0.98277000  1.0 0.1403786516
H  H8  1  0.56596000  0.82515000  0.91221000  1.0 0.1220481728
H  H9  1  0.61835000  0.78071000  0.90454000  1.0 0.1220481728
H  H10  1  0.64010000  0.78412000  0.01602000  1.0 0.1220481728
H  H11  1  0.58771000  0.82856000  0.02369000  1.0 0.1220481728
H  H12  1  0.51123000  0.05064000  0.11602000  1.0 0.1220481728
H  H13  1  0.50840000  0.10626000  0.15755000  1.0 0.1220481728
H  H14  1  0.38944000  0.11712000  0.12637000  1.0 0.1290212572
H  H15  1  0.39226000  0.06150000  0.08484000  1.0 0.1290212572
H  H16  1  0.31101000  0.37169000  0.78924000  1.0 0.1290212572
H  H17  1  0.36264000  0.36822000  0.83613000  1.0 0.1290212572
H  H18  1  0.37182000  0.48667000  0.84743000  1.0 0.1220481728
H  H19  1  0.32019000  0.49014000  0.80055000  1.0 0.1220481728
H  H20  1  0.43222000  0.38625000  0.95910000  1.0 0.1403786516
H  H21  1  0.53461000  0.43243000  0.01436000  1.0 0.1484028772
H  H22  1  0.49361000  0.47410000  0.91762000  1.0 0.1403786516
H  H23  1  0.40714000  0.33140000  0.06662000  1.0 0.1220481728
H  H24  1  0.39713000  0.29203000  0.11511000  1.0 0.1220481728
H  H25  1  0.51829000  0.29257000  0.14062000  1.0 0.1290212572
H  H26  1  0.52830000  0.33193000  0.09212000  1.0 0.1220481728
H  H27  1  0.62178000  0.54827000  0.02054000  1.0 0.1220481728
H  H28  1  0.66842000  0.59990000  0.01864000  1.0 0.1290212572
H  H29  1  0.63934000  0.60335000  0.90867000  1.0 0.1290212572
H  H30  1  0.59269000  0.55172000  0.91057000  1.0 0.1290212572
H  H31  1  0.29114000  0.50933000  0.63832000  1.0 0.1290212572
H  H32  1  0.33268000  0.51603000  0.58941000  1.0 0.1220481728
H  H33  1  0.33317000  0.39806000  0.56887000  1.0 0.1220481728
H  H34  1  0.29163000  0.39136000  0.61778000  1.0 0.1220481728
H  H35  1  0.43396000  0.52920000  0.51265000  1.0 0.1484028772
H  H36  1  0.47846000  0.49003000  0.41534000  1.0 0.1403786516
H  H37  1  0.39030000  0.42787000  0.45816000  1.0 0.1290212572
H  H38  1  0.54680000  0.62455000  0.52125000  1.0 0.1290212572
H  H39  1  0.60003000  0.66902000  0.51607000  1.0 0.1290212572
H  H40  1  0.59733000  0.63890000  0.40558000  1.0 0.1290212572
H  H41  1  0.54410000  0.59443000  0.41076000  1.0 0.1290212572
H  H42  1  0.38060000  0.36657000  0.34160000  1.0 0.1220481728
H  H43  1  0.37737000  0.31594000  0.29414000  1.0 0.1290212572
H  H44  1  0.50001000  0.31598000  0.29648000  1.0 0.1290212572
H  H45  1  0.50324000  0.36660000  0.34394000  1.0 0.1290212572
H  H46  1  0.12875000  0.03142000  0.79168000  1.0 0.1220481728
H  H47  1  0.07911000  0.03382000  0.83476000  1.0 0.1290212572
H  H48  1  0.06846000  0.91546000  0.82318000  1.0 0.1220481728
H  H49  1  0.11810000  0.91306000  0.78010000  1.0 0.1220481728
H  H50  1  0.00176000  0.03825000  0.93865000  1.0 0.1484028772
H  H51  1  0.90947000  0.98124000  0.98084000  1.0 0.1403786516
H  H52  1  0.95813000  0.93514000  0.88780000  1.0 0.1290212572
H  H53  1  0.01566000  0.11356000  0.05110000  1.0 0.1220481728
H  H54  1  0.01701000  0.15376000  0.10646000  1.0 0.1220481728
H  H55  1  0.89959000  0.12472000  0.11785000  1.0 0.1290212572
H  H56  1  0.89825000  0.08452000  0.06249000  1.0 0.1290212572
H  H57  1  0.84927000  0.83878000  0.88140000  1.0 0.1220481728
H  H58  1  0.80787000  0.78447000  0.88892000  1.0 0.1131673584
H  H59  1  0.81101000  0.81458000  0.99943000  1.0 0.1290212572
H  H60  1  0.85241000  0.86888000  0.99190000  1.0 0.1220481728
H  H61  1  0.00633000  0.29494000  0.30980000  1.0 0.1220481728
H  H62  1  0.00844000  0.34208000  0.36030000  1.0 0.1290212572
H  H63  1  0.88576000  0.34474000  0.35311000  1.0 0.1220481728
H  H64  1  0.88365000  0.29760000  0.30261000  1.0 0.1290212572
H  H65  1  0.89321000  0.45992000  0.42697000  1.0 0.1290212572
H  H66  1  0.93648000  0.50665000  0.52836000  1.0 0.1484028772
H  H67  1  0.98612000  0.40865000  0.48201000  1.0 0.1403786516
H  H68  1  0.82474000  0.57378000  0.40719000  1.0 0.1290212572
H  H69  1  0.78037000  0.62592000  0.40214000  1.0 0.1220481728
H  H70  1  0.78469000  0.64420000  0.51411000  1.0 0.1290212572
H  H71  1  0.82907000  0.59206000  0.51915000  1.0 0.1220481728
H  H72  1  0.05336000  0.50977000  0.61744000  1.0 0.1290212572
H  H73  1  0.10783000  0.50045000  0.66016000  1.0 0.1220481728
H  H74  1  0.10683000  0.38490000  0.62595000  1.0 0.1290212572
H  H75  1  0.05236000  0.39422000  0.58322000  1.0 0.1290212572
H  H76  1  0.82059000  0.60918000  0.90276000  1.0 0.1220481728
H  H77  1  0.86982000  0.56096000  0.90533000  1.0 0.1290212572
H  H78  1  0.88205000  0.58075000  0.01719000  1.0 0.1220481728
H  H79  1  0.83283000  0.62897000  0.01463000  1.0 0.1290212572
H  H80  1  0.98999000  0.48927000  0.92419000  1.0 0.1403786516
H  H81  1  0.02502000  0.39010000  0.96997000  1.0 0.1403786516
H  H82  1  0.93631000  0.45551000  0.01395000  1.0 0.1403786516
H  H83  1  0.09311000  0.37263000  0.85375000  1.0 0.1220481728
H  H84  1  0.13496000  0.37103000  0.80418000  1.0 0.1290212572
H  H85  1  0.13937000  0.48965000  0.81159000  1.0 0.1290212572
H  H86  1  0.09752000  0.49124000  0.86116000  1.0 0.1290212572
H  H87  1  0.90776000  0.34490000  0.07342000  1.0 0.1220481728
H  H88  1  0.90042000  0.30359000  0.12091000  1.0 0.1290212572
H  H89  1  0.02238000  0.30337000  0.14103000  1.0 0.1220481728
H  H90  1  0.02973000  0.34468000  0.09354000  1.0 0.1290212572
H  H91  1  0.62777000  0.83498000  0.50593000  1.0 0.1220481728
H  H92  1  0.57976000  0.88443000  0.50813000  1.0 0.1220481728
H  H93  1  0.56260000  0.87218000  0.39612000  1.0 0.1290212572
H  H94  1  0.61061000  0.82273000  0.39392000  1.0 0.1290212572
H  H95  1  0.45894000  0.94458000  0.50326000  1.0 0.1290212572
H  H96  1  0.40036000  0.03949000  0.46872000  1.0 0.1290212572
H  H97  1  0.49211000  0.99367000  0.41165000  1.0 0.1403786516
H  H98  1  0.34823000  0.91957000  0.57890000  1.0 0.1290212572
H  H99  1  0.30532000  0.92120000  0.62768000  1.0 0.1290212572
H  H100  1  0.31094000  0.03980000  0.63593000  1.0 0.1220481728
H  H101  1  0.35385000  0.03816000  0.58715000  1.0 0.1220481728
H  H102  1  0.37698000  0.10141000  0.34349000  1.0 0.1290212572
H  H103  1  0.38018000  0.14660000  0.29871000  1.0 0.1290212572
H  H104  1  0.50276000  0.14866000  0.31282000  1.0 0.1290212572
H  H105  1  0.49957000  0.10348000  0.35760000  1.0 0.1290212572
H  H106  1  0.82060000  0.81101000  0.49702000  1.0 0.1290212572
H  H107  1  0.87322000  0.85450000  0.48721000  1.0 0.1220481728
H  H108  1  0.83888000  0.84708000  0.37749000  1.0 0.1220481728
H  H109  1  0.78626000  0.80359000  0.38731000  1.0 0.1131673584
H  H110  1  0.98909000  0.91754000  0.47786000  1.0 0.1403786516
H  H111  1  0.03972000  0.00756000  0.43017000  1.0 0.1403786516
H  H112  1  0.93509000  0.95618000  0.38441000  1.0 0.1290212572
H  H113  1  0.08439000  0.91313000  0.56060000  1.0 0.1290212572
H  H114  1  0.12119000  0.91721000  0.61818000  1.0 0.1220481728
H  H115  1  0.16081000  0.02629000  0.60111000  1.0 0.1290212572
H  H116  1  0.12401000  0.02221000  0.54352000  1.0 0.1220481728
H  H117  1  0.03687000  0.08253000  0.32764000  1.0 0.1290212572
H  H118  1  0.02808000  0.13109000  0.28620000  1.0 0.1290212572
H  H119  1  0.90656000  0.11221000  0.28111000  1.0 0.1290212572
H  H120  1  0.91535000  0.06365000  0.32255000  1.0 0.1220481728
H  H121  1  0.20074000  0.08322000  0.77040000  1.0 0.1220481728
H  H122  1  0.19332000  0.15076000  0.76793000  1.0 0.1290212572
H  H123  1  0.23221000  0.14286000  0.66407000  1.0 0.1290212572
H  H124  1  0.23963000  0.07532000  0.66654000  1.0 0.1131673584
H  H125  1  0.19215000  0.33216000  0.75203000  1.0 0.1220481728
H  H126  1  0.19237000  0.26370000  0.74814000  1.0 0.1220481728
H  H127  1  0.23694000  0.26244000  0.64670000  1.0 0.1403786516
H  H128  1  0.23671000  0.33091000  0.65060000  1.0 0.1220481728
H  H129  1  0.33215000  0.19834000  0.25007000  1.0 0.1220481728
H  H130  1  0.26126000  0.19695000  0.24537000  1.0 0.1220481728
H  H131  1  0.26172000  0.23614000  0.14296000  1.0 0.1403786516
H  H132  1  0.33261000  0.23752000  0.14766000  1.0 0.1220481728
H  H133  1  0.07570000  0.20411000  0.27180000  1.0 0.1220481728
H  H134  1  0.14631000  0.20122000  0.27172000  1.0 0.1290212572
H  H135  1  0.14062000  0.23232000  0.16610000  1.0 0.1290212572
H  H136  1  0.07001000  0.23521000  0.16619000  1.0 0.1220481728
H  H137  1  0.69791000  0.09818000  0.20915000  1.0 0.1220481728
H  H138  1  0.65344000  0.10571000  0.15741000  1.0 0.1290212572
H  H139  1  0.65301000  0.98850000  0.13121000  1.0 0.1220481728
H  H140  1  0.69749000  0.98097000  0.18295000  1.0 0.1290212572
H  H141  1  0.54017000  0.10325000  0.07177000  1.0 0.1290212572
H  H142  1  0.49509000  0.06197000  0.96919000  1.0 0.1403786516
H  H143  1  0.59333000  0.01196000  0.01723000  1.0 0.1403786516
H  H144  1  0.43404000  0.17485000  0.08779000  1.0 0.1220481728
H  H145  1  0.38165000  0.21929000  0.09546000  1.0 0.1220481728
H  H146  1  0.35990000  0.21588000  0.98398000  1.0 0.1290212572
H  H147  1  0.41229000  0.17144000  0.97631000  1.0 0.1220481728
H  H148  1  0.48877000  0.94936000  0.88398000  1.0 0.1220481728
H  H149  1  0.49160000  0.89374000  0.84245000  1.0 0.1220481728
H  H150  1  0.61056000  0.88288000  0.87363000  1.0 0.1290212572
H  H151  1  0.60774000  0.93850000  0.91516000  1.0 0.1290212572
H  H152  1  0.68899000  0.62831000  0.21076000  1.0 0.1290212572
H  H153  1  0.63736000  0.63178000  0.16387000  1.0 0.1290212572
H  H154  1  0.62818000  0.51333000  0.15257000  1.0 0.1220481728
H  H155  1  0.67981000  0.50986000  0.19945000  1.0 0.1220481728
H  H156  1  0.56778000  0.61375000  0.04090000  1.0 0.1403786516
H  H157  1  0.46539000  0.56757000  0.98564000  1.0 0.1484028772
H  H158  1  0.50639000  0.52590000  0.08238000  1.0 0.1403786516
H  H159  1  0.59286000  0.66860000  0.93338000  1.0 0.1220481728
H  H160  1  0.60287000  0.70797000  0.88489000  1.0 0.1220481728
H  H161  1  0.48171000  0.70743000  0.85938000  1.0 0.1220481728
H  H162  1  0.47170000  0.66807000  0.90788000  1.0 0.1220481728
H  H163  1  0.37822000  0.45173000  0.97946000  1.0 0.1220481728
H  H164  1  0.33158000  0.40010000  0.98136000  1.0 0.1290212572
H  H165  1  0.36066000  0.39665000  0.09133000  1.0 0.1290212572
H  H166  1  0.40731000  0.44828000  0.08943000  1.0 0.1290212572
H  H167  1  0.70886000  0.49067000  0.36168000  1.0 0.1290212572
H  H168  1  0.66732000  0.48397000  0.41059000  1.0 0.1220481728
H  H169  1  0.66683000  0.60194000  0.43113000  1.0 0.1220481728
H  H170  1  0.70837000  0.60864000  0.38222000  1.0 0.1220481728
H  H171  1  0.56604000  0.47080000  0.48735000  1.0 0.1484028772
H  H172  1  0.52154000  0.50997000  0.58466000  1.0 0.1403786516
H  H173  1  0.60970000  0.57213000  0.54184000  1.0 0.1403786516
H  H174  1  0.45320000  0.37545000  0.47875000  1.0 0.1220481728
H  H175  1  0.39997000  0.33098000  0.48393000  1.0 0.1290212572
H  H176  1  0.40267000  0.36110000  0.59442000  1.0 0.1290212572
H  H177  1  0.45590000  0.40557000  0.58924000  1.0 0.1290212572
H  H178  1  0.61940000  0.63343000  0.65840000  1.0 0.1220481728
H  H179  1  0.62263000  0.68406000  0.70586000  1.0 0.1290212572
H  H180  1  0.49999000  0.68402000  0.70352000  1.0 0.1290212572
H  H181  1  0.49676000  0.63340000  0.65606000  1.0 0.1290212572
H  H182  1  0.87125000  0.96858000  0.20832000  1.0 0.1220481728
H  H183  1  0.92089000  0.96618000  0.16524000  1.0 0.1290212572
H  H184  1  0.93154000  0.08454000  0.17682000  1.0 0.1220481728
H  H185  1  0.88190000  0.08694000  0.21990000  1.0 0.1220481728
H  H186  1  0.99824000  0.96175000  0.06135000  1.0 0.1484028772
H  H187  1  0.09053000  0.01876000  0.01916000  1.0 0.1403786516
H  H188  1  0.04187000  0.06486000  0.11220000  1.0 0.1290212572
H  H189  1  0.98434000  0.88644000  0.94890000  1.0 0.1220481728
H  H190  1  0.98299000  0.84624000  0.89354000  1.0 0.1220481728
H  H191  1  0.10041000  0.87528000  0.88215000  1.0 0.1290212572
H  H192  1  0.10175000  0.91548000  0.93751000  1.0 0.1290212572
H  H193  1  0.15073000  0.16122000  0.11860000  1.0 0.1220481728
H  H194  1  0.19213000  0.21553000  0.11108000  1.0 0.1131673584
H  H195  1  0.18899000  0.18542000  0.00057000  1.0 0.1290212572
H  H196  1  0.14759000  0.13112000  0.00810000  1.0 0.1220481728
H  H197  1  0.99367000  0.70506000  0.69020000  1.0 0.1220481728
H  H198  1  0.99156000  0.65792000  0.63970000  1.0 0.1290212572
H  H199  1  0.11424000  0.65526000  0.64689000  1.0 0.1220481728
H  H200  1  0.11635000  0.70240000  0.69739000  1.0 0.1290212572
H  H201  1  0.10679000  0.54008000  0.57303000  1.0 0.1290212572
H  H202  1  0.06352000  0.49335000  0.47164000  1.0 0.1484028772
H  H203  1  0.01388000  0.59135000  0.51799000  1.0 0.1403786516
H  H204  1  0.17526000  0.42622000  0.59281000  1.0 0.1290212572
H  H205  1  0.21963000  0.37408000  0.59786000  1.0 0.1220481728
H  H206  1  0.21531000  0.35580000  0.48589000  1.0 0.1290212572
H  H207  1  0.17093000  0.40794000  0.48085000  1.0 0.1220481728
H  H208  1  0.94664000  0.49023000  0.38256000  1.0 0.1290212572
H  H209  1  0.89217000  0.49955000  0.33984000  1.0 0.1220481728
H  H210  1  0.89317000  0.61510000  0.37405000  1.0 0.1290212572
H  H211  1  0.94764000  0.60578000  0.41678000  1.0 0.1290212572
H  H212  1  0.17941000  0.39082000  0.09724000  1.0 0.1220481728
H  H213  1  0.13018000  0.43904000  0.09467000  1.0 0.1290212572
H  H214  1  0.11795000  0.41925000  0.98281000  1.0 0.1220481728
H  H215  1  0.16717000  0.37103000  0.98537000  1.0 0.1290212572
H  H216  1  0.01001000  0.51073000  0.07581000  1.0 0.1403786516
H  H217  1  0.97498000  0.60990000  0.03003000  1.0 0.1403786516
H  H218  1  0.06369000  0.54449000  0.98605000  1.0 0.1403786516
H  H219  1  0.90689000  0.62737000  0.14625000  1.0 0.1220481728
H  H220  1  0.86504000  0.62897000  0.19582000  1.0 0.1290212572
H  H221  1  0.86063000  0.51035000  0.18841000  1.0 0.1290212572
H  H222  1  0.90248000  0.50876000  0.13884000  1.0 0.1290212572
H  H223  1  0.09224000  0.65510000  0.92658000  1.0 0.1290212572
H  H224  1  0.09958000  0.69641000  0.87909000  1.0 0.1290212572
H  H225  1  0.97762000  0.69663000  0.85897000  1.0 0.1220481728
H  H226  1  0.97027000  0.65532000  0.90646000  1.0 0.1290212572
H  H227  1  0.37223000  0.16502000  0.49407000  1.0 0.1220481728
H  H228  1  0.42024000  0.11557000  0.49187000  1.0 0.1220481728
H  H229  1  0.43740000  0.12782000  0.60388000  1.0 0.1290212572
H  H230  1  0.38939000  0.17727000  0.60608000  1.0 0.1220481728
H  H231  1  0.54106000  0.05542000  0.49674000  1.0 0.1403786516
H  H232  1  0.59964000  0.96051000  0.53128000  1.0 0.1290212572
H  H233  1  0.50789000  0.00633000  0.58835000  1.0 0.1403786516
H  H234  1  0.65177000  0.08043000  0.42110000  1.0 0.1290212572
H  H235  1  0.69468000  0.07880000  0.37232000  1.0 0.1290212572
H  H236  1  0.68906000  0.96020000  0.36407000  1.0 0.1220481728
H  H237  1  0.64615000  0.96184000  0.41285000  1.0 0.1220481728
H  H238  1  0.62302000  0.89859000  0.65651000  1.0 0.1290212572
H  H239  1  0.61982000  0.85340000  0.70129000  1.0 0.1290212572
H  H240  1  0.49724000  0.85134000  0.68718000  1.0 0.1290212572
H  H241  1  0.50043000  0.89652000  0.64240000  1.0 0.1290212572
H  H242  1  0.17940000  0.18899000  0.50298000  1.0 0.1290212572
H  H243  1  0.12678000  0.14550000  0.51279000  1.0 0.1220481728
H  H244  1  0.16112000  0.15292000  0.62251000  1.0 0.1290212572
H  H245  1  0.21374000  0.19641000  0.61269000  1.0 0.1131673584
H  H246  1  0.01091000  0.08246000  0.52214000  1.0 0.1484028772
H  H247  1  0.96028000  0.99244000  0.56983000  1.0 0.1403786516
H  H248  1  0.06491000  0.04382000  0.61559000  1.0 0.1290212572
H  H249  1  0.91561000  0.08687000  0.43940000  1.0 0.1290212572
H  H250  1  0.87881000  0.08279000  0.38182000  1.0 0.1220481728
H  H251  1  0.83919000  0.97371000  0.39889000  1.0 0.1290212572
H  H252  1  0.87599000  0.97779000  0.45648000  1.0 0.1220481728
H  H253  1  0.96313000  0.91747000  0.67236000  1.0 0.1290212572
H  H254  1  0.97192000  0.86891000  0.71380000  1.0 0.1290212572
H  H255  1  0.09344000  0.88779000  0.71889000  1.0 0.1290212572
H  H256  1  0.08465000  0.93635000  0.67745000  1.0 0.1220481728
H  H257  1  0.79926000  0.91678000  0.22960000  1.0 0.1220481728
H  H258  1  0.80668000  0.84924000  0.23207000  1.0 0.1290212572
H  H259  1  0.76779000  0.85714000  0.33593000  1.0 0.1290212572
H  H260  1  0.76037000  0.92468000  0.33346000  1.0 0.1131673584
H  H261  1  0.80785000  0.66784000  0.24797000  1.0 0.1220481728
H  H262  1  0.80763000  0.73630000  0.25186000  1.0 0.1220481728
H  H263  1  0.76306000  0.73756000  0.35330000  1.0 0.1403786516
H  H264  1  0.76329000  0.66909000  0.34940000  1.0 0.1220481728
H  H265  1  0.66785000  0.80166000  0.74993000  1.0 0.1220481728
H  H266  1  0.73874000  0.80305000  0.75463000  1.0 0.1220481728
H  H267  1  0.73828000  0.76386000  0.85704000  1.0 0.1403786516
H  H268  1  0.66739000  0.76248000  0.85234000  1.0 0.1220481728
H  H269  1  0.92430000  0.79589000  0.72820000  1.0 0.1220481728
H  H270  1  0.85369000  0.79878000  0.72828000  1.0 0.1290212572
H  H271  1  0.85938000  0.76768000  0.83390000  1.0 0.1290212572
H  H272  1  0.92999000  0.76479000  0.83381000  1.0 0.1220481728
C  C1  1  0.27070000  0.96560000  0.76800000  1.0 0.5511657729
C  C2  1  0.29800000  0.96110000  0.79900000  1.0 -0.0798430404
C  C3  1  0.31110000  0.92390000  0.80660000  1.0 -0.0623439555
C  C4  1  0.33770000  0.91950000  0.83740000  1.0 -0.1481484292
C  C5  1  0.35110000  0.95220000  0.86070000  1.0 0.1290212572
C  C6  1  0.33790000  0.98940000  0.85310000  1.0 -0.1481484292
C  C7  1  0.31140000  0.99390000  0.82220000  1.0 -0.070490389
C  C8  1  0.37870000  0.95150000  0.89250000  1.0 -0.1089346234
C  C9  1  0.40110000  0.94820000  0.91890000  1.0 -0.0894461987
C  C10  1  0.42860000  0.94270000  0.95070000  1.0 0.1403786516
C  C11  1  0.45870000  0.91460000  0.94940000  1.0 -0.1895471568
C  C12  1  0.48720000  0.91280000  0.97930000  1.0 0.1403786516
C  C13  1  0.48560000  0.93920000  0.01060000  1.0 -0.1719868247
C  C14  1  0.45550000  0.96730000  0.01180000  1.0 0.1403786516
C  C15  1  0.42700000  0.96900000  0.98190000  1.0 -0.1787730579
C  C16  1  0.51620000  0.88230000  0.97840000  1.0 -0.0798430404
C  C17  1  0.54330000  0.86020000  0.97290000  1.0 -0.1089346234
C  C18  1  0.57180000  0.83110000  0.96870000  1.0 0.1403786516
C  C19  1  0.58090000  0.81690000  0.93310000  1.0 -0.1284990986
C  C20  1  0.61220000  0.79040000  0.92860000  1.0 -0.0894461987
C  C21  1  0.63430000  0.77810000  0.95950000  1.0 -0.0334394284
C  C22  1  0.62510000  0.79240000  0.99510000  1.0 -0.0990852555
C  C23  1  0.59390000  0.81890000  0.99970000  1.0 -0.118888406
C  C24  1  0.66850000  0.75090000  0.95950000  1.0 0.5680587023
C  C25  1  0.45980000  0.99530000  0.04250000  1.0 -0.0894461987
C  C26  1  0.45170000  0.01970000  0.06740000  1.0 -0.1089346234
C  C27  1  0.45200000  0.05070000  0.09640000  1.0 0.1484028772
C  C28  1  0.48670000  0.06410000  0.11810000  1.0 -0.1481484292
C  C29  1  0.48500000  0.09720000  0.14290000  1.0 -0.0798430404
C  C30  1  0.44860000  0.11710000  0.14600000  1.0 -0.0798430404
C  C31  1  0.41400000  0.10370000  0.12430000  1.0 -0.0894461987
C  C32  1  0.41570000  0.07050000  0.09950000  1.0 -0.1399435177
C  C33  1  0.45160000  0.15460000  0.16560000  1.0 0.5376592829
C  C34  1  0.27720000  0.43430000  0.76440000  1.0 0.562412317
C  C35  1  0.31060000  0.43120000  0.79040000  1.0 -0.0894461987
C  C36  1  0.32330000  0.39490000  0.80100000  1.0 -0.070490389
C  C37  1  0.35410000  0.39280000  0.82900000  1.0 -0.1586446629
C  C38  1  0.37220000  0.42710000  0.84630000  1.0 0.1403786516
C  C39  1  0.35960000  0.46350000  0.83570000  1.0 -0.1481484292
C  C40  1  0.32880000  0.46550000  0.80770000  1.0 -0.0623439555
C  C41  1  0.40290000  0.42850000  0.87740000  1.0 -0.0990852555
C  C42  1  0.42680000  0.43200000  0.90320000  1.0 -0.0990852555
C  C43  1  0.45830000  0.43000000  0.93350000  1.0 0.1484028772
C  C44  1  0.45420000  0.40430000  0.96100000  1.0 -0.1895471568
C  C45  1  0.48280000  0.40520000  0.99120000  1.0 0.1403786516
C  C46  1  0.51530000  0.43180000  0.99390000  1.0 -0.1719868247
C  C47  1  0.51940000  0.45760000  0.96640000  1.0 0.1403786516
C  C48  1  0.49090000  0.45670000  0.93620000  1.0 -0.1787730579
C  C49  1  0.47810000  0.38090000  0.02100000  1.0 -0.0894461987
C  C50  1  0.47300000  0.36320000  0.04690000  1.0 -0.1089346234
C  C51  1  0.46870000  0.33550000  0.07470000  1.0 0.1484028772
C  C52  1  0.42960000  0.32360000  0.08150000  1.0 -0.1399435177
C  C53  1  0.42360000  0.30010000  0.11050000  1.0 -0.0798430404
C  C54  1  0.45670000  0.28850000  0.13250000  1.0 -0.0623439555
C  C55  1  0.49590000  0.30040000  0.12570000  1.0 -0.0798430404
C  C56  1  0.50180000  0.32390000  0.09680000  1.0 -0.1399435177
C  C57  1  0.45250000  0.26340000  0.16200000  1.0 0.5784700684
C  C58  1  0.55100000  0.48670000  0.96860000  1.0 -0.0894461987
C  C59  1  0.57480000  0.51370000  0.97120000  1.0 -0.1089346234
C  C60  1  0.60270000  0.54500000  0.96570000  1.0 0.1403786516
C  C61  1  0.62530000  0.55940000  0.99800000  1.0 -0.1399435177
C  C62  1  0.65310000  0.59020000  0.99680000  1.0 -0.070490389
C  C63  1  0.65840000  0.60660000  0.96350000  1.0 -0.070490389
C  C64  1  0.63580000  0.59220000  0.93120000  1.0 -0.0798430404
C  C65  1  0.60800000  0.56140000  0.93240000  1.0 -0.1481484292
C  C66  1  0.68190000  0.64120000  0.95920000  1.0 0.562412317
C  C67  1  0.26420000  0.44250000  0.66350000  1.0 0.562412317
C  C68  1  0.28740000  0.44970000  0.63280000  1.0 -0.0623439555
C  C69  1  0.29960000  0.48690000  0.62430000  1.0 -0.0798430404
C  C70  1  0.32440000  0.49090000  0.59510000  1.0 -0.1284990986
C  C71  1  0.33690000  0.45770000  0.57440000  1.0 0.1484028772
C  C72  1  0.32470000  0.42050000  0.58290000  1.0 -0.1399435177
C  C73  1  0.29990000  0.41650000  0.61210000  1.0 -0.0798430404
C  C74  1  0.36190000  0.46430000  0.54520000  1.0 -0.118888406
C  C75  1  0.38300000  0.47030000  0.52010000  1.0 -0.0894461987
C  C76  1  0.40790000  0.47780000  0.48990000  1.0 0.1484028772
C  C77  1  0.43410000  0.51030000  0.49220000  1.0 -0.1787730579
C  C78  1  0.46050000  0.51490000  0.46440000  1.0 0.1403786516
C  C79  1  0.46060000  0.48690000  0.43420000  1.0 -0.1787730579
C  C80  1  0.43440000  0.45440000  0.43190000  1.0 0.1403786516
C  C81  1  0.40800000  0.44990000  0.45970000  1.0 -0.1895471568
C  C82  1  0.48800000  0.54790000  0.46750000  1.0 -0.0894461987
C  C83  1  0.51120000  0.57450000  0.46750000  1.0 -0.1089346234
C  C84  1  0.54030000  0.60520000  0.46650000  1.0 0.1290212572
C  C85  1  0.55700000  0.62740000  0.49790000  1.0 -0.1399435177
C  C86  1  0.58870000  0.65400000  0.49480000  1.0 -0.0798430404
C  C87  1  0.60380000  0.65830000  0.46030000  1.0 -0.050184694
C  C88  1  0.58710000  0.63600000  0.42890000  1.0 -0.0894461987
C  C89  1  0.55540000  0.60950000  0.43200000  1.0 -0.1399435177
C  C90  1  0.63970000  0.68320000  0.45790000  1.0 0.5784700684
C  C91  1  0.43500000  0.42460000  0.40130000  1.0 -0.0798430404
C  C92  1  0.43650000  0.39980000  0.37680000  1.0 -0.1284990986
C  C93  1  0.44220000  0.37150000  0.34740000  1.0 0.1403786516
C  C94  1  0.40470000  0.35640000  0.33250000  1.0 -0.1586446629
C  C95  1  0.40280000  0.32620000  0.30420000  1.0 -0.0623439555
C  C96  1  0.43840000  0.31110000  0.29070000  1.0 -0.0894461987
C  C97  1  0.47590000  0.32620000  0.30560000  1.0 -0.070490389
C  C98  1  0.47790000  0.35640000  0.33390000  1.0 -0.1399435177
C  C99  1  0.44060000  0.27590000  0.26820000  1.0 0.5511657729
C  C100  1  0.16120000  0.97310000  0.75820000  1.0 0.5511657729
C  C101  1  0.12820000  0.97200000  0.78170000  1.0 -0.070490389
C  C102  1  0.11660000  0.00800000  0.79800000  1.0 -0.0894461987
C  C103  1  0.08700000  0.00950000  0.82370000  1.0 -0.1399435177
C  C104  1  0.06900000  0.97490000  0.83310000  1.0 0.1484028772
C  C105  1  0.08060000  0.93880000  0.81680000  1.0 -0.1481484292
C  C106  1  0.11020000  0.93740000  0.79110000  1.0 -0.0798430404
C  C107  1  0.03860000  0.98030000  0.86050000  1.0 -0.0990852555
C  C108  1  0.01360000  0.98400000  0.88170000  1.0 -0.0894461987
C  C109  1  0.98450000  0.98700000  0.90890000  1.0 0.1290212572
C  C110  1  0.98350000  0.01670000  0.93750000  1.0 -0.1719868247
C  C111  1  0.95550000  0.01450000  0.96440000  1.0 0.1403786516
C  C112  1  0.92840000  0.98270000  0.96270000  1.0 -0.1719868247
C  C113  1  0.92940000  0.95300000  0.93400000  1.0 0.1290212572
C  C114  1  0.95750000  0.95520000  0.90720000  1.0 -0.1787730579
C  C115  1  0.96020000  0.04390000  0.99410000  1.0 -0.0990852555
C  C116  1  0.95630000  0.06760000  0.01990000  1.0 -0.0990852555
C  C117  1  0.95680000  0.09520000  0.05140000  1.0 0.1484028772
C  C118  1  0.99230000  0.11580000  0.06460000  1.0 -0.1399435177
C  C119  1  0.99310000  0.13980000  0.09760000  1.0 -0.0894461987
C  C120  1  0.95840000  0.14310000  0.11750000  1.0 -0.0623439555
C  C121  1  0.92300000  0.12250000  0.10440000  1.0 -0.0894461987
C  C122  1  0.92220000  0.09850000  0.07140000  1.0 -0.1399435177
C  C123  1  0.96310000  0.16020000  0.15500000  1.0 0.562412317
C  C124  1  0.90420000  0.92040000  0.93790000  1.0 -0.0990852555
C  C125  1  0.88170000  0.89290000  0.93470000  1.0 -0.0990852555
C  C126  1  0.85480000  0.85910000  0.93590000  1.0 0.1403786516
C  C127  1  0.84160000  0.83390000  0.90520000  1.0 -0.1586446629
C  C128  1  0.81690000  0.80150000  0.90970000  1.0 -0.0894461987
C  C129  1  0.80540000  0.79430000  0.94490000  1.0 -0.0418733863
C  C130  1  0.81870000  0.81950000  0.97560000  1.0 -0.0798430404
C  C131  1  0.84340000  0.85190000  0.97110000  1.0 -0.1399435177
C  C132  1  0.77990000  0.75960000  0.94770000  1.0 0.5784700684
C  C133  1  0.95080000  0.26550000  0.27060000  1.0 0.5348812296
C  C134  1  0.94480000  0.29170000  0.30130000  1.0 -0.0990852555
C  C135  1  0.98200000  0.30500000  0.31850000  1.0 -0.0798430404
C  C136  1  0.98330000  0.33310000  0.34870000  1.0 -0.1481484292
C  C137  1  0.94730000  0.34800000  0.36160000  1.0 0.1484028772
C  C138  1  0.91010000  0.33470000  0.34440000  1.0 -0.1399435177
C  C139  1  0.90880000  0.30660000  0.31420000  1.0 -0.0623439555
C  C140  1  0.94580000  0.37600000  0.39360000  1.0 -0.118888406
C  C141  1  0.93940000  0.40100000  0.41900000  1.0 -0.0990852555
C  C142  1  0.93990000  0.42960000  0.44970000  1.0 0.1484028772
C  C143  1  0.91150000  0.45930000  0.44800000  1.0 -0.1719868247
C  C144  1  0.91030000  0.48810000  0.47740000  1.0 0.1484028772
C  C145  1  0.93730000  0.48720000  0.50850000  1.0 -0.1719868247
C  C146  1  0.96570000  0.45750000  0.51020000  1.0 0.1290212572
C  C147  1  0.96690000  0.42870000  0.48080000  1.0 -0.1787730579
C  C148  1  0.88310000  0.51980000  0.47130000  1.0 -0.0894461987
C  C149  1  0.86010000  0.54820000  0.46870000  1.0 -0.118888406
C  C150  1  0.83120000  0.57790000  0.46370000  1.0 0.1577894195
C  C151  1  0.81670000  0.58800000  0.42880000  1.0 -0.1284990986
C  C152  1  0.79020000  0.61910000  0.42570000  1.0 -0.0798430404
C  C153  1  0.77820000  0.64010000  0.45760000  1.0 -0.0418733863
C  C154  1  0.79280000  0.63000000  0.49250000  1.0 -0.0894461987
C  C155  1  0.81920000  0.59890000  0.49560000  1.0 -0.1284990986
C  C156  1  0.75180000  0.67380000  0.45430000  1.0 0.562412317
C  C157  1  0.99170000  0.45630000  0.54280000  1.0 -0.0798430404
C  C158  1  0.01700000  0.45540000  0.56750000  1.0 -0.1089346234
C  C159  1  0.04760000  0.45290000  0.59620000  1.0 0.1403786516
C  C160  1  0.06420000  0.48460000  0.61920000  1.0 -0.1481484292
C  C161  1  0.09660000  0.47900000  0.64460000  1.0 -0.0798430404
C  C162  1  0.11260000  0.44180000  0.64720000  1.0 -0.070490389
C  C163  1  0.09600000  0.41010000  0.62420000  1.0 -0.0798430404
C  C164  1  0.06360000  0.41570000  0.59870000  1.0 -0.1399435177
C  C165  1  0.14820000  0.44310000  0.67180000  1.0 0.5511657729
C  C166  1  0.79070000  0.65260000  0.95750000  1.0 0.5680587023
C  C167  1  0.82200000  0.62370000  0.95840000  1.0 -0.0623439555
C  C168  1  0.83300000  0.60340000  0.92580000  1.0 -0.070490389
C  C169  1  0.86240000  0.57470000  0.92740000  1.0 -0.1399435177
C  C170  1  0.88070000  0.56620000  0.96150000  1.0 0.1403786516
C  C171  1  0.86970000  0.58650000  0.99410000  1.0 -0.1481484292
C  C172  1  0.84030000  0.61530000  0.99260000  1.0 -0.070490389
C  C173  1  0.90730000  0.53300000  0.95960000  1.0 -0.118888406
C  C174  1  0.93150000  0.50840000  0.96670000  1.0 -0.0798430404
C  C175  1  0.95920000  0.47770000  0.96900000  1.0 0.1403786516
C  C176  1  0.98750000  0.47140000  0.94240000  1.0 -0.1787730579
C  C177  1  0.01210000  0.43870000  0.94280000  1.0 0.1484028772
C  C178  1  0.00840000  0.41220000  0.96970000  1.0 -0.1895471568
C  C179  1  0.98010000  0.41850000  0.99630000  1.0 0.1484028772
C  C180  1  0.95550000  0.45130000  0.99600000  1.0 -0.1719868247
C  C181  1  0.04030000  0.43110000  0.91400000  1.0 -0.0894461987
C  C182  1  0.06450000  0.43010000  0.89070000  1.0 -0.1089346234
C  C183  1  0.09130000  0.43210000  0.86220000  1.0 0.1290212572
C  C184  1  0.10240000  0.39620000  0.84520000  1.0 -0.1399435177
C  C185  1  0.12740000  0.39530000  0.81570000  1.0 -0.0894461987
C  C186  1  0.14120000  0.43020000  0.80310000  1.0 -0.02326171
C  C187  1  0.13000000  0.46600000  0.82010000  1.0 -0.118888406
C  C188  1  0.10510000  0.46700000  0.84970000  1.0 -0.1284990986
C  C189  1  0.16370000  0.43720000  0.77020000  1.0 0.562412317
C  C190  1  0.97920000  0.39510000  0.02800000  1.0 -0.0894461987
C  C191  1  0.97540000  0.37050000  0.04890000  1.0 -0.0990852555
C  C192  1  0.96950000  0.34880000  0.07890000  1.0 0.1290212572
C  C193  1  0.93090000  0.33650000  0.08710000  1.0 -0.1284990986
C  C194  1  0.92650000  0.31190000  0.11540000  1.0 -0.070490389
C  C195  1  0.96070000  0.29950000  0.13560000  1.0 -0.0798430404
C  C196  1  0.99930000  0.31170000  0.12740000  1.0 -0.0798430404
C  C197  1  0.00360000  0.33640000  0.09910000  1.0 -0.1399435177
C  C198  1  0.95680000  0.27420000  0.16460000  1.0 0.562412317
C  C199  1  0.65000000  0.79100000  0.45110000  1.0 0.5680587023
C  C200  1  0.62380000  0.82410000  0.44970000  1.0 -0.0623439555
C  C201  1  0.61460000  0.84250000  0.48380000  1.0 -0.070490389
C  C202  1  0.58600000  0.87200000  0.48510000  1.0 -0.1481484292
C  C203  1  0.56650000  0.88310000  0.45230000  1.0 0.1403786516
C  C204  1  0.57570000  0.86470000  0.41830000  1.0 -0.1481484292
C  C205  1  0.60440000  0.83520000  0.41700000  1.0 -0.0798430404
C  C206  1  0.53510000  0.90990000  0.44950000  1.0 -0.1089346234
C  C207  1  0.51170000  0.93690000  0.45550000  1.0 -0.0798430404
C  C208  1  0.48040000  0.96460000  0.45670000  1.0 0.1403786516
C  C209  1  0.45550000  0.96390000  0.48630000  1.0 -0.1719868247
C  C210  1  0.42560000  0.99190000  0.49080000  1.0 0.1484028772
C  C211  1  0.42060000  0.02060000  0.46570000  1.0 -0.1895471568
C  C212  1  0.44540000  0.02120000  0.43610000  1.0 0.1484028772
C  C213  1  0.47530000  0.99320000  0.43160000  1.0 -0.1787730579
C  C214  1  0.40010000  0.98950000  0.52240000  1.0 -0.0798430404
C  C215  1  0.38090000  0.98770000  0.54970000  1.0 -0.118888406
C  C216  1  0.35520000  0.97870000  0.57830000  1.0 0.1577894195
C  C217  1  0.34070000  0.94380000  0.59040000  1.0 -0.1399435177
C  C218  1  0.31510000  0.94480000  0.61950000  1.0 -0.0990852555
C  C219  1  0.30400000  0.98070000  0.63650000  1.0 -0.070490389
C  C220  1  0.31850000  0.01550000  0.62440000  1.0 -0.0798430404
C  C221  1  0.34410000  0.01460000  0.59530000  1.0 -0.1787730579
C  C222  1  0.27690000  0.97550000  0.66530000  1.0 0.562412317
C  C223  1  0.43870000  0.04890000  0.40900000  1.0 -0.0990852555
C  C224  1  0.43690000  0.07200000  0.38410000  1.0 -0.1089346234
C  C225  1  0.43800000  0.09810000  0.35490000  1.0 0.1403786516
C  C226  1  0.40240000  0.11090000  0.33730000  1.0 -0.1481484292
C  C227  1  0.40430000  0.13790000  0.31060000  1.0 -0.0798430404
C  C228  1  0.44180000  0.15200000  0.30140000  1.0 -0.070490389
C  C229  1  0.47740000  0.13910000  0.31900000  1.0 -0.070490389
C  C230  1  0.47550000  0.11220000  0.34570000  1.0 -0.1399435177
C  C231  1  0.44450000  0.17260000  0.26910000  1.0 0.5511657729
C  C232  1  0.76230000  0.78020000  0.44610000  1.0 0.5680587023
C  C233  1  0.79830000  0.80310000  0.44310000  1.0 -0.070490389
C  C234  1  0.82430000  0.81830000  0.47290000  1.0 -0.0623439555
C  C235  1  0.85570000  0.84420000  0.46710000  1.0 -0.1481484292
C  C236  1  0.86110000  0.85500000  0.43140000  1.0 0.1484028772
C  C237  1  0.83520000  0.83980000  0.40160000  1.0 -0.1586446629
C  C238  1  0.80380000  0.81390000  0.40750000  1.0 -0.0798430404
C  C239  1  0.89690000  0.88050000  0.43090000  1.0 -0.1089346234
C  C240  1  0.92260000  0.90530000  0.43060000  1.0 -0.0894461987
C  C241  1  0.95710000  0.93230000  0.43120000  1.0 0.1484028772
C  C242  1  0.98860000  0.93480000  0.45890000  1.0 -0.1895471568
C  C243  1  0.01950000  0.96300000  0.45850000  1.0 0.1290212572
C  C244  1  0.01880000  0.98850000  0.43040000  1.0 -0.1895471568
C  C245  1  0.98730000  0.98600000  0.40270000  1.0 0.1290212572
C  C246  1  0.95640000  0.95790000  0.40310000  1.0 -0.1787730579
C  C247  1  0.05030000  0.96860000  0.48960000  1.0 -0.0798430404
C  C248  1  0.07290000  0.96870000  0.51470000  1.0 -0.0894461987
C  C249  1  0.10060000  0.96730000  0.54650000  1.0 0.1290212572
C  C250  1  0.09980000  0.93600000  0.56880000  1.0 -0.1399435177
C  C251  1  0.12180000  0.93840000  0.60310000  1.0 -0.0990852555
C  C252  1  0.14460000  0.97210000  0.61520000  1.0 -0.0418733863
C  C253  1  0.14540000  0.00350000  0.59290000  1.0 -0.0990852555
C  C254  1  0.12340000  0.00100000  0.55860000  1.0 -0.1399435177
C  C255  1  0.16880000  0.97230000  0.65090000  1.0 0.5784700684
C  C256  1  0.98240000  0.01380000  0.37420000  1.0 -0.0798430404
C  C257  1  0.97950000  0.04010000  0.35640000  1.0 -0.1089346234
C  C258  1  0.97700000  0.06840000  0.32910000  1.0 0.1403786516
C  C259  1  0.01060000  0.08850000  0.31830000  1.0 -0.1399435177
C  C260  1  0.00530000  0.11750000  0.29350000  1.0 -0.0894461987
C  C261  1  0.96650000  0.12630000  0.27970000  1.0 -0.0623439555
C  C262  1  0.93280000  0.10620000  0.29050000  1.0 -0.0798430404
C  C263  1  0.93810000  0.07730000  0.31520000  1.0 -0.1399435177
C  C264  1  0.96200000  0.15620000  0.25400000  1.0 0.5784700684
C  C265  1  0.20710000  0.09530000  0.74900000  1.0 0.0895848813
C  C266  1  0.20270000  0.13550000  0.74750000  1.0 -0.2083542746
C  C267  1  0.21200000  0.15330000  0.71580000  1.0 0.1942281603
C  C268  1  0.22590000  0.13080000  0.68550000  1.0 -0.2016158348
C  C269  1  0.23030000  0.09050000  0.68700000  1.0 0.0895848813
C  C270  1  0.20120000  0.31810000  0.73080000  1.0 0.0895848813
C  C271  1  0.20130000  0.27730000  0.72850000  1.0 -0.1895471568
C  C272  1  0.21470000  0.25650000  0.69700000  1.0 0.2091973639
C  C273  1  0.22790000  0.27650000  0.66790000  1.0 -0.2083542746
C  C274  1  0.22780000  0.31730000  0.67030000  1.0 0.1005613982
C  C275  1  0.31790000  0.20600000  0.22850000  1.0 0.0895848813
C  C276  1  0.27570000  0.20510000  0.22570000  1.0 -0.2016158348
C  C277  1  0.25460000  0.21640000  0.19370000  1.0 0.2091973639
C  C278  1  0.27590000  0.22850000  0.16460000  1.0 -0.2083542746
C  C279  1  0.31820000  0.22930000  0.16740000  1.0 0.1005613982
C  C280  1  0.08880000  0.20980000  0.25050000  1.0 0.0895848813
C  C281  1  0.13090000  0.20810000  0.25040000  1.0 -0.2016158348
C  C282  1  0.15030000  0.21650000  0.21890000  1.0 0.2023495837
C  C283  1  0.12750000  0.22660000  0.18740000  1.0 -0.2083542746
C  C284  1  0.08540000  0.22840000  0.18750000  1.0 0.0895848813
C  C285  1  0.72930000  0.03440000  0.23200000  1.0 0.5511657729
C  C286  1  0.70200000  0.03890000  0.20100000  1.0 -0.0798430404
C  C287  1  0.68890000  0.07610000  0.19340000  1.0 -0.070490389
C  C288  1  0.66230000  0.08050000  0.16260000  1.0 -0.1481484292
C  C289  1  0.64890000  0.04780000  0.13930000  1.0 0.1290212572
C  C290  1  0.66210000  0.01060000  0.14690000  1.0 -0.1481484292
C  C291  1  0.68860000  0.00610000  0.17780000  1.0 -0.070490389
C  C292  1  0.62130000  0.04850000  0.10750000  1.0 -0.1089346234
C  C293  1  0.59890000  0.05180000  0.08110000  1.0 -0.0894461987
C  C294  1  0.57140000  0.05730000  0.04930000  1.0 0.1403786516
C  C295  1  0.54130000  0.08540000  0.05060000  1.0 -0.1895471568
C  C296  1  0.51280000  0.08720000  0.02070000  1.0 0.1403786516
C  C297  1  0.51440000  0.06080000  0.98940000  1.0 -0.1719868247
C  C298  1  0.54450000  0.03270000  0.98820000  1.0 0.1403786516
C  C299  1  0.57300000  0.03100000  0.01810000  1.0 -0.1787730579
C  C300  1  0.48380000  0.11770000  0.02160000  1.0 -0.0798430404
C  C301  1  0.45670000  0.13980000  0.02710000  1.0 -0.1089346234
C  C302  1  0.42820000  0.16890000  0.03130000  1.0 0.1403786516
C  C303  1  0.41910000  0.18310000  0.06690000  1.0 -0.1284990986
C  C304  1  0.38780000  0.20960000  0.07140000  1.0 -0.0894461987
C  C305  1  0.36570000  0.22190000  0.04050000  1.0 -0.0334394284
C  C306  1  0.37490000  0.20760000  0.00490000  1.0 -0.0990852555
C  C307  1  0.40610000  0.18110000  0.00030000  1.0 -0.118888406
C  C308  1  0.33150000  0.24910000  0.04050000  1.0 0.5680587023
C  C309  1  0.54020000  0.00470000  0.95750000  1.0 -0.0894461987
C  C310  1  0.54830000  0.98030000  0.93260000  1.0 -0.1089346234
C  C311  1  0.54800000  0.94930000  0.90360000  1.0 0.1484028772
C  C312  1  0.51330000  0.93590000  0.88190000  1.0 -0.1481484292
C  C313  1  0.51500000  0.90280000  0.85710000  1.0 -0.0798430404
C  C314  1  0.55140000  0.88290000  0.85400000  1.0 -0.0798430404
C  C315  1  0.58600000  0.89630000  0.87570000  1.0 -0.0798430404
C  C316  1  0.58430000  0.92950000  0.90050000  1.0 -0.1399435177
C  C317  1  0.54840000  0.84540000  0.83440000  1.0 0.5376592829
C  C318  1  0.72280000  0.56570000  0.23560000  1.0 0.562412317
C  C319  1  0.68940000  0.56880000  0.20960000  1.0 -0.0798430404
C  C320  1  0.67670000  0.60510000  0.19900000  1.0 -0.070490389
C  C321  1  0.64590000  0.60720000  0.17100000  1.0 -0.1586446629
C  C322  1  0.62780000  0.57290000  0.15370000  1.0 0.1403786516
C  C323  1  0.64040000  0.53650000  0.16430000  1.0 -0.1481484292
C  C324  1  0.67120000  0.53450000  0.19230000  1.0 -0.0623439555
C  C325  1  0.59710000  0.57150000  0.12260000  1.0 -0.0990852555
C  C326  1  0.57320000  0.56800000  0.09680000  1.0 -0.0990852555
C  C327  1  0.54170000  0.57000000  0.06650000  1.0 0.1484028772
C  C328  1  0.54580000  0.59570000  0.03900000  1.0 -0.1895471568
C  C329  1  0.51720000  0.59480000  0.00880000  1.0 0.1403786516
C  C330  1  0.48470000  0.56820000  0.00610000  1.0 -0.1719868247
C  C331  1  0.48060000  0.54240000  0.03360000  1.0 0.1403786516
C  C332  1  0.50910000  0.54330000  0.06380000  1.0 -0.1787730579
C  C333  1  0.52190000  0.61910000  0.97900000  1.0 -0.0894461987
C  C334  1  0.52700000  0.63680000  0.95310000  1.0 -0.1089346234
C  C335  1  0.53130000  0.66450000  0.92530000  1.0 0.1484028772
C  C336  1  0.57040000  0.67640000  0.91850000  1.0 -0.1399435177
C  C337  1  0.57640000  0.69990000  0.88950000  1.0 -0.0798430404
C  C338  1  0.54330000  0.71150000  0.86750000  1.0 -0.0623439555
C  C339  1  0.50410000  0.69960000  0.87430000  1.0 -0.0798430404
C  C340  1  0.49820000  0.67610000  0.90320000  1.0 -0.1399435177
C  C341  1  0.54750000  0.73660000  0.83800000  1.0 0.5784700684
C  C342  1  0.44900000  0.51330000  0.03140000  1.0 -0.0894461987
C  C343  1  0.42520000  0.48630000  0.02880000  1.0 -0.1089346234
C  C344  1  0.39730000  0.45500000  0.03430000  1.0 0.1484028772
C  C345  1  0.37470000  0.44060000  0.00200000  1.0 -0.1399435177
C  C346  1  0.34690000  0.40980000  0.00320000  1.0 -0.070490389
C  C347  1  0.34160000  0.39340000  0.03650000  1.0 -0.070490389
C  C348  1  0.36420000  0.40780000  0.06880000  1.0 -0.0798430404
C  C349  1  0.39200000  0.43860000  0.06760000  1.0 -0.1481484292
C  C350  1  0.31810000  0.35880000  0.04080000  1.0 0.562412317
C  C351  1  0.73580000  0.55750000  0.33650000  1.0 0.562412317
C  C352  1  0.71260000  0.55030000  0.36720000  1.0 -0.0623439555
C  C353  1  0.70040000  0.51310000  0.37570000  1.0 -0.0798430404
C  C354  1  0.67560000  0.50910000  0.40490000  1.0 -0.1284990986
C  C355  1  0.66310000  0.54230000  0.42560000  1.0 0.1484028772
C  C356  1  0.67530000  0.57950000  0.41710000  1.0 -0.1399435177
C  C357  1  0.70010000  0.58350000  0.38790000  1.0 -0.0798430404
C  C358  1  0.63810000  0.53570000  0.45480000  1.0 -0.118888406
C  C359  1  0.61700000  0.52970000  0.47990000  1.0 -0.0894461987
C  C360  1  0.59210000  0.52220000  0.51010000  1.0 0.1484028772
C  C361  1  0.56590000  0.48970000  0.50780000  1.0 -0.1787730579
C  C362  1  0.53950000  0.48510000  0.53560000  1.0 0.1403786516
C  C363  1  0.53940000  0.51310000  0.56580000  1.0 -0.1787730579
C  C364  1  0.56560000  0.54560000  0.56810000  1.0 0.1403786516
C  C365  1  0.59200000  0.55010000  0.54030000  1.0 -0.1787730579
C  C366  1  0.51200000  0.45210000  0.53250000  1.0 -0.0798430404
C  C367  1  0.48880000  0.42550000  0.53250000  1.0 -0.1089346234
C  C368  1  0.45970000  0.39480000  0.53350000  1.0 0.1290212572
C  C369  1  0.44300000  0.37260000  0.50210000  1.0 -0.1399435177
C  C370  1  0.41130000  0.34600000  0.50520000  1.0 -0.0798430404
C  C371  1  0.39620000  0.34170000  0.53970000  1.0 -0.050184694
C  C372  1  0.41290000  0.36400000  0.57110000  1.0 -0.0894461987
C  C373  1  0.44460000  0.39050000  0.56800000  1.0 -0.1399435177
C  C374  1  0.36030000  0.31680000  0.54210000  1.0 0.5784700684
C  C375  1  0.56500000  0.57540000  0.59870000  1.0 -0.0798430404
C  C376  1  0.56350000  0.60020000  0.62320000  1.0 -0.1284990986
C  C377  1  0.55780000  0.62850000  0.65260000  1.0 0.1403786516
C  C378  1  0.59530000  0.64360000  0.66750000  1.0 -0.1586446629
C  C379  1  0.59720000  0.67380000  0.69580000  1.0 -0.0623439555
C  C380  1  0.56160000  0.68890000  0.70930000  1.0 -0.0894461987
C  C381  1  0.52410000  0.67380000  0.69440000  1.0 -0.070490389
C  C382  1  0.52210000  0.64360000  0.66610000  1.0 -0.1399435177
C  C383  1  0.55940000  0.72410000  0.73180000  1.0 0.5511657729
C  C384  1  0.83880000  0.02690000  0.24180000  1.0 0.5511657729
C  C385  1  0.87180000  0.02800000  0.21830000  1.0 -0.070490389
C  C386  1  0.88340000  0.99200000  0.20200000  1.0 -0.0894461987
C  C387  1  0.91300000  0.99050000  0.17630000  1.0 -0.1399435177
C  C388  1  0.93100000  0.02510000  0.16690000  1.0 0.1484028772
C  C389  1  0.91940000  0.06120000  0.18320000  1.0 -0.1481484292
C  C390  1  0.88980000  0.06260000  0.20890000  1.0 -0.0798430404
C  C391  1  0.96140000  0.01970000  0.13950000  1.0 -0.0990852555
C  C392  1  0.98640000  0.01600000  0.11830000  1.0 -0.0894461987
C  C393  1  0.01550000  0.01300000  0.09110000  1.0 0.1290212572
C  C394  1  0.01650000  0.98330000  0.06250000  1.0 -0.1719868247
C  C395  1  0.04450000  0.98550000  0.03560000  1.0 0.1403786516
C  C396  1  0.07160000  0.01730000  0.03730000  1.0 -0.1719868247
C  C397  1  0.07060000  0.04700000  0.06600000  1.0 0.1290212572
C  C398  1  0.04250000  0.04480000  0.09280000  1.0 -0.1787730579
C  C399  1  0.03980000  0.95610000  0.00590000  1.0 -0.0990852555
C  C400  1  0.04370000  0.93240000  0.98010000  1.0 -0.0990852555
C  C401  1  0.04320000  0.90480000  0.94860000  1.0 0.1484028772
C  C402  1  0.00770000  0.88420000  0.93540000  1.0 -0.1399435177
C  C403  1  0.00690000  0.86020000  0.90240000  1.0 -0.0894461987
C  C404  1  0.04160000  0.85690000  0.88250000  1.0 -0.0623439555
C  C405  1  0.07700000  0.87750000  0.89560000  1.0 -0.0894461987
C  C406  1  0.07780000  0.90150000  0.92860000  1.0 -0.1399435177
C  C407  1  0.03690000  0.83980000  0.84500000  1.0 0.562412317
C  C408  1  0.09580000  0.07960000  0.06210000  1.0 -0.0990852555
C  C409  1  0.11830000  0.10710000  0.06530000  1.0 -0.0990852555
C  C410  1  0.14520000  0.14090000  0.06410000  1.0 0.1403786516
C  C411  1  0.15840000  0.16610000  0.09480000  1.0 -0.1586446629
C  C412  1  0.18310000  0.19850000  0.09030000  1.0 -0.0894461987
C  C413  1  0.19460000  0.20570000  0.05510000  1.0 -0.0418733863
C  C414  1  0.18130000  0.18050000  0.02440000  1.0 -0.0798430404
C  C415  1  0.15660000  0.14810000  0.02890000  1.0 -0.1399435177
C  C416  1  0.22010000  0.24040000  0.05230000  1.0 0.5784700684
C  C417  1  0.04920000  0.73450000  0.72940000  1.0 0.5348812296
C  C418  1  0.05520000  0.70830000  0.69870000  1.0 -0.0990852555
C  C419  1  0.01800000  0.69500000  0.68150000  1.0 -0.0798430404
C  C420  1  0.01670000  0.66690000  0.65130000  1.0 -0.1481484292
C  C421  1  0.05270000  0.65200000  0.63840000  1.0 0.1484028772
C  C422  1  0.08990000  0.66530000  0.65560000  1.0 -0.1481484292
C  C423  1  0.09120000  0.69340000  0.68580000  1.0 -0.0623439555
C  C424  1  0.05420000  0.62400000  0.60640000  1.0 -0.118888406
C  C425  1  0.06060000  0.59900000  0.58100000  1.0 -0.0990852555
C  C426  1  0.06010000  0.57040000  0.55030000  1.0 0.1484028772
C  C427  1  0.08850000  0.54070000  0.55200000  1.0 -0.1719868247
C  C428  1  0.08970000  0.51190000  0.52260000  1.0 0.1484028772
C  C429  1  0.06270000  0.51280000  0.49150000  1.0 -0.1719868247
C  C430  1  0.03430000  0.54250000  0.48980000  1.0 0.1290212572
C  C431  1  0.03310000  0.57130000  0.51920000  1.0 -0.1787730579
C  C432  1  0.11690000  0.48020000  0.52870000  1.0 -0.0894461987
C  C433  1  0.13990000  0.45180000  0.53130000  1.0 -0.118888406
C  C434  1  0.16880000  0.42210000  0.53630000  1.0 0.1577894195
C  C435  1  0.18330000  0.41200000  0.57120000  1.0 -0.1284990986
C  C436  1  0.20980000  0.38090000  0.57430000  1.0 -0.0798430404
C  C437  1  0.22180000  0.35990000  0.54240000  1.0 -0.0418733863
C  C438  1  0.20720000  0.37000000  0.50750000  1.0 -0.0894461987
C  C439  1  0.18080000  0.40110000  0.50440000  1.0 -0.118888406
C  C440  1  0.24820000  0.32620000  0.54570000  1.0 0.5680587023
C  C441  1  0.00830000  0.54370000  0.45720000  1.0 -0.0798430404
C  C442  1  0.98300000  0.54460000  0.43250000  1.0 -0.1089346234
C  C443  1  0.95240000  0.54710000  0.40380000  1.0 0.1403786516
C  C444  1  0.93580000  0.51540000  0.38080000  1.0 -0.1481484292
C  C445  1  0.90340000  0.52100000  0.35540000  1.0 -0.0798430404
C  C446  1  0.88740000  0.55820000  0.35280000  1.0 -0.070490389
C  C447  1  0.90400000  0.58990000  0.37580000  1.0 -0.0798430404
C  C448  1  0.93640000  0.58430000  0.40130000  1.0 -0.1399435177
C  C449  1  0.85180000  0.55690000  0.32820000  1.0 0.5511657729
C  C450  1  0.20930000  0.34740000  0.04250000  1.0 0.5680587023
C  C451  1  0.17800000  0.37630000  0.04160000  1.0 -0.0623439555
C  C452  1  0.16700000  0.39660000  0.07420000  1.0 -0.070490389
C  C453  1  0.13760000  0.42530000  0.07260000  1.0 -0.1399435177
C  C454  1  0.11930000  0.43380000  0.03850000  1.0 0.1403786516
C  C455  1  0.13030000  0.41350000  0.00590000  1.0 -0.1481484292
C  C456  1  0.15970000  0.38470000  0.00740000  1.0 -0.070490389
C  C457  1  0.09270000  0.46700000  0.04040000  1.0 -0.118888406
C  C458  1  0.06850000  0.49160000  0.03330000  1.0 -0.0798430404
C  C459  1  0.04080000  0.52230000  0.03100000  1.0 0.1403786516
C  C460  1  0.01250000  0.52860000  0.05760000  1.0 -0.1787730579
C  C461  1  0.98790000  0.56130000  0.05720000  1.0 0.1484028772
C  C462  1  0.99160000  0.58780000  0.03030000  1.0 -0.1895471568
C  C463  1  0.01990000  0.58150000  0.00370000  1.0 0.1484028772
C  C464  1  0.04450000  0.54870000  0.00400000  1.0 -0.1719868247
C  C465  1  0.95970000  0.56890000  0.08600000  1.0 -0.0894461987
C  C466  1  0.93550000  0.56990000  0.10930000  1.0 -0.1089346234
C  C467  1  0.90870000  0.56790000  0.13780000  1.0 0.1290212572
C  C468  1  0.89760000  0.60380000  0.15480000  1.0 -0.1399435177
C  C469  1  0.87260000  0.60470000  0.18430000  1.0 -0.0894461987
C  C470  1  0.85880000  0.56980000  0.19690000  1.0 -0.02326171
C  C471  1  0.87000000  0.53400000  0.17990000  1.0 -0.118888406
C  C472  1  0.89490000  0.53300000  0.15030000  1.0 -0.1284990986
C  C473  1  0.83630000  0.56280000  0.22980000  1.0 0.562412317
C  C474  1  0.02080000  0.60490000  0.97200000  1.0 -0.0798430404
C  C475  1  0.02460000  0.62950000  0.95110000  1.0 -0.0990852555
C  C476  1  0.03050000  0.65120000  0.92110000  1.0 0.1290212572
C  C477  1  0.06910000  0.66350000  0.91290000  1.0 -0.1284990986
C  C478  1  0.07350000  0.68810000  0.88460000  1.0 -0.070490389
C  C479  1  0.03930000  0.70050000  0.86440000  1.0 -0.0798430404
C  C480  1  0.00070000  0.68830000  0.87260000  1.0 -0.0798430404
C  C481  1  0.99640000  0.66360000  0.90090000  1.0 -0.1399435177
C  C482  1  0.04320000  0.72580000  0.83540000  1.0 0.562412317
C  C483  1  0.35000000  0.20900000  0.54890000  1.0 0.5680587023
C  C484  1  0.37620000  0.17590000  0.55030000  1.0 -0.0623439555
C  C485  1  0.38540000  0.15750000  0.51620000  1.0 -0.070490389
C  C486  1  0.41400000  0.12800000  0.51490000  1.0 -0.1481484292
C  C487  1  0.43350000  0.11690000  0.54770000  1.0 0.1403786516
C  C488  1  0.42430000  0.13530000  0.58170000  1.0 -0.1481484292
C  C489  1  0.39560000  0.16480000  0.58300000  1.0 -0.070490389
C  C490  1  0.46490000  0.09010000  0.55050000  1.0 -0.1089346234
C  C491  1  0.48830000  0.06310000  0.54450000  1.0 -0.0798430404
C  C492  1  0.51960000  0.03540000  0.54330000  1.0 0.1403786516
C  C493  1  0.54450000  0.03610000  0.51370000  1.0 -0.1719868247
C  C494  1  0.57440000  0.00810000  0.50920000  1.0 0.1484028772
C  C495  1  0.57940000  0.97940000  0.53430000  1.0 -0.1895471568
C  C496  1  0.55460000  0.97880000  0.56390000  1.0 0.1484028772
C  C497  1  0.52470000  0.00680000  0.56840000  1.0 -0.1787730579
C  C498  1  0.59990000  0.01050000  0.47760000  1.0 -0.0798430404
C  C499  1  0.61910000  0.01230000  0.45030000  1.0 -0.118888406
C  C500  1  0.64480000  0.02130000  0.42170000  1.0 0.1577894195
C  C501  1  0.65930000  0.05620000  0.40960000  1.0 -0.1399435177
C  C502  1  0.68490000  0.05520000  0.38050000  1.0 -0.0990852555
C  C503  1  0.69600000  0.01930000  0.36350000  1.0 -0.070490389
C  C504  1  0.68150000  0.98450000  0.37560000  1.0 -0.0798430404
C  C505  1  0.65590000  0.98540000  0.40470000  1.0 -0.1787730579
C  C506  1  0.72310000  0.02450000  0.33470000  1.0 0.562412317
C  C507  1  0.56130000  0.95110000  0.59100000  1.0 -0.0990852555
C  C508  1  0.56310000  0.92800000  0.61590000  1.0 -0.1089346234
C  C509  1  0.56200000  0.90190000  0.64510000  1.0 0.1403786516
C  C510  1  0.59760000  0.88910000  0.66270000  1.0 -0.1481484292
C  C511  1  0.59570000  0.86210000  0.68940000  1.0 -0.0798430404
C  C512  1  0.55820000  0.84800000  0.69860000  1.0 -0.070490389
C  C513  1  0.52260000  0.86090000  0.68100000  1.0 -0.070490389
C  C514  1  0.52450000  0.88780000  0.65430000  1.0 -0.1399435177
C  C515  1  0.55550000  0.82740000  0.73090000  1.0 0.5511657729
C  C516  1  0.23770000  0.21980000  0.55390000  1.0 0.5784700684
C  C517  1  0.20170000  0.19690000  0.55690000  1.0 -0.070490389
C  C518  1  0.17570000  0.18170000  0.52710000  1.0 -0.0623439555
C  C519  1  0.14430000  0.15580000  0.53290000  1.0 -0.1481484292
C  C520  1  0.13890000  0.14500000  0.56860000  1.0 0.1484028772
C  C521  1  0.16480000  0.16020000  0.59840000  1.0 -0.1586446629
C  C522  1  0.19620000  0.18610000  0.59250000  1.0 -0.0798430404
C  C523  1  0.10310000  0.11950000  0.56910000  1.0 -0.1089346234
C  C524  1  0.07740000  0.09470000  0.56940000  1.0 -0.0894461987
C  C525  1  0.04290000  0.06770000  0.56880000  1.0 0.1484028772
C  C526  1  0.01140000  0.06520000  0.54110000  1.0 -0.1895471568
C  C527  1  0.98050000  0.03700000  0.54150000  1.0 0.1290212572
C  C528  1  0.98120000  0.01150000  0.56960000  1.0 -0.1895471568
C  C529  1  0.01270000  0.01400000  0.59730000  1.0 0.1290212572
C  C530  1  0.04360000  0.04210000  0.59690000  1.0 -0.1787730579
C  C531  1  0.94970000  0.03140000  0.51040000  1.0 -0.0798430404
C  C532  1  0.92710000  0.03130000  0.48530000  1.0 -0.0894461987
C  C533  1  0.89940000  0.03270000  0.45350000  1.0 0.1290212572
C  C534  1  0.90020000  0.06400000  0.43120000  1.0 -0.1399435177
C  C535  1  0.87820000  0.06160000  0.39690000  1.0 -0.0990852555
C  C536  1  0.85540000  0.02790000  0.38480000  1.0 -0.0418733863
C  C537  1  0.85460000  0.99650000  0.40710000  1.0 -0.0990852555
C  C538  1  0.87660000  0.99900000  0.44140000  1.0 -0.1399435177
C  C539  1  0.83120000  0.02770000  0.34910000  1.0 0.5784700684
C  C540  1  0.01760000  0.98620000  0.62580000  1.0 -0.070490389
C  C541  1  0.02050000  0.95990000  0.64360000  1.0 -0.1089346234
C  C542  1  0.02300000  0.93160000  0.67090000  1.0 0.1403786516
C  C543  1  0.98940000  0.91150000  0.68170000  1.0 -0.1399435177
C  C544  1  0.99470000  0.88250000  0.70650000  1.0 -0.0894461987
C  C545  1  0.03350000  0.87370000  0.72030000  1.0 -0.0623439555
C  C546  1  0.06720000  0.89380000  0.70950000  1.0 -0.0798430404
C  C547  1  0.06190000  0.92270000  0.68480000  1.0 -0.1399435177
C  C548  1  0.03800000  0.84380000  0.74600000  1.0 0.5784700684
C  C549  1  0.79290000  0.90470000  0.25100000  1.0 0.0895848813
C  C550  1  0.79730000  0.86450000  0.25250000  1.0 -0.2083542746
C  C551  1  0.78800000  0.84670000  0.28420000  1.0 0.1942281603
C  C552  1  0.77410000  0.86920000  0.31450000  1.0 -0.2016158348
C  C553  1  0.76970000  0.90950000  0.31300000  1.0 0.0895848813
C  C554  1  0.79880000  0.68190000  0.26920000  1.0 0.0895848813
C  C555  1  0.79870000  0.72270000  0.27150000  1.0 -0.1895471568
C  C556  1  0.78530000  0.74350000  0.30300000  1.0 0.2091973639
C  C557  1  0.77210000  0.72350000  0.33210000  1.0 -0.2083542746
C  C558  1  0.77220000  0.68270000  0.32970000  1.0 0.1005613982
C  C559  1  0.68210000  0.79400000  0.77150000  1.0 0.0895848813
C  C560  1  0.72430000  0.79490000  0.77430000  1.0 -0.2016158348
C  C561  1  0.74540000  0.78360000  0.80630000  1.0 0.2091973639
C  C562  1  0.72410000  0.77150000  0.83540000  1.0 -0.2083542746
C  C563  1  0.68180000  0.77070000  0.83260000  1.0 0.1005613982
C  C564  1  0.91120000  0.79020000  0.74950000  1.0 0.0895848813
C  C565  1  0.86910000  0.79190000  0.74960000  1.0 -0.2016158348
C  C566  1  0.84970000  0.78350000  0.78110000  1.0 0.2023495837
C  C567  1  0.87250000  0.77340000  0.81260000  1.0 -0.2083542746
C  C568  1  0.91460000  0.77160000  0.81250000  1.0 0.0895848813
N  N1  1  0.20950000  0.19480000  0.72510000  1.0 -0.1399435177
N  N2  1  0.21600000  0.21480000  0.69720000  1.0 -0.1586446629
N  N3  1  0.21430000  0.22140000  0.19210000  1.0 -0.1481484292
N  N4  1  0.19350000  0.21410000  0.21880000  1.0 -0.118888406
N  N5  1  0.22090000  0.07280000  0.71870000  1.0 -0.2702789849
N  N6  1  0.21440000  0.33810000  0.70170000  1.0 -0.2383308605
N  N7  1  0.33920000  0.21810000  0.19930000  1.0 -0.2702789849
N  N8  1  0.06600000  0.21990000  0.21900000  1.0 -0.2702789849
N  N9  1  0.79050000  0.80520000  0.27490000  1.0 -0.1399435177
N  N10  1  0.78400000  0.78520000  0.30280000  1.0 -0.1586446629
N  N11  1  0.78570000  0.77860000  0.80790000  1.0 -0.1481484292
N  N12  1  0.80650000  0.78590000  0.78120000  1.0 -0.1089346234
N  N13  1  0.77910000  0.92720000  0.28130000  1.0 -0.2702789849
N  N14  1  0.78560000  0.66190000  0.29830000  1.0 -0.2383308605
N  N15  1  0.66080000  0.78190000  0.80070000  1.0 -0.2702789849
N  N16  1  0.93400000  0.78010000  0.78100000  1.0 -0.2702789849
O  O1  1  0.25580000  0.99750000  0.75840000  1.0 -0.4980693306
O  O2  1  0.25860000  0.93390000  0.74690000  1.0 -0.5310619982
O  O3  1  0.41550000  0.17080000  0.17540000  1.0 -0.5471012737
O  O4  1  0.48130000  0.17020000  0.18550000  1.0 -0.4980693306
O  O5  1  0.68010000  0.73570000  0.92690000  1.0 -0.5471012737
O  O6  1  0.68680000  0.74000000  0.98610000  1.0 -0.4216036246
O  O7  1  0.25920000  0.40320000  0.74840000  1.0 -0.5096300535
O  O8  1  0.26280000  0.46640000  0.75590000  1.0 -0.4980693306
O  O9  1  0.41630000  0.25400000  0.17110000  1.0 -0.5201867417
O  O10  1  0.48490000  0.25180000  0.17940000  1.0 -0.5310619982
O  O11  1  0.70220000  0.65600000  0.98910000  1.0 -0.5310619982
O  O12  1  0.68780000  0.65410000  0.92810000  1.0 -0.5096300535
O  O13  1  0.25400000  0.40820000  0.66980000  1.0 -0.5096300535
O  O14  1  0.24690000  0.47340000  0.68050000  1.0 -0.5471012737
O  O15  1  0.65650000  0.70340000  0.48680000  1.0 -0.5201867417
O  O16  1  0.65340000  0.68770000  0.42570000  1.0 -0.5310619982
O  O17  1  0.40820000  0.26170000  0.24880000  1.0 -0.5096300535
O  O18  1  0.47500000  0.26610000  0.25630000  1.0 -0.5201867417
O  O19  1  0.17500000  0.00250000  0.74490000  1.0 -0.4864723877
O  O20  1  0.17460000  0.93850000  0.74360000  1.0 -0.5397184272
O  O21  1  0.99510000  0.18090000  0.16780000  1.0 -0.5201867417
O  O22  1  0.92710000  0.17130000  0.16620000  1.0 -0.5556049392
O  O23  1  0.76920000  0.75050000  0.97990000  1.0 -0.5310619982
O  O24  1  0.76520000  0.73910000  0.91810000  1.0 -0.5310619982
O  O25  1  0.74090000  0.69130000  0.48590000  1.0 -0.5310619982
O  O26  1  0.74100000  0.68350000  0.42400000  1.0 -0.4757970766
O  O27  1  0.16660000  0.47300000  0.68910000  1.0 -0.5201867417
O  O28  1  0.16520000  0.40780000  0.67570000  1.0 -0.5397184272
O  O29  1  0.98710000  0.25280000  0.25950000  1.0 -0.5397184272
O  O30  1  0.91940000  0.25270000  0.25030000  1.0 -0.5096300535
O  O31  1  0.77280000  0.65740000  0.92660000  1.0 -0.5096300535
O  O32  1  0.78460000  0.67190000  0.98890000  1.0 -0.5201867417
O  O33  1  0.17430000  0.46710000  0.76473000  1.0 -0.3906154678
O  O34  1  0.17600000  0.40180000  0.75357000  1.0 -0.5781971262
O  O35  1  0.98880000  0.26310000  0.18390000  1.0 -0.5096300535
O  O36  1  0.92510000  0.25650000  0.17300000  1.0 -0.5096300535
O  O37  1  0.66620000  0.78130000  0.48170000  1.0 -0.4980693306
O  O38  1  0.65680000  0.76980000  0.41990000  1.0 -0.5310619982
O  O39  1  0.26430000  0.94420000  0.66940000  1.0 -0.4419020013
O  O40  1  0.26680000  0.00640000  0.68420000  1.0 -0.4980693306
O  O41  1  0.40990000  0.18160000  0.25260000  1.0 -0.5201867417
O  O42  1  0.48050000  0.18490000  0.26100000  1.0 -0.5201867417
O  O43  1  0.75230000  0.77000000  0.47660000  1.0 -0.4980693306
O  O44  1  0.74240000  0.76490000  0.41580000  1.0 -0.5397184272
O  O45  1  0.17570000  0.93940000  0.66540000  1.0 -0.5310619982
O  O46  1  0.18620000  0.00270000  0.66820000  1.0 -0.5201867417
O  O47  1  0.92750000  0.17130000  0.24460000  1.0 -0.5310619982
O  O48  1  0.99390000  0.17310000  0.24460000  1.0 -0.5096300535
O  O49  1  0.74420000  0.00250000  0.24160000  1.0 -0.4980693306
O  O50  1  0.74140000  0.06610000  0.25310000  1.0 -0.5310619982
O  O51  1  0.58450000  0.82920000  0.82460000  1.0 -0.5471012737
O  O52  1  0.51870000  0.82980000  0.81450000  1.0 -0.4980693306
O  O53  1  0.31990000  0.26430000  0.07310000  1.0 -0.5471012737
O  O54  1  0.31320000  0.26000000  0.01390000  1.0 -0.4216036246
O  O55  1  0.74080000  0.59680000  0.25160000  1.0 -0.5096300535
O  O56  1  0.73720000  0.53360000  0.24410000  1.0 -0.4980693306
O  O57  1  0.58370000  0.74600000  0.82890000  1.0 -0.5201867417
O  O58  1  0.51510000  0.74820000  0.82060000  1.0 -0.5201867417
O  O59  1  0.29780000  0.34400000  0.01090000  1.0 -0.5310619982
O  O60  1  0.31220000  0.34590000  0.07190000  1.0 -0.5096300535
O  O61  1  0.74600000  0.59180000  0.33020000  1.0 -0.5201867417
O  O62  1  0.75310000  0.52660000  0.31950000  1.0 -0.5471012737
O  O63  1  0.34350000  0.29660000  0.51320000  1.0 -0.5201867417
O  O64  1  0.34660000  0.31230000  0.57430000  1.0 -0.5310619982
O  O65  1  0.59180000  0.73830000  0.75120000  1.0 -0.5096300535
O  O66  1  0.52500000  0.73390000  0.74370000  1.0 -0.5201867417
O  O67  1  0.82500000  0.99750000  0.25510000  1.0 -0.4864723877
O  O68  1  0.82540000  0.06150000  0.25640000  1.0 -0.5397184272
O  O69  1  0.00490000  0.81910000  0.83220000  1.0 -0.5201867417
O  O70  1  0.07290000  0.82870000  0.83380000  1.0 -0.5556049392
O  O71  1  0.23080000  0.24950000  0.02010000  1.0 -0.5397184272
O  O72  1  0.23480000  0.26090000  0.08190000  1.0 -0.5310619982
O  O73  1  0.25910000  0.30870000  0.51410000  1.0 -0.5310619982
O  O74  1  0.25900000  0.31650000  0.57600000  1.0 -0.4757970766
O  O75  1  0.83340000  0.52700000  0.31090000  1.0 -0.5201867417
O  O76  1  0.83480000  0.59220000  0.32430000  1.0 -0.5397184272
O  O77  1  0.01290000  0.74720000  0.74050000  1.0 -0.5397184272
O  O78  1  0.08060000  0.74730000  0.74970000  1.0 -0.5096300535
O  O79  1  0.22720000  0.34260000  0.07340000  1.0 -0.5096300535
O  O80  1  0.21540000  0.32810000  0.01110000  1.0 -0.5201867417
O  O81  1  0.82570000  0.53290000  0.23527000  1.0 -0.3906154678
O  O82  1  0.82400000  0.59820000  0.24643000  1.0 -0.5781971262
O  O83  1  0.01120000  0.73690000  0.81610000  1.0 -0.5096300535
O  O84  1  0.07490000  0.74350000  0.82700000  1.0 -0.5096300535
O  O85  1  0.33380000  0.21870000  0.51830000  1.0 -0.4980693306
O  O86  1  0.34320000  0.23020000  0.58010000  1.0 -0.5310619982
O  O87  1  0.73570000  0.05580000  0.33060000  1.0 -0.4419020013
O  O88  1  0.73320000  0.99360000  0.31580000  1.0 -0.4980693306
O  O89  1  0.59010000  0.81840000  0.74740000  1.0 -0.5201867417
O  O90  1  0.51950000  0.81510000  0.73900000  1.0 -0.5201867417
O  O91  1  0.24770000  0.23000000  0.52340000  1.0 -0.4980693306
O  O92  1  0.25760000  0.23510000  0.58420000  1.0 -0.5397184272
O  O93  1  0.82430000  0.06060000  0.33460000  1.0 -0.5310619982
O  O94  1  0.81380000  0.99730000  0.33180000  1.0 -0.5201867417
O  O95  1  0.07250000  0.82870000  0.75540000  1.0 -0.5310619982
O  O96  1  0.00610000  0.82690000  0.75540000  1.0 -0.5096300535
