# DDEC6 charges by PACMAN v1.1 (https://github.com/mtap-research/PACMAN-charge/)
data_WOHQAN_ASR_pacman
_symmetry_space_group_name_H-M   'P 1'
_cell_length_a   12.34840000
_cell_length_b   12.46600000
_cell_length_c   14.09800000
_cell_angle_alpha   97.14800000
_cell_angle_beta   108.38400000
_cell_angle_gamma   119.31500000
_symmetry_Int_Tables_number   1
_chemical_formula_structural   Mn2Cu3H10C18S3N3O7
_chemical_formula_sum   'Mn4 Cu6 H20 C36 S6 N6 O14'
_cell_volume   1690.65352506
_cell_formula_units_Z   2
loop_
 _symmetry_equiv_pos_site_id
 _symmetry_equiv_pos_as_xyz
  1  'x, y, z'
loop_
 _atom_site_type_symbol
 _atom_site_label
 _atom_site_symmetry_multiplicity
 _atom_site_fract_x
 _atom_site_fract_y
 _atom_site_fract_z
 _atom_site_occupancy
 _atom_site_charge
Mn  Mn1  1  0.11058000  0.01112000  0.10698000  1.0 1.0441627808
Mn  Mn2  1  0.88942000  0.98888000  0.89302000  1.0 1.0441627808
Mn  Mn3  1  0.25358000  0.31832000  0.05971000  1.0 1.0028543182
Mn  Mn4  1  0.74642000  0.68168000  0.94029000  1.0 1.0028543182
Cu  Cu1  1  0.09316000  0.42791000  0.58510000  1.0 0.1526951201
Cu  Cu2  1  0.90684000  0.57209000  0.41490000  1.0 0.1526951201
Cu  Cu3  1  0.83913000  0.31478000  0.41109000  1.0 0.1573910273
Cu  Cu4  1  0.16087000  0.68522000  0.58891000  1.0 0.1573910273
Cu  Cu5  1  0.10148000  0.50696000  0.40835000  1.0 0.1662652053
Cu  Cu6  1  0.89852000  0.49304000  0.59165000  1.0 0.1662652053
H  H1  1  0.10270000  0.00190000  0.39200000  1.0 0.1217294119
H  H2  1  0.89730000  0.99810000  0.60800000  1.0 0.1217294119
H  H3  1  0.20400000  0.09460000  0.57670000  1.0 0.1217294119
H  H4  1  0.79600000  0.90540000  0.42330000  1.0 0.1217294119
H  H5  1  0.19690000  0.26510000  0.64990000  1.0 0.1122596668
H  H6  1  0.80310000  0.73490000  0.35010000  1.0 0.1122596668
H  H7  1  0.61550000  0.03540000  0.33940000  1.0 0.1122596668
H  H8  1  0.38450000  0.96460000  0.66060000  1.0 0.1122596668
H  H9  1  0.51630000  0.87110000  0.40510000  1.0 0.1217294119
H  H10  1  0.48370000  0.12890000  0.59490000  1.0 0.1217294119
H  H11  1  0.60470000  0.91660000  0.58780000  1.0 0.1217294119
H  H12  1  0.39530000  0.08340000  0.41220000  1.0 0.1217294119
H  H13  1  0.67630000  0.70720000  0.58080000  1.0 0.1217294119
H  H14  1  0.32370000  0.29280000  0.41920000  1.0 0.1217294119
H  H15  1  0.54270000  0.62140000  0.39760000  1.0 0.1217294119
H  H16  1  0.45730000  0.37860000  0.60240000  1.0 0.1217294119
H  H17  1  0.31260000  0.54220000  0.33360000  1.0 0.1122596668
H  H18  1  0.68740000  0.45780000  0.66640000  1.0 0.1122596668
H  H19  1  0.13300000  0.09800000  0.95600000  1.0 0.380320967
H  H20  1  0.86700000  0.90200000  0.04400000  1.0 0.380320967
C  C1  1  0.03870000  0.22440000  0.41020000  1.0 0.203369946
C  C2  1  0.96130000  0.77560000  0.58980000  1.0 0.203369946
C  C3  1  0.04060000  0.12150000  0.36090000  1.0 -0.0903316928
C  C4  1  0.95940000  0.87850000  0.63910000  1.0 -0.0903316928
C  C5  1  0.10170000  0.07140000  0.42320000  1.0 -0.0729452401
C  C6  1  0.89830000  0.92860000  0.57680000  1.0 -0.0729452401
C  C7  1  0.16160000  0.12620000  0.53320000  1.0 -0.1573571903
C  C8  1  0.83840000  0.87380000  0.46680000  1.0 -0.1573571903
C  C9  1  0.15670000  0.22840000  0.57640000  1.0 0.0668629676
C  C10  1  0.84330000  0.77160000  0.42360000  1.0 0.0668629676
C  C11  1  0.98650000  0.07280000  0.24220000  1.0 0.5863928355
C  C12  1  0.01350000  0.92720000  0.75780000  1.0 0.5863928355
C  C13  1  0.65010000  0.05360000  0.41250000  1.0 0.0635803573
C  C14  1  0.34990000  0.94640000  0.58750000  1.0 0.0635803573
C  C15  1  0.59040000  0.95450000  0.45100000  1.0 -0.1573571903
C  C16  1  0.40960000  0.04550000  0.54900000  1.0 -0.1573571903
C  C17  1  0.64300000  0.98200000  0.55980000  1.0 -0.0729452401
C  C18  1  0.35700000  0.01800000  0.44020000  1.0 -0.0729452401
C  C19  1  0.75240000  0.10650000  0.62660000  1.0 -0.0903316928
C  C20  1  0.24760000  0.89350000  0.37340000  1.0 -0.0903316928
C  C21  1  0.80770000  0.20310000  0.58150000  1.0 0.2122033804
C  C22  1  0.19230000  0.79690000  0.41850000  1.0 0.2122033804
C  C23  1  0.81380000  0.13670000  0.74530000  1.0 0.5863928355
C  C24  1  0.18620000  0.86330000  0.25470000  1.0 0.5863928355
C  C25  1  0.38200000  0.62450000  0.57650000  1.0 0.2122033804
C  C26  1  0.61800000  0.37550000  0.42350000  1.0 0.2122033804
C  C27  1  0.52280000  0.67580000  0.62070000  1.0 -0.0903316928
C  C28  1  0.47720000  0.32420000  0.37930000  1.0 -0.0903316928
C  C29  1  0.58280000  0.67420000  0.55310000  1.0 -0.0754140683
C  C30  1  0.41720000  0.32580000  0.44690000  1.0 -0.0754140683
C  C31  1  0.50370000  0.62340000  0.44400000  1.0 -0.1573571903
C  C32  1  0.49630000  0.37660000  0.55600000  1.0 -0.1573571903
C  C33  1  0.36610000  0.57600000  0.40660000  1.0 0.0635803573
C  C34  1  0.63390000  0.42400000  0.59340000  1.0 0.0635803573
C  C35  1  0.61060000  0.73340000  0.73970000  1.0 0.6064760394
C  C36  1  0.38940000  0.26660000  0.26030000  1.0 0.6064760394
S  S1  1  0.96085000  0.28992000  0.33229000  1.0 -0.2702423625
S  S2  1  0.03915000  0.71008000  0.66771000  1.0 -0.2702423625
S  S3  1  0.94951000  0.36372000  0.66347000  1.0 -0.2579259865
S  S4  1  0.05049000  0.63628000  0.33653000  1.0 -0.2579259865
S  S5  1  0.29938000  0.62158000  0.65959000  1.0 -0.2702423625
S  S6  1  0.70062000  0.37842000  0.34041000  1.0 -0.2702423625
N  N1  1  0.09670000  0.27690000  0.51690000  1.0 -0.2203373778
N  N2  1  0.90330000  0.72310000  0.48310000  1.0 -0.2203373778
N  N3  1  0.75620000  0.17520000  0.47610000  1.0 -0.2203373778
N  N4  1  0.24380000  0.82480000  0.52390000  1.0 -0.2203373778
N  N5  1  0.30480000  0.57600000  0.47070000  1.0 -0.2203373778
N  N6  1  0.69520000  0.42400000  0.52930000  1.0 -0.2203373778
O  O1  1  0.07580000  0.12690000  0.20693000  1.0 -0.5771904729
O  O2  1  0.92420000  0.87310000  0.79307000  1.0 -0.5771904729
O  O3  1  0.86250000  0.98420000  0.18659000  1.0 -0.5390418661
O  O4  1  0.13750000  0.01580000  0.81341000  1.0 -0.5390418661
O  O5  1  0.89700000  0.10410000  0.78120000  1.0 -0.5879878991
O  O6  1  0.10300000  0.89590000  0.21880000  1.0 -0.5879878991
O  O7  1  0.78010000  0.18950000  0.79990000  1.0 -0.5322374992
O  O8  1  0.21990000  0.81050000  0.20010000  1.0 -0.5322374992
O  O9  1  0.61980000  0.65620000  0.78420000  1.0 -0.5771904729
O  O10  1  0.38020000  0.34380000  0.21580000  1.0 -0.5771904729
O  O11  1  0.66830000  0.85350000  0.78334000  1.0 -0.5450854592
O  O12  1  0.33170000  0.14650000  0.21666000  1.0 -0.5390418661
O  O13  1  0.11310000  0.11260000  0.99459000  1.0 -0.7924010746
O  O14  1  0.88690000  0.88740000  0.00541000  1.0 -0.7924010746
