# DDEC6 charges by PACMAN v1.1 (https://github.com/mtap-research/PACMAN-charge/)
data_WOHSIV_FSR_pacman
_symmetry_space_group_name_H-M   'P 1'
_cell_length_a   8.97500000
_cell_length_b   19.24300000
_cell_length_c   21.13000000
_cell_angle_alpha   90.00000000
_cell_angle_beta   90.00000000
_cell_angle_gamma   90.00000000
_symmetry_Int_Tables_number   1
_chemical_formula_structural   NaCu2H27C38N6O5
_chemical_formula_sum   'Na4 Cu8 H108 C152 N24 O20'
_cell_volume   3649.27619525
_cell_formula_units_Z   4
loop_
 _symmetry_equiv_pos_site_id
 _symmetry_equiv_pos_as_xyz
  1  'x, y, z'
loop_
 _atom_site_type_symbol
 _atom_site_label
 _atom_site_symmetry_multiplicity
 _atom_site_fract_x
 _atom_site_fract_y
 _atom_site_fract_z
 _atom_site_occupancy
 _atom_site_charge
Na  Na1  1  0.86400000  0.99510000  0.33540000  1.0 0.8607330411
Na  Na2  1  0.63600000  0.00490000  0.83540000  1.0 0.8607330411
Na  Na3  1  0.36400000  0.50490000  0.66460000  1.0 0.8607330411
Na  Na4  1  0.13600000  0.49510000  0.16460000  1.0 0.8607330411
Cu  Cu1  1  0.99160000  0.92010000  0.58981000  1.0 0.6887047826
Cu  Cu2  1  0.50840000  0.07990000  0.08981000  1.0 0.6887047826
Cu  Cu3  1  0.49160000  0.57990000  0.41019000  1.0 0.6887047826
Cu  Cu4  1  0.00840000  0.42010000  0.91019000  1.0 0.6887047826
Cu  Cu5  1  0.29630000  0.82540000  0.63750000  1.0 0.676439473
Cu  Cu6  1  0.20370000  0.17460000  0.13750000  1.0 0.6744131535
Cu  Cu7  1  0.79630000  0.67460000  0.36250000  1.0 0.6744131535
Cu  Cu8  1  0.70370000  0.32540000  0.86250000  1.0 0.676439473
H  H1  1  0.15204000  0.83077000  0.53941000  1.0 0.3327855556
H  H2  1  0.34796000  0.16923000  0.03941000  1.0 0.3327855556
H  H3  1  0.65204000  0.66923000  0.46059000  1.0 0.3327855556
H  H4  1  0.84796000  0.33077000  0.96059000  1.0 0.3327855556
H  H5  1  0.14903000  0.04656000  0.43755000  1.0 0.1200711716
H  H6  1  0.35097000  0.95344000  0.93755000  1.0 0.1200711716
H  H7  1  0.64903000  0.45344000  0.56245000  1.0 0.1200711716
H  H8  1  0.85097000  0.54656000  0.06245000  1.0 0.1200711716
H  H9  1  0.35191000  0.02103000  0.36558000  1.0 0.1084400192
H  H10  1  0.14809000  0.97897000  0.86558000  1.0 0.1084400192
H  H11  1  0.85191000  0.47897000  0.63442000  1.0 0.1084400192
H  H12  1  0.64809000  0.52103000  0.13442000  1.0 0.1084400192
H  H13  1  0.37271000  0.90661000  0.32823000  1.0 0.1084400192
H  H14  1  0.12729000  0.09339000  0.82823000  1.0 0.1084400192
H  H15  1  0.87271000  0.59339000  0.67177000  1.0 0.1084400192
H  H16  1  0.62729000  0.40661000  0.17177000  1.0 0.1084400192
H  H17  1  0.25180000  0.81551000  0.37397000  1.0 0.1007282278
H  H18  1  0.24820000  0.18449000  0.87397000  1.0 0.1007282278
H  H19  1  0.75180000  0.68449000  0.62603000  1.0 0.1007282278
H  H20  1  0.74820000  0.31551000  0.12603000  1.0 0.1007282278
H  H21  1  0.06527000  0.83582000  0.44832000  1.0 0.1200711716
H  H22  1  0.43473000  0.16418000  0.94832000  1.0 0.1200711716
H  H23  1  0.56527000  0.66418000  0.55168000  1.0 0.1200711716
H  H24  1  0.93473000  0.33582000  0.05168000  1.0 0.1200711716
H  H25  1  0.65949000  0.10712000  0.51917000  1.0 0.1410003505
H  H26  1  0.84051000  0.89288000  0.01917000  1.0 0.1410003505
H  H27  1  0.15949000  0.39288000  0.48083000  1.0 0.1410003505
H  H28  1  0.34051000  0.60712000  0.98083000  1.0 0.1410003505
H  H29  1  0.55629000  0.12600000  0.61990000  1.0 0.1200711716
H  H30  1  0.94371000  0.87400000  0.11990000  1.0 0.1200711716
H  H31  1  0.05629000  0.37400000  0.38010000  1.0 0.1200711716
H  H32  1  0.44371000  0.62600000  0.88010000  1.0 0.1200711716
H  H33  1  0.65425000  0.06942000  0.70908000  1.0 0.1299139282
H  H34  1  0.84575000  0.93058000  0.20908000  1.0 0.1299139282
H  H35  1  0.15425000  0.43058000  0.29092000  1.0 0.1299139282
H  H36  1  0.34575000  0.56942000  0.79092000  1.0 0.1299139282
H  H37  1  0.03497000  0.90809000  0.80218000  1.0 0.1299139282
H  H38  1  0.46503000  0.09191000  0.30218000  1.0 0.1299139282
H  H39  1  0.53497000  0.59191000  0.19782000  1.0 0.1299139282
H  H40  1  0.96503000  0.40809000  0.69782000  1.0 0.1299139282
H  H41  1  0.16100000  0.82079000  0.86014000  1.0 0.1084400192
H  H42  1  0.33900000  0.17921000  0.36014000  1.0 0.1084400192
H  H43  1  0.66100000  0.67921000  0.13986000  1.0 0.1084400192
H  H44  1  0.83900000  0.32079000  0.63986000  1.0 0.1084400192
H  H45  1  0.15800000  0.70729000  0.81978000  1.0 0.1084400192
H  H46  1  0.34200000  0.29271000  0.31978000  1.0 0.1084400192
H  H47  1  0.65800000  0.79271000  0.18022000  1.0 0.1084400192
H  H48  1  0.84200000  0.20729000  0.68022000  1.0 0.1084400192
H  H49  1  0.05986000  0.68374000  0.71999000  1.0 0.1084400192
H  H50  1  0.44014000  0.31626000  0.21999000  1.0 0.1084400192
H  H51  1  0.55986000  0.81626000  0.28001000  1.0 0.1084400192
H  H52  1  0.94014000  0.18374000  0.78001000  1.0 0.1084400192
H  H53  1  0.96501000  0.77268000  0.65891000  1.0 0.1200711716
H  H54  1  0.53499000  0.22732000  0.15891000  1.0 0.1200711716
H  H55  1  0.46501000  0.72732000  0.34109000  1.0 0.1200711716
H  H56  1  0.03499000  0.27268000  0.84109000  1.0 0.1200711716
H  H57  1  0.62060000  0.85293000  0.82164000  1.0 0.1410003505
H  H58  1  0.87940000  0.14707000  0.32164000  1.0 0.1410003505
H  H59  1  0.12060000  0.64707000  0.17836000  1.0 0.1410003505
H  H60  1  0.37940000  0.35293000  0.67836000  1.0 0.1410003505
H  H61  1  0.68867000  0.73289000  0.82499000  1.0 0.1084400192
H  H62  1  0.81133000  0.26711000  0.32499000  1.0 0.1084400192
H  H63  1  0.18867000  0.76711000  0.17501000  1.0 0.1084400192
H  H64  1  0.31133000  0.23289000  0.67501000  1.0 0.1084400192
H  H65  1  0.55731000  0.65070000  0.75789000  1.0 0.1299139282
H  H66  1  0.94269000  0.34930000  0.25789000  1.0 0.1299139282
H  H67  1  0.05731000  0.84930000  0.24211000  1.0 0.1299139282
H  H68  1  0.44269000  0.15070000  0.74211000  1.0 0.1299139282
H  H69  1  0.21877000  0.01227000  0.74931000  1.0 0.1200711716
H  H70  1  0.28123000  0.98773000  0.24931000  1.0 0.1200711716
H  H71  1  0.71877000  0.48773000  0.25069000  1.0 0.1200711716
H  H72  1  0.78123000  0.51227000  0.75069000  1.0 0.1200711716
H  H73  1  0.11085000  0.12041000  0.71403000  1.0 0.1007282278
H  H74  1  0.38915000  0.87959000  0.21403000  1.0 0.1007282278
H  H75  1  0.61085000  0.37959000  0.28597000  1.0 0.1007282278
H  H76  1  0.88915000  0.62041000  0.78597000  1.0 0.1007282278
H  H77  1  0.11536000  0.15426000  0.60804000  1.0 0.1084400192
H  H78  1  0.38464000  0.84574000  0.10804000  1.0 0.1084400192
H  H79  1  0.61536000  0.34574000  0.39196000  1.0 0.1084400192
H  H80  1  0.88464000  0.65426000  0.89196000  1.0 0.1084400192
H  H81  1  0.23757000  0.08199000  0.53445000  1.0 0.1084400192
H  H82  1  0.26243000  0.91801000  0.03445000  1.0 0.1084400192
H  H83  1  0.73757000  0.41801000  0.46555000  1.0 0.1084400192
H  H84  1  0.76243000  0.58199000  0.96555000  1.0 0.1084400192
H  H85  1  0.34034000  0.97392000  0.56769000  1.0 0.1200711716
H  H86  1  0.15966000  0.02608000  0.06769000  1.0 0.1200711716
H  H87  1  0.84034000  0.52608000  0.43231000  1.0 0.1200711716
H  H88  1  0.65966000  0.47392000  0.93231000  1.0 0.1200711716
H  H89  1  0.33873000  0.75637000  0.49716000  1.0 0.1200711716
H  H90  1  0.16127000  0.24363000  0.99716000  1.0 0.1200711716
H  H91  1  0.83873000  0.74363000  0.50284000  1.0 0.1200711716
H  H92  1  0.66127000  0.25637000  0.00284000  1.0 0.1200711716
H  H93  1  0.23756000  0.70133000  0.40571000  1.0 0.1007282278
H  H94  1  0.26244000  0.29867000  0.90571000  1.0 0.1007282278
H  H95  1  0.73756000  0.79867000  0.59429000  1.0 0.1007282278
H  H96  1  0.76244000  0.20133000  0.09429000  1.0 0.1007282278
H  H97  1  0.06021000  0.61704000  0.41312000  1.0 0.1007282278
H  H98  1  0.43979000  0.38296000  0.91312000  1.0 0.1007282278
H  H99  1  0.56021000  0.88296000  0.58688000  1.0 0.1007282278
H  H100  1  0.93979000  0.11704000  0.08688000  1.0 0.1007282278
H  H101  1  0.99614000  0.57663000  0.51521000  1.0 0.1084400192
H  H102  1  0.50386000  0.42337000  0.01521000  1.0 0.1084400192
H  H103  1  0.49614000  0.92337000  0.48479000  1.0 0.1084400192
H  H104  1  0.00386000  0.07663000  0.98479000  1.0 0.1084400192
H  H105  1  0.10199000  0.62276000  0.60901000  1.0 0.1200711716
H  H106  1  0.39801000  0.37724000  0.10901000  1.0 0.1200711716
H  H107  1  0.60199000  0.87724000  0.39099000  1.0 0.1200711716
H  H108  1  0.89801000  0.12276000  0.89099000  1.0 0.1200711716
C  C1  1  0.09300000  0.94500000  0.45270000  1.0 0.2512444794
C  C2  1  0.40700000  0.05500000  0.95270000  1.0 0.2512444794
C  C3  1  0.59300000  0.55500000  0.54730000  1.0 0.2512444794
C  C4  1  0.90700000  0.44500000  0.04730000  1.0 0.2512444794
C  C5  1  0.17400000  0.00000000  0.42500000  1.0 -0.2028490279
C  C6  1  0.32600000  0.00000000  0.92500000  1.0 -0.2028490279
C  C7  1  0.67400000  0.50000000  0.57500000  1.0 -0.2028490279
C  C8  1  0.82600000  0.50000000  0.07500000  1.0 -0.2028490279
C  C9  1  0.28100000  0.98500000  0.38100000  1.0 -0.0697915999
C  C10  1  0.21900000  0.01500000  0.88100000  1.0 -0.0697915999
C  C11  1  0.78100000  0.51500000  0.61900000  1.0 -0.0697915999
C  C12  1  0.71900000  0.48500000  0.11900000  1.0 -0.0697915999
C  C13  1  0.30700000  0.91600000  0.36300000  1.0 -0.1102325232
C  C14  1  0.19300000  0.08400000  0.86300000  1.0 -0.1102325232
C  C15  1  0.80700000  0.58400000  0.63700000  1.0 -0.1102325232
C  C16  1  0.69300000  0.41600000  0.13700000  1.0 -0.1102325232
C  C17  1  0.22600000  0.86500000  0.38800000  1.0 -0.0697915999
C  C18  1  0.27400000  0.13500000  0.88800000  1.0 -0.0697915999
C  C19  1  0.72600000  0.63500000  0.61200000  1.0 -0.0697915999
C  C20  1  0.77400000  0.36500000  0.11200000  1.0 -0.0697915999
C  C21  1  0.12200000  0.87700000  0.43150000  1.0 -0.1854816549
C  C22  1  0.37800000  0.12300000  0.93150000  1.0 -0.1854816549
C  C23  1  0.62200000  0.62300000  0.56850000  1.0 -0.1854816549
C  C24  1  0.87800000  0.37700000  0.06850000  1.0 -0.1854816549
C  C25  1  0.87900000  0.00610000  0.49050000  1.0 0.4417664051
C  C26  1  0.62100000  0.99390000  0.99050000  1.0 0.4417664051
C  C27  1  0.37900000  0.49390000  0.50950000  1.0 0.4417664051
C  C28  1  0.12100000  0.50610000  0.00950000  1.0 0.4417664051
C  C29  1  0.80100000  0.02540000  0.54870000  1.0 0.1200711716
C  C30  1  0.69900000  0.97460000  0.04870000  1.0 0.1200711716
C  C31  1  0.30100000  0.47460000  0.45130000  1.0 0.1200711716
C  C32  1  0.19900000  0.52540000  0.95130000  1.0 0.1200711716
C  C33  1  0.69200000  0.07900000  0.55510000  1.0 -0.131747982
C  C34  1  0.80800000  0.92100000  0.05510000  1.0 -0.131747982
C  C35  1  0.19200000  0.42100000  0.44490000  1.0 -0.131747982
C  C36  1  0.30800000  0.57900000  0.94490000  1.0 -0.131747982
C  C37  1  0.63400000  0.08800000  0.61400000  1.0 -0.0541400932
C  C38  1  0.86600000  0.91200000  0.11400000  1.0 -0.0541400932
C  C39  1  0.13400000  0.41200000  0.38600000  1.0 -0.0541400932
C  C40  1  0.36600000  0.58800000  0.88600000  1.0 -0.0541400932
C  C41  1  0.68500000  0.05500000  0.66580000  1.0 -0.1500721746
C  C42  1  0.81500000  0.94500000  0.16580000  1.0 -0.1500721746
C  C43  1  0.18500000  0.44500000  0.33420000  1.0 -0.1500721746
C  C44  1  0.31500000  0.55500000  0.83420000  1.0 -0.1500721746
C  C45  1  0.79200000  0.00360000  0.65850000  1.0 0.1299139282
C  C46  1  0.70800000  0.99640000  0.15850000  1.0 0.1299139282
C  C47  1  0.29200000  0.49640000  0.34150000  1.0 0.1299139282
C  C48  1  0.20800000  0.50360000  0.84150000  1.0 0.1299139282
C  C49  1  0.85300000  0.95450000  0.70710000  1.0 0.4417664051
C  C50  1  0.64700000  0.04550000  0.20710000  1.0 0.4417664051
C  C51  1  0.35300000  0.54550000  0.29290000  1.0 0.4417664051
C  C52  1  0.14700000  0.45450000  0.79290000  1.0 0.4417664051
C  C53  1  0.99700000  0.85250000  0.72360000  1.0 0.2438921868
C  C54  1  0.50300000  0.14750000  0.22360000  1.0 0.2438921868
C  C55  1  0.49700000  0.64750000  0.27640000  1.0 0.2438921868
C  C56  1  0.00300000  0.35250000  0.77640000  1.0 0.2438921868
C  C57  1  0.05600000  0.86400000  0.78200000  1.0 -0.1712922266
C  C58  1  0.44400000  0.13600000  0.28200000  1.0 -0.1712922266
C  C59  1  0.55600000  0.63600000  0.21800000  1.0 -0.1712922266
C  C60  1  0.94400000  0.36400000  0.71800000  1.0 -0.1712922266
C  C61  1  0.11600000  0.81200000  0.81700000  1.0 -0.0802982734
C  C62  1  0.38400000  0.18800000  0.31700000  1.0 -0.0802982734
C  C63  1  0.61600000  0.68800000  0.18300000  1.0 -0.0802982734
C  C64  1  0.88400000  0.31200000  0.68300000  1.0 -0.0802982734
C  C65  1  0.11800000  0.74500000  0.79400000  1.0 -0.1214518142
C  C66  1  0.38200000  0.25500000  0.29400000  1.0 -0.1214518142
C  C67  1  0.61800000  0.75500000  0.20600000  1.0 -0.1214518142
C  C68  1  0.88200000  0.24500000  0.70600000  1.0 -0.1214518142
C  C69  1  0.06000000  0.73200000  0.73500000  1.0 -0.0915318857
C  C70  1  0.44000000  0.26800000  0.23500000  1.0 -0.0915318857
C  C71  1  0.56000000  0.76800000  0.26500000  1.0 -0.0915318857
C  C72  1  0.94000000  0.23200000  0.76500000  1.0 -0.0915318857
C  C73  1  0.00300000  0.78430000  0.70020000  1.0 -0.2028490279
C  C74  1  0.49700000  0.21570000  0.20020000  1.0 -0.2028490279
C  C75  1  0.50300000  0.71570000  0.29980000  1.0 -0.2028490279
C  C76  1  0.99700000  0.28430000  0.79980000  1.0 -0.2028490279
C  C77  1  0.29300000  0.98490000  0.65990000  1.0 0.2318020999
C  C78  1  0.20700000  0.01510000  0.15990000  1.0 0.2318020999
C  C79  1  0.79300000  0.51510000  0.34010000  1.0 0.2318020999
C  C80  1  0.70700000  0.48490000  0.84010000  1.0 0.2318020999
C  C81  1  0.21900000  0.02680000  0.70230000  1.0 -0.1712922266
C  C82  1  0.28100000  0.97320000  0.20230000  1.0 -0.1712922266
C  C83  1  0.71900000  0.47320000  0.29770000  1.0 -0.1712922266
C  C84  1  0.78100000  0.52680000  0.79770000  1.0 -0.1712922266
C  C85  1  0.15900000  0.08800000  0.68300000  1.0 -0.0915318857
C  C86  1  0.34100000  0.91200000  0.18300000  1.0 -0.0915318857
C  C87  1  0.65900000  0.41200000  0.31700000  1.0 -0.0915318857
C  C88  1  0.84100000  0.58800000  0.81700000  1.0 -0.0915318857
C  C89  1  0.16500000  0.11010000  0.62000000  1.0 -0.131747982
C  C90  1  0.33500000  0.88990000  0.12000000  1.0 -0.131747982
C  C91  1  0.66500000  0.38990000  0.38000000  1.0 -0.131747982
C  C92  1  0.83500000  0.61010000  0.88000000  1.0 -0.131747982
C  C93  1  0.23300000  0.06800000  0.57840000  1.0 -0.0915318857
C  C94  1  0.26700000  0.93200000  0.07840000  1.0 -0.0915318857
C  C95  1  0.73300000  0.43200000  0.42160000  1.0 -0.0915318857
C  C96  1  0.76700000  0.56800000  0.92160000  1.0 -0.0915318857
C  C97  1  0.29200000  0.00600000  0.59800000  1.0 -0.2028490279
C  C98  1  0.20800000  0.99400000  0.09800000  1.0 -0.2028490279
C  C99  1  0.79200000  0.49400000  0.40200000  1.0 -0.2028490279
C  C100  1  0.70800000  0.50600000  0.90200000  1.0 -0.2028490279
C  C101  1  0.43000000  0.91500000  0.72980000  1.0 0.4454498678
C  C102  1  0.07000000  0.08500000  0.22980000  1.0 0.4454498678
C  C103  1  0.93000000  0.58500000  0.27020000  1.0 0.4454498678
C  C104  1  0.57000000  0.41500000  0.77020000  1.0 0.4454498678
C  C105  1  0.48900000  0.84020000  0.74290000  1.0 0.1299139282
C  C106  1  0.01100000  0.15980000  0.24290000  1.0 0.1299139282
C  C107  1  0.98900000  0.65980000  0.25710000  1.0 0.1299139282
C  C108  1  0.51100000  0.34020000  0.75710000  1.0 0.1299139282
C  C109  1  0.58200000  0.81900000  0.78800000  1.0 -0.131747982
C  C110  1  0.91800000  0.18100000  0.28800000  1.0 -0.131747982
C  C111  1  0.08200000  0.68100000  0.21200000  1.0 -0.131747982
C  C112  1  0.41800000  0.31900000  0.71200000  1.0 -0.131747982
C  C113  1  0.61300000  0.75000000  0.79400000  1.0 -0.0405745082
C  C114  1  0.88700000  0.25000000  0.29400000  1.0 -0.0405745082
C  C115  1  0.11300000  0.75000000  0.20600000  1.0 -0.0405745082
C  C116  1  0.38700000  0.25000000  0.70600000  1.0 -0.0405745082
C  C117  1  0.54400000  0.70050000  0.75300000  1.0 -0.1579138548
C  C118  1  0.95600000  0.29950000  0.25300000  1.0 -0.1579138548
C  C119  1  0.04400000  0.79950000  0.24700000  1.0 -0.1579138548
C  C120  1  0.45600000  0.20050000  0.74700000  1.0 -0.1579138548
C  C121  1  0.44900000  0.72560000  0.71030000  1.0 0.1299139282
C  C122  1  0.05100000  0.27440000  0.21030000  1.0 0.1299139282
C  C123  1  0.94900000  0.77440000  0.28970000  1.0 0.1299139282
C  C124  1  0.55100000  0.22560000  0.78970000  1.0 0.1299139282
C  C125  1  0.36800000  0.68460000  0.65980000  1.0 0.4417664051
C  C126  1  0.13200000  0.31540000  0.15980000  1.0 0.4417664051
C  C127  1  0.86800000  0.81540000  0.34020000  1.0 0.4417664051
C  C128  1  0.63200000  0.18460000  0.84020000  1.0 0.4417664051
C  C129  1  0.24100000  0.69270000  0.56060000  1.0 0.2512444794
C  C130  1  0.25900000  0.30730000  0.06060000  1.0 0.2512444794
C  C131  1  0.74100000  0.80730000  0.43940000  1.0 0.2512444794
C  C132  1  0.75900000  0.19270000  0.93940000  1.0 0.2512444794
C  C133  1  0.27400000  0.71730000  0.50260000  1.0 -0.2140899883
C  C134  1  0.22600000  0.28270000  0.00260000  1.0 -0.2140899883
C  C135  1  0.77400000  0.78270000  0.49740000  1.0 -0.2140899883
C  C136  1  0.72600000  0.21730000  0.99740000  1.0 -0.2140899883
C  C137  1  0.21100000  0.68700000  0.44820000  1.0 -0.0958641753
C  C138  1  0.28900000  0.31300000  0.94820000  1.0 -0.0915318857
C  C139  1  0.71100000  0.81300000  0.55180000  1.0 -0.0958641753
C  C140  1  0.78900000  0.18700000  0.05180000  1.0 -0.0958641753
C  C141  1  0.10700000  0.63500000  0.45200000  1.0 -0.1500721746
C  C142  1  0.39300000  0.36500000  0.95200000  1.0 -0.1500721746
C  C143  1  0.60700000  0.86500000  0.54800000  1.0 -0.1500721746
C  C144  1  0.89300000  0.13500000  0.04800000  1.0 -0.1500721746
C  C145  1  0.07200000  0.61200000  0.51300000  1.0 -0.0697915999
C  C146  1  0.42800000  0.38800000  0.01300000  1.0 -0.0697915999
C  C147  1  0.57200000  0.88800000  0.48700000  1.0 -0.0697915999
C  C148  1  0.92800000  0.11200000  0.98700000  1.0 -0.0697915999
C  C149  1  0.13400000  0.63900000  0.56700000  1.0 -0.1712922266
C  C150  1  0.36600000  0.36100000  0.06700000  1.0 -0.1712922266
C  C151  1  0.63400000  0.86100000  0.43300000  1.0 -0.1712922266
C  C152  1  0.86600000  0.13900000  0.93300000  1.0 -0.1712922266
N  N1  1  0.98200000  0.95800000  0.50070000  1.0 -0.4790048399
N  N2  1  0.51800000  0.04200000  0.00070000  1.0 -0.4790048399
N  N3  1  0.48200000  0.54200000  0.49930000  1.0 -0.4790048399
N  N4  1  0.01800000  0.45800000  0.99930000  1.0 -0.4790048399
N  N5  1  0.84700000  0.99180000  0.60060000  1.0 -0.2852624119
N  N6  1  0.65300000  0.00820000  0.10060000  1.0 -0.2852624119
N  N7  1  0.34700000  0.50820000  0.39940000  1.0 -0.2852624119
N  N8  1  0.15300000  0.49180000  0.89940000  1.0 -0.2852624119
N  N9  1  0.93800000  0.90410000  0.68180000  1.0 -0.4675532342
N  N10  1  0.56200000  0.09590000  0.18180000  1.0 -0.4675532342
N  N11  1  0.43800000  0.59590000  0.31820000  1.0 -0.4675532342
N  N12  1  0.06200000  0.40410000  0.81820000  1.0 -0.4675532342
N  N13  1  0.35400000  0.91830000  0.67740000  1.0 -0.4570601494
N  N14  1  0.14600000  0.08170000  0.17740000  1.0 -0.4570601494
N  N15  1  0.85400000  0.58170000  0.32260000  1.0 -0.4570601494
N  N16  1  0.64600000  0.41830000  0.82260000  1.0 -0.4570601494
N  N17  1  0.42500000  0.79290000  0.70420000  1.0 -0.2969115288
N  N18  1  0.07500000  0.20710000  0.20420000  1.0 -0.2969115288
N  N19  1  0.92500000  0.70710000  0.29580000  1.0 -0.2969115288
N  N20  1  0.57500000  0.29290000  0.79580000  1.0 -0.2969115288
N  N21  1  0.31500000  0.72480000  0.61410000  1.0 -0.4790048399
N  N22  1  0.18500000  0.27520000  0.11410000  1.0 -0.4790048399
N  N23  1  0.81500000  0.77520000  0.38590000  1.0 -0.4790048399
N  N24  1  0.68500000  0.22480000  0.88590000  1.0 -0.4790048399
O  O1  1  0.14800000  0.85440000  0.58070000  1.0 -0.7653302462
O  O2  1  0.35200000  0.14560000  0.08070000  1.0 -0.7653302462
O  O3  1  0.64800000  0.64560000  0.41930000  1.0 -0.7653302462
O  O4  1  0.85200000  0.35440000  0.91930000  1.0 -0.7653302462
O  O5  1  0.84300000  0.03510000  0.43930000  1.0 -0.5836994857
O  O6  1  0.65700000  0.96490000  0.93930000  1.0 -0.5836994857
O  O7  1  0.34300000  0.46490000  0.56070000  1.0 -0.5836994857
O  O8  1  0.15700000  0.53510000  0.06070000  1.0 -0.5836994857
O  O9  1  0.82200000  0.96300000  0.76380000  1.0 -0.5455156476
O  O10  1  0.67800000  0.03700000  0.26380000  1.0 -0.5455156476
O  O11  1  0.32200000  0.53700000  0.23620000  1.0 -0.5455156476
O  O12  1  0.17800000  0.46300000  0.73620000  1.0 -0.5455156476
O  O13  1  0.46800000  0.96030000  0.76680000  1.0 -0.5404332489
O  O14  1  0.03200000  0.03970000  0.26680000  1.0 -0.5404332489
O  O15  1  0.96800000  0.53970000  0.23320000  1.0 -0.5404332489
O  O16  1  0.53200000  0.46030000  0.73320000  1.0 -0.5404332489
O  O17  1  0.35700000  0.62040000  0.66780000  1.0 -0.5670579583
O  O18  1  0.14300000  0.37960000  0.16780000  1.0 -0.5670579583
O  O19  1  0.85700000  0.87960000  0.33220000  1.0 -0.5670579583
O  O20  1  0.64300000  0.12040000  0.83220000  1.0 -0.5670579583
