# DDEC6 charges by PACMAN v1.1 (https://github.com/mtap-research/PACMAN-charge/)
data_WOHZAU01_FSR_pacman
_symmetry_space_group_name_H-M   'P 1'
_cell_length_a   9.07572000
_cell_length_b   9.07572000
_cell_length_c   15.92200000
_cell_angle_alpha   88.45860000
_cell_angle_beta   91.54140000
_cell_angle_gamma   95.10990000
_symmetry_Int_Tables_number   1
_chemical_formula_structural   ErC9O8
_chemical_formula_sum   'Er4 C36 O32'
_cell_volume   1305.39397112
_cell_formula_units_Z   4
loop_
 _symmetry_equiv_pos_site_id
 _symmetry_equiv_pos_as_xyz
  1  'x, y, z'
loop_
 _atom_site_type_symbol
 _atom_site_label
 _atom_site_symmetry_multiplicity
 _atom_site_fract_x
 _atom_site_fract_y
 _atom_site_fract_z
 _atom_site_occupancy
 _atom_site_charge
Er  Er1  1  0.02240000  0.77798000  0.51079000  1.0 1.9868644585
Er  Er2  1  0.77798000  0.02240000  0.98921000  1.0 1.9868644585
Er  Er3  1  0.97760000  0.22202000  0.48921000  1.0 1.9868644585
Er  Er4  1  0.22202000  0.97760000  0.01079000  1.0 1.9868644585
C  C1  1  0.90990000  0.52750000  0.37040000  1.0 0.693955492
C  C2  1  0.52750000  0.90990000  0.12960000  1.0 0.693955492
C  C3  1  0.09010000  0.47250000  0.62960000  1.0 0.693955492
C  C4  1  0.47250000  0.09010000  0.87040000  1.0 0.693955492
C  C5  1  0.00390000  0.77250000  0.09140000  1.0 0.6491054852
C  C6  1  0.77250000  0.00390000  0.40860000  1.0 0.6491054852
C  C7  1  0.99610000  0.22750000  0.90860000  1.0 0.6491054852
C  C8  1  0.22750000  0.99610000  0.59140000  1.0 0.6491054852
C  C9  1  0.77420000  0.25740000  0.09760000  1.0 0.6003667076
C  C10  1  0.25740000  0.77420000  0.40240000  1.0 0.6003667076
C  C11  1  0.22580000  0.74260000  0.90240000  1.0 0.6003667076
C  C12  1  0.74260000  0.22580000  0.59760000  1.0 0.6003667076
C  C13  1  0.85460000  0.53300000  0.27850000  1.0 -0.1370754133
C  C14  1  0.53300000  0.85460000  0.22150000  1.0 -0.1370754133
C  C15  1  0.14540000  0.46700000  0.72150000  1.0 -0.1370754133
C  C16  1  0.46700000  0.14540000  0.77850000  1.0 -0.1370754133
C  C17  1  0.95490000  0.64990000  0.23000000  1.0 -0.0258034764
C  C18  1  0.64990000  0.95490000  0.27000000  1.0 -0.0258034764
C  C19  1  0.04510000  0.35010000  0.77000000  1.0 -0.0258034764
C  C20  1  0.35010000  0.04510000  0.73000000  1.0 -0.0258034764
C  C21  1  0.90100000  0.66640000  0.13890000  1.0 -0.1236359256
C  C22  1  0.66640000  0.90100000  0.36110000  1.0 -0.1236359256
C  C23  1  0.09900000  0.33360000  0.86110000  1.0 -0.1236359256
C  C24  1  0.33360000  0.09900000  0.63890000  1.0 -0.1236359256
C  C25  1  0.88380000  0.51560000  0.09350000  1.0 0.0286119261
C  C26  1  0.51560000  0.88380000  0.40650000  1.0 0.0247700025
C  C27  1  0.11620000  0.48440000  0.90650000  1.0 0.0286119261
C  C28  1  0.48440000  0.11620000  0.59350000  1.0 0.0247700025
C  C29  1  0.78560000  0.40160000  0.14440000  1.0 -0.1106086656
C  C30  1  0.40160000  0.78560000  0.35560000  1.0 -0.1106086656
C  C31  1  0.21440000  0.59840000  0.85560000  1.0 -0.1106086656
C  C32  1  0.59840000  0.21440000  0.64440000  1.0 -0.1106086656
C  C33  1  0.84600000  0.38320000  0.23550000  1.0 0.1179705495
C  C34  1  0.38320000  0.84600000  0.26450000  1.0 0.1179705495
C  C35  1  0.15400000  0.61680000  0.76450000  1.0 0.1179705495
C  C36  1  0.61680000  0.15400000  0.73550000  1.0 0.1133545001
O  O1  1  0.90570000  0.63930000  0.41210000  1.0 -0.6105114038
O  O2  1  0.63930000  0.90570000  0.08790000  1.0 -0.6105114038
O  O3  1  0.09430000  0.36070000  0.58790000  1.0 -0.6105114038
O  O4  1  0.36070000  0.09430000  0.91210000  1.0 -0.6105114038
O  O5  1  0.95890000  0.41030000  0.39970000  1.0 -0.6105114038
O  O6  1  0.41030000  0.95890000  0.10030000  1.0 -0.6105114038
O  O7  1  0.04110000  0.58970000  0.60030000  1.0 -0.6105114038
O  O8  1  0.58970000  0.04110000  0.89970000  1.0 -0.6105114038
O  O9  1  0.14100000  0.75680000  0.08830000  1.0 -0.5576570521
O  O10  1  0.75680000  0.14100000  0.41170000  1.0 -0.5576570521
O  O11  1  0.85900000  0.24320000  0.91170000  1.0 -0.5576570521
O  O12  1  0.24320000  0.85900000  0.58830000  1.0 -0.5576570521
O  O13  1  0.95610000  0.88430000  0.05000000  1.0 -0.6839947294
O  O14  1  0.88430000  0.95610000  0.45000000  1.0 -0.6860309432
O  O15  1  0.04390000  0.11570000  0.95000000  1.0 -0.6839947294
O  O16  1  0.11570000  0.04390000  0.55000000  1.0 -0.6860309432
O  O17  1  0.87630000  0.17550000  0.10080000  1.0 -0.5120325427
O  O18  1  0.17550000  0.87630000  0.39920000  1.0 -0.5120325427
O  O19  1  0.12370000  0.82450000  0.89920000  1.0 -0.5120325427
O  O20  1  0.82450000  0.12370000  0.60080000  1.0 -0.5120325427
O  O21  1  0.66270000  0.22450000  0.04880000  1.0 -0.5890715758
O  O22  1  0.22450000  0.66270000  0.45120000  1.0 -0.5890715758
O  O23  1  0.33730000  0.77550000  0.95120000  1.0 -0.5890715758
O  O24  1  0.77550000  0.33730000  0.54880000  1.0 -0.5890715758
O  O25  1  0.88820000  0.84260000  0.62400000  1.0 -0.3593403091
O  O26  1  0.84260000  0.88820000  0.87600000  1.0 -0.3593403091
O  O27  1  0.11180000  0.15740000  0.37600000  1.0 -0.3678867112
O  O28  1  0.15740000  0.11180000  0.12400000  1.0 -0.3593403091
O  O29  1  0.76650000  0.65750000  0.53650000  1.0 0.2512890408
O  O30  1  0.65750000  0.76650000  0.96350000  1.0 0.2512890408
O  O31  1  0.23350000  0.34250000  0.46350000  1.0 0.2445231189
O  O32  1  0.34250000  0.23350000  0.03650000  1.0 0.2512890408
