# DDEC6 charges by PACMAN v1.1 (https://github.com/mtap-research/PACMAN-charge/)
data_WOLREV_ASR_pacman
_symmetry_space_group_name_H-M   'P 1'
_cell_length_a   30.70180000
_cell_length_b   30.70180000
_cell_length_c   30.70180000
_cell_angle_alpha   109.47100000
_cell_angle_beta   109.47100000
_cell_angle_gamma   109.47100000
_symmetry_Int_Tables_number   1
_chemical_formula_structural   Mn2H16C29N16
_chemical_formula_sum   'Mn24 H192 C348 N192'
_cell_volume   22277.84467300
_cell_formula_units_Z   12
loop_
 _symmetry_equiv_pos_site_id
 _symmetry_equiv_pos_as_xyz
  1  'x, y, z'
loop_
 _atom_site_type_symbol
 _atom_site_label
 _atom_site_symmetry_multiplicity
 _atom_site_fract_x
 _atom_site_fract_y
 _atom_site_fract_z
 _atom_site_occupancy
 _atom_site_charge
Mn  Mn1  1  0.50000000  0.00000000  0.50000000  1.0 0.5978689658
Mn  Mn2  1  0.50000000  0.50000000  0.00000000  1.0 0.5978689658
Mn  Mn3  1  0.00000000  0.50000000  0.50000000  1.0 0.5978689658
Mn  Mn4  1  0.50000000  0.50000000  0.50000000  1.0 0.5978689658
Mn  Mn5  1  0.00000000  0.50000000  0.00000000  1.0 0.5978689658
Mn  Mn6  1  0.00000000  0.00000000  0.50000000  1.0 0.5978689658
Mn  Mn7  1  0.50000000  0.00000000  0.00000000  1.0 0.5978689658
Mn  Mn8  1  0.00000000  0.00000000  0.00000000  1.0 0.5978689658
Mn  Mn9  1  0.50000000  0.00000000  0.63196000  1.0 0.5607780995
Mn  Mn10  1  0.63196000  0.50000000  0.00000000  1.0 0.5607780995
Mn  Mn11  1  0.00000000  0.63196000  0.50000000  1.0 0.5607780995
Mn  Mn12  1  0.63196000  0.63196000  0.63196000  1.0 0.5607780995
Mn  Mn13  1  0.86804000  0.50000000  0.00000000  1.0 0.5607780995
Mn  Mn14  1  0.00000000  0.86804000  0.50000000  1.0 0.5607780995
Mn  Mn15  1  0.50000000  0.00000000  0.86804000  1.0 0.5607780995
Mn  Mn16  1  0.86804000  0.86804000  0.86804000  1.0 0.5654066148
Mn  Mn17  1  0.50000000  0.00000000  0.36804000  1.0 0.5607780995
Mn  Mn18  1  0.36804000  0.50000000  0.00000000  1.0 0.5607780995
Mn  Mn19  1  0.00000000  0.36804000  0.50000000  1.0 0.5607780995
Mn  Mn20  1  0.36804000  0.36804000  0.36804000  1.0 0.5607780995
Mn  Mn21  1  0.13196000  0.50000000  0.00000000  1.0 0.5607780995
Mn  Mn22  1  0.00000000  0.13196000  0.50000000  1.0 0.5607780995
Mn  Mn23  1  0.50000000  0.00000000  0.13196000  1.0 0.5607780995
Mn  Mn24  1  0.13196000  0.13196000  0.13196000  1.0 0.5607780995
H  H1  1  0.30950000  0.69700000  0.47350000  1.0 0.121446662
H  H2  1  0.47350000  0.30950000  0.69700000  1.0 0.121446662
H  H3  1  0.69700000  0.47350000  0.30950000  1.0 0.121446662
H  H4  1  0.66400000  0.77650000  0.47350000  1.0 0.121446662
H  H5  1  0.83600000  0.30950000  0.11250000  1.0 0.121446662
H  H6  1  0.69700000  0.72350000  0.38750000  1.0 0.121446662
H  H7  1  0.72350000  0.38750000  0.69700000  1.0 0.121446662
H  H8  1  0.30950000  0.11250000  0.83600000  1.0 0.121446662
H  H9  1  0.77650000  0.47350000  0.66400000  1.0 0.121446662
H  H10  1  0.11250000  0.83600000  0.30950000  1.0 0.121446662
H  H11  1  0.38750000  0.69700000  0.72350000  1.0 0.121446662
H  H12  1  0.47350000  0.66400000  0.77650000  1.0 0.121446662
H  H13  1  0.80300000  0.19050000  0.02650000  1.0 0.121446662
H  H14  1  0.19050000  0.02650000  0.80300000  1.0 0.121446662
H  H15  1  0.02650000  0.80300000  0.19050000  1.0 0.121446662
H  H16  1  0.72350000  0.83600000  0.02650000  1.0 0.121446662
H  H17  1  0.77650000  0.80300000  0.11250000  1.0 0.121446662
H  H18  1  0.19050000  0.66400000  0.38750000  1.0 0.121446662
H  H19  1  0.02650000  0.72350000  0.83600000  1.0 0.121446662
H  H20  1  0.11250000  0.77650000  0.80300000  1.0 0.121446662
H  H21  1  0.38750000  0.19050000  0.66400000  1.0 0.121446662
H  H22  1  0.83600000  0.02650000  0.72350000  1.0 0.121446662
H  H23  1  0.80300000  0.11250000  0.77650000  1.0 0.121446662
H  H24  1  0.66400000  0.38750000  0.19050000  1.0 0.121446662
H  H25  1  0.69050000  0.30300000  0.52650000  1.0 0.121446662
H  H26  1  0.52650000  0.69050000  0.30300000  1.0 0.121446662
H  H27  1  0.30300000  0.52650000  0.69050000  1.0 0.121446662
H  H28  1  0.33600000  0.22350000  0.52650000  1.0 0.121446662
H  H29  1  0.16400000  0.69050000  0.88750000  1.0 0.121446662
H  H30  1  0.30300000  0.27650000  0.61250000  1.0 0.121446662
H  H31  1  0.27650000  0.61250000  0.30300000  1.0 0.121446662
H  H32  1  0.69050000  0.88750000  0.16400000  1.0 0.121446662
H  H33  1  0.22350000  0.52650000  0.33600000  1.0 0.121446662
H  H34  1  0.88750000  0.16400000  0.69050000  1.0 0.121446662
H  H35  1  0.61250000  0.30300000  0.27650000  1.0 0.121446662
H  H36  1  0.52650000  0.33600000  0.22350000  1.0 0.121446662
H  H37  1  0.19700000  0.80950000  0.97350000  1.0 0.121446662
H  H38  1  0.80950000  0.97350000  0.19700000  1.0 0.121446662
H  H39  1  0.97350000  0.19700000  0.80950000  1.0 0.121446662
H  H40  1  0.27650000  0.16400000  0.97350000  1.0 0.121446662
H  H41  1  0.22350000  0.19700000  0.88750000  1.0 0.121446662
H  H42  1  0.80950000  0.33600000  0.61250000  1.0 0.121446662
H  H43  1  0.97350000  0.27650000  0.16400000  1.0 0.121446662
H  H44  1  0.88750000  0.22350000  0.19700000  1.0 0.121446662
H  H45  1  0.61250000  0.80950000  0.33600000  1.0 0.121446662
H  H46  1  0.16400000  0.97350000  0.27650000  1.0 0.121446662
H  H47  1  0.19700000  0.88750000  0.22350000  1.0 0.121446662
H  H48  1  0.33600000  0.61250000  0.80950000  1.0 0.121446662
H  H49  1  0.36620000  0.78770000  0.52250000  1.0 0.121446662
H  H50  1  0.52250000  0.36620000  0.78770000  1.0 0.121446662
H  H51  1  0.78770000  0.52250000  0.36620000  1.0 0.121446662
H  H52  1  0.65630000  0.73480000  0.52250000  1.0 0.121446662
H  H53  1  0.84370000  0.36620000  0.07850000  1.0 0.121446662
H  H54  1  0.78770000  0.76520000  0.42150000  1.0 0.121446662
H  H55  1  0.76520000  0.42150000  0.78770000  1.0 0.121446662
H  H56  1  0.36620000  0.07850000  0.84370000  1.0 0.121446662
H  H57  1  0.73480000  0.52250000  0.65630000  1.0 0.121446662
H  H58  1  0.07850000  0.84370000  0.36620000  1.0 0.121446662
H  H59  1  0.42150000  0.78770000  0.76520000  1.0 0.121446662
H  H60  1  0.52250000  0.65630000  0.73480000  1.0 0.121446662
H  H61  1  0.71230000  0.13380000  0.97750000  1.0 0.121446662
H  H62  1  0.13380000  0.97750000  0.71230000  1.0 0.121446662
H  H63  1  0.97750000  0.71230000  0.13380000  1.0 0.121446662
H  H64  1  0.76520000  0.84370000  0.97750000  1.0 0.121446662
H  H65  1  0.73480000  0.71230000  0.07850000  1.0 0.121446662
H  H66  1  0.13380000  0.65630000  0.42150000  1.0 0.121446662
H  H67  1  0.97750000  0.76520000  0.84370000  1.0 0.121446662
H  H68  1  0.07850000  0.73480000  0.71230000  1.0 0.121446662
H  H69  1  0.42150000  0.13380000  0.65630000  1.0 0.121446662
H  H70  1  0.84370000  0.97750000  0.76520000  1.0 0.121446662
H  H71  1  0.71230000  0.07850000  0.73480000  1.0 0.121446662
H  H72  1  0.65630000  0.42150000  0.13380000  1.0 0.121446662
H  H73  1  0.63380000  0.21230000  0.47750000  1.0 0.121446662
H  H74  1  0.47750000  0.63380000  0.21230000  1.0 0.121446662
H  H75  1  0.21230000  0.47750000  0.63380000  1.0 0.121446662
H  H76  1  0.34370000  0.26520000  0.47750000  1.0 0.121446662
H  H77  1  0.15630000  0.63380000  0.92150000  1.0 0.121446662
H  H78  1  0.21230000  0.23480000  0.57850000  1.0 0.121446662
H  H79  1  0.23480000  0.57850000  0.21230000  1.0 0.121446662
H  H80  1  0.63380000  0.92150000  0.15630000  1.0 0.121446662
H  H81  1  0.26520000  0.47750000  0.34370000  1.0 0.121446662
H  H82  1  0.92150000  0.15630000  0.63380000  1.0 0.121446662
H  H83  1  0.57850000  0.21230000  0.23480000  1.0 0.121446662
H  H84  1  0.47750000  0.34370000  0.26520000  1.0 0.121446662
H  H85  1  0.28770000  0.86620000  0.02250000  1.0 0.121446662
H  H86  1  0.86620000  0.02250000  0.28770000  1.0 0.121446662
H  H87  1  0.02250000  0.28770000  0.86620000  1.0 0.121446662
H  H88  1  0.23480000  0.15630000  0.02250000  1.0 0.121446662
H  H89  1  0.26520000  0.28770000  0.92150000  1.0 0.121446662
H  H90  1  0.86620000  0.34370000  0.57850000  1.0 0.121446662
H  H91  1  0.02250000  0.23480000  0.15630000  1.0 0.121446662
H  H92  1  0.92150000  0.26520000  0.28770000  1.0 0.121446662
H  H93  1  0.57850000  0.86620000  0.34370000  1.0 0.121446662
H  H94  1  0.15630000  0.02250000  0.23480000  1.0 0.121446662
H  H95  1  0.28770000  0.92150000  0.26520000  1.0 0.121446662
H  H96  1  0.34370000  0.57850000  0.86620000  1.0 0.121446662
H  H97  1  0.27510000  0.69460000  0.33750000  1.0 0.121446662
H  H98  1  0.33750000  0.27510000  0.69460000  1.0 0.121446662
H  H99  1  0.69460000  0.33750000  0.27510000  1.0 0.121446662
H  H100  1  0.56240000  0.64290000  0.33750000  1.0 0.121446662
H  H101  1  0.93760000  0.27510000  0.08050000  1.0 0.121446662
H  H102  1  0.69460000  0.85710000  0.41950000  1.0 0.121446662
H  H103  1  0.85710000  0.41950000  0.69460000  1.0 0.121446662
H  H104  1  0.27510000  0.08050000  0.93760000  1.0 0.121446662
H  H105  1  0.64290000  0.33750000  0.56240000  1.0 0.121446662
H  H106  1  0.08050000  0.93760000  0.27510000  1.0 0.121446662
H  H107  1  0.41950000  0.69460000  0.85710000  1.0 0.121446662
H  H108  1  0.33750000  0.56240000  0.64290000  1.0 0.121446662
H  H109  1  0.80540000  0.22490000  0.16250000  1.0 0.121446662
H  H110  1  0.22490000  0.16250000  0.80540000  1.0 0.121446662
H  H111  1  0.16250000  0.80540000  0.22490000  1.0 0.121446662
H  H112  1  0.85710000  0.93760000  0.16250000  1.0 0.121446662
H  H113  1  0.64290000  0.80540000  0.08050000  1.0 0.121446662
H  H114  1  0.22490000  0.56240000  0.41950000  1.0 0.121446662
H  H115  1  0.16250000  0.85710000  0.93760000  1.0 0.121446662
H  H116  1  0.08050000  0.64290000  0.80540000  1.0 0.121446662
H  H117  1  0.41950000  0.22490000  0.56240000  1.0 0.121446662
H  H118  1  0.93760000  0.16250000  0.85710000  1.0 0.121446662
H  H119  1  0.80540000  0.08050000  0.64290000  1.0 0.121446662
H  H120  1  0.56240000  0.41950000  0.22490000  1.0 0.121446662
H  H121  1  0.72490000  0.30540000  0.66250000  1.0 0.121446662
H  H122  1  0.66250000  0.72490000  0.30540000  1.0 0.121446662
H  H123  1  0.30540000  0.66250000  0.72490000  1.0 0.121446662
H  H124  1  0.43760000  0.35710000  0.66250000  1.0 0.121446662
H  H125  1  0.06240000  0.72490000  0.91950000  1.0 0.121446662
H  H126  1  0.30540000  0.14290000  0.58050000  1.0 0.121446662
H  H127  1  0.14290000  0.58050000  0.30540000  1.0 0.121446662
H  H128  1  0.72490000  0.91950000  0.06240000  1.0 0.121446662
H  H129  1  0.35710000  0.66250000  0.43760000  1.0 0.121446662
H  H130  1  0.91950000  0.06240000  0.72490000  1.0 0.121446662
H  H131  1  0.58050000  0.30540000  0.14290000  1.0 0.121446662
H  H132  1  0.66250000  0.43760000  0.35710000  1.0 0.121446662
H  H133  1  0.19460000  0.77510000  0.83750000  1.0 0.121446662
H  H134  1  0.77510000  0.83750000  0.19460000  1.0 0.121446662
H  H135  1  0.83750000  0.19460000  0.77510000  1.0 0.121446662
H  H136  1  0.14290000  0.06240000  0.83750000  1.0 0.121446662
H  H137  1  0.35710000  0.19460000  0.91950000  1.0 0.121446662
H  H138  1  0.77510000  0.43760000  0.58050000  1.0 0.121446662
H  H139  1  0.83750000  0.14290000  0.06240000  1.0 0.121446662
H  H140  1  0.91950000  0.35710000  0.19460000  1.0 0.121446662
H  H141  1  0.58050000  0.77510000  0.43760000  1.0 0.121446662
H  H142  1  0.06240000  0.83750000  0.14290000  1.0 0.121446662
H  H143  1  0.19460000  0.91950000  0.35710000  1.0 0.121446662
H  H144  1  0.43760000  0.58050000  0.77510000  1.0 0.121446662
H  H145  1  0.33280000  0.78400000  0.38340000  1.0 0.1268643829
H  H146  1  0.38340000  0.33280000  0.78400000  1.0 0.1268643829
H  H147  1  0.78400000  0.38340000  0.33280000  1.0 0.1268643829
H  H148  1  0.55060000  0.59940000  0.38340000  1.0 0.1268643829
H  H149  1  0.94940000  0.33280000  0.04880000  1.0 0.1268643829
H  H150  1  0.78400000  0.90060000  0.45120000  1.0 0.1268643829
H  H151  1  0.90060000  0.45120000  0.78400000  1.0 0.1268643829
H  H152  1  0.33280000  0.04880000  0.94940000  1.0 0.1268643829
H  H153  1  0.59940000  0.38340000  0.55060000  1.0 0.1268643829
H  H154  1  0.04880000  0.94940000  0.33280000  1.0 0.1268643829
H  H155  1  0.45120000  0.78400000  0.90060000  1.0 0.1268643829
H  H156  1  0.38340000  0.55060000  0.59940000  1.0 0.1268643829
H  H157  1  0.71600000  0.16720000  0.11660000  1.0 0.1268643829
H  H158  1  0.16720000  0.11660000  0.71600000  1.0 0.1268643829
H  H159  1  0.11660000  0.71600000  0.16720000  1.0 0.1268643829
H  H160  1  0.90060000  0.94940000  0.11660000  1.0 0.1268643829
H  H161  1  0.59940000  0.71600000  0.04880000  1.0 0.1268643829
H  H162  1  0.16720000  0.55060000  0.45120000  1.0 0.1268643829
H  H163  1  0.11660000  0.90060000  0.94940000  1.0 0.1268643829
H  H164  1  0.04880000  0.59940000  0.71600000  1.0 0.1268643829
H  H165  1  0.45120000  0.16720000  0.55060000  1.0 0.1268643829
H  H166  1  0.94940000  0.11660000  0.90060000  1.0 0.1268643829
H  H167  1  0.71600000  0.04880000  0.59940000  1.0 0.1268643829
H  H168  1  0.55060000  0.45120000  0.16720000  1.0 0.1268643829
H  H169  1  0.66720000  0.21600000  0.61660000  1.0 0.1268643829
H  H170  1  0.61660000  0.66720000  0.21600000  1.0 0.1268643829
H  H171  1  0.21600000  0.61660000  0.66720000  1.0 0.1268643829
H  H172  1  0.44940000  0.40060000  0.61660000  1.0 0.1268643829
H  H173  1  0.05060000  0.66720000  0.95120000  1.0 0.1268643829
H  H174  1  0.21600000  0.09940000  0.54880000  1.0 0.1268643829
H  H175  1  0.09940000  0.54880000  0.21600000  1.0 0.1268643829
H  H176  1  0.66720000  0.95120000  0.05060000  1.0 0.1268643829
H  H177  1  0.40060000  0.61660000  0.44940000  1.0 0.1268643829
H  H178  1  0.95120000  0.05060000  0.66720000  1.0 0.1268643829
H  H179  1  0.54880000  0.21600000  0.09940000  1.0 0.1268643829
H  H180  1  0.61660000  0.44940000  0.40060000  1.0 0.1268643829
H  H181  1  0.28400000  0.83280000  0.88340000  1.0 0.1268643829
H  H182  1  0.83280000  0.88340000  0.28400000  1.0 0.1268643829
H  H183  1  0.88340000  0.28400000  0.83280000  1.0 0.1268643829
H  H184  1  0.09940000  0.05060000  0.88340000  1.0 0.1268643829
H  H185  1  0.40060000  0.28400000  0.95120000  1.0 0.1268643829
H  H186  1  0.83280000  0.44940000  0.54880000  1.0 0.1268643829
H  H187  1  0.88340000  0.09940000  0.05060000  1.0 0.1268643829
H  H188  1  0.95120000  0.40060000  0.28400000  1.0 0.1268643829
H  H189  1  0.54880000  0.83280000  0.44940000  1.0 0.1268643829
H  H190  1  0.05060000  0.88340000  0.09940000  1.0 0.1268643829
H  H191  1  0.28400000  0.95120000  0.40060000  1.0 0.1268643829
H  H192  1  0.44940000  0.54880000  0.83280000  1.0 0.1268643829
C  C1  1  0.25000000  0.62500000  0.37500000  1.0 0.0080301479
C  C2  1  0.37500000  0.25000000  0.62500000  1.0 0.0080301479
C  C3  1  0.62500000  0.37500000  0.25000000  1.0 0.0080301479
C  C4  1  0.62500000  0.75000000  0.37500000  1.0 0.0080301479
C  C5  1  0.87500000  0.25000000  0.12500000  1.0 0.0080301479
C  C6  1  0.75000000  0.37500000  0.62500000  1.0 0.0080301479
C  C7  1  0.25000000  0.12500000  0.87500000  1.0 0.0080301479
C  C8  1  0.12500000  0.87500000  0.25000000  1.0 0.0080301479
C  C9  1  0.37500000  0.62500000  0.75000000  1.0 0.0080301479
C  C10  1  0.75000000  0.87500000  0.12500000  1.0 0.0080301479
C  C11  1  0.12500000  0.75000000  0.87500000  1.0 0.0080301479
C  C12  1  0.87500000  0.12500000  0.75000000  1.0 0.0080301479
C  C13  1  0.39480000  0.85090000  0.48430000  1.0 0.1877802451
C  C14  1  0.48430000  0.39480000  0.85090000  1.0 0.1877802451
C  C15  1  0.85090000  0.48430000  0.39480000  1.0 0.1877802451
C  C16  1  0.58950000  0.63340000  0.48430000  1.0 0.1877802451
C  C17  1  0.91050000  0.39480000  0.04390000  1.0 0.1877802451
C  C18  1  0.85090000  0.86660000  0.45610000  1.0 0.1877802451
C  C19  1  0.86660000  0.45610000  0.85090000  1.0 0.1877802451
C  C20  1  0.39480000  0.04390000  0.91050000  1.0 0.1877802451
C  C21  1  0.63340000  0.48430000  0.58950000  1.0 0.1877802451
C  C22  1  0.04390000  0.91050000  0.39480000  1.0 0.1877802451
C  C23  1  0.45610000  0.85090000  0.86660000  1.0 0.1877802451
C  C24  1  0.48430000  0.58950000  0.63340000  1.0 0.1877802451
C  C25  1  0.64910000  0.10520000  0.01570000  1.0 0.1877802451
C  C26  1  0.10520000  0.01570000  0.64910000  1.0 0.1877802451
C  C27  1  0.01570000  0.64910000  0.10520000  1.0 0.1877802451
C  C28  1  0.86660000  0.91050000  0.01570000  1.0 0.1877802451
C  C29  1  0.63340000  0.64910000  0.04390000  1.0 0.1877802451
C  C30  1  0.10520000  0.58950000  0.45610000  1.0 0.1877802451
C  C31  1  0.01570000  0.86660000  0.91050000  1.0 0.1877802451
C  C32  1  0.04390000  0.63340000  0.64910000  1.0 0.1877802451
C  C33  1  0.45610000  0.10520000  0.58950000  1.0 0.1877802451
C  C34  1  0.91050000  0.01570000  0.86660000  1.0 0.1877802451
C  C35  1  0.64910000  0.04390000  0.63340000  1.0 0.1877802451
C  C36  1  0.58950000  0.45610000  0.10520000  1.0 0.1877802451
C  C37  1  0.60520000  0.14910000  0.51570000  1.0 0.1877802451
C  C38  1  0.51570000  0.60520000  0.14910000  1.0 0.1877802451
C  C39  1  0.14910000  0.51570000  0.60520000  1.0 0.1877802451
C  C40  1  0.41050000  0.36660000  0.51570000  1.0 0.1877802451
C  C41  1  0.08950000  0.60520000  0.95610000  1.0 0.1877802451
C  C42  1  0.14910000  0.13340000  0.54390000  1.0 0.1877802451
C  C43  1  0.13340000  0.54390000  0.14910000  1.0 0.1877802451
C  C44  1  0.60520000  0.95610000  0.08950000  1.0 0.1877802451
C  C45  1  0.36660000  0.51570000  0.41050000  1.0 0.1877802451
C  C46  1  0.95610000  0.08950000  0.60520000  1.0 0.1877802451
C  C47  1  0.54390000  0.14910000  0.13340000  1.0 0.1877802451
C  C48  1  0.51570000  0.41050000  0.36660000  1.0 0.1877802451
C  C49  1  0.35090000  0.89480000  0.98430000  1.0 0.1877802451
C  C50  1  0.89480000  0.98430000  0.35090000  1.0 0.1877802451
C  C51  1  0.98430000  0.35090000  0.89480000  1.0 0.1877802451
C  C52  1  0.13340000  0.08950000  0.98430000  1.0 0.1877802451
C  C53  1  0.36660000  0.35090000  0.95610000  1.0 0.1877802451
C  C54  1  0.89480000  0.41050000  0.54390000  1.0 0.1877802451
C  C55  1  0.98430000  0.13340000  0.08950000  1.0 0.1877802451
C  C56  1  0.95610000  0.36660000  0.35090000  1.0 0.1877802451
C  C57  1  0.54390000  0.89480000  0.41050000  1.0 0.1877802451
C  C58  1  0.08950000  0.98430000  0.13340000  1.0 0.1877802451
C  C59  1  0.35090000  0.95610000  0.36660000  1.0 0.1877802451
C  C60  1  0.41050000  0.54390000  0.89480000  1.0 0.1877802451
C  C61  1  0.35790000  0.79540000  0.45750000  1.0 0.0323753496
C  C62  1  0.45750000  0.35790000  0.79540000  1.0 0.0323753496
C  C63  1  0.79540000  0.45750000  0.35790000  1.0 0.0323753496
C  C64  1  0.59960000  0.66210000  0.45750000  1.0 0.0323753496
C  C65  1  0.90040000  0.35790000  0.06250000  1.0 0.0323753496
C  C66  1  0.79540000  0.83790000  0.43750000  1.0 0.0323753496
C  C67  1  0.83790000  0.43750000  0.79540000  1.0 0.0323753496
C  C68  1  0.35790000  0.06250000  0.90040000  1.0 0.0323753496
C  C69  1  0.66210000  0.45750000  0.59960000  1.0 0.0323753496
C  C70  1  0.06250000  0.90040000  0.35790000  1.0 0.0323753496
C  C71  1  0.43750000  0.79540000  0.83790000  1.0 0.0323753496
C  C72  1  0.45750000  0.59960000  0.66210000  1.0 0.0323753496
C  C73  1  0.70460000  0.14210000  0.04250000  1.0 0.0323753496
C  C74  1  0.14210000  0.04250000  0.70460000  1.0 0.0323753496
C  C75  1  0.04250000  0.70460000  0.14210000  1.0 0.0323753496
C  C76  1  0.83790000  0.90040000  0.04250000  1.0 0.0323753496
C  C77  1  0.66210000  0.70460000  0.06250000  1.0 0.0323753496
C  C78  1  0.14210000  0.59960000  0.43750000  1.0 0.0323753496
C  C79  1  0.04250000  0.83790000  0.90040000  1.0 0.0323753496
C  C80  1  0.06250000  0.66210000  0.70460000  1.0 0.0323753496
C  C81  1  0.43750000  0.14210000  0.59960000  1.0 0.0323753496
C  C82  1  0.90040000  0.04250000  0.83790000  1.0 0.0323753496
C  C83  1  0.70460000  0.06250000  0.66210000  1.0 0.0323753496
C  C84  1  0.59960000  0.43750000  0.14210000  1.0 0.0323753496
C  C85  1  0.64210000  0.20460000  0.54250000  1.0 0.0323753496
C  C86  1  0.54250000  0.64210000  0.20460000  1.0 0.0323753496
C  C87  1  0.20460000  0.54250000  0.64210000  1.0 0.0323753496
C  C88  1  0.40040000  0.33790000  0.54250000  1.0 0.0323753496
C  C89  1  0.09960000  0.64210000  0.93750000  1.0 0.0323753496
C  C90  1  0.20460000  0.16210000  0.56250000  1.0 0.0323753496
C  C91  1  0.16210000  0.56250000  0.20460000  1.0 0.0323753496
C  C92  1  0.64210000  0.93750000  0.09960000  1.0 0.0323753496
C  C93  1  0.33790000  0.54250000  0.40040000  1.0 0.0323753496
C  C94  1  0.93750000  0.09960000  0.64210000  1.0 0.0323753496
C  C95  1  0.56250000  0.20460000  0.16210000  1.0 0.0323753496
C  C96  1  0.54250000  0.40040000  0.33790000  1.0 0.0323753496
C  C97  1  0.29540000  0.85790000  0.95750000  1.0 0.0323753496
C  C98  1  0.85790000  0.95750000  0.29540000  1.0 0.0323753496
C  C99  1  0.95750000  0.29540000  0.85790000  1.0 0.0323753496
C  C100  1  0.16210000  0.09960000  0.95750000  1.0 0.0323753496
C  C101  1  0.33790000  0.29540000  0.93750000  1.0 0.0323753496
C  C102  1  0.85790000  0.40040000  0.56250000  1.0 0.0323753496
C  C103  1  0.95750000  0.16210000  0.09960000  1.0 0.0323753496
C  C104  1  0.93750000  0.33790000  0.29540000  1.0 0.0323753496
C  C105  1  0.56250000  0.85790000  0.40040000  1.0 0.0323753496
C  C106  1  0.09960000  0.95750000  0.16210000  1.0 0.0323753496
C  C107  1  0.29540000  0.93750000  0.33790000  1.0 0.0323753496
C  C108  1  0.40040000  0.56250000  0.85790000  1.0 0.0323753496
C  C109  1  0.31380000  0.71520000  0.45500000  1.0 -0.1643495844
C  C110  1  0.45500000  0.31380000  0.71520000  1.0 -0.1643495844
C  C111  1  0.71520000  0.45500000  0.31380000  1.0 -0.1643495844
C  C112  1  0.64120000  0.73980000  0.45500000  1.0 -0.1643495844
C  C113  1  0.85880000  0.31380000  0.09860000  1.0 -0.1643495844
C  C114  1  0.71520000  0.76020000  0.40140000  1.0 -0.1643495844
C  C115  1  0.76020000  0.40140000  0.71520000  1.0 -0.1643495844
C  C116  1  0.31380000  0.09860000  0.85880000  1.0 -0.1643495844
C  C117  1  0.73980000  0.45500000  0.64120000  1.0 -0.1643495844
C  C118  1  0.09860000  0.85880000  0.31380000  1.0 -0.1643495844
C  C119  1  0.40140000  0.71520000  0.76020000  1.0 -0.1643495844
C  C120  1  0.45500000  0.64120000  0.73980000  1.0 -0.1643495844
C  C121  1  0.78480000  0.18620000  0.04500000  1.0 -0.1643495844
C  C122  1  0.18620000  0.04500000  0.78480000  1.0 -0.1643495844
C  C123  1  0.04500000  0.78480000  0.18620000  1.0 -0.1643495844
C  C124  1  0.76020000  0.85880000  0.04500000  1.0 -0.1643495844
C  C125  1  0.73980000  0.78480000  0.09860000  1.0 -0.1643495844
C  C126  1  0.18620000  0.64120000  0.40140000  1.0 -0.1643495844
C  C127  1  0.04500000  0.76020000  0.85880000  1.0 -0.1643495844
C  C128  1  0.09860000  0.73980000  0.78480000  1.0 -0.1643495844
C  C129  1  0.40140000  0.18620000  0.64120000  1.0 -0.1643495844
C  C130  1  0.85880000  0.04500000  0.76020000  1.0 -0.1643495844
C  C131  1  0.78480000  0.09860000  0.73980000  1.0 -0.1643495844
C  C132  1  0.64120000  0.40140000  0.18620000  1.0 -0.1643495844
C  C133  1  0.68620000  0.28480000  0.54500000  1.0 -0.1643495844
C  C134  1  0.54500000  0.68620000  0.28480000  1.0 -0.1643495844
C  C135  1  0.28480000  0.54500000  0.68620000  1.0 -0.1643495844
C  C136  1  0.35880000  0.26020000  0.54500000  1.0 -0.1643495844
C  C137  1  0.14120000  0.68620000  0.90140000  1.0 -0.1643495844
C  C138  1  0.28480000  0.23980000  0.59860000  1.0 -0.1643495844
C  C139  1  0.23980000  0.59860000  0.28480000  1.0 -0.1643495844
C  C140  1  0.68620000  0.90140000  0.14120000  1.0 -0.1643495844
C  C141  1  0.26020000  0.54500000  0.35880000  1.0 -0.1643495844
C  C142  1  0.90140000  0.14120000  0.68620000  1.0 -0.1643495844
C  C143  1  0.59860000  0.28480000  0.23980000  1.0 -0.1643495844
C  C144  1  0.54500000  0.35880000  0.26020000  1.0 -0.1643495844
C  C145  1  0.21520000  0.81380000  0.95500000  1.0 -0.1643495844
C  C146  1  0.81380000  0.95500000  0.21520000  1.0 -0.1643495844
C  C147  1  0.95500000  0.21520000  0.81380000  1.0 -0.1643495844
C  C148  1  0.23980000  0.14120000  0.95500000  1.0 -0.1643495844
C  C149  1  0.26020000  0.21520000  0.90140000  1.0 -0.1643495844
C  C150  1  0.81380000  0.35880000  0.59860000  1.0 -0.1643495844
C  C151  1  0.95500000  0.23980000  0.14120000  1.0 -0.1643495844
C  C152  1  0.90140000  0.26020000  0.21520000  1.0 -0.1643495844
C  C153  1  0.59860000  0.81380000  0.35880000  1.0 -0.1643495844
C  C154  1  0.14120000  0.95500000  0.23980000  1.0 -0.1643495844
C  C155  1  0.21520000  0.90140000  0.26020000  1.0 -0.1643495844
C  C156  1  0.35880000  0.59860000  0.81380000  1.0 -0.1643495844
C  C157  1  0.28550000  0.68640000  0.40250000  1.0 0.0555167476
C  C158  1  0.40250000  0.28550000  0.68640000  1.0 0.0549328717
C  C159  1  0.68640000  0.40250000  0.28550000  1.0 0.0555167476
C  C160  1  0.61700000  0.71610000  0.40250000  1.0 0.0555167476
C  C161  1  0.88300000  0.28550000  0.09910000  1.0 0.0555167476
C  C162  1  0.68640000  0.78390000  0.40090000  1.0 0.0555167476
C  C163  1  0.78390000  0.40090000  0.68640000  1.0 0.0549328717
C  C164  1  0.28550000  0.09910000  0.88300000  1.0 0.0549328717
C  C165  1  0.71610000  0.40250000  0.61700000  1.0 0.0549328717
C  C166  1  0.09910000  0.88300000  0.28550000  1.0 0.0549328717
C  C167  1  0.40090000  0.68640000  0.78390000  1.0 0.0549328717
C  C168  1  0.40250000  0.61700000  0.71610000  1.0 0.0549328717
C  C169  1  0.81360000  0.21450000  0.09750000  1.0 0.0555167476
C  C170  1  0.21450000  0.09750000  0.81360000  1.0 0.0549328717
C  C171  1  0.09750000  0.81360000  0.21450000  1.0 0.0549328717
C  C172  1  0.78390000  0.88300000  0.09750000  1.0 0.0555167476
C  C173  1  0.71610000  0.81360000  0.09910000  1.0 0.0549328717
C  C174  1  0.21450000  0.61700000  0.40090000  1.0 0.0549328717
C  C175  1  0.09750000  0.78390000  0.88300000  1.0 0.0549328717
C  C176  1  0.09910000  0.71610000  0.81360000  1.0 0.0549328717
C  C177  1  0.40090000  0.21450000  0.61700000  1.0 0.0549328717
C  C178  1  0.88300000  0.09750000  0.78390000  1.0 0.0549328717
C  C179  1  0.81360000  0.09910000  0.71610000  1.0 0.0549328717
C  C180  1  0.61700000  0.40090000  0.21450000  1.0 0.0555167476
C  C181  1  0.71450000  0.31360000  0.59750000  1.0 0.0549328717
C  C182  1  0.59750000  0.71450000  0.31360000  1.0 0.0555167476
C  C183  1  0.31360000  0.59750000  0.71450000  1.0 0.0549328717
C  C184  1  0.38300000  0.28390000  0.59750000  1.0 0.0549328717
C  C185  1  0.11700000  0.71450000  0.90090000  1.0 0.0549328717
C  C186  1  0.31360000  0.21610000  0.59910000  1.0 0.0549328717
C  C187  1  0.21610000  0.59910000  0.31360000  1.0 0.0549328717
C  C188  1  0.71450000  0.90090000  0.11700000  1.0 0.0555167476
C  C189  1  0.28390000  0.59750000  0.38300000  1.0 0.0549328717
C  C190  1  0.90090000  0.11700000  0.71450000  1.0 0.0549328717
C  C191  1  0.59910000  0.31360000  0.21610000  1.0 0.0549328717
C  C192  1  0.59750000  0.38300000  0.28390000  1.0 0.0549328717
C  C193  1  0.18640000  0.78550000  0.90250000  1.0 0.0555167476
C  C194  1  0.78550000  0.90250000  0.18640000  1.0 0.0555167476
C  C195  1  0.90250000  0.18640000  0.78550000  1.0 0.0549328717
C  C196  1  0.21610000  0.11700000  0.90250000  1.0 0.0549328717
C  C197  1  0.28390000  0.18640000  0.90090000  1.0 0.0549328717
C  C198  1  0.78550000  0.38300000  0.59910000  1.0 0.0549328717
C  C199  1  0.90250000  0.21610000  0.11700000  1.0 0.0549328717
C  C200  1  0.90090000  0.28390000  0.18640000  1.0 0.0555167476
C  C201  1  0.59910000  0.78550000  0.38300000  1.0 0.0555167476
C  C202  1  0.11700000  0.90250000  0.21610000  1.0 0.0555167476
C  C203  1  0.18640000  0.90090000  0.28390000  1.0 0.0555167476
C  C204  1  0.38300000  0.59910000  0.78550000  1.0 0.0549328717
C  C205  1  0.34930000  0.76970000  0.48540000  1.0 -0.107040485
C  C206  1  0.48540000  0.34930000  0.76970000  1.0 -0.107040485
C  C207  1  0.76970000  0.48540000  0.34930000  1.0 -0.107040485
C  C208  1  0.63610000  0.71570000  0.48540000  1.0 -0.107040485
C  C209  1  0.86390000  0.34930000  0.07960000  1.0 -0.107040485
C  C210  1  0.76970000  0.78430000  0.42040000  1.0 -0.107040485
C  C211  1  0.78430000  0.42040000  0.76970000  1.0 -0.107040485
C  C212  1  0.34930000  0.07960000  0.86390000  1.0 -0.107040485
C  C213  1  0.71570000  0.48540000  0.63610000  1.0 -0.107040485
C  C214  1  0.07960000  0.86390000  0.34930000  1.0 -0.107040485
C  C215  1  0.42040000  0.76970000  0.78430000  1.0 -0.107040485
C  C216  1  0.48540000  0.63610000  0.71570000  1.0 -0.107040485
C  C217  1  0.73030000  0.15070000  0.01460000  1.0 -0.107040485
C  C218  1  0.15070000  0.01460000  0.73030000  1.0 -0.107040485
C  C219  1  0.01460000  0.73030000  0.15070000  1.0 -0.107040485
C  C220  1  0.78430000  0.86390000  0.01460000  1.0 -0.107040485
C  C221  1  0.71570000  0.73030000  0.07960000  1.0 -0.107040485
C  C222  1  0.15070000  0.63610000  0.42040000  1.0 -0.107040485
C  C223  1  0.01460000  0.78430000  0.86390000  1.0 -0.107040485
C  C224  1  0.07960000  0.71570000  0.73030000  1.0 -0.107040485
C  C225  1  0.42040000  0.15070000  0.63610000  1.0 -0.107040485
C  C226  1  0.86390000  0.01460000  0.78430000  1.0 -0.107040485
C  C227  1  0.73030000  0.07960000  0.71570000  1.0 -0.107040485
C  C228  1  0.63610000  0.42040000  0.15070000  1.0 -0.107040485
C  C229  1  0.65070000  0.23030000  0.51460000  1.0 -0.107040485
C  C230  1  0.51460000  0.65070000  0.23030000  1.0 -0.107040485
C  C231  1  0.23030000  0.51460000  0.65070000  1.0 -0.107040485
C  C232  1  0.36390000  0.28430000  0.51460000  1.0 -0.107040485
C  C233  1  0.13610000  0.65070000  0.92040000  1.0 -0.107040485
C  C234  1  0.23030000  0.21570000  0.57960000  1.0 -0.107040485
C  C235  1  0.21570000  0.57960000  0.23030000  1.0 -0.107040485
C  C236  1  0.65070000  0.92040000  0.13610000  1.0 -0.107040485
C  C237  1  0.28430000  0.51460000  0.36390000  1.0 -0.107040485
C  C238  1  0.92040000  0.13610000  0.65070000  1.0 -0.107040485
C  C239  1  0.57960000  0.23030000  0.21570000  1.0 -0.107040485
C  C240  1  0.51460000  0.36390000  0.28430000  1.0 -0.107040485
C  C241  1  0.26970000  0.84930000  0.98540000  1.0 -0.107040485
C  C242  1  0.84930000  0.98540000  0.26970000  1.0 -0.107040485
C  C243  1  0.98540000  0.26970000  0.84930000  1.0 -0.107040485
C  C244  1  0.21570000  0.13610000  0.98540000  1.0 -0.107040485
C  C245  1  0.28430000  0.26970000  0.92040000  1.0 -0.107040485
C  C246  1  0.84930000  0.36390000  0.57960000  1.0 -0.107040485
C  C247  1  0.98540000  0.21570000  0.13610000  1.0 -0.107040485
C  C248  1  0.92040000  0.28430000  0.26970000  1.0 -0.107040485
C  C249  1  0.57960000  0.84930000  0.36390000  1.0 -0.107040485
C  C250  1  0.13610000  0.98540000  0.21570000  1.0 -0.107040485
C  C251  1  0.26970000  0.92040000  0.28430000  1.0 -0.107040485
C  C252  1  0.36390000  0.57960000  0.84930000  1.0 -0.107040485
C  C253  1  0.29350000  0.71300000  0.37470000  1.0 -0.1733379691
C  C254  1  0.37470000  0.29350000  0.71300000  1.0 -0.1733379691
C  C255  1  0.71300000  0.37470000  0.29350000  1.0 -0.1733379691
C  C256  1  0.58120000  0.66170000  0.37470000  1.0 -0.1733379691
C  C257  1  0.91880000  0.29350000  0.08050000  1.0 -0.1733379691
C  C258  1  0.71300000  0.83830000  0.41950000  1.0 -0.1733379691
C  C259  1  0.83830000  0.41950000  0.71300000  1.0 -0.1733379691
C  C260  1  0.29350000  0.08050000  0.91880000  1.0 -0.1733379691
C  C261  1  0.66170000  0.37470000  0.58120000  1.0 -0.1733379691
C  C262  1  0.08050000  0.91880000  0.29350000  1.0 -0.1733379691
C  C263  1  0.41950000  0.71300000  0.83830000  1.0 -0.1733379691
C  C264  1  0.37470000  0.58120000  0.66170000  1.0 -0.1733379691
C  C265  1  0.78700000  0.20650000  0.12530000  1.0 -0.1733379691
C  C266  1  0.20650000  0.12530000  0.78700000  1.0 -0.1733379691
C  C267  1  0.12530000  0.78700000  0.20650000  1.0 -0.1733379691
C  C268  1  0.83830000  0.91880000  0.12530000  1.0 -0.1733379691
C  C269  1  0.66170000  0.78700000  0.08050000  1.0 -0.1733379691
C  C270  1  0.20650000  0.58120000  0.41950000  1.0 -0.1733379691
C  C271  1  0.12530000  0.83830000  0.91880000  1.0 -0.1733379691
C  C272  1  0.08050000  0.66170000  0.78700000  1.0 -0.1733379691
C  C273  1  0.41950000  0.20650000  0.58120000  1.0 -0.1733379691
C  C274  1  0.91880000  0.12530000  0.83830000  1.0 -0.1733379691
C  C275  1  0.78700000  0.08050000  0.66170000  1.0 -0.1733379691
C  C276  1  0.58120000  0.41950000  0.20650000  1.0 -0.1733379691
C  C277  1  0.70650000  0.28700000  0.62530000  1.0 -0.1733379691
C  C278  1  0.62530000  0.70650000  0.28700000  1.0 -0.1733379691
C  C279  1  0.28700000  0.62530000  0.70650000  1.0 -0.1733379691
C  C280  1  0.41880000  0.33830000  0.62530000  1.0 -0.1733379691
C  C281  1  0.08120000  0.70650000  0.91950000  1.0 -0.1733379691
C  C282  1  0.28700000  0.16170000  0.58050000  1.0 -0.1733379691
C  C283  1  0.16170000  0.58050000  0.28700000  1.0 -0.1733379691
C  C284  1  0.70650000  0.91950000  0.08120000  1.0 -0.1733379691
C  C285  1  0.33830000  0.62530000  0.41880000  1.0 -0.1733379691
C  C286  1  0.91950000  0.08120000  0.70650000  1.0 -0.1733379691
C  C287  1  0.58050000  0.28700000  0.16170000  1.0 -0.1733379691
C  C288  1  0.62530000  0.41880000  0.33830000  1.0 -0.1733379691
C  C289  1  0.21300000  0.79350000  0.87470000  1.0 -0.1733379691
C  C290  1  0.79350000  0.87470000  0.21300000  1.0 -0.1733379691
C  C291  1  0.87470000  0.21300000  0.79350000  1.0 -0.1733379691
C  C292  1  0.16170000  0.08120000  0.87470000  1.0 -0.1733379691
C  C293  1  0.33830000  0.21300000  0.91950000  1.0 -0.1733379691
C  C294  1  0.79350000  0.41880000  0.58050000  1.0 -0.1733379691
C  C295  1  0.87470000  0.16170000  0.08120000  1.0 -0.1733379691
C  C296  1  0.91950000  0.33830000  0.21300000  1.0 -0.1733379691
C  C297  1  0.58050000  0.79350000  0.41880000  1.0 -0.1733379691
C  C298  1  0.08120000  0.87470000  0.16170000  1.0 -0.1733379691
C  C299  1  0.21300000  0.91950000  0.33830000  1.0 -0.1733379691
C  C300  1  0.41880000  0.58050000  0.79350000  1.0 -0.1733379691
C  C301  1  0.32850000  0.76630000  0.40240000  1.0 -0.1016106461
C  C302  1  0.40240000  0.32850000  0.76630000  1.0 -0.1016106461
C  C303  1  0.76630000  0.40240000  0.32850000  1.0 -0.1016106461
C  C304  1  0.57390000  0.63610000  0.40240000  1.0 -0.1016106461
C  C305  1  0.92610000  0.32850000  0.06220000  1.0 -0.1016106461
C  C306  1  0.76630000  0.86390000  0.43780000  1.0 -0.1016106461
C  C307  1  0.86390000  0.43780000  0.76630000  1.0 -0.1016106461
C  C308  1  0.32850000  0.06220000  0.92610000  1.0 -0.1016106461
C  C309  1  0.63610000  0.40240000  0.57390000  1.0 -0.1016106461
C  C310  1  0.06220000  0.92610000  0.32850000  1.0 -0.1016106461
C  C311  1  0.43780000  0.76630000  0.86390000  1.0 -0.1016106461
C  C312  1  0.40240000  0.57390000  0.63610000  1.0 -0.1016106461
C  C313  1  0.73370000  0.17150000  0.09760000  1.0 -0.1016106461
C  C314  1  0.17150000  0.09760000  0.73370000  1.0 -0.1016106461
C  C315  1  0.09760000  0.73370000  0.17150000  1.0 -0.1016106461
C  C316  1  0.86390000  0.92610000  0.09760000  1.0 -0.1016106461
C  C317  1  0.63610000  0.73370000  0.06220000  1.0 -0.1016106461
C  C318  1  0.17150000  0.57390000  0.43780000  1.0 -0.1016106461
C  C319  1  0.09760000  0.86390000  0.92610000  1.0 -0.1016106461
C  C320  1  0.06220000  0.63610000  0.73370000  1.0 -0.1016106461
C  C321  1  0.43780000  0.17150000  0.57390000  1.0 -0.1016106461
C  C322  1  0.92610000  0.09760000  0.86390000  1.0 -0.1016106461
C  C323  1  0.73370000  0.06220000  0.63610000  1.0 -0.1016106461
C  C324  1  0.57390000  0.43780000  0.17150000  1.0 -0.1016106461
C  C325  1  0.67150000  0.23370000  0.59760000  1.0 -0.1016106461
C  C326  1  0.59760000  0.67150000  0.23370000  1.0 -0.1016106461
C  C327  1  0.23370000  0.59760000  0.67150000  1.0 -0.1016106461
C  C328  1  0.42610000  0.36390000  0.59760000  1.0 -0.1016106461
C  C329  1  0.07390000  0.67150000  0.93780000  1.0 -0.1016106461
C  C330  1  0.23370000  0.13610000  0.56220000  1.0 -0.1016106461
C  C331  1  0.13610000  0.56220000  0.23370000  1.0 -0.1016106461
C  C332  1  0.67150000  0.93780000  0.07390000  1.0 -0.1016106461
C  C333  1  0.36390000  0.59760000  0.42610000  1.0 -0.1016106461
C  C334  1  0.93780000  0.07390000  0.67150000  1.0 -0.1016106461
C  C335  1  0.56220000  0.23370000  0.13610000  1.0 -0.1016106461
C  C336  1  0.59760000  0.42610000  0.36390000  1.0 -0.1016106461
C  C337  1  0.26630000  0.82850000  0.90240000  1.0 -0.1016106461
C  C338  1  0.82850000  0.90240000  0.26630000  1.0 -0.1016106461
C  C339  1  0.90240000  0.26630000  0.82850000  1.0 -0.1016106461
C  C340  1  0.13610000  0.07390000  0.90240000  1.0 -0.1016106461
C  C341  1  0.36390000  0.26630000  0.93780000  1.0 -0.1016106461
C  C342  1  0.82850000  0.42610000  0.56220000  1.0 -0.1016106461
C  C343  1  0.90240000  0.13610000  0.07390000  1.0 -0.1016106461
C  C344  1  0.93780000  0.36390000  0.26630000  1.0 -0.1016106461
C  C345  1  0.56220000  0.82850000  0.42610000  1.0 -0.1016106461
C  C346  1  0.07390000  0.90240000  0.13610000  1.0 -0.1016106461
C  C347  1  0.26630000  0.93780000  0.36390000  1.0 -0.1016106461
C  C348  1  0.42610000  0.56220000  0.82850000  1.0 -0.1016106461
N  N1  1  0.41600000  0.88180000  0.46420000  1.0 -0.2301452104
N  N2  1  0.46420000  0.41600000  0.88180000  1.0 -0.2301452104
N  N3  1  0.88180000  0.46420000  0.41600000  1.0 -0.2301452104
N  N4  1  0.54820000  0.58240000  0.46420000  1.0 -0.2301452104
N  N5  1  0.95180000  0.41600000  0.03420000  1.0 -0.2301452104
N  N6  1  0.88180000  0.91760000  0.46580000  1.0 -0.2301452104
N  N7  1  0.91760000  0.46580000  0.88180000  1.0 -0.2301452104
N  N8  1  0.41600000  0.03420000  0.95180000  1.0 -0.2301452104
N  N9  1  0.58240000  0.46420000  0.54820000  1.0 -0.2301452104
N  N10  1  0.03420000  0.95180000  0.41600000  1.0 -0.2301452104
N  N11  1  0.46580000  0.88180000  0.91760000  1.0 -0.2301452104
N  N12  1  0.46420000  0.54820000  0.58240000  1.0 -0.2301452104
N  N13  1  0.61820000  0.08400000  0.03580000  1.0 -0.2301452104
N  N14  1  0.08400000  0.03580000  0.61820000  1.0 -0.2301452104
N  N15  1  0.03580000  0.61820000  0.08400000  1.0 -0.2301452104
N  N16  1  0.91760000  0.95180000  0.03580000  1.0 -0.2301452104
N  N17  1  0.58240000  0.61820000  0.03420000  1.0 -0.2301452104
N  N18  1  0.08400000  0.54820000  0.46580000  1.0 -0.2301452104
N  N19  1  0.03580000  0.91760000  0.95180000  1.0 -0.2301452104
N  N20  1  0.03420000  0.58240000  0.61820000  1.0 -0.2301452104
N  N21  1  0.46580000  0.08400000  0.54820000  1.0 -0.2301452104
N  N22  1  0.95180000  0.03580000  0.91760000  1.0 -0.2301452104
N  N23  1  0.61820000  0.03420000  0.58240000  1.0 -0.2301452104
N  N24  1  0.54820000  0.46580000  0.08400000  1.0 -0.2301452104
N  N25  1  0.58400000  0.11820000  0.53580000  1.0 -0.2301452104
N  N26  1  0.53580000  0.58400000  0.11820000  1.0 -0.2301452104
N  N27  1  0.11820000  0.53580000  0.58400000  1.0 -0.2301452104
N  N28  1  0.45180000  0.41760000  0.53580000  1.0 -0.2301452104
N  N29  1  0.04820000  0.58400000  0.96580000  1.0 -0.2301452104
N  N30  1  0.11820000  0.08240000  0.53420000  1.0 -0.2301452104
N  N31  1  0.08240000  0.53420000  0.11820000  1.0 -0.2301452104
N  N32  1  0.58400000  0.96580000  0.04820000  1.0 -0.2301452104
N  N33  1  0.41760000  0.53580000  0.45180000  1.0 -0.2301452104
N  N34  1  0.96580000  0.04820000  0.58400000  1.0 -0.2301452104
N  N35  1  0.53420000  0.11820000  0.08240000  1.0 -0.2301452104
N  N36  1  0.53580000  0.45180000  0.41760000  1.0 -0.2301452104
N  N37  1  0.38180000  0.91600000  0.96420000  1.0 -0.2301452104
N  N38  1  0.91600000  0.96420000  0.38180000  1.0 -0.2301452104
N  N39  1  0.96420000  0.38180000  0.91600000  1.0 -0.2301452104
N  N40  1  0.08240000  0.04820000  0.96420000  1.0 -0.2301452104
N  N41  1  0.41760000  0.38180000  0.96580000  1.0 -0.2301452104
N  N42  1  0.91600000  0.45180000  0.53420000  1.0 -0.2301452104
N  N43  1  0.96420000  0.08240000  0.04820000  1.0 -0.2301452104
N  N44  1  0.96580000  0.41760000  0.38180000  1.0 -0.2301452104
N  N45  1  0.53420000  0.91600000  0.45180000  1.0 -0.2301452104
N  N46  1  0.04820000  0.96420000  0.08240000  1.0 -0.2301452104
N  N47  1  0.38180000  0.96580000  0.41760000  1.0 -0.2301452104
N  N48  1  0.45180000  0.53420000  0.91600000  1.0 -0.2301452104
N  N49  1  0.44840000  0.92950000  0.50650000  1.0 -0.0176564223
N  N50  1  0.50650000  0.44840000  0.92950000  1.0 -0.0176564223
N  N51  1  0.92950000  0.50650000  0.44840000  1.0 -0.0176564223
N  N52  1  0.55810000  0.57700000  0.50650000  1.0 -0.0176564223
N  N53  1  0.94190000  0.44840000  0.01890000  1.0 -0.0176564223
N  N54  1  0.92950000  0.92300000  0.48110000  1.0 -0.0176564223
N  N55  1  0.92300000  0.48110000  0.92950000  1.0 -0.0176564223
N  N56  1  0.44840000  0.01890000  0.94190000  1.0 -0.0176564223
N  N57  1  0.57700000  0.50650000  0.55810000  1.0 -0.0176564223
N  N58  1  0.01890000  0.94190000  0.44840000  1.0 -0.0176564223
N  N59  1  0.48110000  0.92950000  0.92300000  1.0 -0.0176564223
N  N60  1  0.50650000  0.55810000  0.57700000  1.0 -0.0176564223
N  N61  1  0.57050000  0.05160000  0.99350000  1.0 -0.0176564223
N  N62  1  0.05160000  0.99350000  0.57050000  1.0 -0.0176564223
N  N63  1  0.99350000  0.57050000  0.05160000  1.0 -0.0176564223
N  N64  1  0.92300000  0.94190000  0.99350000  1.0 -0.0176564223
N  N65  1  0.57700000  0.57050000  0.01890000  1.0 -0.0176564223
N  N66  1  0.05160000  0.55810000  0.48110000  1.0 -0.0176564223
N  N67  1  0.99350000  0.92300000  0.94190000  1.0 -0.0176564223
N  N68  1  0.01890000  0.57700000  0.57050000  1.0 -0.0176564223
N  N69  1  0.48110000  0.05160000  0.55810000  1.0 -0.0176564223
N  N70  1  0.94190000  0.99350000  0.92300000  1.0 -0.0176564223
N  N71  1  0.57050000  0.01890000  0.57700000  1.0 -0.0176564223
N  N72  1  0.55810000  0.48110000  0.05160000  1.0 -0.0176564223
N  N73  1  0.55160000  0.07050000  0.49350000  1.0 -0.0176564223
N  N74  1  0.49350000  0.55160000  0.07050000  1.0 -0.0176564223
N  N75  1  0.07050000  0.49350000  0.55160000  1.0 -0.0176564223
N  N76  1  0.44190000  0.42300000  0.49350000  1.0 -0.0176564223
N  N77  1  0.05810000  0.55160000  0.98110000  1.0 -0.0176564223
N  N78  1  0.07050000  0.07700000  0.51890000  1.0 -0.0176564223
N  N79  1  0.07700000  0.51890000  0.07050000  1.0 -0.0176564223
N  N80  1  0.55160000  0.98110000  0.05810000  1.0 -0.0176564223
N  N81  1  0.42300000  0.49350000  0.44190000  1.0 -0.0176564223
N  N82  1  0.98110000  0.05810000  0.55160000  1.0 -0.0176564223
N  N83  1  0.51890000  0.07050000  0.07700000  1.0 -0.0176564223
N  N84  1  0.49350000  0.44190000  0.42300000  1.0 -0.0176564223
N  N85  1  0.42950000  0.94840000  0.00650000  1.0 -0.0176564223
N  N86  1  0.94840000  0.00650000  0.42950000  1.0 -0.0176564223
N  N87  1  0.00650000  0.42950000  0.94840000  1.0 -0.0176564223
N  N88  1  0.07700000  0.05810000  0.00650000  1.0 -0.0176564223
N  N89  1  0.42300000  0.42950000  0.98110000  1.0 -0.0176564223
N  N90  1  0.94840000  0.44190000  0.51890000  1.0 -0.0176564223
N  N91  1  0.00650000  0.07700000  0.05810000  1.0 -0.0176564223
N  N92  1  0.98110000  0.42300000  0.42950000  1.0 -0.0176564223
N  N93  1  0.51890000  0.94840000  0.44190000  1.0 -0.0176564223
N  N94  1  0.05810000  0.00650000  0.07700000  1.0 -0.0176564223
N  N95  1  0.42950000  0.98110000  0.42300000  1.0 -0.0176564223
N  N96  1  0.44190000  0.51890000  0.94840000  1.0 -0.0176564223
N  N97  1  0.44910000  0.93000000  0.54870000  1.0 -0.030876758
N  N98  1  0.54870000  0.44910000  0.93000000  1.0 -0.030876758
N  N99  1  0.93000000  0.54870000  0.44910000  1.0 -0.030876758
N  N100  1  0.59960000  0.61870000  0.54870000  1.0 -0.030876758
N  N101  1  0.90040000  0.44910000  0.01910000  1.0 -0.030876758
N  N102  1  0.93000000  0.88130000  0.48090000  1.0 -0.030876758
N  N103  1  0.88130000  0.48090000  0.93000000  1.0 -0.030876758
N  N104  1  0.44910000  0.01910000  0.90040000  1.0 -0.030876758
N  N105  1  0.61870000  0.54870000  0.59960000  1.0 -0.030876758
N  N106  1  0.01910000  0.90040000  0.44910000  1.0 -0.030876758
N  N107  1  0.48090000  0.93000000  0.88130000  1.0 -0.030876758
N  N108  1  0.54870000  0.59960000  0.61870000  1.0 -0.030876758
N  N109  1  0.57000000  0.05090000  0.95130000  1.0 -0.030876758
N  N110  1  0.05090000  0.95130000  0.57000000  1.0 -0.030876758
N  N111  1  0.95130000  0.57000000  0.05090000  1.0 -0.030876758
N  N112  1  0.88130000  0.90040000  0.95130000  1.0 -0.030876758
N  N113  1  0.61870000  0.57000000  0.01910000  1.0 -0.030876758
N  N114  1  0.05090000  0.59960000  0.48090000  1.0 -0.030876758
N  N115  1  0.95130000  0.88130000  0.90040000  1.0 -0.030876758
N  N116  1  0.01910000  0.61870000  0.57000000  1.0 -0.030876758
N  N117  1  0.48090000  0.05090000  0.59960000  1.0 -0.030876758
N  N118  1  0.90040000  0.95130000  0.88130000  1.0 -0.030876758
N  N119  1  0.57000000  0.01910000  0.61870000  1.0 -0.030876758
N  N120  1  0.59960000  0.48090000  0.05090000  1.0 -0.030876758
N  N121  1  0.55090000  0.07000000  0.45130000  1.0 -0.030876758
N  N122  1  0.45130000  0.55090000  0.07000000  1.0 -0.030876758
N  N123  1  0.07000000  0.45130000  0.55090000  1.0 -0.030876758
N  N124  1  0.40040000  0.38130000  0.45130000  1.0 -0.030876758
N  N125  1  0.09960000  0.55090000  0.98090000  1.0 -0.030876758
N  N126  1  0.07000000  0.11870000  0.51910000  1.0 -0.030876758
N  N127  1  0.11870000  0.51910000  0.07000000  1.0 -0.030876758
N  N128  1  0.55090000  0.98090000  0.09960000  1.0 -0.030876758
N  N129  1  0.38130000  0.45130000  0.40040000  1.0 -0.030876758
N  N130  1  0.98090000  0.09960000  0.55090000  1.0 -0.030876758
N  N131  1  0.51910000  0.07000000  0.11870000  1.0 -0.030876758
N  N132  1  0.45130000  0.40040000  0.38130000  1.0 -0.030876758
N  N133  1  0.43000000  0.94910000  0.04870000  1.0 -0.030876758
N  N134  1  0.94910000  0.04870000  0.43000000  1.0 -0.030876758
N  N135  1  0.04870000  0.43000000  0.94910000  1.0 -0.030876758
N  N136  1  0.11870000  0.09960000  0.04870000  1.0 -0.030876758
N  N137  1  0.38130000  0.43000000  0.98090000  1.0 -0.030876758
N  N138  1  0.94910000  0.40040000  0.51910000  1.0 -0.030876758
N  N139  1  0.04870000  0.11870000  0.09960000  1.0 -0.030876758
N  N140  1  0.98090000  0.38130000  0.43000000  1.0 -0.030876758
N  N141  1  0.51910000  0.94910000  0.40040000  1.0 -0.030876758
N  N142  1  0.09960000  0.04870000  0.11870000  1.0 -0.030876758
N  N143  1  0.43000000  0.98090000  0.38130000  1.0 -0.030876758
N  N144  1  0.40040000  0.51910000  0.94910000  1.0 -0.030876758
N  N145  1  0.41670000  0.88310000  0.53680000  1.0 -0.2301452104
N  N146  1  0.53680000  0.41670000  0.88310000  1.0 -0.2301452104
N  N147  1  0.88310000  0.53680000  0.41670000  1.0 -0.2301452104
N  N148  1  0.62010000  0.65370000  0.53680000  1.0 -0.2301452104
N  N149  1  0.87990000  0.41670000  0.03360000  1.0 -0.2301452104
N  N150  1  0.88310000  0.84630000  0.46640000  1.0 -0.2301452104
N  N151  1  0.84630000  0.46640000  0.88310000  1.0 -0.2301452104
N  N152  1  0.41670000  0.03360000  0.87990000  1.0 -0.2301452104
N  N153  1  0.65370000  0.53680000  0.62010000  1.0 -0.2301452104
N  N154  1  0.03360000  0.87990000  0.41670000  1.0 -0.2301452104
N  N155  1  0.46640000  0.88310000  0.84630000  1.0 -0.2301452104
N  N156  1  0.53680000  0.62010000  0.65370000  1.0 -0.2301452104
N  N157  1  0.61690000  0.08330000  0.96320000  1.0 -0.2301452104
N  N158  1  0.08330000  0.96320000  0.61690000  1.0 -0.2301452104
N  N159  1  0.96320000  0.61690000  0.08330000  1.0 -0.2301452104
N  N160  1  0.84630000  0.87990000  0.96320000  1.0 -0.2301452104
N  N161  1  0.65370000  0.61690000  0.03360000  1.0 -0.2301452104
N  N162  1  0.08330000  0.62010000  0.46640000  1.0 -0.2301452104
N  N163  1  0.96320000  0.84630000  0.87990000  1.0 -0.2301452104
N  N164  1  0.03360000  0.65370000  0.61690000  1.0 -0.2301452104
N  N165  1  0.46640000  0.08330000  0.62010000  1.0 -0.2301452104
N  N166  1  0.87990000  0.96320000  0.84630000  1.0 -0.2301452104
N  N167  1  0.61690000  0.03360000  0.65370000  1.0 -0.2301452104
N  N168  1  0.62010000  0.46640000  0.08330000  1.0 -0.2301452104
N  N169  1  0.58330000  0.11690000  0.46320000  1.0 -0.2301452104
N  N170  1  0.46320000  0.58330000  0.11690000  1.0 -0.2301452104
N  N171  1  0.11690000  0.46320000  0.58330000  1.0 -0.2301452104
N  N172  1  0.37990000  0.34630000  0.46320000  1.0 -0.2301452104
N  N173  1  0.12010000  0.58330000  0.96640000  1.0 -0.2301452104
N  N174  1  0.11690000  0.15370000  0.53360000  1.0 -0.2301452104
N  N175  1  0.15370000  0.53360000  0.11690000  1.0 -0.2301452104
N  N176  1  0.58330000  0.96640000  0.12010000  1.0 -0.2301452104
N  N177  1  0.34630000  0.46320000  0.37990000  1.0 -0.2301452104
N  N178  1  0.96640000  0.12010000  0.58330000  1.0 -0.2301452104
N  N179  1  0.53360000  0.11690000  0.15370000  1.0 -0.2301452104
N  N180  1  0.46320000  0.37990000  0.34630000  1.0 -0.2301452104
N  N181  1  0.38310000  0.91670000  0.03680000  1.0 -0.2301452104
N  N182  1  0.91670000  0.03680000  0.38310000  1.0 -0.2301452104
N  N183  1  0.03680000  0.38310000  0.91670000  1.0 -0.2301452104
N  N184  1  0.15370000  0.12010000  0.03680000  1.0 -0.2301452104
N  N185  1  0.34630000  0.38310000  0.96640000  1.0 -0.2301452104
N  N186  1  0.91670000  0.37990000  0.53360000  1.0 -0.2301452104
N  N187  1  0.03680000  0.15370000  0.12010000  1.0 -0.2301452104
N  N188  1  0.96640000  0.34630000  0.38310000  1.0 -0.2301452104
N  N189  1  0.53360000  0.91670000  0.37990000  1.0 -0.2301452104
N  N190  1  0.12010000  0.03680000  0.15370000  1.0 -0.2301452104
N  N191  1  0.38310000  0.96640000  0.34630000  1.0 -0.2301452104
N  N192  1  0.37990000  0.53360000  0.91670000  1.0 -0.2301452104
