# DDEC6 charges by PACMAN v1.1 (https://github.com/mtap-research/PACMAN-charge/)
data_WOLYON_FSR_pacman
_symmetry_space_group_name_H-M   'P 1'
_cell_length_a   33.41240000
_cell_length_b   33.41240000
_cell_length_c   13.06650000
_cell_angle_alpha   90.00000000
_cell_angle_beta   90.00000000
_cell_angle_gamma   90.00000000
_symmetry_Int_Tables_number   1
_chemical_formula_structural   MnH23C22NO7
_chemical_formula_sum   'Mn16 H368 C352 N16 O112'
_cell_volume   14587.28999239
_cell_formula_units_Z   16
loop_
 _symmetry_equiv_pos_site_id
 _symmetry_equiv_pos_as_xyz
  1  'x, y, z'
loop_
 _atom_site_type_symbol
 _atom_site_label
 _atom_site_symmetry_multiplicity
 _atom_site_fract_x
 _atom_site_fract_y
 _atom_site_fract_z
 _atom_site_occupancy
 _atom_site_charge
Mn  Mn1  1  0.73341000  0.26659000  0.25000000  1.0 1.1466341621
Mn  Mn2  1  0.26659000  0.73341000  0.75000000  1.0 1.1466341621
Mn  Mn3  1  0.76659000  0.76659000  0.50000000  1.0 1.1466341621
Mn  Mn4  1  0.23341000  0.23341000  0.00000000  1.0 1.1466341621
Mn  Mn5  1  0.84376000  0.22320000  0.99697000  1.0 1.0418663925
Mn  Mn6  1  0.15624000  0.77680000  0.49697000  1.0 1.0418663925
Mn  Mn7  1  0.72320000  0.65624000  0.24697000  1.0 1.0418663925
Mn  Mn8  1  0.27680000  0.34376000  0.74697000  1.0 1.0418663925
Mn  Mn9  1  0.34376000  0.27680000  0.25303000  1.0 1.0418663925
Mn  Mn10  1  0.65624000  0.72320000  0.75303000  1.0 1.0418663925
Mn  Mn11  1  0.22320000  0.84376000  0.00303000  1.0 1.0418663925
Mn  Mn12  1  0.77680000  0.15624000  0.50303000  1.0 1.0418663925
Mn  Mn13  1  0.84275000  0.15725000  0.75000000  1.0 1.1571821279
Mn  Mn14  1  0.15725000  0.84275000  0.25000000  1.0 1.1571821279
Mn  Mn15  1  0.65725000  0.65725000  0.00000000  1.0 1.1571821279
Mn  Mn16  1  0.34275000  0.34275000  0.50000000  1.0 1.1571821279
H  H1  1  0.70090000  0.19690000  0.39730000  1.0 0.120934486
H  H2  1  0.29910000  0.80310000  0.89730000  1.0 0.120934486
H  H3  1  0.69690000  0.79910000  0.64730000  1.0 0.120934486
H  H4  1  0.30310000  0.20090000  0.14730000  1.0 0.120934486
H  H5  1  0.20090000  0.30310000  0.85270000  1.0 0.120934486
H  H6  1  0.79910000  0.69690000  0.35270000  1.0 0.120934486
H  H7  1  0.19690000  0.70090000  0.60270000  1.0 0.120934486
H  H8  1  0.80310000  0.29910000  0.10270000  1.0 0.120934486
H  H9  1  0.61390000  0.21790000  0.27490000  1.0 0.1499232674
H  H10  1  0.38610000  0.78210000  0.77490000  1.0 0.1499232674
H  H11  1  0.71790000  0.88610000  0.52490000  1.0 0.1499232674
H  H12  1  0.28210000  0.11390000  0.02490000  1.0 0.1499232674
H  H13  1  0.11390000  0.28210000  0.97510000  1.0 0.1499232674
H  H14  1  0.88610000  0.71790000  0.47510000  1.0 0.1499232674
H  H15  1  0.21790000  0.61390000  0.72510000  1.0 0.1499232674
H  H16  1  0.78210000  0.38610000  0.22510000  1.0 0.1499232674
H  H17  1  0.59630000  0.17380000  0.28970000  1.0 0.1304857446
H  H18  1  0.40370000  0.82620000  0.78970000  1.0 0.1304857446
H  H19  1  0.67380000  0.90370000  0.53970000  1.0 0.1304857446
H  H20  1  0.32620000  0.09630000  0.03970000  1.0 0.1304857446
H  H21  1  0.09630000  0.32620000  0.96030000  1.0 0.1304857446
H  H22  1  0.90370000  0.67380000  0.46030000  1.0 0.1304857446
H  H23  1  0.17380000  0.59630000  0.71030000  1.0 0.1304857446
H  H24  1  0.82620000  0.40370000  0.21030000  1.0 0.1304857446
H  H25  1  0.58660000  0.20780000  0.37220000  1.0 0.1419240682
H  H26  1  0.41340000  0.79220000  0.87220000  1.0 0.1419240682
H  H27  1  0.70780000  0.91340000  0.62220000  1.0 0.1419240682
H  H28  1  0.29220000  0.08660000  0.12220000  1.0 0.1419240682
H  H29  1  0.08660000  0.29220000  0.87780000  1.0 0.1419240682
H  H30  1  0.91340000  0.70780000  0.37780000  1.0 0.1419240682
H  H31  1  0.20780000  0.58660000  0.62780000  1.0 0.1419240682
H  H32  1  0.79220000  0.41340000  0.12780000  1.0 0.1419240682
H  H33  1  0.66680000  0.15330000  0.49060000  1.0 0.1499232674
H  H34  1  0.33320000  0.84670000  0.99060000  1.0 0.1499232674
H  H35  1  0.65330000  0.83320000  0.74060000  1.0 0.1499232674
H  H36  1  0.34670000  0.16680000  0.24060000  1.0 0.1499232674
H  H37  1  0.16680000  0.34670000  0.75940000  1.0 0.1499232674
H  H38  1  0.83320000  0.65330000  0.25940000  1.0 0.1499232674
H  H39  1  0.15330000  0.66680000  0.50940000  1.0 0.1499232674
H  H40  1  0.84670000  0.33320000  0.00940000  1.0 0.1499232674
H  H41  1  0.62140000  0.16550000  0.51390000  1.0 0.1499232674
H  H42  1  0.37860000  0.83450000  0.01390000  1.0 0.1499232674
H  H43  1  0.66550000  0.87860000  0.76390000  1.0 0.1499232674
H  H44  1  0.33450000  0.12140000  0.26390000  1.0 0.1499232674
H  H45  1  0.12140000  0.33450000  0.73610000  1.0 0.1499232674
H  H46  1  0.87860000  0.66550000  0.23610000  1.0 0.1499232674
H  H47  1  0.16550000  0.62140000  0.48610000  1.0 0.1499232674
H  H48  1  0.83450000  0.37860000  0.98610000  1.0 0.1499232674
H  H49  1  0.63100000  0.13130000  0.43170000  1.0 0.156860654
H  H50  1  0.36900000  0.86870000  0.93170000  1.0 0.156860654
H  H51  1  0.63130000  0.86900000  0.68170000  1.0 0.156860654
H  H52  1  0.36870000  0.13100000  0.18170000  1.0 0.156860654
H  H53  1  0.13100000  0.36870000  0.81830000  1.0 0.156860654
H  H54  1  0.86900000  0.63130000  0.31830000  1.0 0.156860654
H  H55  1  0.13130000  0.63100000  0.56830000  1.0 0.156860654
H  H56  1  0.86870000  0.36900000  0.06830000  1.0 0.156860654
H  H57  1  0.91550000  0.26660000  0.95760000  1.0 0.1499232674
H  H58  1  0.08450000  0.73340000  0.45760000  1.0 0.1499232674
H  H59  1  0.76660000  0.58450000  0.20760000  1.0 0.1499232674
H  H60  1  0.23340000  0.41550000  0.70760000  1.0 0.1499232674
H  H61  1  0.41550000  0.23340000  0.29240000  1.0 0.1499232674
H  H62  1  0.58450000  0.76660000  0.79240000  1.0 0.1499232674
H  H63  1  0.26660000  0.91550000  0.04240000  1.0 0.1499232674
H  H64  1  0.73340000  0.08450000  0.54240000  1.0 0.1499232674
H  H65  1  0.97900000  0.30240000  0.99240000  1.0 0.1499232674
H  H66  1  0.02100000  0.69760000  0.49240000  1.0 0.1499232674
H  H67  1  0.80240000  0.52100000  0.24240000  1.0 0.1419240682
H  H68  1  0.19760000  0.47900000  0.74240000  1.0 0.1499232674
H  H69  1  0.47900000  0.19760000  0.25760000  1.0 0.1419240682
H  H70  1  0.52100000  0.80240000  0.75760000  1.0 0.1499232674
H  H71  1  0.30240000  0.97900000  0.00760000  1.0 0.1499232674
H  H72  1  0.69760000  0.02100000  0.50760000  1.0 0.1419240682
H  H73  1  0.00940000  0.27790000  0.06340000  1.0 0.1499232674
H  H74  1  0.99060000  0.72210000  0.56340000  1.0 0.1499232674
H  H75  1  0.77790000  0.49060000  0.31340000  1.0 0.1499232674
H  H76  1  0.22210000  0.50940000  0.81340000  1.0 0.1499232674
H  H77  1  0.50940000  0.22210000  0.18660000  1.0 0.1499232674
H  H78  1  0.49060000  0.77790000  0.68660000  1.0 0.1499232674
H  H79  1  0.27790000  0.00940000  0.93660000  1.0 0.1499232674
H  H80  1  0.72210000  0.99060000  0.43660000  1.0 0.1499232674
H  H81  1  0.01480000  0.27750000  0.94170000  1.0 0.1304857446
H  H82  1  0.98520000  0.72250000  0.44170000  1.0 0.1304857446
H  H83  1  0.77750000  0.48520000  0.19170000  1.0 0.1304857446
H  H84  1  0.22250000  0.51480000  0.69170000  1.0 0.1304857446
H  H85  1  0.51480000  0.22250000  0.30830000  1.0 0.1304857446
H  H86  1  0.48520000  0.77750000  0.80830000  1.0 0.1304857446
H  H87  1  0.27750000  0.01480000  0.05830000  1.0 0.1304857446
H  H88  1  0.72250000  0.98520000  0.55830000  1.0 0.1304857446
H  H89  1  0.96770000  0.18420000  0.99500000  1.0 0.1419240682
H  H90  1  0.03230000  0.81580000  0.49500000  1.0 0.1419240682
H  H91  1  0.68420000  0.53230000  0.24500000  1.0 0.1419240682
H  H92  1  0.31580000  0.46770000  0.74500000  1.0 0.1419240682
H  H93  1  0.46770000  0.31580000  0.25500000  1.0 0.1419240682
H  H94  1  0.53230000  0.68420000  0.75500000  1.0 0.1419240682
H  H95  1  0.18420000  0.96770000  0.00500000  1.0 0.1419240682
H  H96  1  0.81580000  0.03230000  0.50500000  1.0 0.1419240682
H  H97  1  0.00750000  0.20150000  0.94310000  1.0 0.120934486
H  H98  1  0.99250000  0.79850000  0.44310000  1.0 0.120934486
H  H99  1  0.70150000  0.49250000  0.19310000  1.0 0.120934486
H  H100  1  0.29850000  0.50750000  0.69310000  1.0 0.120934486
H  H101  1  0.50750000  0.29850000  0.30690000  1.0 0.120934486
H  H102  1  0.49250000  0.70150000  0.80690000  1.0 0.120934486
H  H103  1  0.20150000  0.00750000  0.05690000  1.0 0.120934486
H  H104  1  0.79850000  0.99250000  0.55690000  1.0 0.120934486
H  H105  1  0.00240000  0.20290000  0.06480000  1.0 0.1304857446
H  H106  1  0.99760000  0.79710000  0.56480000  1.0 0.1304857446
H  H107  1  0.70290000  0.49760000  0.31480000  1.0 0.1304857446
H  H108  1  0.29710000  0.50240000  0.81480000  1.0 0.1304857446
H  H109  1  0.50240000  0.29710000  0.18520000  1.0 0.1304857446
H  H110  1  0.49760000  0.70290000  0.68520000  1.0 0.1304857446
H  H111  1  0.20290000  0.00240000  0.93520000  1.0 0.1304857446
H  H112  1  0.79710000  0.99760000  0.43520000  1.0 0.1304857446
H  H113  1  0.77120000  0.20390000  0.84630000  1.0 0.1304857446
H  H114  1  0.22880000  0.79610000  0.34630000  1.0 0.1304857446
H  H115  1  0.70390000  0.72880000  0.09630000  1.0 0.1304857446
H  H116  1  0.29610000  0.27120000  0.59630000  1.0 0.1304857446
H  H117  1  0.27120000  0.29610000  0.40370000  1.0 0.1304857446
H  H118  1  0.72880000  0.70390000  0.90370000  1.0 0.1304857446
H  H119  1  0.20390000  0.77120000  0.15370000  1.0 0.1304857446
H  H120  1  0.79610000  0.22880000  0.65370000  1.0 0.1304857446
H  H121  1  0.67240000  0.14300000  0.75590000  1.0 0.1304857446
H  H122  1  0.32760000  0.85700000  0.25590000  1.0 0.1304857446
H  H123  1  0.64300000  0.82760000  0.00590000  1.0 0.1304857446
H  H124  1  0.35700000  0.17240000  0.50590000  1.0 0.1304857446
H  H125  1  0.17240000  0.35700000  0.49410000  1.0 0.1304857446
H  H126  1  0.82760000  0.64300000  0.99410000  1.0 0.1304857446
H  H127  1  0.14300000  0.67240000  0.24410000  1.0 0.1304857446
H  H128  1  0.85700000  0.32760000  0.74410000  1.0 0.1304857446
H  H129  1  0.67390000  0.19900000  0.03100000  1.0 0.1419240682
H  H130  1  0.32610000  0.80100000  0.53100000  1.0 0.1419240682
H  H131  1  0.69900000  0.82610000  0.28100000  1.0 0.1419240682
H  H132  1  0.30100000  0.17390000  0.78100000  1.0 0.1419240682
H  H133  1  0.17390000  0.30100000  0.21900000  1.0 0.1419240682
H  H134  1  0.82610000  0.69900000  0.71900000  1.0 0.1419240682
H  H135  1  0.19900000  0.67390000  0.96900000  1.0 0.1419240682
H  H136  1  0.80100000  0.32610000  0.46900000  1.0 0.1419240682
H  H137  1  0.63940000  0.12600000  0.04820000  1.0 0.120934486
H  H138  1  0.36060000  0.87400000  0.54820000  1.0 0.120934486
H  H139  1  0.62600000  0.86060000  0.29820000  1.0 0.120934486
H  H140  1  0.37400000  0.13940000  0.79820000  1.0 0.120934486
H  H141  1  0.13940000  0.37400000  0.20180000  1.0 0.120934486
H  H142  1  0.86060000  0.62600000  0.70180000  1.0 0.120934486
H  H143  1  0.12600000  0.63940000  0.95180000  1.0 0.120934486
H  H144  1  0.87400000  0.36060000  0.45180000  1.0 0.120934486
H  H145  1  0.62810000  0.19910000  0.75150000  1.0 0.1304857446
H  H146  1  0.37190000  0.80090000  0.25150000  1.0 0.1304857446
H  H147  1  0.69910000  0.87190000  0.00150000  1.0 0.1304857446
H  H148  1  0.30090000  0.12810000  0.50150000  1.0 0.1304857446
H  H149  1  0.12810000  0.30090000  0.49850000  1.0 0.1304857446
H  H150  1  0.87190000  0.69910000  0.99850000  1.0 0.1304857446
H  H151  1  0.19910000  0.62810000  0.24850000  1.0 0.1304857446
H  H152  1  0.80090000  0.37190000  0.74850000  1.0 0.1304857446
H  H153  1  0.59140000  0.17790000  0.69470000  1.0 0.1419240682
H  H154  1  0.40860000  0.82210000  0.19470000  1.0 0.1419240682
H  H155  1  0.67790000  0.90860000  0.94470000  1.0 0.1419240682
H  H156  1  0.32210000  0.09140000  0.44470000  1.0 0.1419240682
H  H157  1  0.09140000  0.32210000  0.55530000  1.0 0.1419240682
H  H158  1  0.90860000  0.67790000  0.05530000  1.0 0.1419240682
H  H159  1  0.17790000  0.59140000  0.30530000  1.0 0.1419240682
H  H160  1  0.82210000  0.40860000  0.80530000  1.0 0.1419240682
H  H161  1  0.58380000  0.21630000  0.76550000  1.0 0.1419240682
H  H162  1  0.41620000  0.78370000  0.26550000  1.0 0.1419240682
H  H163  1  0.71630000  0.91620000  0.01550000  1.0 0.1419240682
H  H164  1  0.28370000  0.08380000  0.51550000  1.0 0.1419240682
H  H165  1  0.08380000  0.28370000  0.48450000  1.0 0.1499232674
H  H166  1  0.91620000  0.71630000  0.98450000  1.0 0.1499232674
H  H167  1  0.21630000  0.58380000  0.23450000  1.0 0.1419240682
H  H168  1  0.78370000  0.41620000  0.73450000  1.0 0.1419240682
H  H169  1  0.43040000  0.17950000  0.64190000  1.0 0.120934486
H  H170  1  0.56960000  0.82050000  0.14190000  1.0 0.120934486
H  H171  1  0.67950000  0.06960000  0.89190000  1.0 0.120934486
H  H172  1  0.32050000  0.93040000  0.39190000  1.0 0.120934486
H  H173  1  0.93040000  0.32050000  0.60810000  1.0 0.120934486
H  H174  1  0.06960000  0.67950000  0.10810000  1.0 0.120934486
H  H175  1  0.17950000  0.43040000  0.35810000  1.0 0.120934486
H  H176  1  0.82050000  0.56960000  0.85810000  1.0 0.120934486
H  H177  1  0.48010000  0.23230000  0.94560000  1.0 0.1304857446
H  H178  1  0.51990000  0.76770000  0.44560000  1.0 0.1304857446
H  H179  1  0.73230000  0.01990000  0.19560000  1.0 0.1304857446
H  H180  1  0.26770000  0.98010000  0.69560000  1.0 0.1304857446
H  H181  1  0.98010000  0.26770000  0.30440000  1.0 0.1304857446
H  H182  1  0.01990000  0.73230000  0.80440000  1.0 0.1304857446
H  H183  1  0.23230000  0.48010000  0.05440000  1.0 0.1304857446
H  H184  1  0.76770000  0.51990000  0.55440000  1.0 0.1304857446
H  H185  1  0.50590000  0.19590000  0.99010000  1.0 0.1419240682
H  H186  1  0.49410000  0.80410000  0.49010000  1.0 0.1419240682
H  H187  1  0.69590000  0.99410000  0.24010000  1.0 0.1419240682
H  H188  1  0.30410000  0.00590000  0.74010000  1.0 0.1419240682
H  H189  1  0.00590000  0.30410000  0.25990000  1.0 0.1419240682
H  H190  1  0.99410000  0.69590000  0.75990000  1.0 0.1419240682
H  H191  1  0.19590000  0.50590000  0.00990000  1.0 0.1419240682
H  H192  1  0.80410000  0.49410000  0.50990000  1.0 0.1419240682
H  H193  1  0.52670000  0.22880000  0.91850000  1.0 0.1419240682
H  H194  1  0.47330000  0.77120000  0.41850000  1.0 0.1419240682
H  H195  1  0.72880000  0.97330000  0.16850000  1.0 0.1419240682
H  H196  1  0.27120000  0.02670000  0.66850000  1.0 0.1419240682
H  H197  1  0.02670000  0.27120000  0.33150000  1.0 0.1419240682
H  H198  1  0.97330000  0.72880000  0.83150000  1.0 0.1419240682
H  H199  1  0.22880000  0.52670000  0.08150000  1.0 0.1419240682
H  H200  1  0.77120000  0.47330000  0.58150000  1.0 0.1419240682
H  H201  1  0.41890000  0.25400000  0.67630000  1.0 0.1304857446
H  H202  1  0.58110000  0.74600000  0.17630000  1.0 0.1304857446
H  H203  1  0.75400000  0.08110000  0.92630000  1.0 0.1304857446
H  H204  1  0.24600000  0.91890000  0.42630000  1.0 0.1304857446
H  H205  1  0.91890000  0.24600000  0.57370000  1.0 0.1304857446
H  H206  1  0.08110000  0.75400000  0.07370000  1.0 0.1304857446
H  H207  1  0.25400000  0.41890000  0.32370000  1.0 0.1304857446
H  H208  1  0.74600000  0.58110000  0.82370000  1.0 0.1304857446
H  H209  1  0.34870000  0.29590000  0.90550000  1.0 0.1499232674
H  H210  1  0.65130000  0.70410000  0.40550000  1.0 0.1499232674
H  H211  1  0.79590000  0.15130000  0.15550000  1.0 0.1499232674
H  H212  1  0.20410000  0.84870000  0.65550000  1.0 0.1499232674
H  H213  1  0.84870000  0.20410000  0.34450000  1.0 0.1499232674
H  H214  1  0.15130000  0.79590000  0.84450000  1.0 0.1499232674
H  H215  1  0.29590000  0.34870000  0.09450000  1.0 0.1499232674
H  H216  1  0.70410000  0.65130000  0.59450000  1.0 0.1499232674
H  H217  1  0.42260000  0.20170000  0.95610000  1.0 0.1304857446
H  H218  1  0.57740000  0.79830000  0.45610000  1.0 0.1304857446
H  H219  1  0.70170000  0.07740000  0.20610000  1.0 0.1304857446
H  H220  1  0.29830000  0.92260000  0.70610000  1.0 0.1304857446
H  H221  1  0.92260000  0.29830000  0.29390000  1.0 0.1304857446
H  H222  1  0.07740000  0.70170000  0.79390000  1.0 0.1304857446
H  H223  1  0.20170000  0.42260000  0.04390000  1.0 0.1304857446
H  H224  1  0.79830000  0.57740000  0.54390000  1.0 0.1304857446
H  H225  1  0.55040000  0.03620000  0.15980000  1.0 0.156860654
H  H226  1  0.44960000  0.96380000  0.65980000  1.0 0.156860654
H  H227  1  0.53620000  0.94960000  0.40980000  1.0 0.156860654
H  H228  1  0.46380000  0.05040000  0.90980000  1.0 0.156860654
H  H229  1  0.05040000  0.46380000  0.09020000  1.0 0.156860654
H  H230  1  0.94960000  0.53620000  0.59020000  1.0 0.156860654
H  H231  1  0.03620000  0.55040000  0.84020000  1.0 0.156860654
H  H232  1  0.96380000  0.44960000  0.34020000  1.0 0.156860654
H  H233  1  0.53020000  0.05440000  0.05910000  1.0 0.1499232674
H  H234  1  0.46980000  0.94560000  0.55910000  1.0 0.1499232674
H  H235  1  0.55440000  0.96980000  0.30910000  1.0 0.1499232674
H  H236  1  0.44560000  0.03020000  0.80910000  1.0 0.1499232674
H  H237  1  0.03020000  0.44560000  0.19090000  1.0 0.1499232674
H  H238  1  0.96980000  0.55440000  0.69090000  1.0 0.1499232674
H  H239  1  0.05440000  0.53020000  0.94090000  1.0 0.1499232674
H  H240  1  0.94560000  0.46980000  0.44090000  1.0 0.1499232674
H  H241  1  0.57490000  0.03730000  0.05450000  1.0 0.1499232674
H  H242  1  0.42510000  0.96270000  0.55450000  1.0 0.1499232674
H  H243  1  0.53730000  0.92510000  0.30450000  1.0 0.1499232674
H  H244  1  0.46270000  0.07490000  0.80450000  1.0 0.1499232674
H  H245  1  0.07490000  0.46270000  0.19550000  1.0 0.1499232674
H  H246  1  0.92510000  0.53730000  0.69550000  1.0 0.1499232674
H  H247  1  0.03730000  0.57490000  0.94550000  1.0 0.1499232674
H  H248  1  0.96270000  0.42510000  0.44550000  1.0 0.1499232674
H  H249  1  0.53700000  0.09860000  0.25610000  1.0 0.1304857446
H  H250  1  0.46300000  0.90140000  0.75610000  1.0 0.1304857446
H  H251  1  0.59860000  0.96300000  0.50610000  1.0 0.1304857446
H  H252  1  0.40140000  0.03700000  0.00610000  1.0 0.1304857446
H  H253  1  0.03700000  0.40140000  0.99390000  1.0 0.1304857446
H  H254  1  0.96300000  0.59860000  0.49390000  1.0 0.1304857446
H  H255  1  0.09860000  0.53700000  0.74390000  1.0 0.1304857446
H  H256  1  0.90140000  0.46300000  0.24390000  1.0 0.1304857446
H  H257  1  0.55180000  0.14110000  0.21370000  1.0 0.120934486
H  H258  1  0.44820000  0.85890000  0.71370000  1.0 0.120934486
H  H259  1  0.64110000  0.94820000  0.46370000  1.0 0.120934486
H  H260  1  0.35890000  0.05180000  0.96370000  1.0 0.120934486
H  H261  1  0.05180000  0.35890000  0.03630000  1.0 0.120934486
H  H262  1  0.94820000  0.64110000  0.53630000  1.0 0.120934486
H  H263  1  0.14110000  0.55180000  0.78630000  1.0 0.120934486
H  H264  1  0.85890000  0.44820000  0.28630000  1.0 0.120934486
H  H265  1  0.51610000  0.11800000  0.15760000  1.0 0.1499232674
H  H266  1  0.48390000  0.88200000  0.65760000  1.0 0.1499232674
H  H267  1  0.61800000  0.98390000  0.40760000  1.0 0.1499232674
H  H268  1  0.38200000  0.01610000  0.90760000  1.0 0.1499232674
H  H269  1  0.01610000  0.38200000  0.09240000  1.0 0.1499232674
H  H270  1  0.98390000  0.61800000  0.59240000  1.0 0.1499232674
H  H271  1  0.11800000  0.51610000  0.84240000  1.0 0.1499232674
H  H272  1  0.88200000  0.48390000  0.34240000  1.0 0.1499232674
H  H273  1  0.60280000  0.07150000  0.24790000  1.0 0.1499232674
H  H274  1  0.39720000  0.92850000  0.74790000  1.0 0.1499232674
H  H275  1  0.57150000  0.89720000  0.49790000  1.0 0.1499232674
H  H276  1  0.42850000  0.10280000  0.99790000  1.0 0.1499232674
H  H277  1  0.10280000  0.42850000  0.00210000  1.0 0.1499232674
H  H278  1  0.89720000  0.57150000  0.50210000  1.0 0.1499232674
H  H279  1  0.07150000  0.60280000  0.75210000  1.0 0.1499232674
H  H280  1  0.92850000  0.39720000  0.25210000  1.0 0.1499232674
H  H281  1  0.62880000  0.07240000  0.14500000  1.0 0.1419240682
H  H282  1  0.37120000  0.92760000  0.64500000  1.0 0.1419240682
H  H283  1  0.57240000  0.87120000  0.39500000  1.0 0.1419240682
H  H284  1  0.42760000  0.12880000  0.89500000  1.0 0.1419240682
H  H285  1  0.12880000  0.42760000  0.10500000  1.0 0.1419240682
H  H286  1  0.87120000  0.57240000  0.60500000  1.0 0.1419240682
H  H287  1  0.07240000  0.62880000  0.85500000  1.0 0.1419240682
H  H288  1  0.92760000  0.37120000  0.35500000  1.0 0.1419240682
H  H289  1  0.62040000  0.11300000  0.20650000  1.0 0.120934486
H  H290  1  0.37960000  0.88700000  0.70650000  1.0 0.120934486
H  H291  1  0.61300000  0.87960000  0.45650000  1.0 0.120934486
H  H292  1  0.38700000  0.12040000  0.95650000  1.0 0.120934486
H  H293  1  0.12040000  0.38700000  0.04350000  1.0 0.120934486
H  H294  1  0.87960000  0.61300000  0.54350000  1.0 0.120934486
H  H295  1  0.11300000  0.62040000  0.79350000  1.0 0.120934486
H  H296  1  0.88700000  0.37960000  0.29350000  1.0 0.120934486
H  H297  1  0.47130000  0.06660000  0.49420000  1.0 0.156860654
H  H298  1  0.52870000  0.93340000  0.99420000  1.0 0.156860654
H  H299  1  0.56660000  0.02870000  0.74420000  1.0 0.156860654
H  H300  1  0.43340000  0.97130000  0.24420000  1.0 0.156860654
H  H301  1  0.97130000  0.43340000  0.75580000  1.0 0.156860654
H  H302  1  0.02870000  0.56660000  0.25580000  1.0 0.156860654
H  H303  1  0.06660000  0.47130000  0.50580000  1.0 0.156860654
H  H304  1  0.93340000  0.52870000  0.00580000  1.0 0.156860654
H  H305  1  0.49890000  0.07020000  0.59380000  1.0 0.1499232674
H  H306  1  0.50110000  0.92980000  0.09380000  1.0 0.1499232674
H  H307  1  0.57020000  0.00110000  0.84380000  1.0 0.1499232674
H  H308  1  0.42980000  0.99890000  0.34380000  1.0 0.1499232674
H  H309  1  0.99890000  0.42980000  0.65620000  1.0 0.1499232674
H  H310  1  0.00110000  0.57020000  0.15620000  1.0 0.1499232674
H  H311  1  0.07020000  0.49890000  0.40620000  1.0 0.1499232674
H  H312  1  0.92980000  0.50110000  0.90620000  1.0 0.1499232674
H  H313  1  0.45130000  0.07300000  0.60430000  1.0 0.1419240682
H  H314  1  0.54870000  0.92700000  0.10430000  1.0 0.1419240682
H  H315  1  0.57300000  0.04870000  0.85430000  1.0 0.1419240682
H  H316  1  0.42700000  0.95130000  0.35430000  1.0 0.1419240682
H  H317  1  0.95130000  0.42700000  0.64570000  1.0 0.1419240682
H  H318  1  0.04870000  0.57300000  0.14570000  1.0 0.1419240682
H  H319  1  0.07300000  0.45130000  0.39570000  1.0 0.1419240682
H  H320  1  0.92700000  0.54870000  0.89570000  1.0 0.1419240682
H  H321  1  0.50990000  0.12220000  0.41060000  1.0 0.1304857446
H  H322  1  0.49010000  0.87780000  0.91060000  1.0 0.1304857446
H  H323  1  0.62220000  0.99010000  0.66060000  1.0 0.1304857446
H  H324  1  0.37780000  0.00990000  0.16060000  1.0 0.1304857446
H  H325  1  0.00990000  0.37780000  0.83940000  1.0 0.1304857446
H  H326  1  0.99010000  0.62220000  0.33940000  1.0 0.1304857446
H  H327  1  0.12220000  0.50990000  0.58940000  1.0 0.1304857446
H  H328  1  0.87780000  0.49010000  0.08940000  1.0 0.1304857446
H  H329  1  0.51350000  0.16470000  0.46640000  1.0 0.1304857446
H  H330  1  0.48650000  0.83530000  0.96640000  1.0 0.1304857446
H  H331  1  0.66470000  0.98650000  0.71640000  1.0 0.1304857446
H  H332  1  0.33530000  0.01350000  0.21640000  1.0 0.1304857446
H  H333  1  0.01350000  0.33530000  0.78360000  1.0 0.1304857446
H  H334  1  0.98650000  0.66470000  0.28360000  1.0 0.1304857446
H  H335  1  0.16470000  0.51350000  0.53360000  1.0 0.1304857446
H  H336  1  0.83530000  0.48650000  0.03360000  1.0 0.1304857446
H  H337  1  0.53760000  0.12690000  0.50970000  1.0 0.1499232674
H  H338  1  0.46240000  0.87310000  0.00970000  1.0 0.1499232674
H  H339  1  0.62690000  0.96240000  0.75970000  1.0 0.1499232674
H  H340  1  0.37310000  0.03760000  0.25970000  1.0 0.1499232674
H  H341  1  0.03760000  0.37310000  0.74030000  1.0 0.1499232674
H  H342  1  0.96240000  0.62690000  0.24030000  1.0 0.1499232674
H  H343  1  0.12690000  0.53760000  0.49030000  1.0 0.1499232674
H  H344  1  0.87310000  0.46240000  0.99030000  1.0 0.1499232674
H  H345  1  0.43680000  0.12230000  0.42760000  1.0 0.1419240682
H  H346  1  0.56320000  0.87770000  0.92760000  1.0 0.1419240682
H  H347  1  0.62230000  0.06320000  0.67760000  1.0 0.1419240682
H  H348  1  0.37770000  0.93680000  0.17760000  1.0 0.1419240682
H  H349  1  0.93680000  0.37770000  0.82240000  1.0 0.1419240682
H  H350  1  0.06320000  0.62230000  0.32240000  1.0 0.1419240682
H  H351  1  0.12230000  0.43680000  0.57240000  1.0 0.1419240682
H  H352  1  0.87770000  0.56320000  0.07240000  1.0 0.1419240682
H  H353  1  0.41560000  0.12930000  0.53610000  1.0 0.1304857446
H  H354  1  0.58440000  0.87070000  0.03610000  1.0 0.1304857446
H  H355  1  0.62930000  0.08440000  0.78610000  1.0 0.1304857446
H  H356  1  0.37070000  0.91560000  0.28610000  1.0 0.1304857446
H  H357  1  0.91560000  0.37070000  0.71390000  1.0 0.1304857446
H  H358  1  0.08440000  0.62930000  0.21390000  1.0 0.1304857446
H  H359  1  0.12930000  0.41560000  0.46390000  1.0 0.1304857446
H  H360  1  0.87070000  0.58440000  0.96390000  1.0 0.1304857446
H  H361  1  0.43860000  0.16530000  0.48090000  1.0 0.120934486
H  H362  1  0.56140000  0.83470000  0.98090000  1.0 0.120934486
H  H363  1  0.66530000  0.06140000  0.73090000  1.0 0.120934486
H  H364  1  0.33470000  0.93860000  0.23090000  1.0 0.120934486
H  H365  1  0.93860000  0.33470000  0.76910000  1.0 0.120934486
H  H366  1  0.06140000  0.66530000  0.26910000  1.0 0.120934486
H  H367  1  0.16530000  0.43860000  0.51910000  1.0 0.120934486
H  H368  1  0.83470000  0.56140000  0.01910000  1.0 0.120934486
C  C1  1  0.67800000  0.20420000  0.35820000  1.0 0.3204126104
C  C2  1  0.32200000  0.79580000  0.85820000  1.0 0.3204126104
C  C3  1  0.70420000  0.82200000  0.60820000  1.0 0.3204126104
C  C4  1  0.29580000  0.17800000  0.10820000  1.0 0.3204126104
C  C5  1  0.17800000  0.29580000  0.89180000  1.0 0.3204126104
C  C6  1  0.82200000  0.70420000  0.39180000  1.0 0.3204126104
C  C7  1  0.20420000  0.67800000  0.64180000  1.0 0.3204126104
C  C8  1  0.79580000  0.32200000  0.14180000  1.0 0.3204126104
C  C9  1  0.60690000  0.19730000  0.32520000  1.0 -0.333797022
C  C10  1  0.39310000  0.80270000  0.82520000  1.0 -0.333797022
C  C11  1  0.69730000  0.89310000  0.57520000  1.0 -0.333797022
C  C12  1  0.30270000  0.10690000  0.07520000  1.0 -0.333797022
C  C13  1  0.10690000  0.30270000  0.92480000  1.0 -0.333797022
C  C14  1  0.89310000  0.69730000  0.42480000  1.0 -0.333797022
C  C15  1  0.19730000  0.60690000  0.67480000  1.0 -0.333797022
C  C16  1  0.80270000  0.39310000  0.17480000  1.0 -0.333797022
C  C17  1  0.64010000  0.15680000  0.46070000  1.0 -0.3409414695
C  C18  1  0.35990000  0.84320000  0.96070000  1.0 -0.3409414695
C  C19  1  0.65680000  0.85990000  0.71070000  1.0 -0.3409414695
C  C20  1  0.34320000  0.14010000  0.21070000  1.0 -0.3409414695
C  C21  1  0.14010000  0.34320000  0.78930000  1.0 -0.3409414695
C  C22  1  0.85990000  0.65680000  0.28930000  1.0 -0.3409414695
C  C23  1  0.15680000  0.64010000  0.53930000  1.0 -0.3409414695
C  C24  1  0.84320000  0.35990000  0.03930000  1.0 -0.3409414695
C  C25  1  0.92840000  0.24200000  0.97360000  1.0 0.2869713362
C  C26  1  0.07160000  0.75800000  0.47360000  1.0 0.2844152457
C  C27  1  0.74200000  0.57160000  0.22360000  1.0 0.2844152457
C  C28  1  0.25800000  0.42840000  0.72360000  1.0 0.2869713362
C  C29  1  0.42840000  0.25800000  0.27640000  1.0 0.2869713362
C  C30  1  0.57160000  0.74200000  0.77640000  1.0 0.2869713362
C  C31  1  0.24200000  0.92840000  0.02640000  1.0 0.2869713362
C  C32  1  0.75800000  0.07160000  0.52640000  1.0 0.2869713362
C  C33  1  0.99530000  0.27810000  0.99770000  1.0 -0.3409414695
C  C34  1  0.00470000  0.72190000  0.49770000  1.0 -0.3409414695
C  C35  1  0.77810000  0.50470000  0.24770000  1.0 -0.3409414695
C  C36  1  0.22190000  0.49530000  0.74770000  1.0 -0.3409414695
C  C37  1  0.49530000  0.22190000  0.25230000  1.0 -0.3409414695
C  C38  1  0.50470000  0.77810000  0.75230000  1.0 -0.3409414695
C  C39  1  0.27810000  0.99530000  0.00230000  1.0 -0.3409414695
C  C40  1  0.72190000  0.00470000  0.50230000  1.0 -0.3409414695
C  C41  1  0.98830000  0.20500000  0.99920000  1.0 -0.3121113957
C  C42  1  0.01170000  0.79500000  0.49920000  1.0 -0.3121113957
C  C43  1  0.70500000  0.51170000  0.24920000  1.0 -0.3121113957
C  C44  1  0.29500000  0.48830000  0.74920000  1.0 -0.3121113957
C  C45  1  0.48830000  0.29500000  0.25080000  1.0 -0.3121113957
C  C46  1  0.51170000  0.70500000  0.75080000  1.0 -0.3121113957
C  C47  1  0.20500000  0.98830000  0.00080000  1.0 -0.3121113957
C  C48  1  0.79500000  0.01170000  0.50080000  1.0 -0.3121113957
C  C49  1  0.74580000  0.23320000  0.02300000  1.0 0.585292787
C  C50  1  0.25420000  0.76680000  0.52300000  1.0 0.585292787
C  C51  1  0.73320000  0.75420000  0.27300000  1.0 0.585292787
C  C52  1  0.26680000  0.24580000  0.77300000  1.0 0.585292787
C  C53  1  0.24580000  0.26680000  0.22700000  1.0 0.585292787
C  C54  1  0.75420000  0.73320000  0.72700000  1.0 0.585292787
C  C55  1  0.23320000  0.74580000  0.97700000  1.0 0.585292787
C  C56  1  0.76680000  0.25420000  0.47700000  1.0 0.585292787
C  C57  1  0.72569000  0.20510000  0.95010000  1.0 -0.0222991908
C  C58  1  0.27431000  0.79490000  0.45010000  1.0 -0.0222991908
C  C59  1  0.70510000  0.77431000  0.20010000  1.0 -0.0222991908
C  C60  1  0.29490000  0.22569000  0.70010000  1.0 -0.0222991908
C  C61  1  0.22569000  0.29490000  0.29990000  1.0 -0.0222991908
C  C62  1  0.77431000  0.70510000  0.79990000  1.0 -0.0222991908
C  C63  1  0.20510000  0.72569000  0.04990000  1.0 -0.0222991908
C  C64  1  0.79490000  0.27431000  0.54990000  1.0 -0.0222991908
C  C65  1  0.74467000  0.19497000  0.85900000  1.0 -0.1144090288
C  C66  1  0.25533000  0.80503000  0.35900000  1.0 -0.1144090288
C  C67  1  0.69497000  0.75533000  0.10900000  1.0 -0.1144090288
C  C68  1  0.30503000  0.24467000  0.60900000  1.0 -0.1144090288
C  C69  1  0.24467000  0.30503000  0.39100000  1.0 -0.1144090288
C  C70  1  0.75533000  0.69497000  0.89100000  1.0 -0.1144090288
C  C71  1  0.19497000  0.74467000  0.14100000  1.0 -0.1144090288
C  C72  1  0.80503000  0.25533000  0.64100000  1.0 -0.1144090288
C  C73  1  0.72482000  0.17183000  0.78670000  1.0 -0.0317122157
C  C74  1  0.27518000  0.82817000  0.28670000  1.0 -0.0317122157
C  C75  1  0.67183000  0.77518000  0.03670000  1.0 -0.0317122157
C  C76  1  0.32817000  0.22482000  0.53670000  1.0 -0.0317122157
C  C77  1  0.22482000  0.32817000  0.46330000  1.0 -0.0317122157
C  C78  1  0.77518000  0.67183000  0.96330000  1.0 -0.0317122157
C  C79  1  0.17183000  0.72482000  0.21330000  1.0 -0.0317122157
C  C80  1  0.82817000  0.27518000  0.71330000  1.0 -0.0317122157
C  C81  1  0.68599000  0.15881000  0.80530000  1.0 -0.1307368148
C  C82  1  0.31401000  0.84119000  0.30530000  1.0 -0.1307368148
C  C83  1  0.65881000  0.81401000  0.05530000  1.0 -0.1307368148
C  C84  1  0.34119000  0.18599000  0.55530000  1.0 -0.1307368148
C  C85  1  0.18599000  0.34119000  0.44470000  1.0 -0.1307368148
C  C86  1  0.81401000  0.65881000  0.94470000  1.0 -0.1307368148
C  C87  1  0.15881000  0.68599000  0.19470000  1.0 -0.1307368148
C  C88  1  0.84119000  0.31401000  0.69470000  1.0 -0.1307368148
C  C89  1  0.66701000  0.16894000  0.89640000  1.0 0.0860864014
C  C90  1  0.33299000  0.83106000  0.39640000  1.0 0.0860864014
C  C91  1  0.66894000  0.83299000  0.14640000  1.0 0.0860864014
C  C92  1  0.33106000  0.16701000  0.64640000  1.0 0.0860864014
C  C93  1  0.16701000  0.33106000  0.35360000  1.0 0.0860864014
C  C94  1  0.83299000  0.66894000  0.85360000  1.0 0.0860864014
C  C95  1  0.16894000  0.66701000  0.10360000  1.0 0.0860864014
C  C96  1  0.83106000  0.33299000  0.60360000  1.0 0.0860864014
C  C97  1  0.68685000  0.19208000  0.96880000  1.0 -0.1307368148
C  C98  1  0.31315000  0.80792000  0.46880000  1.0 -0.1307368148
C  C99  1  0.69208000  0.81315000  0.21880000  1.0 -0.1307368148
C  C100  1  0.30792000  0.18685000  0.71880000  1.0 -0.1307368148
C  C101  1  0.18685000  0.30792000  0.28120000  1.0 -0.1307368148
C  C102  1  0.81315000  0.69208000  0.78120000  1.0 -0.1307368148
C  C103  1  0.19208000  0.68685000  0.03120000  1.0 -0.1307368148
C  C104  1  0.80792000  0.31315000  0.53120000  1.0 -0.1307368148
C  C105  1  0.74510000  0.16020000  0.69130000  1.0 0.5784728496
C  C106  1  0.25490000  0.83980000  0.19130000  1.0 0.5784728496
C  C107  1  0.66020000  0.75490000  0.94130000  1.0 0.5784728496
C  C108  1  0.33980000  0.24510000  0.44130000  1.0 0.5784728496
C  C109  1  0.24510000  0.33980000  0.55870000  1.0 0.5784728496
C  C110  1  0.75490000  0.66020000  0.05870000  1.0 0.5784728496
C  C111  1  0.16020000  0.74510000  0.30870000  1.0 0.5784728496
C  C112  1  0.83980000  0.25490000  0.80870000  1.0 0.5784728496
C  C113  1  0.62498000  0.15518000  0.91620000  1.0 -0.0063539659
C  C114  1  0.37502000  0.84482000  0.41620000  1.0 -0.0063539659
C  C115  1  0.65518000  0.87502000  0.16620000  1.0 -0.0063539659
C  C116  1  0.34482000  0.12498000  0.66620000  1.0 -0.0063539659
C  C117  1  0.12498000  0.34482000  0.33380000  1.0 -0.0063539659
C  C118  1  0.87502000  0.65518000  0.83380000  1.0 -0.0063539659
C  C119  1  0.15518000  0.62498000  0.08380000  1.0 -0.0063539659
C  C120  1  0.84482000  0.37502000  0.58380000  1.0 -0.0063539659
C  C121  1  0.59362000  0.16434000  0.85040000  1.0 0.1006636887
C  C122  1  0.40638000  0.83566000  0.35040000  1.0 0.1006636887
C  C123  1  0.66434000  0.90638000  0.10040000  1.0 0.1006636887
C  C124  1  0.33566000  0.09362000  0.60040000  1.0 0.1006636887
C  C125  1  0.09362000  0.33566000  0.39960000  1.0 0.1006636887
C  C126  1  0.90638000  0.66434000  0.89960000  1.0 0.1006636887
C  C127  1  0.16434000  0.59362000  0.14960000  1.0 0.1006636887
C  C128  1  0.83566000  0.40638000  0.64960000  1.0 0.1006636887
C  C129  1  0.55522000  0.15062000  0.87150000  1.0 -0.039306247
C  C130  1  0.44478000  0.84938000  0.37150000  1.0 -0.039306247
C  C131  1  0.65062000  0.94478000  0.12150000  1.0 -0.039306247
C  C132  1  0.34938000  0.05522000  0.62150000  1.0 -0.039306247
C  C133  1  0.05522000  0.34938000  0.37850000  1.0 -0.039306247
C  C134  1  0.94478000  0.65062000  0.87850000  1.0 -0.039306247
C  C135  1  0.15062000  0.55522000  0.12850000  1.0 -0.039306247
C  C136  1  0.84938000  0.44478000  0.62850000  1.0 -0.039306247
C  C137  1  0.54819000  0.12773000  0.95850000  1.0 0.2013869776
C  C138  1  0.45181000  0.87227000  0.45850000  1.0 0.2013869776
C  C139  1  0.62773000  0.95181000  0.20850000  1.0 0.2013869776
C  C140  1  0.37227000  0.04819000  0.70850000  1.0 0.2013869776
C  C141  1  0.04819000  0.37227000  0.29150000  1.0 0.2013869776
C  C142  1  0.95181000  0.62773000  0.79150000  1.0 0.2013869776
C  C143  1  0.12773000  0.54819000  0.04150000  1.0 0.2013869776
C  C144  1  0.87227000  0.45181000  0.54150000  1.0 0.2013869776
C  C145  1  0.57955000  0.11857000  0.02440000  1.0 -0.0222991908
C  C146  1  0.42045000  0.88143000  0.52440000  1.0 -0.0222991908
C  C147  1  0.61857000  0.92045000  0.27440000  1.0 -0.0222991908
C  C148  1  0.38143000  0.07955000  0.77440000  1.0 -0.0222991908
C  C149  1  0.07955000  0.38143000  0.22560000  1.0 -0.0222991908
C  C150  1  0.92045000  0.61857000  0.72560000  1.0 -0.0222991908
C  C151  1  0.11857000  0.57955000  0.97560000  1.0 -0.0222991908
C  C152  1  0.88143000  0.42045000  0.47560000  1.0 -0.0222991908
C  C153  1  0.61794000  0.13230000  0.00320000  1.0 -0.1818847699
C  C154  1  0.38206000  0.86770000  0.50320000  1.0 -0.1818847699
C  C155  1  0.63230000  0.88206000  0.25320000  1.0 -0.1818847699
C  C156  1  0.36770000  0.11794000  0.75320000  1.0 -0.1818847699
C  C157  1  0.11794000  0.36770000  0.24680000  1.0 -0.1818847699
C  C158  1  0.88206000  0.63230000  0.74680000  1.0 -0.1818847699
C  C159  1  0.13230000  0.61794000  0.99680000  1.0 -0.1818847699
C  C160  1  0.86770000  0.38206000  0.49680000  1.0 -0.1818847699
C  C161  1  0.59980000  0.19190000  0.75700000  1.0 -0.4367217285
C  C162  1  0.40020000  0.80810000  0.25700000  1.0 -0.4367217285
C  C163  1  0.69190000  0.90020000  0.00700000  1.0 -0.4367217285
C  C164  1  0.30810000  0.09980000  0.50700000  1.0 -0.4367217285
C  C165  1  0.09980000  0.30810000  0.49300000  1.0 -0.4367217285
C  C166  1  0.90020000  0.69190000  0.99300000  1.0 -0.4367217285
C  C167  1  0.19190000  0.59980000  0.24300000  1.0 -0.4367217285
C  C168  1  0.80810000  0.40020000  0.74300000  1.0 -0.4367217285
C  C169  1  0.52003000  0.16037000  0.80480000  1.0 -0.039306247
C  C170  1  0.47997000  0.83963000  0.30480000  1.0 -0.039306247
C  C171  1  0.66037000  0.97997000  0.05480000  1.0 -0.039306247
C  C172  1  0.33963000  0.02003000  0.55480000  1.0 -0.039306247
C  C173  1  0.02003000  0.33963000  0.44520000  1.0 -0.039306247
C  C174  1  0.97997000  0.66037000  0.94520000  1.0 -0.039306247
C  C175  1  0.16037000  0.52003000  0.19520000  1.0 -0.039306247
C  C176  1  0.83963000  0.47997000  0.69520000  1.0 -0.039306247
C  C177  1  0.51504000  0.13955000  0.71360000  1.0 0.2013869776
C  C178  1  0.48496000  0.86045000  0.21360000  1.0 0.2013869776
C  C179  1  0.63955000  0.98496000  0.96360000  1.0 0.2013869776
C  C180  1  0.36045000  0.01504000  0.46360000  1.0 0.2013869776
C  C181  1  0.01504000  0.36045000  0.53640000  1.0 0.2013869776
C  C182  1  0.98496000  0.63955000  0.03640000  1.0 0.2013869776
C  C183  1  0.13955000  0.51504000  0.28640000  1.0 0.2013869776
C  C184  1  0.86045000  0.48496000  0.78640000  1.0 0.2013869776
C  C185  1  0.48163000  0.14667000  0.65290000  1.0 -0.0222991908
C  C186  1  0.51837000  0.85333000  0.15290000  1.0 -0.0222991908
C  C187  1  0.64667000  0.01837000  0.90290000  1.0 -0.0222991908
C  C188  1  0.35333000  0.98163000  0.40290000  1.0 -0.0222991908
C  C189  1  0.98163000  0.35333000  0.59710000  1.0 -0.0222991908
C  C190  1  0.01837000  0.64667000  0.09710000  1.0 -0.0222991908
C  C191  1  0.14667000  0.48163000  0.34710000  1.0 -0.0222991908
C  C192  1  0.85333000  0.51837000  0.84710000  1.0 -0.0222991908
C  C193  1  0.45321000  0.17462000  0.68330000  1.0 -0.1851786667
C  C194  1  0.54679000  0.82538000  0.18330000  1.0 -0.1851786667
C  C195  1  0.67462000  0.04679000  0.93330000  1.0 -0.1818847699
C  C196  1  0.32538000  0.95321000  0.43330000  1.0 -0.1851786667
C  C197  1  0.95321000  0.32538000  0.56670000  1.0 -0.1851786667
C  C198  1  0.04679000  0.67462000  0.06670000  1.0 -0.1851786667
C  C199  1  0.17462000  0.45321000  0.31670000  1.0 -0.1851786667
C  C200  1  0.82538000  0.54679000  0.81670000  1.0 -0.1851786667
C  C201  1  0.45821000  0.19545000  0.77450000  1.0 -0.0040051008
C  C202  1  0.54179000  0.80455000  0.27450000  1.0 -0.0040051008
C  C203  1  0.69545000  0.04179000  0.02450000  1.0 -0.0040051008
C  C204  1  0.30455000  0.95821000  0.52450000  1.0 -0.0040051008
C  C205  1  0.95821000  0.30455000  0.47550000  1.0 -0.0040051008
C  C206  1  0.04179000  0.69545000  0.97550000  1.0 -0.0040051008
C  C207  1  0.19545000  0.45821000  0.22550000  1.0 -0.0040051008
C  C208  1  0.80455000  0.54179000  0.72550000  1.0 -0.0040051008
C  C209  1  0.49162000  0.18832000  0.83530000  1.0 0.1006636887
C  C210  1  0.50838000  0.81168000  0.33530000  1.0 0.1006636887
C  C211  1  0.68832000  0.00838000  0.08530000  1.0 0.1006636887
C  C212  1  0.31168000  0.99162000  0.58530000  1.0 0.1006636887
C  C213  1  0.99162000  0.31168000  0.41470000  1.0 0.1006636887
C  C214  1  0.00838000  0.68832000  0.91470000  1.0 0.1006636887
C  C215  1  0.18832000  0.49162000  0.16470000  1.0 0.1006636887
C  C216  1  0.81168000  0.50838000  0.66470000  1.0 0.1006636887
C  C217  1  0.50210000  0.21370000  0.93120000  1.0 -0.4471544617
C  C218  1  0.49790000  0.78630000  0.43120000  1.0 -0.4471544617
C  C219  1  0.71370000  0.99790000  0.18120000  1.0 -0.4471544617
C  C220  1  0.28630000  0.00210000  0.68120000  1.0 -0.4471544617
C  C221  1  0.00210000  0.28630000  0.31880000  1.0 -0.4471544617
C  C222  1  0.99790000  0.71370000  0.81880000  1.0 -0.4471544617
C  C223  1  0.21370000  0.50210000  0.06880000  1.0 -0.4471544617
C  C224  1  0.78630000  0.49790000  0.56880000  1.0 -0.4471544617
C  C225  1  0.42522000  0.22357000  0.81060000  1.0 0.0860864014
C  C226  1  0.57478000  0.77643000  0.31060000  1.0 0.0860864014
C  C227  1  0.72357000  0.07478000  0.06060000  1.0 0.0860864014
C  C228  1  0.27643000  0.92522000  0.56060000  1.0 0.0860864014
C  C229  1  0.92522000  0.27643000  0.43940000  1.0 0.0860864014
C  C230  1  0.07478000  0.72357000  0.93940000  1.0 0.0860864014
C  C231  1  0.22357000  0.42522000  0.18940000  1.0 0.0860864014
C  C232  1  0.77643000  0.57478000  0.68940000  1.0 0.0860864014
C  C233  1  0.40987000  0.25256000  0.74520000  1.0 -0.1498323933
C  C234  1  0.59013000  0.74744000  0.24520000  1.0 -0.1498323933
C  C235  1  0.75256000  0.09013000  0.99520000  1.0 -0.1498323933
C  C236  1  0.24744000  0.90987000  0.49520000  1.0 -0.1498323933
C  C237  1  0.90987000  0.24744000  0.50480000  1.0 -0.1498323933
C  C238  1  0.09013000  0.75256000  0.00480000  1.0 -0.1498323933
C  C239  1  0.25256000  0.40987000  0.25480000  1.0 -0.1498323933
C  C240  1  0.74744000  0.59013000  0.75480000  1.0 -0.1498323933
C  C241  1  0.38137000  0.27952000  0.78060000  1.0 -0.0317122157
C  C242  1  0.61863000  0.72048000  0.28060000  1.0 -0.0317122157
C  C243  1  0.77952000  0.11863000  0.03060000  1.0 -0.0317122157
C  C244  1  0.22048000  0.88137000  0.53060000  1.0 -0.0317122157
C  C245  1  0.88137000  0.22048000  0.46940000  1.0 -0.0317122157
C  C246  1  0.11863000  0.77952000  0.96940000  1.0 -0.0317122157
C  C247  1  0.27952000  0.38137000  0.21940000  1.0 -0.0317122157
C  C248  1  0.72048000  0.61863000  0.71940000  1.0 -0.0317122157
C  C249  1  0.36821000  0.27748000  0.88130000  1.0 -0.1028251567
C  C250  1  0.63179000  0.72252000  0.38130000  1.0 -0.1028251567
C  C251  1  0.77748000  0.13179000  0.13130000  1.0 -0.1028251567
C  C252  1  0.22252000  0.86821000  0.63130000  1.0 -0.1028251567
C  C253  1  0.86821000  0.22252000  0.36870000  1.0 -0.1028251567
C  C254  1  0.13179000  0.77748000  0.86870000  1.0 -0.1028251567
C  C255  1  0.27748000  0.36821000  0.11870000  1.0 -0.1028251567
C  C256  1  0.72252000  0.63179000  0.61870000  1.0 -0.1028251567
C  C257  1  0.38356000  0.24849000  0.94680000  1.0 -0.0063539659
C  C258  1  0.61644000  0.75151000  0.44680000  1.0 -0.0063539659
C  C259  1  0.74849000  0.11644000  0.19680000  1.0 -0.0063539659
C  C260  1  0.25151000  0.88356000  0.69680000  1.0 -0.0063539659
C  C261  1  0.88356000  0.25151000  0.30320000  1.0 -0.0063539659
C  C262  1  0.11644000  0.74849000  0.80320000  1.0 -0.0063539659
C  C263  1  0.24849000  0.38356000  0.05320000  1.0 -0.0063539659
C  C264  1  0.75151000  0.61644000  0.55320000  1.0 -0.0063539659
C  C265  1  0.41206000  0.22153000  0.91140000  1.0 -0.1307368148
C  C266  1  0.58794000  0.77847000  0.41140000  1.0 -0.1307368148
C  C267  1  0.72153000  0.08794000  0.16140000  1.0 -0.1307368148
C  C268  1  0.27847000  0.91206000  0.66140000  1.0 -0.1307368148
C  C269  1  0.91206000  0.27847000  0.33860000  1.0 -0.1307368148
C  C270  1  0.08794000  0.72153000  0.83860000  1.0 -0.1307368148
C  C271  1  0.22153000  0.41206000  0.08860000  1.0 -0.1307368148
C  C272  1  0.77847000  0.58794000  0.58860000  1.0 -0.1307368148
C  C273  1  0.37300000  0.24450000  0.06040000  1.0 0.5224097601
C  C274  1  0.62700000  0.75550000  0.56040000  1.0 0.5224097601
C  C275  1  0.74450000  0.12700000  0.31040000  1.0 0.5224097601
C  C276  1  0.25550000  0.87300000  0.81040000  1.0 0.5224097601
C  C277  1  0.87300000  0.25550000  0.18960000  1.0 0.5224097601
C  C278  1  0.12700000  0.74450000  0.68960000  1.0 0.5224097601
C  C279  1  0.24450000  0.37300000  0.93960000  1.0 0.5224097601
C  C280  1  0.75550000  0.62700000  0.43960000  1.0 0.5224097601
C  C281  1  0.36420000  0.31000000  0.71030000  1.0 0.5784728496
C  C282  1  0.63580000  0.69000000  0.21030000  1.0 0.5784728496
C  C283  1  0.81000000  0.13580000  0.96030000  1.0 0.5784728496
C  C284  1  0.19000000  0.86420000  0.46030000  1.0 0.5784728496
C  C285  1  0.86420000  0.19000000  0.53970000  1.0 0.5784728496
C  C286  1  0.13580000  0.81000000  0.03970000  1.0 0.5784728496
C  C287  1  0.31000000  0.36420000  0.28970000  1.0 0.5784728496
C  C288  1  0.69000000  0.63580000  0.78970000  1.0 0.5784728496
C  C289  1  0.57180000  0.09350000  0.12510000  1.0 0.3086980588
C  C290  1  0.42820000  0.90650000  0.62510000  1.0 0.3086980588
C  C291  1  0.59350000  0.92820000  0.37510000  1.0 0.3086980588
C  C292  1  0.40650000  0.07180000  0.87510000  1.0 0.3086980588
C  C293  1  0.07180000  0.40650000  0.12490000  1.0 0.3086980588
C  C294  1  0.92820000  0.59350000  0.62490000  1.0 0.3086980588
C  C295  1  0.09350000  0.57180000  0.87490000  1.0 0.3086980588
C  C296  1  0.90650000  0.42820000  0.37490000  1.0 0.3086980588
C  C297  1  0.55530000  0.05150000  0.09700000  1.0 -0.457365922
C  C298  1  0.44470000  0.94850000  0.59700000  1.0 -0.457365922
C  C299  1  0.55150000  0.94470000  0.34700000  1.0 -0.457365922
C  C300  1  0.44850000  0.05530000  0.84700000  1.0 -0.457365922
C  C301  1  0.05530000  0.44850000  0.15300000  1.0 -0.457365922
C  C302  1  0.94470000  0.55150000  0.65300000  1.0 -0.457365922
C  C303  1  0.05150000  0.55530000  0.90300000  1.0 -0.457365922
C  C304  1  0.94850000  0.44470000  0.40300000  1.0 -0.457365922
C  C305  1  0.54140000  0.11470000  0.19440000  1.0 -0.4691468033
C  C306  1  0.45860000  0.88530000  0.69440000  1.0 -0.4691468033
C  C307  1  0.61470000  0.95860000  0.44440000  1.0 -0.4691468033
C  C308  1  0.38530000  0.04140000  0.94440000  1.0 -0.4691468033
C  C309  1  0.04140000  0.38530000  0.05560000  1.0 -0.4691468033
C  C310  1  0.95860000  0.61470000  0.55560000  1.0 -0.4691468033
C  C311  1  0.11470000  0.54140000  0.80560000  1.0 -0.4691468033
C  C312  1  0.88530000  0.45860000  0.30560000  1.0 -0.4691468033
C  C313  1  0.60920000  0.08700000  0.18640000  1.0 -0.4902692606
C  C314  1  0.39080000  0.91300000  0.68640000  1.0 -0.4902692606
C  C315  1  0.58700000  0.89080000  0.43640000  1.0 -0.4902692606
C  C316  1  0.41300000  0.10920000  0.93640000  1.0 -0.4902692606
C  C317  1  0.10920000  0.41300000  0.06360000  1.0 -0.4902692606
C  C318  1  0.89080000  0.58700000  0.56360000  1.0 -0.4902692606
C  C319  1  0.08700000  0.60920000  0.81360000  1.0 -0.4902692606
C  C320  1  0.91300000  0.39080000  0.31360000  1.0 -0.4902692606
C  C321  1  0.47650000  0.12470000  0.54650000  1.0 0.3012570745
C  C322  1  0.52350000  0.87530000  0.04650000  1.0 0.3012570745
C  C323  1  0.62470000  0.02350000  0.79650000  1.0 0.3012570745
C  C324  1  0.37530000  0.97650000  0.29650000  1.0 0.3012570745
C  C325  1  0.97650000  0.37530000  0.70350000  1.0 0.3012570745
C  C326  1  0.02350000  0.62470000  0.20350000  1.0 0.3012570745
C  C327  1  0.12470000  0.47650000  0.45350000  1.0 0.3012570745
C  C328  1  0.87530000  0.52350000  0.95350000  1.0 0.3012570745
C  C329  1  0.47430000  0.07960000  0.56100000  1.0 -0.457365922
C  C330  1  0.52570000  0.92040000  0.06100000  1.0 -0.457365922
C  C331  1  0.57960000  0.02570000  0.81100000  1.0 -0.457365922
C  C332  1  0.42040000  0.97430000  0.31100000  1.0 -0.457365922
C  C333  1  0.97430000  0.42040000  0.68900000  1.0 -0.457365922
C  C334  1  0.02570000  0.57960000  0.18900000  1.0 -0.457365922
C  C335  1  0.07960000  0.47430000  0.43900000  1.0 -0.457365922
C  C336  1  0.92040000  0.52570000  0.93900000  1.0 -0.457365922
C  C337  1  0.51270000  0.13560000  0.47690000  1.0 -0.4691468033
C  C338  1  0.48730000  0.86440000  0.97690000  1.0 -0.4691468033
C  C339  1  0.63560000  0.98730000  0.72690000  1.0 -0.4691468033
C  C340  1  0.36440000  0.01270000  0.22690000  1.0 -0.4691468033
C  C341  1  0.01270000  0.36440000  0.77310000  1.0 -0.4691468033
C  C342  1  0.98730000  0.63560000  0.27310000  1.0 -0.4691468033
C  C343  1  0.13560000  0.51270000  0.52310000  1.0 -0.4691468033
C  C344  1  0.86440000  0.48730000  0.02310000  1.0 -0.4691468033
C  C345  1  0.43860000  0.13640000  0.49320000  1.0 -0.4750048214
C  C346  1  0.56140000  0.86360000  0.99320000  1.0 -0.4691468033
C  C347  1  0.63640000  0.06140000  0.74320000  1.0 -0.4750048214
C  C348  1  0.36360000  0.93860000  0.24320000  1.0 -0.4750048214
C  C349  1  0.93860000  0.36360000  0.75680000  1.0 -0.4750048214
C  C350  1  0.06140000  0.63640000  0.25680000  1.0 -0.4750048214
C  C351  1  0.13640000  0.43860000  0.50680000  1.0 -0.4750048214
C  C352  1  0.86360000  0.56140000  0.00680000  1.0 -0.4750048214
N  N1  1  0.64190000  0.18620000  0.38180000  1.0 0.039037042
N  N2  1  0.35810000  0.81380000  0.88180000  1.0 0.039037042
N  N3  1  0.68620000  0.85810000  0.63180000  1.0 0.039037042
N  N4  1  0.31380000  0.14190000  0.13180000  1.0 0.039037042
N  N5  1  0.14190000  0.31380000  0.86820000  1.0 0.039037042
N  N6  1  0.85810000  0.68620000  0.36820000  1.0 0.039037042
N  N7  1  0.18620000  0.64190000  0.61820000  1.0 0.039037042
N  N8  1  0.81380000  0.35810000  0.11820000  1.0 0.039037042
N  N9  1  0.96990000  0.24360000  0.99110000  1.0 0.0217789705
N  N10  1  0.03010000  0.75640000  0.49110000  1.0 0.0217789705
N  N11  1  0.74360000  0.53010000  0.24110000  1.0 0.0217789705
N  N12  1  0.25640000  0.46990000  0.74110000  1.0 0.0217789705
N  N13  1  0.46990000  0.25640000  0.25890000  1.0 0.0217789705
N  N14  1  0.53010000  0.74360000  0.75890000  1.0 0.0217789705
N  N15  1  0.24360000  0.96990000  0.00890000  1.0 0.0217789705
N  N16  1  0.75640000  0.03010000  0.50890000  1.0 0.0217789705
O  O1  1  0.72338000  0.25016000  0.09200000  1.0 -0.5598672995
O  O2  1  0.27662000  0.74984000  0.59200000  1.0 -0.5598672995
O  O3  1  0.75016000  0.77662000  0.34200000  1.0 -0.5598672995
O  O4  1  0.24984000  0.22338000  0.84200000  1.0 -0.5598672995
O  O5  1  0.22338000  0.24984000  0.15800000  1.0 -0.5598672995
O  O6  1  0.77662000  0.75016000  0.65800000  1.0 -0.5598672995
O  O7  1  0.25016000  0.72338000  0.90800000  1.0 -0.5598672995
O  O8  1  0.74984000  0.27662000  0.40800000  1.0 -0.5598672995
O  O9  1  0.78308000  0.23981000  0.01470000  1.0 -0.5598672995
O  O10  1  0.21692000  0.76019000  0.51470000  1.0 -0.5598672995
O  O11  1  0.73981000  0.71692000  0.26470000  1.0 -0.5598672995
O  O12  1  0.26019000  0.28308000  0.76470000  1.0 -0.5598672995
O  O13  1  0.28308000  0.26019000  0.23530000  1.0 -0.5598672995
O  O14  1  0.71692000  0.73981000  0.73530000  1.0 -0.5598672995
O  O15  1  0.23981000  0.78308000  0.98530000  1.0 -0.5598672995
O  O16  1  0.76019000  0.21692000  0.48530000  1.0 -0.5598672995
O  O17  1  0.78286000  0.16351000  0.67890000  1.0 -0.5698854246
O  O18  1  0.21714000  0.83649000  0.17890000  1.0 -0.5698854246
O  O19  1  0.66351000  0.71714000  0.92890000  1.0 -0.5698854246
O  O20  1  0.33649000  0.28286000  0.42890000  1.0 -0.5698854246
O  O21  1  0.28286000  0.33649000  0.57110000  1.0 -0.5698854246
O  O22  1  0.71714000  0.66351000  0.07110000  1.0 -0.5698854246
O  O23  1  0.16351000  0.78286000  0.32110000  1.0 -0.5698854246
O  O24  1  0.83649000  0.21714000  0.82110000  1.0 -0.5698854246
O  O25  1  0.72441000  0.15012000  0.61230000  1.0 -0.5598672995
O  O26  1  0.27559000  0.84988000  0.11230000  1.0 -0.5598672995
O  O27  1  0.65012000  0.77559000  0.86230000  1.0 -0.5598672995
O  O28  1  0.34988000  0.22441000  0.36230000  1.0 -0.5598672995
O  O29  1  0.22441000  0.34988000  0.63770000  1.0 -0.5598672995
O  O30  1  0.77559000  0.65012000  0.13770000  1.0 -0.5598672995
O  O31  1  0.15012000  0.72441000  0.38770000  1.0 -0.5598672995
O  O32  1  0.84988000  0.27559000  0.88770000  1.0 -0.5598672995
O  O33  1  0.51065000  0.11400000  0.97840000  1.0 -0.4367217285
O  O34  1  0.48935000  0.88600000  0.47840000  1.0 -0.4367217285
O  O35  1  0.61400000  0.98935000  0.22840000  1.0 -0.4367217285
O  O36  1  0.38600000  0.01065000  0.72840000  1.0 -0.4367217285
O  O37  1  0.01065000  0.38600000  0.27160000  1.0 -0.4367217285
O  O38  1  0.98935000  0.61400000  0.77160000  1.0 -0.4367217285
O  O39  1  0.11400000  0.51065000  0.02160000  1.0 -0.4367217285
O  O40  1  0.88600000  0.48935000  0.52160000  1.0 -0.4367217285
O  O41  1  0.54296000  0.11178000  0.68520000  1.0 -0.4289010161
O  O42  1  0.45704000  0.88822000  0.18520000  1.0 -0.4289010161
O  O43  1  0.61178000  0.95704000  0.93520000  1.0 -0.4289010161
O  O44  1  0.38822000  0.04296000  0.43520000  1.0 -0.4289010161
O  O45  1  0.04296000  0.38822000  0.56480000  1.0 -0.4289010161
O  O46  1  0.95704000  0.61178000  0.06480000  1.0 -0.4289010161
O  O47  1  0.11178000  0.54296000  0.31480000  1.0 -0.4289010161
O  O48  1  0.88822000  0.45704000  0.81480000  1.0 -0.4289010161
O  O49  1  0.37418000  0.31188000  0.61910000  1.0 -0.5133236044
O  O50  1  0.62582000  0.68812000  0.11910000  1.0 -0.5133236044
O  O51  1  0.81188000  0.12582000  0.86910000  1.0 -0.5133236044
O  O52  1  0.18812000  0.87418000  0.36910000  1.0 -0.5133236044
O  O53  1  0.87418000  0.18812000  0.63090000  1.0 -0.5133236044
O  O54  1  0.12582000  0.81188000  0.13090000  1.0 -0.5133236044
O  O55  1  0.31188000  0.37418000  0.38090000  1.0 -0.5133236044
O  O56  1  0.68812000  0.62582000  0.88090000  1.0 -0.5133236044
O  O57  1  0.33756000  0.33560000  0.75140000  1.0 -0.5598672995
O  O58  1  0.66244000  0.66440000  0.25140000  1.0 -0.5598672995
O  O59  1  0.83560000  0.16244000  0.00140000  1.0 -0.5598672995
O  O60  1  0.16440000  0.83756000  0.50140000  1.0 -0.5598672995
O  O61  1  0.83756000  0.16440000  0.49860000  1.0 -0.5598672995
O  O62  1  0.16244000  0.83560000  0.99860000  1.0 -0.5598672995
O  O63  1  0.33560000  0.33756000  0.24860000  1.0 -0.5598672995
O  O64  1  0.66440000  0.66244000  0.74860000  1.0 -0.5598672995
O  O65  1  0.35062000  0.27360000  0.09220000  1.0 -0.4902692606
O  O66  1  0.64938000  0.72640000  0.59220000  1.0 -0.4902692606
O  O67  1  0.77360000  0.14938000  0.34220000  1.0 -0.4902692606
O  O68  1  0.22640000  0.85062000  0.84220000  1.0 -0.4902692606
O  O69  1  0.85062000  0.22640000  0.15780000  1.0 -0.4902692606
O  O70  1  0.14938000  0.77360000  0.65780000  1.0 -0.4902692606
O  O71  1  0.27360000  0.35062000  0.90780000  1.0 -0.4902692606
O  O72  1  0.72640000  0.64938000  0.40780000  1.0 -0.4902692606
O  O73  1  0.38550000  0.21790000  0.11290000  1.0 -0.5364945897
O  O74  1  0.61450000  0.78210000  0.61290000  1.0 -0.5364945897
O  O75  1  0.71790000  0.11450000  0.36290000  1.0 -0.5364945897
O  O76  1  0.28210000  0.88550000  0.86290000  1.0 -0.5364945897
O  O77  1  0.88550000  0.28210000  0.13710000  1.0 -0.5364945897
O  O78  1  0.11450000  0.71790000  0.63710000  1.0 -0.5364945897
O  O79  1  0.21790000  0.38550000  0.88710000  1.0 -0.5364945897
O  O80  1  0.78210000  0.61450000  0.38710000  1.0 -0.5364945897
O  O81  1  0.68230000  0.22850000  0.29140000  1.0 -0.3912889355
O  O82  1  0.31770000  0.77150000  0.79140000  1.0 -0.3912889355
O  O83  1  0.72850000  0.81770000  0.54140000  1.0 -0.3912889355
O  O84  1  0.27150000  0.18230000  0.04140000  1.0 -0.3912889355
O  O85  1  0.18230000  0.27150000  0.95860000  1.0 -0.3912889355
O  O86  1  0.81770000  0.72850000  0.45860000  1.0 -0.3912889355
O  O87  1  0.22850000  0.68230000  0.70860000  1.0 -0.3912889355
O  O88  1  0.77150000  0.31770000  0.20860000  1.0 -0.3912889355
O  O89  1  0.68710000  0.31290000  0.25000000  1.0 -0.4902692606
O  O90  1  0.31290000  0.68710000  0.75000000  1.0 -0.4988273177
O  O91  1  0.81290000  0.81290000  0.50000000  1.0 -0.4988273177
O  O92  1  0.18710000  0.18710000  0.00000000  1.0 -0.4988273177
O  O93  1  0.77743000  0.22257000  0.25000000  1.0 -0.0740232983
O  O94  1  0.22257000  0.77743000  0.75000000  1.0 -0.0785672857
O  O95  1  0.72257000  0.72257000  0.50000000  1.0 -0.0785672857
O  O96  1  0.27743000  0.27743000  0.00000000  1.0 -0.0785672857
O  O97  1  0.90825000  0.21380000  0.97650000  1.0 -0.3474630521
O  O98  1  0.09175000  0.78620000  0.47650000  1.0 -0.3474630521
O  O99  1  0.71380000  0.59175000  0.22650000  1.0 -0.3474630521
O  O100  1  0.28620000  0.40825000  0.72650000  1.0 -0.3474630521
O  O101  1  0.40825000  0.28620000  0.27350000  1.0 -0.3474630521
O  O102  1  0.59175000  0.71380000  0.77350000  1.0 -0.3474630521
O  O103  1  0.21380000  0.90825000  0.02350000  1.0 -0.3474630521
O  O104  1  0.78620000  0.09175000  0.52350000  1.0 -0.3474630521
O  O105  1  0.90137000  0.14900000  0.82630000  1.0 -0.2712068551
O  O106  1  0.09863000  0.85100000  0.32630000  1.0 -0.2712068551
O  O107  1  0.64900000  0.59863000  0.07630000  1.0 -0.2712068551
O  O108  1  0.35100000  0.40137000  0.57630000  1.0 -0.2712068551
O  O109  1  0.40137000  0.35100000  0.42370000  1.0 -0.2712068551
O  O110  1  0.59863000  0.64900000  0.92370000  1.0 -0.2712068551
O  O111  1  0.14900000  0.90137000  0.17370000  1.0 -0.2712068551
O  O112  1  0.85100000  0.09863000  0.67370000  1.0 -0.2712068551
