# DDEC6 charges by PACMAN v1.1 (https://github.com/mtap-research/PACMAN-charge/)
data_WOMFEK_ion_pacman
_symmetry_space_group_name_H-M   'P 1'
_cell_length_a   10.23040000
_cell_length_b   10.23040000
_cell_length_c   10.23040000
_cell_angle_alpha   90.00000000
_cell_angle_beta   90.00000000
_cell_angle_gamma   90.00000000
_symmetry_Int_Tables_number   1
_chemical_formula_structural   MnH10C15(N5O6)2
_chemical_formula_sum   'Mn4 H40 C60 N40 O48'
_cell_volume   1070.72475539
_cell_formula_units_Z   4
loop_
 _symmetry_equiv_pos_site_id
 _symmetry_equiv_pos_as_xyz
  1  'x, y, z'
loop_
 _atom_site_type_symbol
 _atom_site_label
 _atom_site_symmetry_multiplicity
 _atom_site_fract_x
 _atom_site_fract_y
 _atom_site_fract_z
 _atom_site_occupancy
 _atom_site_charge
Mn  Mn1  1  0.62599000  0.87401000  0.12599000  1.0 0.6824187347
Mn  Mn2  1  0.87401000  0.12599000  0.62599000  1.0 0.6824187347
Mn  Mn3  1  0.37401000  0.37401000  0.37401000  1.0 0.6824187347
Mn  Mn4  1  0.12599000  0.62599000  0.87401000  1.0 0.6824187347
H  H1  1  0.18420000  0.18420000  0.18420000  1.0 0.1844796051
H  H2  1  0.95070000  0.18960000  0.16340000  1.0 0.0756533006
H  H3  1  0.16340000  0.95070000  0.18960000  1.0 0.0756533006
H  H4  1  0.18960000  0.16340000  0.95070000  1.0 0.0756533006
H  H5  1  0.98410000  0.16960000  0.01510000  1.0 0.0699291337
H  H6  1  0.01510000  0.98410000  0.16960000  1.0 0.0699291337
H  H7  1  0.16960000  0.01510000  0.98410000  1.0 0.0699291337
H  H8  1  0.03520000  0.29370000  0.08910000  1.0 0.0514732322
H  H9  1  0.08910000  0.03520000  0.29370000  1.0 0.0514732322
H  H10  1  0.29370000  0.08910000  0.03520000  1.0 0.0514732322
H  H11  1  0.31580000  0.81580000  0.68420000  1.0 0.1853924999
H  H12  1  0.54930000  0.81040000  0.66340000  1.0 0.0756533006
H  H13  1  0.33660000  0.04930000  0.68960000  1.0 0.0756533006
H  H14  1  0.31040000  0.83660000  0.45070000  1.0 0.0756533006
H  H15  1  0.51590000  0.83040000  0.51510000  1.0 0.0699291337
H  H16  1  0.48490000  0.01590000  0.66960000  1.0 0.0699291337
H  H17  1  0.33040000  0.98490000  0.48410000  1.0 0.0699291337
H  H18  1  0.46480000  0.70630000  0.58910000  1.0 0.0514732322
H  H19  1  0.41090000  0.96480000  0.79370000  1.0 0.0514732322
H  H20  1  0.20630000  0.91090000  0.53520000  1.0 0.0514732322
H  H21  1  0.81580000  0.68420000  0.31580000  1.0 0.1844796051
H  H22  1  0.04930000  0.68960000  0.33660000  1.0 0.0756533006
H  H23  1  0.83660000  0.45070000  0.31040000  1.0 0.0756533006
H  H24  1  0.81040000  0.66340000  0.54930000  1.0 0.0756533006
H  H25  1  0.01590000  0.66960000  0.48490000  1.0 0.0699291337
H  H26  1  0.98490000  0.48410000  0.33040000  1.0 0.0699291337
H  H27  1  0.83040000  0.51510000  0.51590000  1.0 0.0699291337
H  H28  1  0.96480000  0.79370000  0.41090000  1.0 0.0514732322
H  H29  1  0.91090000  0.53520000  0.20630000  1.0 0.0514732322
H  H30  1  0.70630000  0.58910000  0.46480000  1.0 0.0514732322
H  H31  1  0.68420000  0.31580000  0.81580000  1.0 0.1844796051
H  H32  1  0.45070000  0.31040000  0.83660000  1.0 0.0756533006
H  H33  1  0.66340000  0.54930000  0.81040000  1.0 0.0756533006
H  H34  1  0.68960000  0.33660000  0.04930000  1.0 0.0756533006
H  H35  1  0.48410000  0.33040000  0.98490000  1.0 0.0699291337
H  H36  1  0.51510000  0.51590000  0.83040000  1.0 0.0699291337
H  H37  1  0.66960000  0.48490000  0.01590000  1.0 0.0699291337
H  H38  1  0.53520000  0.20630000  0.91090000  1.0 0.0514732322
H  H39  1  0.58910000  0.46480000  0.70630000  1.0 0.0514732322
H  H40  1  0.79370000  0.41090000  0.96480000  1.0 0.0514732322
C  C1  1  0.36400000  0.76300000  0.98000000  1.0 0.2418032347
C  C2  1  0.13600000  0.23700000  0.48000000  1.0 0.2418032347
C  C3  1  0.63600000  0.26300000  0.52000000  1.0 0.2418032347
C  C4  1  0.86400000  0.73700000  0.02000000  1.0 0.2418032347
C  C5  1  0.98000000  0.36400000  0.76300000  1.0 0.2418032347
C  C6  1  0.48000000  0.13600000  0.23700000  1.0 0.2418032347
C  C7  1  0.52000000  0.63600000  0.26300000  1.0 0.2418032347
C  C8  1  0.02000000  0.86400000  0.73700000  1.0 0.2418032347
C  C9  1  0.76300000  0.98000000  0.36400000  1.0 0.2418032347
C  C10  1  0.23700000  0.48000000  0.13600000  1.0 0.2418032347
C  C11  1  0.26300000  0.52000000  0.63600000  1.0 0.2418032347
C  C12  1  0.73700000  0.02000000  0.86400000  1.0 0.2418032347
C  C13  1  0.33050000  0.64700000  0.06040000  1.0 0.0514732322
C  C14  1  0.16950000  0.35300000  0.56040000  1.0 0.0514732322
C  C15  1  0.66950000  0.14700000  0.43960000  1.0 0.0514732322
C  C16  1  0.83050000  0.85300000  0.93960000  1.0 0.0514732322
C  C17  1  0.06040000  0.33050000  0.64700000  1.0 0.0514732322
C  C18  1  0.56040000  0.16950000  0.35300000  1.0 0.0514732322
C  C19  1  0.43960000  0.66950000  0.14700000  1.0 0.0514732322
C  C20  1  0.93960000  0.83050000  0.85300000  1.0 0.0514732322
C  C21  1  0.64700000  0.06040000  0.33050000  1.0 0.0514732322
C  C22  1  0.35300000  0.56040000  0.16950000  1.0 0.0514732322
C  C23  1  0.14700000  0.43960000  0.66950000  1.0 0.0514732322
C  C24  1  0.85300000  0.93960000  0.83050000  1.0 0.0514732322
C  C25  1  0.40200000  0.67020000  0.10970000  1.0 0.0514732322
C  C26  1  0.09800000  0.32980000  0.60970000  1.0 0.0514732322
C  C27  1  0.59800000  0.17020000  0.39030000  1.0 0.0514732322
C  C28  1  0.90200000  0.82980000  0.89030000  1.0 0.0514732322
C  C29  1  0.10970000  0.40200000  0.67020000  1.0 0.0514732322
C  C30  1  0.60970000  0.09800000  0.32980000  1.0 0.0514732322
C  C31  1  0.39030000  0.59800000  0.17020000  1.0 0.0514732322
C  C32  1  0.89030000  0.90200000  0.82980000  1.0 0.0514732322
C  C33  1  0.67020000  0.10970000  0.40200000  1.0 0.0514732322
C  C34  1  0.32980000  0.60970000  0.09800000  1.0 0.0514732322
C  C35  1  0.17020000  0.39030000  0.59800000  1.0 0.0514732322
C  C36  1  0.82980000  0.89030000  0.90200000  1.0 0.0514732322
C  C37  1  0.39000000  0.76800000  0.00300000  1.0 0.2969052006
C  C38  1  0.11000000  0.23200000  0.50300000  1.0 0.2969052006
C  C39  1  0.61000000  0.26800000  0.49700000  1.0 0.2969052006
C  C40  1  0.89000000  0.73200000  0.99700000  1.0 0.2969052006
C  C41  1  0.00300000  0.39000000  0.76800000  1.0 0.2969052006
C  C42  1  0.50300000  0.11000000  0.23200000  1.0 0.2969052006
C  C43  1  0.49700000  0.61000000  0.26800000  1.0 0.2969052006
C  C44  1  0.99700000  0.89000000  0.73200000  1.0 0.2969052006
C  C45  1  0.76800000  0.00300000  0.39000000  1.0 0.2969052006
C  C46  1  0.23200000  0.50300000  0.11000000  1.0 0.2969052006
C  C47  1  0.26800000  0.49700000  0.61000000  1.0 0.2969052006
C  C48  1  0.73200000  0.99700000  0.89000000  1.0 0.2969052006
C  C49  1  0.01600000  0.20200000  0.09700000  1.0 -0.5445762327
C  C50  1  0.09700000  0.01600000  0.20200000  1.0 -0.5445762327
C  C51  1  0.20200000  0.09700000  0.01600000  1.0 -0.5445762327
C  C52  1  0.48400000  0.79800000  0.59700000  1.0 -0.5445762327
C  C53  1  0.40300000  0.98400000  0.70200000  1.0 -0.5445762327
C  C54  1  0.29800000  0.90300000  0.51600000  1.0 -0.5445762327
C  C55  1  0.98400000  0.70200000  0.40300000  1.0 -0.5445762327
C  C56  1  0.90300000  0.51600000  0.29800000  1.0 -0.5445762327
C  C57  1  0.79800000  0.59700000  0.48400000  1.0 -0.5445762327
C  C58  1  0.51600000  0.29800000  0.90300000  1.0 -0.5454474381
C  C59  1  0.59700000  0.48400000  0.79800000  1.0 -0.5445762327
C  C60  1  0.70200000  0.40300000  0.98400000  1.0 -0.5454474381
N  N1  1  0.46490000  0.77150000  0.06710000  1.0 -0.0633156691
N  N2  1  0.03510000  0.22850000  0.56710000  1.0 -0.0633156691
N  N3  1  0.53510000  0.27150000  0.43290000  1.0 -0.0633156691
N  N4  1  0.96490000  0.72850000  0.93290000  1.0 -0.0633156691
N  N5  1  0.06710000  0.46490000  0.77150000  1.0 -0.0633156691
N  N6  1  0.56710000  0.03510000  0.22850000  1.0 -0.0633156691
N  N7  1  0.43290000  0.53510000  0.27150000  1.0 -0.0633156691
N  N8  1  0.93290000  0.96490000  0.72850000  1.0 -0.0633156691
N  N9  1  0.77150000  0.06710000  0.46490000  1.0 -0.0633156691
N  N10  1  0.22850000  0.56710000  0.03510000  1.0 -0.0633156691
N  N11  1  0.27150000  0.43290000  0.53510000  1.0 -0.0633156691
N  N12  1  0.72850000  0.93290000  0.96490000  1.0 -0.0633156691
N  N13  1  0.37500000  0.77400000  0.97430000  1.0 0.0268866677
N  N14  1  0.12500000  0.22600000  0.47430000  1.0 0.0268866677
N  N15  1  0.62500000  0.27400000  0.52570000  1.0 0.0268866677
N  N16  1  0.87500000  0.72600000  0.02570000  1.0 0.0268866677
N  N17  1  0.97430000  0.37500000  0.77400000  1.0 0.0268866677
N  N18  1  0.47430000  0.12500000  0.22600000  1.0 0.0268866677
N  N19  1  0.52570000  0.62500000  0.27400000  1.0 0.0268866677
N  N20  1  0.02570000  0.87500000  0.72600000  1.0 0.0268866677
N  N21  1  0.77400000  0.97430000  0.37500000  1.0 0.0268866677
N  N22  1  0.22600000  0.47430000  0.12500000  1.0 0.0268866677
N  N23  1  0.27400000  0.52570000  0.62500000  1.0 0.0268866677
N  N24  1  0.72600000  0.02570000  0.87500000  1.0 0.0268866677
N  N25  1  0.29210000  0.67700000  0.99080000  1.0 -0.0794725565
N  N26  1  0.20790000  0.32300000  0.49080000  1.0 -0.0794725565
N  N27  1  0.70790000  0.17700000  0.50920000  1.0 -0.0794725565
N  N28  1  0.79210000  0.82300000  0.00920000  1.0 -0.0794725565
N  N29  1  0.99080000  0.29210000  0.67700000  1.0 -0.0794725565
N  N30  1  0.49080000  0.20790000  0.32300000  1.0 -0.0794725565
N  N31  1  0.50920000  0.70790000  0.17700000  1.0 -0.0794725565
N  N32  1  0.00920000  0.79210000  0.82300000  1.0 -0.0794725565
N  N33  1  0.67700000  0.99080000  0.29210000  1.0 -0.0794725565
N  N34  1  0.32300000  0.49080000  0.20790000  1.0 -0.0794725565
N  N35  1  0.17700000  0.50920000  0.70790000  1.0 -0.0794725565
N  N36  1  0.82300000  0.00920000  0.79210000  1.0 -0.0794725565
N  N37  1  0.13300000  0.13300000  0.13300000  1.0 -0.3472326091
N  N38  1  0.36700000  0.86700000  0.63300000  1.0 -0.3472326091
N  N39  1  0.86700000  0.63300000  0.36700000  1.0 -0.3472326091
N  N40  1  0.63300000  0.36700000  0.86700000  1.0 -0.3472326091
O  O1  1  0.28100000  0.77200000  0.89000000  1.0 -0.2278830499
O  O2  1  0.21900000  0.22800000  0.39000000  1.0 -0.2278830499
O  O3  1  0.71900000  0.27200000  0.61000000  1.0 -0.2278830499
O  O4  1  0.78100000  0.72800000  0.11000000  1.0 -0.2278830499
O  O5  1  0.89000000  0.28100000  0.77200000  1.0 -0.2278830499
O  O6  1  0.39000000  0.21900000  0.22800000  1.0 -0.2278830499
O  O7  1  0.61000000  0.71900000  0.27200000  1.0 -0.2278830499
O  O8  1  0.11000000  0.78100000  0.72800000  1.0 -0.2278830499
O  O9  1  0.77200000  0.89000000  0.28100000  1.0 -0.2278830499
O  O10  1  0.22800000  0.39000000  0.21900000  1.0 -0.2278830499
O  O11  1  0.27200000  0.61000000  0.71900000  1.0 -0.2278830499
O  O12  1  0.72800000  0.11000000  0.78100000  1.0 -0.2278830499
O  O13  1  0.45200000  0.84900000  0.99300000  1.0 0.0107909236
O  O14  1  0.04800000  0.15100000  0.49300000  1.0 0.0107909236
O  O15  1  0.54800000  0.34900000  0.50700000  1.0 0.0107909236
O  O16  1  0.95200000  0.65100000  0.00700000  1.0 0.0107909236
O  O17  1  0.99300000  0.45200000  0.84900000  1.0 0.0107909236
O  O18  1  0.49300000  0.04800000  0.15100000  1.0 0.0107909236
O  O19  1  0.50700000  0.54800000  0.34900000  1.0 0.0107909236
O  O20  1  0.00700000  0.95200000  0.65100000  1.0 0.0107909236
O  O21  1  0.84900000  0.99300000  0.45200000  1.0 0.0107909236
O  O22  1  0.15100000  0.49300000  0.04800000  1.0 0.0107909236
O  O23  1  0.34900000  0.50700000  0.54800000  1.0 0.0107909236
O  O24  1  0.65100000  0.00700000  0.95200000  1.0 0.0107909236
O  O25  1  0.29900000  0.77700000  0.92300000  1.0 -0.0316732806
O  O26  1  0.20100000  0.22300000  0.42300000  1.0 -0.0316732806
O  O27  1  0.70100000  0.27700000  0.57700000  1.0 -0.0316732806
O  O28  1  0.79900000  0.72300000  0.07700000  1.0 -0.0316732806
O  O29  1  0.92300000  0.29900000  0.77700000  1.0 -0.0316732806
O  O30  1  0.42300000  0.20100000  0.22300000  1.0 -0.0316732806
O  O31  1  0.57700000  0.70100000  0.27700000  1.0 -0.0316732806
O  O32  1  0.07700000  0.79900000  0.72300000  1.0 -0.0316732806
O  O33  1  0.77700000  0.92300000  0.29900000  1.0 -0.0316732806
O  O34  1  0.22300000  0.42300000  0.20100000  1.0 -0.0316732806
O  O35  1  0.27700000  0.57700000  0.70100000  1.0 -0.0316732806
O  O36  1  0.72300000  0.07700000  0.79900000  1.0 -0.0316732806
O  O37  1  0.50700000  0.79000000  0.98000000  1.0 -0.1026201525
O  O38  1  0.99300000  0.21000000  0.48000000  1.0 -0.1026201525
O  O39  1  0.49300000  0.29000000  0.52000000  1.0 -0.1026201525
O  O40  1  0.00700000  0.71000000  0.02000000  1.0 -0.1026201525
O  O41  1  0.98000000  0.50700000  0.79000000  1.0 -0.1026201525
O  O42  1  0.48000000  0.99300000  0.21000000  1.0 -0.1026201525
O  O43  1  0.52000000  0.49300000  0.29000000  1.0 -0.1026201525
O  O44  1  0.02000000  0.00700000  0.71000000  1.0 -0.1026201525
O  O45  1  0.79000000  0.98000000  0.50700000  1.0 -0.1026201525
O  O46  1  0.21000000  0.48000000  0.99300000  1.0 -0.1026201525
O  O47  1  0.29000000  0.52000000  0.49300000  1.0 -0.1026201525
O  O48  1  0.71000000  0.02000000  0.00700000  1.0 -0.1026201525
