# DDEC6 charges by PACMAN v1.1 (https://github.com/mtap-research/PACMAN-charge/)
data_WOMXED_ASR_pacman
_symmetry_space_group_name_H-M   'P 1'
_cell_length_a   37.13840000
_cell_length_b   37.13840000
_cell_length_c   74.47800000
_cell_angle_alpha   90.00000000
_cell_angle_beta   90.00000000
_cell_angle_gamma   120.00000000
_symmetry_Int_Tables_number   1
_chemical_formula_structural   Cu3H78C153(NO6)2
_chemical_formula_sum   'Cu36 H936 C1836 N24 O144'
_cell_volume   88962.09801920
_cell_formula_units_Z   12
loop_
 _symmetry_equiv_pos_site_id
 _symmetry_equiv_pos_as_xyz
  1  'x, y, z'
loop_
 _atom_site_type_symbol
 _atom_site_label
 _atom_site_symmetry_multiplicity
 _atom_site_fract_x
 _atom_site_fract_y
 _atom_site_fract_z
 _atom_site_occupancy
 _atom_site_charge
Cu  Cu1  1  0.45344000  0.54656000  0.55818000  1.0 0.4810072329
Cu  Cu2  1  0.45344000  0.90688000  0.55818000  1.0 0.4810072329
Cu  Cu3  1  0.09312000  0.54656000  0.55818000  1.0 0.490821702
Cu  Cu4  1  0.54656000  0.45344000  0.05818000  1.0 0.490821702
Cu  Cu5  1  0.54656000  0.09312000  0.05818000  1.0 0.490821702
Cu  Cu6  1  0.90688000  0.45344000  0.05818000  1.0 0.490821702
Cu  Cu7  1  0.54656000  0.45344000  0.44182000  1.0 0.490821702
Cu  Cu8  1  0.90688000  0.45344000  0.44182000  1.0 0.490821702
Cu  Cu9  1  0.54656000  0.09312000  0.44182000  1.0 0.490821702
Cu  Cu10  1  0.45344000  0.54656000  0.94182000  1.0 0.4810072329
Cu  Cu11  1  0.09312000  0.54656000  0.94182000  1.0 0.490821702
Cu  Cu12  1  0.45344000  0.90688000  0.94182000  1.0 0.4810072329
Cu  Cu13  1  0.41934000  0.58066000  0.57717000  1.0 0.4810072329
Cu  Cu14  1  0.41934000  0.83868000  0.57717000  1.0 0.4810072329
Cu  Cu15  1  0.16132000  0.58066000  0.57717000  1.0 0.4810072329
Cu  Cu16  1  0.58066000  0.41934000  0.07717000  1.0 0.4810072329
Cu  Cu17  1  0.58066000  0.16132000  0.07717000  1.0 0.4810072329
Cu  Cu18  1  0.83868000  0.41934000  0.07717000  1.0 0.4810072329
Cu  Cu19  1  0.58066000  0.41934000  0.42283000  1.0 0.4810072329
Cu  Cu20  1  0.83868000  0.41934000  0.42283000  1.0 0.4810072329
Cu  Cu21  1  0.58066000  0.16132000  0.42283000  1.0 0.4810072329
Cu  Cu22  1  0.41934000  0.58066000  0.92283000  1.0 0.4810072329
Cu  Cu23  1  0.16132000  0.58066000  0.92283000  1.0 0.4810072329
Cu  Cu24  1  0.41934000  0.83868000  0.92283000  1.0 0.4810072329
Cu  Cu25  1  0.85880000  0.71760000  0.25000000  1.0 0.446179831
Cu  Cu26  1  0.28240000  0.14120000  0.25000000  1.0 0.446179831
Cu  Cu27  1  0.85880000  0.14120000  0.25000000  1.0 0.446179831
Cu  Cu28  1  0.14120000  0.28240000  0.75000000  1.0 0.4425650999
Cu  Cu29  1  0.71760000  0.85880000  0.75000000  1.0 0.446179831
Cu  Cu30  1  0.14120000  0.85880000  0.75000000  1.0 0.4425650999
Cu  Cu31  1  0.81790000  0.63580000  0.25000000  1.0 0.4291264727
Cu  Cu32  1  0.36420000  0.18210000  0.25000000  1.0 0.4291264727
Cu  Cu33  1  0.81790000  0.18210000  0.25000000  1.0 0.4291264727
Cu  Cu34  1  0.18210000  0.36420000  0.75000000  1.0 0.4291264727
Cu  Cu35  1  0.63580000  0.81790000  0.75000000  1.0 0.4291264727
Cu  Cu36  1  0.18210000  0.81790000  0.75000000  1.0 0.4291264727
H  H1  1  0.46040000  0.69500000  0.54770000  1.0 0.0896335793
H  H2  1  0.30500000  0.76540000  0.54770000  1.0 0.0896335793
H  H3  1  0.23460000  0.53960000  0.54770000  1.0 0.0896335793
H  H4  1  0.53960000  0.30500000  0.04770000  1.0 0.0896335793
H  H5  1  0.69500000  0.23460000  0.04770000  1.0 0.0896335793
H  H6  1  0.76540000  0.46040000  0.04770000  1.0 0.0896335793
H  H7  1  0.69500000  0.46040000  0.45230000  1.0 0.0896335793
H  H8  1  0.76540000  0.30500000  0.45230000  1.0 0.0896335793
H  H9  1  0.53960000  0.23460000  0.45230000  1.0 0.0896335793
H  H10  1  0.30500000  0.53960000  0.95230000  1.0 0.0896335793
H  H11  1  0.23460000  0.69500000  0.95230000  1.0 0.0896335793
H  H12  1  0.46040000  0.76540000  0.95230000  1.0 0.0896335793
H  H13  1  0.53960000  0.30500000  0.45230000  1.0 0.0896335793
H  H14  1  0.69500000  0.23460000  0.45230000  1.0 0.0896335793
H  H15  1  0.76540000  0.46040000  0.45230000  1.0 0.0896335793
H  H16  1  0.46040000  0.69500000  0.95230000  1.0 0.0896335793
H  H17  1  0.30500000  0.76540000  0.95230000  1.0 0.0896335793
H  H18  1  0.23460000  0.53960000  0.95230000  1.0 0.0896335793
H  H19  1  0.30500000  0.53960000  0.54770000  1.0 0.0896335793
H  H20  1  0.23460000  0.69500000  0.54770000  1.0 0.0896335793
H  H21  1  0.46040000  0.76540000  0.54770000  1.0 0.0896335793
H  H22  1  0.69500000  0.46040000  0.04770000  1.0 0.0896335793
H  H23  1  0.76540000  0.30500000  0.04770000  1.0 0.0896335793
H  H24  1  0.53960000  0.23460000  0.04770000  1.0 0.0896335793
H  H25  1  0.50160000  0.63360000  0.51650000  1.0 0.0896335793
H  H26  1  0.36640000  0.86800000  0.51650000  1.0 0.0896335793
H  H27  1  0.13200000  0.49840000  0.51650000  1.0 0.0896335793
H  H28  1  0.49840000  0.36640000  0.01650000  1.0 0.0896335793
H  H29  1  0.63360000  0.13200000  0.01650000  1.0 0.0896335793
H  H30  1  0.86800000  0.50160000  0.01650000  1.0 0.0896335793
H  H31  1  0.63360000  0.50160000  0.48350000  1.0 0.0896335793
H  H32  1  0.86800000  0.36640000  0.48350000  1.0 0.0896335793
H  H33  1  0.49840000  0.13200000  0.48350000  1.0 0.0896335793
H  H34  1  0.36640000  0.49840000  0.98350000  1.0 0.0896335793
H  H35  1  0.13200000  0.63360000  0.98350000  1.0 0.0896335793
H  H36  1  0.50160000  0.86800000  0.98350000  1.0 0.0896335793
H  H37  1  0.49840000  0.36640000  0.48350000  1.0 0.0896335793
H  H38  1  0.63360000  0.13200000  0.48350000  1.0 0.0896335793
H  H39  1  0.86800000  0.50160000  0.48350000  1.0 0.0896335793
H  H40  1  0.50160000  0.63360000  0.98350000  1.0 0.0896335793
H  H41  1  0.36640000  0.86800000  0.98350000  1.0 0.0896335793
H  H42  1  0.13200000  0.49840000  0.98350000  1.0 0.0896335793
H  H43  1  0.36640000  0.49840000  0.51650000  1.0 0.0896335793
H  H44  1  0.13200000  0.63360000  0.51650000  1.0 0.0896335793
H  H45  1  0.50160000  0.86800000  0.51650000  1.0 0.0896335793
H  H46  1  0.63360000  0.50160000  0.01650000  1.0 0.0896335793
H  H47  1  0.86800000  0.36640000  0.01650000  1.0 0.0896335793
H  H48  1  0.49840000  0.13200000  0.01650000  1.0 0.0896335793
H  H49  1  0.52890000  0.68880000  0.49600000  1.0 0.0708706454
H  H50  1  0.31120000  0.84010000  0.49600000  1.0 0.0708706454
H  H51  1  0.15990000  0.47110000  0.49600000  1.0 0.0708706454
H  H52  1  0.47110000  0.31120000  0.99600000  1.0 0.0708706454
H  H53  1  0.68880000  0.15990000  0.99600000  1.0 0.0708706454
H  H54  1  0.84010000  0.52890000  0.99600000  1.0 0.0708706454
H  H55  1  0.68880000  0.52890000  0.50400000  1.0 0.0708706454
H  H56  1  0.84010000  0.31120000  0.50400000  1.0 0.0708706454
H  H57  1  0.47110000  0.15990000  0.50400000  1.0 0.0708706454
H  H58  1  0.31120000  0.47110000  0.00400000  1.0 0.0708706454
H  H59  1  0.15990000  0.68880000  0.00400000  1.0 0.0708706454
H  H60  1  0.52890000  0.84010000  0.00400000  1.0 0.0708706454
H  H61  1  0.47110000  0.31120000  0.50400000  1.0 0.0708706454
H  H62  1  0.68880000  0.15990000  0.50400000  1.0 0.0708706454
H  H63  1  0.84010000  0.52890000  0.50400000  1.0 0.0708706454
H  H64  1  0.52890000  0.68880000  0.00400000  1.0 0.0708706454
H  H65  1  0.31120000  0.84010000  0.00400000  1.0 0.0708706454
H  H66  1  0.15990000  0.47110000  0.00400000  1.0 0.0708706454
H  H67  1  0.31120000  0.47110000  0.49600000  1.0 0.0708706454
H  H68  1  0.15990000  0.68880000  0.49600000  1.0 0.0708706454
H  H69  1  0.52890000  0.84010000  0.49600000  1.0 0.0708706454
H  H70  1  0.68880000  0.52890000  0.99600000  1.0 0.0708706454
H  H71  1  0.84010000  0.31120000  0.99600000  1.0 0.0708706454
H  H72  1  0.47110000  0.15990000  0.99600000  1.0 0.0708706454
H  H73  1  0.58650000  0.82700000  0.48970000  1.0 0.0708706454
H  H74  1  0.17300000  0.75950000  0.48970000  1.0 0.0708706454
H  H75  1  0.24050000  0.41350000  0.48970000  1.0 0.0708706454
H  H76  1  0.41350000  0.17300000  0.98970000  1.0 0.0708706454
H  H77  1  0.82700000  0.24050000  0.98970000  1.0 0.0708706454
H  H78  1  0.75950000  0.58650000  0.98970000  1.0 0.0708706454
H  H79  1  0.82700000  0.58650000  0.51030000  1.0 0.0708706454
H  H80  1  0.75950000  0.17300000  0.51030000  1.0 0.0708706454
H  H81  1  0.41350000  0.24050000  0.51030000  1.0 0.0708706454
H  H82  1  0.17300000  0.41350000  0.01030000  1.0 0.0708706454
H  H83  1  0.24050000  0.82700000  0.01030000  1.0 0.0708706454
H  H84  1  0.58650000  0.75950000  0.01030000  1.0 0.0708706454
H  H85  1  0.41350000  0.17300000  0.51030000  1.0 0.0708706454
H  H86  1  0.82700000  0.24050000  0.51030000  1.0 0.0708706454
H  H87  1  0.75950000  0.58650000  0.51030000  1.0 0.0708706454
H  H88  1  0.58650000  0.82700000  0.01030000  1.0 0.0708706454
H  H89  1  0.17300000  0.75950000  0.01030000  1.0 0.0708706454
H  H90  1  0.24050000  0.41350000  0.01030000  1.0 0.0708706454
H  H91  1  0.17300000  0.41350000  0.48970000  1.0 0.0708706454
H  H92  1  0.24050000  0.82700000  0.48970000  1.0 0.0708706454
H  H93  1  0.58650000  0.75950000  0.48970000  1.0 0.0708706454
H  H94  1  0.82700000  0.58650000  0.98970000  1.0 0.0708706454
H  H95  1  0.75950000  0.17300000  0.98970000  1.0 0.0708706454
H  H96  1  0.41350000  0.24050000  0.98970000  1.0 0.0708706454
H  H97  1  0.61690000  0.84230000  0.46120000  1.0 0.0409008468
H  H98  1  0.15770000  0.77460000  0.46120000  1.0 0.0409008468
H  H99  1  0.22540000  0.38310000  0.46120000  1.0 0.0409008468
H  H100  1  0.38310000  0.15770000  0.96120000  1.0 0.0409008468
H  H101  1  0.84230000  0.22540000  0.96120000  1.0 0.0409008468
H  H102  1  0.77460000  0.61690000  0.96120000  1.0 0.0409008468
H  H103  1  0.84230000  0.61690000  0.53880000  1.0 0.0409008468
H  H104  1  0.77460000  0.15770000  0.53880000  1.0 0.0409008468
H  H105  1  0.38310000  0.22540000  0.53880000  1.0 0.0409008468
H  H106  1  0.15770000  0.38310000  0.03880000  1.0 0.0409008468
H  H107  1  0.22540000  0.84230000  0.03880000  1.0 0.0409008468
H  H108  1  0.61690000  0.77460000  0.03880000  1.0 0.0409008468
H  H109  1  0.38310000  0.15770000  0.53880000  1.0 0.0409008468
H  H110  1  0.84230000  0.22540000  0.53880000  1.0 0.0409008468
H  H111  1  0.77460000  0.61690000  0.53880000  1.0 0.0409008468
H  H112  1  0.61690000  0.84230000  0.03880000  1.0 0.0409008468
H  H113  1  0.15770000  0.77460000  0.03880000  1.0 0.0409008468
H  H114  1  0.22540000  0.38310000  0.03880000  1.0 0.0409008468
H  H115  1  0.15770000  0.38310000  0.46120000  1.0 0.0409008468
H  H116  1  0.22540000  0.84230000  0.46120000  1.0 0.0409008468
H  H117  1  0.61690000  0.77460000  0.46120000  1.0 0.0409008468
H  H118  1  0.84230000  0.61690000  0.96120000  1.0 0.0409008468
H  H119  1  0.77460000  0.15770000  0.96120000  1.0 0.0409008468
H  H120  1  0.38310000  0.22540000  0.96120000  1.0 0.0409008468
H  H121  1  0.62810000  0.76090000  0.39750000  1.0 0.116457715
H  H122  1  0.23910000  0.86720000  0.39750000  1.0 0.116457715
H  H123  1  0.13280000  0.37190000  0.39750000  1.0 0.116457715
H  H124  1  0.37190000  0.23910000  0.89750000  1.0 0.116457715
H  H125  1  0.76090000  0.13280000  0.89750000  1.0 0.116457715
H  H126  1  0.86720000  0.62810000  0.89750000  1.0 0.116457715
H  H127  1  0.76090000  0.62810000  0.60250000  1.0 0.116457715
H  H128  1  0.86720000  0.23910000  0.60250000  1.0 0.116457715
H  H129  1  0.37190000  0.13280000  0.60250000  1.0 0.116457715
H  H130  1  0.23910000  0.37190000  0.10250000  1.0 0.116457715
H  H131  1  0.13280000  0.76090000  0.10250000  1.0 0.116457715
H  H132  1  0.62810000  0.86720000  0.10250000  1.0 0.116457715
H  H133  1  0.37190000  0.23910000  0.60250000  1.0 0.116457715
H  H134  1  0.76090000  0.13280000  0.60250000  1.0 0.116457715
H  H135  1  0.86720000  0.62810000  0.60250000  1.0 0.116457715
H  H136  1  0.62810000  0.76090000  0.10250000  1.0 0.116457715
H  H137  1  0.23910000  0.86720000  0.10250000  1.0 0.116457715
H  H138  1  0.13280000  0.37190000  0.10250000  1.0 0.116457715
H  H139  1  0.23910000  0.37190000  0.39750000  1.0 0.116457715
H  H140  1  0.13280000  0.76090000  0.39750000  1.0 0.116457715
H  H141  1  0.62810000  0.86720000  0.39750000  1.0 0.116457715
H  H142  1  0.76090000  0.62810000  0.89750000  1.0 0.116457715
H  H143  1  0.86720000  0.23910000  0.89750000  1.0 0.116457715
H  H144  1  0.37190000  0.13280000  0.89750000  1.0 0.116457715
H  H145  1  0.66890000  0.83445000  0.35280000  1.0 0.116457715
H  H146  1  0.16555000  0.83445000  0.35280000  1.0 0.116457715
H  H147  1  0.16555000  0.33110000  0.35280000  1.0 0.116457715
H  H148  1  0.33110000  0.16555000  0.85280000  1.0 0.116457715
H  H149  1  0.83445000  0.16555000  0.85280000  1.0 0.116457715
H  H150  1  0.83445000  0.66890000  0.85280000  1.0 0.116457715
H  H151  1  0.83445000  0.66890000  0.64720000  1.0 0.116457715
H  H152  1  0.83445000  0.16555000  0.64720000  1.0 0.116457715
H  H153  1  0.33110000  0.16555000  0.64720000  1.0 0.116457715
H  H154  1  0.16555000  0.33110000  0.14720000  1.0 0.116457715
H  H155  1  0.16555000  0.83445000  0.14720000  1.0 0.116457715
H  H156  1  0.66890000  0.83445000  0.14720000  1.0 0.116457715
H  H157  1  0.69270000  0.72290000  0.32960000  1.0 0.0812699266
H  H158  1  0.27710000  0.96980000  0.32960000  1.0 0.0812699266
H  H159  1  0.03020000  0.30730000  0.32960000  1.0 0.0812699266
H  H160  1  0.30730000  0.27710000  0.82960000  1.0 0.0812699266
H  H161  1  0.72290000  0.03020000  0.82960000  1.0 0.0812699266
H  H162  1  0.96980000  0.69270000  0.82960000  1.0 0.0812699266
H  H163  1  0.72290000  0.69270000  0.67040000  1.0 0.0812699266
H  H164  1  0.96980000  0.27710000  0.67040000  1.0 0.0812699266
H  H165  1  0.30730000  0.03020000  0.67040000  1.0 0.0812699266
H  H166  1  0.27710000  0.30730000  0.17040000  1.0 0.0812699266
H  H167  1  0.03020000  0.72290000  0.17040000  1.0 0.0812699266
H  H168  1  0.69270000  0.96980000  0.17040000  1.0 0.0812699266
H  H169  1  0.30730000  0.27710000  0.67040000  1.0 0.0812699266
H  H170  1  0.72290000  0.03020000  0.67040000  1.0 0.0812699266
H  H171  1  0.96980000  0.69270000  0.67040000  1.0 0.0812699266
H  H172  1  0.69270000  0.72290000  0.17040000  1.0 0.0812699266
H  H173  1  0.27710000  0.96980000  0.17040000  1.0 0.0812699266
H  H174  1  0.03020000  0.30730000  0.17040000  1.0 0.0812699266
H  H175  1  0.27710000  0.30730000  0.32960000  1.0 0.0812699266
H  H176  1  0.03020000  0.72290000  0.32960000  1.0 0.0812699266
H  H177  1  0.69270000  0.96980000  0.32960000  1.0 0.0812699266
H  H178  1  0.72290000  0.69270000  0.82960000  1.0 0.0812699266
H  H179  1  0.96980000  0.27710000  0.82960000  1.0 0.0812699266
H  H180  1  0.30730000  0.03020000  0.82960000  1.0 0.0812699266
H  H181  1  0.63550000  0.66870000  0.37640000  1.0 0.0708706454
H  H182  1  0.33130000  0.96680000  0.37640000  1.0 0.0708706454
H  H183  1  0.03320000  0.36450000  0.37640000  1.0 0.0708706454
H  H184  1  0.36450000  0.33130000  0.87640000  1.0 0.0708706454
H  H185  1  0.66870000  0.03320000  0.87640000  1.0 0.0708706454
H  H186  1  0.96680000  0.63550000  0.87640000  1.0 0.0708706454
H  H187  1  0.66870000  0.63550000  0.62360000  1.0 0.0708706454
H  H188  1  0.96680000  0.33130000  0.62360000  1.0 0.0708706454
H  H189  1  0.36450000  0.03320000  0.62360000  1.0 0.0708706454
H  H190  1  0.33130000  0.36450000  0.12360000  1.0 0.0708706454
H  H191  1  0.03320000  0.66870000  0.12360000  1.0 0.0708706454
H  H192  1  0.63550000  0.96680000  0.12360000  1.0 0.0708706454
H  H193  1  0.36450000  0.33130000  0.62360000  1.0 0.0708706454
H  H194  1  0.66870000  0.03320000  0.62360000  1.0 0.0708706454
H  H195  1  0.96680000  0.63550000  0.62360000  1.0 0.0708706454
H  H196  1  0.63550000  0.66870000  0.12360000  1.0 0.0708706454
H  H197  1  0.33130000  0.96680000  0.12360000  1.0 0.0708706454
H  H198  1  0.03320000  0.36450000  0.12360000  1.0 0.0708706454
H  H199  1  0.33130000  0.36450000  0.37640000  1.0 0.0708706454
H  H200  1  0.03320000  0.66870000  0.37640000  1.0 0.0708706454
H  H201  1  0.63550000  0.96680000  0.37640000  1.0 0.0708706454
H  H202  1  0.66870000  0.63550000  0.87640000  1.0 0.0708706454
H  H203  1  0.96680000  0.33130000  0.87640000  1.0 0.0708706454
H  H204  1  0.36450000  0.03320000  0.87640000  1.0 0.0708706454
H  H205  1  0.67350000  0.60860000  0.34260000  1.0 0.0609318614
H  H206  1  0.39140000  0.06490000  0.34260000  1.0 0.0609318614
H  H207  1  0.93510000  0.32650000  0.34260000  1.0 0.0609318614
H  H208  1  0.32650000  0.39140000  0.84260000  1.0 0.0609318614
H  H209  1  0.60860000  0.93510000  0.84260000  1.0 0.0609318614
H  H210  1  0.06490000  0.67350000  0.84260000  1.0 0.0609318614
H  H211  1  0.60860000  0.67350000  0.65740000  1.0 0.0609318614
H  H212  1  0.06490000  0.39140000  0.65740000  1.0 0.0609318614
H  H213  1  0.32650000  0.93510000  0.65740000  1.0 0.0609318614
H  H214  1  0.39140000  0.32650000  0.15740000  1.0 0.0609318614
H  H215  1  0.93510000  0.60860000  0.15740000  1.0 0.0609318614
H  H216  1  0.67350000  0.06490000  0.15740000  1.0 0.0609318614
H  H217  1  0.32650000  0.39140000  0.65740000  1.0 0.0609318614
H  H218  1  0.60860000  0.93510000  0.65740000  1.0 0.0609318614
H  H219  1  0.06490000  0.67350000  0.65740000  1.0 0.0609318614
H  H220  1  0.67350000  0.60860000  0.15740000  1.0 0.0609318614
H  H221  1  0.39140000  0.06490000  0.15740000  1.0 0.0609318614
H  H222  1  0.93510000  0.32650000  0.15740000  1.0 0.0609318614
H  H223  1  0.39140000  0.32650000  0.34260000  1.0 0.0609318614
H  H224  1  0.93510000  0.60860000  0.34260000  1.0 0.0609318614
H  H225  1  0.67350000  0.06490000  0.34260000  1.0 0.0609318614
H  H226  1  0.60860000  0.67350000  0.84260000  1.0 0.0609318614
H  H227  1  0.06490000  0.39140000  0.84260000  1.0 0.0609318614
H  H228  1  0.32650000  0.93510000  0.84260000  1.0 0.0609318614
H  H229  1  0.74940000  0.73250000  0.31770000  1.0 0.0708706454
H  H230  1  0.26750000  0.01690000  0.31770000  1.0 0.0708706454
H  H231  1  0.98310000  0.25060000  0.31770000  1.0 0.0708706454
H  H232  1  0.25060000  0.26750000  0.81770000  1.0 0.0708706454
H  H233  1  0.73250000  0.98310000  0.81770000  1.0 0.0708706454
H  H234  1  0.01690000  0.74940000  0.81770000  1.0 0.0708706454
H  H235  1  0.73250000  0.74940000  0.68230000  1.0 0.0708706454
H  H236  1  0.01690000  0.26750000  0.68230000  1.0 0.0708706454
H  H237  1  0.25060000  0.98310000  0.68230000  1.0 0.0708706454
H  H238  1  0.26750000  0.25060000  0.18230000  1.0 0.0708706454
H  H239  1  0.98310000  0.73250000  0.18230000  1.0 0.0708706454
H  H240  1  0.74940000  0.01690000  0.18230000  1.0 0.0708706454
H  H241  1  0.25060000  0.26750000  0.68230000  1.0 0.0708706454
H  H242  1  0.73250000  0.98310000  0.68230000  1.0 0.0708706454
H  H243  1  0.01690000  0.74940000  0.68230000  1.0 0.0708706454
H  H244  1  0.74940000  0.73250000  0.18230000  1.0 0.0708706454
H  H245  1  0.26750000  0.01690000  0.18230000  1.0 0.0708706454
H  H246  1  0.98310000  0.25060000  0.18230000  1.0 0.0708706454
H  H247  1  0.26750000  0.25060000  0.31770000  1.0 0.0708706454
H  H248  1  0.98310000  0.73250000  0.31770000  1.0 0.0708706454
H  H249  1  0.74940000  0.01690000  0.31770000  1.0 0.0708706454
H  H250  1  0.73250000  0.74940000  0.81770000  1.0 0.0708706454
H  H251  1  0.01690000  0.26750000  0.81770000  1.0 0.0708706454
H  H252  1  0.25060000  0.98310000  0.81770000  1.0 0.0708706454
H  H253  1  0.67970000  0.60730000  0.31260000  1.0 0.0708706454
H  H254  1  0.39270000  0.07240000  0.31260000  1.0 0.0708706454
H  H255  1  0.92760000  0.32030000  0.31260000  1.0 0.0708706454
H  H256  1  0.32030000  0.39270000  0.81260000  1.0 0.0708706454
H  H257  1  0.60730000  0.92760000  0.81260000  1.0 0.0708706454
H  H258  1  0.07240000  0.67970000  0.81260000  1.0 0.0708706454
H  H259  1  0.60730000  0.67970000  0.68740000  1.0 0.0708706454
H  H260  1  0.07240000  0.39270000  0.68740000  1.0 0.0708706454
H  H261  1  0.32030000  0.92760000  0.68740000  1.0 0.0708706454
H  H262  1  0.39270000  0.32030000  0.18740000  1.0 0.0708706454
H  H263  1  0.92760000  0.60730000  0.18740000  1.0 0.0708706454
H  H264  1  0.67970000  0.07240000  0.18740000  1.0 0.0708706454
H  H265  1  0.32030000  0.39270000  0.68740000  1.0 0.0708706454
H  H266  1  0.60730000  0.92760000  0.68740000  1.0 0.0708706454
H  H267  1  0.07240000  0.67970000  0.68740000  1.0 0.0708706454
H  H268  1  0.67970000  0.60730000  0.18740000  1.0 0.0708706454
H  H269  1  0.39270000  0.07240000  0.18740000  1.0 0.0708706454
H  H270  1  0.92760000  0.32030000  0.18740000  1.0 0.0708706454
H  H271  1  0.39270000  0.32030000  0.31260000  1.0 0.0708706454
H  H272  1  0.92760000  0.60730000  0.31260000  1.0 0.0708706454
H  H273  1  0.67970000  0.07240000  0.31260000  1.0 0.0708706454
H  H274  1  0.60730000  0.67970000  0.81260000  1.0 0.0708706454
H  H275  1  0.07240000  0.39270000  0.81260000  1.0 0.0708706454
H  H276  1  0.32030000  0.92760000  0.81260000  1.0 0.0708706454
H  H277  1  0.59830000  0.61220000  0.38850000  1.0 0.0708706454
H  H278  1  0.38780000  0.98610000  0.38850000  1.0 0.0708706454
H  H279  1  0.01390000  0.40170000  0.38850000  1.0 0.0708706454
H  H280  1  0.40170000  0.38780000  0.88850000  1.0 0.0708706454
H  H281  1  0.61220000  0.01390000  0.88850000  1.0 0.0708706454
H  H282  1  0.98610000  0.59830000  0.88850000  1.0 0.0708706454
H  H283  1  0.61220000  0.59830000  0.61150000  1.0 0.0708706454
H  H284  1  0.98610000  0.38780000  0.61150000  1.0 0.0708706454
H  H285  1  0.40170000  0.01390000  0.61150000  1.0 0.0708706454
H  H286  1  0.38780000  0.40170000  0.11150000  1.0 0.0708706454
H  H287  1  0.01390000  0.61220000  0.11150000  1.0 0.0708706454
H  H288  1  0.59830000  0.98610000  0.11150000  1.0 0.0708706454
H  H289  1  0.40170000  0.38780000  0.61150000  1.0 0.0708706454
H  H290  1  0.61220000  0.01390000  0.61150000  1.0 0.0708706454
H  H291  1  0.98610000  0.59830000  0.61150000  1.0 0.0708706454
H  H292  1  0.59830000  0.61220000  0.11150000  1.0 0.0708706454
H  H293  1  0.38780000  0.98610000  0.11150000  1.0 0.0708706454
H  H294  1  0.01390000  0.40170000  0.11150000  1.0 0.0708706454
H  H295  1  0.38780000  0.40170000  0.38850000  1.0 0.0708706454
H  H296  1  0.01390000  0.61220000  0.38850000  1.0 0.0708706454
H  H297  1  0.59830000  0.98610000  0.38850000  1.0 0.0708706454
H  H298  1  0.61220000  0.59830000  0.88850000  1.0 0.0708706454
H  H299  1  0.98610000  0.38780000  0.88850000  1.0 0.0708706454
H  H300  1  0.40170000  0.01390000  0.88850000  1.0 0.0708706454
H  H301  1  0.66530000  0.56780000  0.36360000  1.0 0.0812699266
H  H302  1  0.43220000  0.09750000  0.36360000  1.0 0.0812699266
H  H303  1  0.90250000  0.33470000  0.36360000  1.0 0.0812699266
H  H304  1  0.33470000  0.43220000  0.86360000  1.0 0.0812699266
H  H305  1  0.56780000  0.90250000  0.86360000  1.0 0.0812699266
H  H306  1  0.09750000  0.66530000  0.86360000  1.0 0.0812699266
H  H307  1  0.56780000  0.66530000  0.63640000  1.0 0.0812699266
H  H308  1  0.09750000  0.43220000  0.63640000  1.0 0.0812699266
H  H309  1  0.33470000  0.90250000  0.63640000  1.0 0.0812699266
H  H310  1  0.43220000  0.33470000  0.13640000  1.0 0.0812699266
H  H311  1  0.90250000  0.56780000  0.13640000  1.0 0.0812699266
H  H312  1  0.66530000  0.09750000  0.13640000  1.0 0.0812699266
H  H313  1  0.33470000  0.43220000  0.63640000  1.0 0.0812699266
H  H314  1  0.56780000  0.90250000  0.63640000  1.0 0.0812699266
H  H315  1  0.09750000  0.66530000  0.63640000  1.0 0.0812699266
H  H316  1  0.66530000  0.56780000  0.13640000  1.0 0.0812699266
H  H317  1  0.43220000  0.09750000  0.13640000  1.0 0.0812699266
H  H318  1  0.90250000  0.33470000  0.13640000  1.0 0.0812699266
H  H319  1  0.43220000  0.33470000  0.36360000  1.0 0.0812699266
H  H320  1  0.90250000  0.56780000  0.36360000  1.0 0.0812699266
H  H321  1  0.66530000  0.09750000  0.36360000  1.0 0.0812699266
H  H322  1  0.56780000  0.66530000  0.86360000  1.0 0.0812699266
H  H323  1  0.09750000  0.43220000  0.86360000  1.0 0.0812699266
H  H324  1  0.33470000  0.90250000  0.86360000  1.0 0.0812699266
H  H325  1  0.78770000  0.73520000  0.29220000  1.0 0.0896335793
H  H326  1  0.26480000  0.05250000  0.29220000  1.0 0.0896335793
H  H327  1  0.94750000  0.21230000  0.29220000  1.0 0.0896335793
H  H328  1  0.21230000  0.26480000  0.79220000  1.0 0.0896335793
H  H329  1  0.73520000  0.94750000  0.79220000  1.0 0.0896335793
H  H330  1  0.05250000  0.78770000  0.79220000  1.0 0.0896335793
H  H331  1  0.73520000  0.78770000  0.70780000  1.0 0.0896335793
H  H332  1  0.05250000  0.26480000  0.70780000  1.0 0.0896335793
H  H333  1  0.21230000  0.94750000  0.70780000  1.0 0.0896335793
H  H334  1  0.26480000  0.21230000  0.20780000  1.0 0.0896335793
H  H335  1  0.94750000  0.73520000  0.20780000  1.0 0.0896335793
H  H336  1  0.78770000  0.05250000  0.20780000  1.0 0.0896335793
H  H337  1  0.21230000  0.26480000  0.70780000  1.0 0.0896335793
H  H338  1  0.73520000  0.94750000  0.70780000  1.0 0.0896335793
H  H339  1  0.05250000  0.78770000  0.70780000  1.0 0.0896335793
H  H340  1  0.78770000  0.73520000  0.20780000  1.0 0.0896335793
H  H341  1  0.26480000  0.05250000  0.20780000  1.0 0.0896335793
H  H342  1  0.94750000  0.21230000  0.20780000  1.0 0.0896335793
H  H343  1  0.26480000  0.21230000  0.29220000  1.0 0.0896335793
H  H344  1  0.94750000  0.73520000  0.29220000  1.0 0.0896335793
H  H345  1  0.78770000  0.05250000  0.29220000  1.0 0.0896335793
H  H346  1  0.73520000  0.78770000  0.79220000  1.0 0.0896335793
H  H347  1  0.05250000  0.26480000  0.79220000  1.0 0.0896335793
H  H348  1  0.21230000  0.94750000  0.79220000  1.0 0.0896335793
H  H349  1  0.71800000  0.61000000  0.28720000  1.0 0.0708706454
H  H350  1  0.39000000  0.10800000  0.28720000  1.0 0.0708706454
H  H351  1  0.89200000  0.28200000  0.28720000  1.0 0.0708706454
H  H352  1  0.28200000  0.39000000  0.78720000  1.0 0.0708706454
H  H353  1  0.61000000  0.89200000  0.78720000  1.0 0.0708706454
H  H354  1  0.10800000  0.71800000  0.78720000  1.0 0.0708706454
H  H355  1  0.61000000  0.71800000  0.71280000  1.0 0.0708706454
H  H356  1  0.10800000  0.39000000  0.71280000  1.0 0.0708706454
H  H357  1  0.28200000  0.89200000  0.71280000  1.0 0.0708706454
H  H358  1  0.39000000  0.28200000  0.21280000  1.0 0.0708706454
H  H359  1  0.89200000  0.61000000  0.21280000  1.0 0.0708706454
H  H360  1  0.71800000  0.10800000  0.21280000  1.0 0.0708706454
H  H361  1  0.28200000  0.39000000  0.71280000  1.0 0.0708706454
H  H362  1  0.61000000  0.89200000  0.71280000  1.0 0.0708706454
H  H363  1  0.10800000  0.71800000  0.71280000  1.0 0.0708706454
H  H364  1  0.71800000  0.61000000  0.21280000  1.0 0.0708706454
H  H365  1  0.39000000  0.10800000  0.21280000  1.0 0.0708706454
H  H366  1  0.89200000  0.28200000  0.21280000  1.0 0.0708706454
H  H367  1  0.39000000  0.28200000  0.28720000  1.0 0.0708706454
H  H368  1  0.89200000  0.61000000  0.28720000  1.0 0.0708706454
H  H369  1  0.71800000  0.10800000  0.28720000  1.0 0.0708706454
H  H370  1  0.61000000  0.71800000  0.78720000  1.0 0.0708706454
H  H371  1  0.10800000  0.39000000  0.78720000  1.0 0.0708706454
H  H372  1  0.28200000  0.89200000  0.78720000  1.0 0.0708706454
H  H373  1  0.57070000  0.55540000  0.40810000  1.0 0.0812699266
H  H374  1  0.44460000  0.01530000  0.40810000  1.0 0.0812699266
H  H375  1  0.98470000  0.42930000  0.40810000  1.0 0.0812699266
H  H376  1  0.42930000  0.44460000  0.90810000  1.0 0.0812699266
H  H377  1  0.55540000  0.98470000  0.90810000  1.0 0.0812699266
H  H378  1  0.01530000  0.57070000  0.90810000  1.0 0.0812699266
H  H379  1  0.55540000  0.57070000  0.59190000  1.0 0.0812699266
H  H380  1  0.01530000  0.44460000  0.59190000  1.0 0.0812699266
H  H381  1  0.42930000  0.98470000  0.59190000  1.0 0.0812699266
H  H382  1  0.44460000  0.42930000  0.09190000  1.0 0.0812699266
H  H383  1  0.98470000  0.55540000  0.09190000  1.0 0.0812699266
H  H384  1  0.57070000  0.01530000  0.09190000  1.0 0.0812699266
H  H385  1  0.42930000  0.44460000  0.59190000  1.0 0.0812699266
H  H386  1  0.55540000  0.98470000  0.59190000  1.0 0.0812699266
H  H387  1  0.01530000  0.57070000  0.59190000  1.0 0.0812699266
H  H388  1  0.57070000  0.55540000  0.09190000  1.0 0.0812699266
H  H389  1  0.44460000  0.01530000  0.09190000  1.0 0.0812699266
H  H390  1  0.98470000  0.42930000  0.09190000  1.0 0.0812699266
H  H391  1  0.44460000  0.42930000  0.40810000  1.0 0.0812699266
H  H392  1  0.98470000  0.55540000  0.40810000  1.0 0.0812699266
H  H393  1  0.57070000  0.01530000  0.40810000  1.0 0.0812699266
H  H394  1  0.55540000  0.57070000  0.90810000  1.0 0.0812699266
H  H395  1  0.01530000  0.44460000  0.90810000  1.0 0.0812699266
H  H396  1  0.42930000  0.98470000  0.90810000  1.0 0.0812699266
H  H397  1  0.63770000  0.51100000  0.38330000  1.0 0.0812699266
H  H398  1  0.48900000  0.12670000  0.38330000  1.0 0.0812699266
H  H399  1  0.87330000  0.36230000  0.38330000  1.0 0.0812699266
H  H400  1  0.36230000  0.48900000  0.88330000  1.0 0.0812699266
H  H401  1  0.51100000  0.87330000  0.88330000  1.0 0.0812699266
H  H402  1  0.12670000  0.63770000  0.88330000  1.0 0.0812699266
H  H403  1  0.51100000  0.63770000  0.61670000  1.0 0.0812699266
H  H404  1  0.12670000  0.48900000  0.61670000  1.0 0.0812699266
H  H405  1  0.36230000  0.87330000  0.61670000  1.0 0.0812699266
H  H406  1  0.48900000  0.36230000  0.11670000  1.0 0.0812699266
H  H407  1  0.87330000  0.51100000  0.11670000  1.0 0.0812699266
H  H408  1  0.63770000  0.12670000  0.11670000  1.0 0.0812699266
H  H409  1  0.36230000  0.48900000  0.61670000  1.0 0.0812699266
H  H410  1  0.51100000  0.87330000  0.61670000  1.0 0.0812699266
H  H411  1  0.12670000  0.63770000  0.61670000  1.0 0.0812699266
H  H412  1  0.63770000  0.51100000  0.11670000  1.0 0.0812699266
H  H413  1  0.48900000  0.12670000  0.11670000  1.0 0.0812699266
H  H414  1  0.87330000  0.36230000  0.11670000  1.0 0.0812699266
H  H415  1  0.48900000  0.36230000  0.38330000  1.0 0.0812699266
H  H416  1  0.87330000  0.51100000  0.38330000  1.0 0.0812699266
H  H417  1  0.63770000  0.12670000  0.38330000  1.0 0.0812699266
H  H418  1  0.51100000  0.63770000  0.88330000  1.0 0.0812699266
H  H419  1  0.12670000  0.48900000  0.88330000  1.0 0.0812699266
H  H420  1  0.36230000  0.87330000  0.88330000  1.0 0.0812699266
H  H421  1  0.72920000  0.74290000  0.33910000  1.0 0.0812699266
H  H422  1  0.25710000  0.98630000  0.33910000  1.0 0.0812699266
H  H423  1  0.01370000  0.27080000  0.33910000  1.0 0.0812699266
H  H424  1  0.27080000  0.25710000  0.83910000  1.0 0.0812699266
H  H425  1  0.74290000  0.01370000  0.83910000  1.0 0.0812699266
H  H426  1  0.98630000  0.72920000  0.83910000  1.0 0.0812699266
H  H427  1  0.74290000  0.72920000  0.66090000  1.0 0.0812699266
H  H428  1  0.98630000  0.25710000  0.66090000  1.0 0.0812699266
H  H429  1  0.27080000  0.01370000  0.66090000  1.0 0.0812699266
H  H430  1  0.25710000  0.27080000  0.16090000  1.0 0.0812699266
H  H431  1  0.01370000  0.74290000  0.16090000  1.0 0.0812699266
H  H432  1  0.72920000  0.98630000  0.16090000  1.0 0.0812699266
H  H433  1  0.27080000  0.25710000  0.66090000  1.0 0.0812699266
H  H434  1  0.74290000  0.01370000  0.66090000  1.0 0.0812699266
H  H435  1  0.98630000  0.72920000  0.66090000  1.0 0.0812699266
H  H436  1  0.72920000  0.74290000  0.16090000  1.0 0.0812699266
H  H437  1  0.25710000  0.98630000  0.16090000  1.0 0.0812699266
H  H438  1  0.01370000  0.27080000  0.16090000  1.0 0.0812699266
H  H439  1  0.25710000  0.27080000  0.33910000  1.0 0.0812699266
H  H440  1  0.01370000  0.74290000  0.33910000  1.0 0.0812699266
H  H441  1  0.72920000  0.98630000  0.33910000  1.0 0.0812699266
H  H442  1  0.74290000  0.72920000  0.83910000  1.0 0.0812699266
H  H443  1  0.98630000  0.25710000  0.83910000  1.0 0.0812699266
H  H444  1  0.27080000  0.01370000  0.83910000  1.0 0.0812699266
H  H445  1  0.66750000  0.68360000  0.38430000  1.0 0.0708706454
H  H446  1  0.31640000  0.98390000  0.38430000  1.0 0.0708706454
H  H447  1  0.01610000  0.33250000  0.38430000  1.0 0.0708706454
H  H448  1  0.33250000  0.31640000  0.88430000  1.0 0.0708706454
H  H449  1  0.68360000  0.01610000  0.88430000  1.0 0.0708706454
H  H450  1  0.98390000  0.66750000  0.88430000  1.0 0.0708706454
H  H451  1  0.68360000  0.66750000  0.61570000  1.0 0.0708706454
H  H452  1  0.98390000  0.31640000  0.61570000  1.0 0.0708706454
H  H453  1  0.33250000  0.01610000  0.61570000  1.0 0.0708706454
H  H454  1  0.31640000  0.33250000  0.11570000  1.0 0.0708706454
H  H455  1  0.01610000  0.68360000  0.11570000  1.0 0.0708706454
H  H456  1  0.66750000  0.98390000  0.11570000  1.0 0.0708706454
H  H457  1  0.33250000  0.31640000  0.61570000  1.0 0.0708706454
H  H458  1  0.68360000  0.01610000  0.61570000  1.0 0.0708706454
H  H459  1  0.98390000  0.66750000  0.61570000  1.0 0.0708706454
H  H460  1  0.66750000  0.68360000  0.11570000  1.0 0.0708706454
H  H461  1  0.31640000  0.98390000  0.11570000  1.0 0.0708706454
H  H462  1  0.01610000  0.33250000  0.11570000  1.0 0.0708706454
H  H463  1  0.31640000  0.33250000  0.38430000  1.0 0.0708706454
H  H464  1  0.01610000  0.68360000  0.38430000  1.0 0.0708706454
H  H465  1  0.66750000  0.98390000  0.38430000  1.0 0.0708706454
H  H466  1  0.68360000  0.66750000  0.88430000  1.0 0.0708706454
H  H467  1  0.98390000  0.31640000  0.88430000  1.0 0.0708706454
H  H468  1  0.33250000  0.01610000  0.88430000  1.0 0.0708706454
H  H469  1  0.69630000  0.62240000  0.34710000  1.0 0.0609318614
H  H470  1  0.37760000  0.07390000  0.34710000  1.0 0.0708706454
H  H471  1  0.92610000  0.30370000  0.34710000  1.0 0.0708706454
H  H472  1  0.30370000  0.37760000  0.84710000  1.0 0.0708706454
H  H473  1  0.62240000  0.92610000  0.84710000  1.0 0.0708706454
H  H474  1  0.07390000  0.69630000  0.84710000  1.0 0.0708706454
H  H475  1  0.62240000  0.69630000  0.65290000  1.0 0.0708706454
H  H476  1  0.07390000  0.37760000  0.65290000  1.0 0.0609318614
H  H477  1  0.30370000  0.92610000  0.65290000  1.0 0.0708706454
H  H478  1  0.37760000  0.30370000  0.15290000  1.0 0.0609318614
H  H479  1  0.92610000  0.62240000  0.15290000  1.0 0.0708706454
H  H480  1  0.69630000  0.07390000  0.15290000  1.0 0.0708706454
H  H481  1  0.30370000  0.37760000  0.65290000  1.0 0.0708706454
H  H482  1  0.62240000  0.92610000  0.65290000  1.0 0.0708706454
H  H483  1  0.07390000  0.69630000  0.65290000  1.0 0.0708706454
H  H484  1  0.69630000  0.62240000  0.15290000  1.0 0.0609318614
H  H485  1  0.37760000  0.07390000  0.15290000  1.0 0.0609318614
H  H486  1  0.92610000  0.30370000  0.15290000  1.0 0.0708706454
H  H487  1  0.37760000  0.30370000  0.34710000  1.0 0.0609318614
H  H488  1  0.92610000  0.62240000  0.34710000  1.0 0.0708706454
H  H489  1  0.69630000  0.07390000  0.34710000  1.0 0.0708706454
H  H490  1  0.62240000  0.69630000  0.84710000  1.0 0.0708706454
H  H491  1  0.07390000  0.37760000  0.84710000  1.0 0.0708706454
H  H492  1  0.30370000  0.92610000  0.84710000  1.0 0.0708706454
H  H493  1  0.71240000  0.85620000  0.36430000  1.0 0.1066301293
H  H494  1  0.14380000  0.85620000  0.36430000  1.0 0.1066301293
H  H495  1  0.14380000  0.28760000  0.36430000  1.0 0.1066301293
H  H496  1  0.28760000  0.14380000  0.86430000  1.0 0.1066301293
H  H497  1  0.85620000  0.14380000  0.86430000  1.0 0.1066301293
H  H498  1  0.85620000  0.71240000  0.86430000  1.0 0.1066301293
H  H499  1  0.85620000  0.71240000  0.63570000  1.0 0.1066301293
H  H500  1  0.85620000  0.14380000  0.63570000  1.0 0.1066301293
H  H501  1  0.28760000  0.14380000  0.63570000  1.0 0.1066301293
H  H502  1  0.14380000  0.28760000  0.13570000  1.0 0.1066301293
H  H503  1  0.14380000  0.85620000  0.13570000  1.0 0.1066301293
H  H504  1  0.71240000  0.85620000  0.13570000  1.0 0.1066301293
H  H505  1  0.67400000  0.78070000  0.40780000  1.0 0.1004855421
H  H506  1  0.21930000  0.89330000  0.40780000  1.0 0.1004855421
H  H507  1  0.10670000  0.32600000  0.40780000  1.0 0.1004855421
H  H508  1  0.32600000  0.21930000  0.90780000  1.0 0.1004855421
H  H509  1  0.78070000  0.10670000  0.90780000  1.0 0.1004855421
H  H510  1  0.89330000  0.67400000  0.90780000  1.0 0.1004855421
H  H511  1  0.78070000  0.67400000  0.59220000  1.0 0.1004855421
H  H512  1  0.89330000  0.21930000  0.59220000  1.0 0.1004855421
H  H513  1  0.32600000  0.10670000  0.59220000  1.0 0.1004855421
H  H514  1  0.21930000  0.32600000  0.09220000  1.0 0.1004855421
H  H515  1  0.10670000  0.78070000  0.09220000  1.0 0.1004855421
H  H516  1  0.67400000  0.89330000  0.09220000  1.0 0.1004855421
H  H517  1  0.32600000  0.21930000  0.59220000  1.0 0.1004855421
H  H518  1  0.78070000  0.10670000  0.59220000  1.0 0.1004855421
H  H519  1  0.89330000  0.67400000  0.59220000  1.0 0.1004855421
H  H520  1  0.67400000  0.78070000  0.09220000  1.0 0.1004855421
H  H521  1  0.21930000  0.89330000  0.09220000  1.0 0.1004855421
H  H522  1  0.10670000  0.32600000  0.09220000  1.0 0.1004855421
H  H523  1  0.21930000  0.32600000  0.40780000  1.0 0.1004855421
H  H524  1  0.10670000  0.78070000  0.40780000  1.0 0.1004855421
H  H525  1  0.67400000  0.89330000  0.40780000  1.0 0.1004855421
H  H526  1  0.78070000  0.67400000  0.90780000  1.0 0.1004855421
H  H527  1  0.89330000  0.21930000  0.90780000  1.0 0.1004855421
H  H528  1  0.32600000  0.10670000  0.90780000  1.0 0.1004855421
H  H529  1  0.62040000  0.84080000  0.49910000  1.0 0.0708706454
H  H530  1  0.15920000  0.77960000  0.49910000  1.0 0.0708706454
H  H531  1  0.22040000  0.37960000  0.49910000  1.0 0.0708706454
H  H532  1  0.37960000  0.15920000  0.99910000  1.0 0.0708706454
H  H533  1  0.84080000  0.22040000  0.99910000  1.0 0.0708706454
H  H534  1  0.77960000  0.62040000  0.99910000  1.0 0.0708706454
H  H535  1  0.84080000  0.62040000  0.50090000  1.0 0.0708706454
H  H536  1  0.77960000  0.15920000  0.50090000  1.0 0.0708706454
H  H537  1  0.37960000  0.22040000  0.50090000  1.0 0.0708706454
H  H538  1  0.15920000  0.37960000  0.00090000  1.0 0.0708706454
H  H539  1  0.22040000  0.84080000  0.00090000  1.0 0.0708706454
H  H540  1  0.62040000  0.77960000  0.00090000  1.0 0.0708706454
H  H541  1  0.37960000  0.15920000  0.50090000  1.0 0.0708706454
H  H542  1  0.84080000  0.22040000  0.50090000  1.0 0.0708706454
H  H543  1  0.77960000  0.62040000  0.50090000  1.0 0.0708706454
H  H544  1  0.62040000  0.84080000  0.00090000  1.0 0.0708706454
H  H545  1  0.15920000  0.77960000  0.00090000  1.0 0.0708706454
H  H546  1  0.22040000  0.37960000  0.00090000  1.0 0.0708706454
H  H547  1  0.15920000  0.37960000  0.49910000  1.0 0.0708706454
H  H548  1  0.22040000  0.84080000  0.49910000  1.0 0.0708706454
H  H549  1  0.62040000  0.77960000  0.49910000  1.0 0.0708706454
H  H550  1  0.84080000  0.62040000  0.99910000  1.0 0.0708706454
H  H551  1  0.77960000  0.15920000  0.99910000  1.0 0.0708706454
H  H552  1  0.37960000  0.22040000  0.99910000  1.0 0.0708706454
H  H553  1  0.65710000  0.85600000  0.47210000  1.0 0.1004855421
H  H554  1  0.14400000  0.80110000  0.47210000  1.0 0.1004855421
H  H555  1  0.19890000  0.34290000  0.47210000  1.0 0.1004855421
H  H556  1  0.34290000  0.14400000  0.97210000  1.0 0.1004855421
H  H557  1  0.85600000  0.19890000  0.97210000  1.0 0.1004855421
H  H558  1  0.80110000  0.65710000  0.97210000  1.0 0.1004855421
H  H559  1  0.85600000  0.65710000  0.52790000  1.0 0.1004855421
H  H560  1  0.80110000  0.14400000  0.52790000  1.0 0.1004855421
H  H561  1  0.34290000  0.19890000  0.52790000  1.0 0.1004855421
H  H562  1  0.14400000  0.34290000  0.02790000  1.0 0.1004855421
H  H563  1  0.19890000  0.85600000  0.02790000  1.0 0.1004855421
H  H564  1  0.65710000  0.80110000  0.02790000  1.0 0.1004855421
H  H565  1  0.34290000  0.14400000  0.52790000  1.0 0.1004855421
H  H566  1  0.85600000  0.19890000  0.52790000  1.0 0.1004855421
H  H567  1  0.80110000  0.65710000  0.52790000  1.0 0.1004855421
H  H568  1  0.65710000  0.85600000  0.02790000  1.0 0.1004855421
H  H569  1  0.14400000  0.80110000  0.02790000  1.0 0.1004855421
H  H570  1  0.19890000  0.34290000  0.02790000  1.0 0.1004855421
H  H571  1  0.14400000  0.34290000  0.47210000  1.0 0.1004855421
H  H572  1  0.19890000  0.85600000  0.47210000  1.0 0.1004855421
H  H573  1  0.65710000  0.80110000  0.47210000  1.0 0.1004855421
H  H574  1  0.85600000  0.65710000  0.97210000  1.0 0.1004855421
H  H575  1  0.80110000  0.14400000  0.97210000  1.0 0.1004855421
H  H576  1  0.34290000  0.19890000  0.97210000  1.0 0.1004855421
H  H577  1  0.56660000  0.74800000  0.45080000  1.0 0.0708706454
H  H578  1  0.25200000  0.81860000  0.45080000  1.0 0.0708706454
H  H579  1  0.18140000  0.43340000  0.45080000  1.0 0.0708706454
H  H580  1  0.43340000  0.25200000  0.95080000  1.0 0.0708706454
H  H581  1  0.74800000  0.18140000  0.95080000  1.0 0.0708706454
H  H582  1  0.81860000  0.56660000  0.95080000  1.0 0.0708706454
H  H583  1  0.74800000  0.56660000  0.54920000  1.0 0.0708706454
H  H584  1  0.81860000  0.25200000  0.54920000  1.0 0.0708706454
H  H585  1  0.43340000  0.18140000  0.54920000  1.0 0.0708706454
H  H586  1  0.25200000  0.43340000  0.04920000  1.0 0.0708706454
H  H587  1  0.18140000  0.74800000  0.04920000  1.0 0.0708706454
H  H588  1  0.56660000  0.81860000  0.04920000  1.0 0.0708706454
H  H589  1  0.43340000  0.25200000  0.54920000  1.0 0.0708706454
H  H590  1  0.74800000  0.18140000  0.54920000  1.0 0.0708706454
H  H591  1  0.81860000  0.56660000  0.54920000  1.0 0.0708706454
H  H592  1  0.56660000  0.74800000  0.04920000  1.0 0.0708706454
H  H593  1  0.25200000  0.81860000  0.04920000  1.0 0.0708706454
H  H594  1  0.18140000  0.43340000  0.04920000  1.0 0.0708706454
H  H595  1  0.25200000  0.43340000  0.45080000  1.0 0.0708706454
H  H596  1  0.18140000  0.74800000  0.45080000  1.0 0.0708706454
H  H597  1  0.56660000  0.81860000  0.45080000  1.0 0.0708706454
H  H598  1  0.74800000  0.56660000  0.95080000  1.0 0.0708706454
H  H599  1  0.81860000  0.25200000  0.95080000  1.0 0.0708706454
H  H600  1  0.43340000  0.18140000  0.95080000  1.0 0.0708706454
H  H601  1  0.52960000  0.73260000  0.47800000  1.0 0.0609318614
H  H602  1  0.26740000  0.79700000  0.47800000  1.0 0.0609318614
H  H603  1  0.20300000  0.47040000  0.47800000  1.0 0.0609318614
H  H604  1  0.47040000  0.26740000  0.97800000  1.0 0.0609318614
H  H605  1  0.73260000  0.20300000  0.97800000  1.0 0.0609318614
H  H606  1  0.79700000  0.52960000  0.97800000  1.0 0.0609318614
H  H607  1  0.73260000  0.52960000  0.52200000  1.0 0.0609318614
H  H608  1  0.79700000  0.26740000  0.52200000  1.0 0.0609318614
H  H609  1  0.47040000  0.20300000  0.52200000  1.0 0.0609318614
H  H610  1  0.26740000  0.47040000  0.02200000  1.0 0.0609318614
H  H611  1  0.20300000  0.73260000  0.02200000  1.0 0.0609318614
H  H612  1  0.52960000  0.79700000  0.02200000  1.0 0.0609318614
H  H613  1  0.47040000  0.26740000  0.52200000  1.0 0.0609318614
H  H614  1  0.73260000  0.20300000  0.52200000  1.0 0.0609318614
H  H615  1  0.79700000  0.52960000  0.52200000  1.0 0.0609318614
H  H616  1  0.52960000  0.73260000  0.02200000  1.0 0.0609318614
H  H617  1  0.26740000  0.79700000  0.02200000  1.0 0.0609318614
H  H618  1  0.20300000  0.47040000  0.02200000  1.0 0.0609318614
H  H619  1  0.26740000  0.47040000  0.47800000  1.0 0.0609318614
H  H620  1  0.20300000  0.73260000  0.47800000  1.0 0.0609318614
H  H621  1  0.52960000  0.79700000  0.47800000  1.0 0.0609318614
H  H622  1  0.73260000  0.52960000  0.97800000  1.0 0.0609318614
H  H623  1  0.79700000  0.26740000  0.97800000  1.0 0.0609318614
H  H624  1  0.47040000  0.20300000  0.97800000  1.0 0.0609318614
H  H625  1  0.81400000  0.74220000  0.29690000  1.0 0.0812699266
H  H626  1  0.25780000  0.07180000  0.29690000  1.0 0.0812699266
H  H627  1  0.92820000  0.18600000  0.29690000  1.0 0.0812699266
H  H628  1  0.18600000  0.25780000  0.79690000  1.0 0.0812699266
H  H629  1  0.74220000  0.92820000  0.79690000  1.0 0.0812699266
H  H630  1  0.07180000  0.81400000  0.79690000  1.0 0.0812699266
H  H631  1  0.74220000  0.81400000  0.70310000  1.0 0.0812699266
H  H632  1  0.07180000  0.25780000  0.70310000  1.0 0.0812699266
H  H633  1  0.18600000  0.92820000  0.70310000  1.0 0.0812699266
H  H634  1  0.25780000  0.18600000  0.20310000  1.0 0.0812699266
H  H635  1  0.92820000  0.74220000  0.20310000  1.0 0.0812699266
H  H636  1  0.81400000  0.07180000  0.20310000  1.0 0.0812699266
H  H637  1  0.18600000  0.25780000  0.70310000  1.0 0.0812699266
H  H638  1  0.74220000  0.92820000  0.70310000  1.0 0.0812699266
H  H639  1  0.07180000  0.81400000  0.70310000  1.0 0.0812699266
H  H640  1  0.81400000  0.74220000  0.20310000  1.0 0.0812699266
H  H641  1  0.25780000  0.07180000  0.20310000  1.0 0.0812699266
H  H642  1  0.92820000  0.18600000  0.20310000  1.0 0.0812699266
H  H643  1  0.25780000  0.18600000  0.29690000  1.0 0.0812699266
H  H644  1  0.92820000  0.74220000  0.29690000  1.0 0.0812699266
H  H645  1  0.81400000  0.07180000  0.29690000  1.0 0.0812699266
H  H646  1  0.74220000  0.81400000  0.79690000  1.0 0.0812699266
H  H647  1  0.07180000  0.25780000  0.79690000  1.0 0.0812699266
H  H648  1  0.18600000  0.92820000  0.79690000  1.0 0.0812699266
H  H649  1  0.78070000  0.74450000  0.32310000  1.0 0.0812699266
H  H650  1  0.25550000  0.03620000  0.32310000  1.0 0.0812699266
H  H651  1  0.96380000  0.21930000  0.32310000  1.0 0.0812699266
H  H652  1  0.21930000  0.25550000  0.82310000  1.0 0.0812699266
H  H653  1  0.74450000  0.96380000  0.82310000  1.0 0.0812699266
H  H654  1  0.03620000  0.78070000  0.82310000  1.0 0.0812699266
H  H655  1  0.74450000  0.78070000  0.67690000  1.0 0.0812699266
H  H656  1  0.03620000  0.25550000  0.67690000  1.0 0.0812699266
H  H657  1  0.21930000  0.96380000  0.67690000  1.0 0.0812699266
H  H658  1  0.25550000  0.21930000  0.17690000  1.0 0.0812699266
H  H659  1  0.96380000  0.74450000  0.17690000  1.0 0.0812699266
H  H660  1  0.78070000  0.03620000  0.17690000  1.0 0.0812699266
H  H661  1  0.21930000  0.25550000  0.67690000  1.0 0.0812699266
H  H662  1  0.74450000  0.96380000  0.67690000  1.0 0.0812699266
H  H663  1  0.03620000  0.78070000  0.67690000  1.0 0.0812699266
H  H664  1  0.78070000  0.74450000  0.17690000  1.0 0.0812699266
H  H665  1  0.25550000  0.03620000  0.17690000  1.0 0.0812699266
H  H666  1  0.96380000  0.21930000  0.17690000  1.0 0.0812699266
H  H667  1  0.25550000  0.21930000  0.32310000  1.0 0.0812699266
H  H668  1  0.96380000  0.74450000  0.32310000  1.0 0.0812699266
H  H669  1  0.78070000  0.03620000  0.32310000  1.0 0.0812699266
H  H670  1  0.74450000  0.78070000  0.82310000  1.0 0.0812699266
H  H671  1  0.03620000  0.25550000  0.82310000  1.0 0.0812699266
H  H672  1  0.21930000  0.96380000  0.82310000  1.0 0.0812699266
H  H673  1  0.69910000  0.62100000  0.31870000  1.0 0.0812699266
H  H674  1  0.37900000  0.07810000  0.31870000  1.0 0.0812699266
H  H675  1  0.92190000  0.30090000  0.31870000  1.0 0.0812699266
H  H676  1  0.30090000  0.37900000  0.81870000  1.0 0.0812699266
H  H677  1  0.62100000  0.92190000  0.81870000  1.0 0.0812699266
H  H678  1  0.07810000  0.69910000  0.81870000  1.0 0.0812699266
H  H679  1  0.62100000  0.69910000  0.68130000  1.0 0.0812699266
H  H680  1  0.07810000  0.37900000  0.68130000  1.0 0.0812699266
H  H681  1  0.30090000  0.92190000  0.68130000  1.0 0.0812699266
H  H682  1  0.37900000  0.30090000  0.18130000  1.0 0.0812699266
H  H683  1  0.92190000  0.62100000  0.18130000  1.0 0.0812699266
H  H684  1  0.69910000  0.07810000  0.18130000  1.0 0.0812699266
H  H685  1  0.30090000  0.37900000  0.68130000  1.0 0.0812699266
H  H686  1  0.62100000  0.92190000  0.68130000  1.0 0.0812699266
H  H687  1  0.07810000  0.69910000  0.68130000  1.0 0.0812699266
H  H688  1  0.69910000  0.62100000  0.18130000  1.0 0.0812699266
H  H689  1  0.37900000  0.07810000  0.18130000  1.0 0.0812699266
H  H690  1  0.92190000  0.30090000  0.18130000  1.0 0.0812699266
H  H691  1  0.37900000  0.30090000  0.31870000  1.0 0.0812699266
H  H692  1  0.92190000  0.62100000  0.31870000  1.0 0.0812699266
H  H693  1  0.69910000  0.07810000  0.31870000  1.0 0.0812699266
H  H694  1  0.62100000  0.69910000  0.81870000  1.0 0.0812699266
H  H695  1  0.07810000  0.37900000  0.81870000  1.0 0.0812699266
H  H696  1  0.30090000  0.92190000  0.81870000  1.0 0.0812699266
H  H697  1  0.73250000  0.61870000  0.29240000  1.0 0.0812699266
H  H698  1  0.38130000  0.11380000  0.29240000  1.0 0.0812699266
H  H699  1  0.88620000  0.26750000  0.29240000  1.0 0.0812699266
H  H700  1  0.26750000  0.38130000  0.79240000  1.0 0.0812699266
H  H701  1  0.61870000  0.88620000  0.79240000  1.0 0.0896335793
H  H702  1  0.11380000  0.73250000  0.79240000  1.0 0.0896335793
H  H703  1  0.61870000  0.73250000  0.70760000  1.0 0.0812699266
H  H704  1  0.11380000  0.38130000  0.70760000  1.0 0.0812699266
H  H705  1  0.26750000  0.88620000  0.70760000  1.0 0.0896335793
H  H706  1  0.38130000  0.26750000  0.20760000  1.0 0.0812699266
H  H707  1  0.88620000  0.61870000  0.20760000  1.0 0.0812699266
H  H708  1  0.73250000  0.11380000  0.20760000  1.0 0.0812699266
H  H709  1  0.26750000  0.38130000  0.70760000  1.0 0.0812699266
H  H710  1  0.61870000  0.88620000  0.70760000  1.0 0.0896335793
H  H711  1  0.11380000  0.73250000  0.70760000  1.0 0.0896335793
H  H712  1  0.73250000  0.61870000  0.20760000  1.0 0.0812699266
H  H713  1  0.38130000  0.11380000  0.20760000  1.0 0.0812699266
H  H714  1  0.88620000  0.26750000  0.20760000  1.0 0.0812699266
H  H715  1  0.38130000  0.26750000  0.29240000  1.0 0.0812699266
H  H716  1  0.88620000  0.61870000  0.29240000  1.0 0.0812699266
H  H717  1  0.73250000  0.11380000  0.29240000  1.0 0.0812699266
H  H718  1  0.61870000  0.73250000  0.79240000  1.0 0.0812699266
H  H719  1  0.11380000  0.38130000  0.79240000  1.0 0.0812699266
H  H720  1  0.26750000  0.88620000  0.79240000  1.0 0.0896335793
H  H721  1  0.59560000  0.56630000  0.41340000  1.0 0.0896335793
H  H722  1  0.43370000  0.02930000  0.41340000  1.0 0.0896335793
H  H723  1  0.97070000  0.40440000  0.41340000  1.0 0.0896335793
H  H724  1  0.40440000  0.43370000  0.91340000  1.0 0.0896335793
H  H725  1  0.56630000  0.97070000  0.91340000  1.0 0.0896335793
H  H726  1  0.02930000  0.59560000  0.91340000  1.0 0.0896335793
H  H727  1  0.56630000  0.59560000  0.58660000  1.0 0.0896335793
H  H728  1  0.02930000  0.43370000  0.58660000  1.0 0.0896335793
H  H729  1  0.40440000  0.97070000  0.58660000  1.0 0.0896335793
H  H730  1  0.43370000  0.40440000  0.08660000  1.0 0.0896335793
H  H731  1  0.97070000  0.56630000  0.08660000  1.0 0.0896335793
H  H732  1  0.59560000  0.02930000  0.08660000  1.0 0.0896335793
H  H733  1  0.40440000  0.43370000  0.58660000  1.0 0.0896335793
H  H734  1  0.56630000  0.97070000  0.58660000  1.0 0.0896335793
H  H735  1  0.02930000  0.59560000  0.58660000  1.0 0.0896335793
H  H736  1  0.59560000  0.56630000  0.08660000  1.0 0.0896335793
H  H737  1  0.43370000  0.02930000  0.08660000  1.0 0.0896335793
H  H738  1  0.97070000  0.40440000  0.08660000  1.0 0.0896335793
H  H739  1  0.43370000  0.40440000  0.41340000  1.0 0.0896335793
H  H740  1  0.97070000  0.56630000  0.41340000  1.0 0.0896335793
H  H741  1  0.59560000  0.02930000  0.41340000  1.0 0.0896335793
H  H742  1  0.56630000  0.59560000  0.91340000  1.0 0.0896335793
H  H743  1  0.02930000  0.43370000  0.91340000  1.0 0.0896335793
H  H744  1  0.40440000  0.97070000  0.91340000  1.0 0.0896335793
H  H745  1  0.62540000  0.62630000  0.39560000  1.0 0.0708706454
H  H746  1  0.37370000  0.99910000  0.39560000  1.0 0.0708706454
H  H747  1  0.00090000  0.37460000  0.39560000  1.0 0.0708706454
H  H748  1  0.37460000  0.37370000  0.89560000  1.0 0.0708706454
H  H749  1  0.62630000  0.00090000  0.89560000  1.0 0.0812699266
H  H750  1  0.99910000  0.62540000  0.89560000  1.0 0.0812699266
H  H751  1  0.62630000  0.62540000  0.60440000  1.0 0.0708706454
H  H752  1  0.99910000  0.37370000  0.60440000  1.0 0.0708706454
H  H753  1  0.37460000  0.00090000  0.60440000  1.0 0.0812699266
H  H754  1  0.37370000  0.37460000  0.10440000  1.0 0.0708706454
H  H755  1  0.00090000  0.62630000  0.10440000  1.0 0.0708706454
H  H756  1  0.62540000  0.99910000  0.10440000  1.0 0.0708706454
H  H757  1  0.37460000  0.37370000  0.60440000  1.0 0.0708706454
H  H758  1  0.62630000  0.00090000  0.60440000  1.0 0.0812699266
H  H759  1  0.99910000  0.62540000  0.60440000  1.0 0.0812699266
H  H760  1  0.62540000  0.62630000  0.10440000  1.0 0.0708706454
H  H761  1  0.37370000  0.99910000  0.10440000  1.0 0.0708706454
H  H762  1  0.00090000  0.37460000  0.10440000  1.0 0.0708706454
H  H763  1  0.37370000  0.37460000  0.39560000  1.0 0.0708706454
H  H764  1  0.00090000  0.62630000  0.39560000  1.0 0.0708706454
H  H765  1  0.62540000  0.99910000  0.39560000  1.0 0.0708706454
H  H766  1  0.62630000  0.62540000  0.89560000  1.0 0.0708706454
H  H767  1  0.99910000  0.37370000  0.89560000  1.0 0.0708706454
H  H768  1  0.37460000  0.00090000  0.89560000  1.0 0.0812699266
H  H769  1  0.69400000  0.58550000  0.36960000  1.0 0.0708706454
H  H770  1  0.41450000  0.10850000  0.36960000  1.0 0.0708706454
H  H771  1  0.89150000  0.30600000  0.36960000  1.0 0.0708706454
H  H772  1  0.30600000  0.41450000  0.86960000  1.0 0.0708706454
H  H773  1  0.58550000  0.89150000  0.86960000  1.0 0.0708706454
H  H774  1  0.10850000  0.69400000  0.86960000  1.0 0.0708706454
H  H775  1  0.58550000  0.69400000  0.63040000  1.0 0.0708706454
H  H776  1  0.10850000  0.41450000  0.63040000  1.0 0.0708706454
H  H777  1  0.30600000  0.89150000  0.63040000  1.0 0.0708706454
H  H778  1  0.41450000  0.30600000  0.13040000  1.0 0.0708706454
H  H779  1  0.89150000  0.58550000  0.13040000  1.0 0.0708706454
H  H780  1  0.69400000  0.10850000  0.13040000  1.0 0.0708706454
H  H781  1  0.30600000  0.41450000  0.63040000  1.0 0.0708706454
H  H782  1  0.58550000  0.89150000  0.63040000  1.0 0.0708706454
H  H783  1  0.10850000  0.69400000  0.63040000  1.0 0.0708706454
H  H784  1  0.69400000  0.58550000  0.13040000  1.0 0.0708706454
H  H785  1  0.41450000  0.10850000  0.13040000  1.0 0.0708706454
H  H786  1  0.89150000  0.30600000  0.13040000  1.0 0.0708706454
H  H787  1  0.41450000  0.30600000  0.36960000  1.0 0.0708706454
H  H788  1  0.89150000  0.58550000  0.36960000  1.0 0.0708706454
H  H789  1  0.69400000  0.10850000  0.36960000  1.0 0.0708706454
H  H790  1  0.58550000  0.69400000  0.86960000  1.0 0.0708706454
H  H791  1  0.10850000  0.41450000  0.86960000  1.0 0.0708706454
H  H792  1  0.30600000  0.89150000  0.86960000  1.0 0.0708706454
H  H793  1  0.66430000  0.52550000  0.38730000  1.0 0.0896335793
H  H794  1  0.47450000  0.13880000  0.38730000  1.0 0.0896335793
H  H795  1  0.86120000  0.33570000  0.38730000  1.0 0.0896335793
H  H796  1  0.33570000  0.47450000  0.88730000  1.0 0.0896335793
H  H797  1  0.52550000  0.86120000  0.88730000  1.0 0.0896335793
H  H798  1  0.13880000  0.66430000  0.88730000  1.0 0.0896335793
H  H799  1  0.52550000  0.66430000  0.61270000  1.0 0.0896335793
H  H800  1  0.13880000  0.47450000  0.61270000  1.0 0.0896335793
H  H801  1  0.33570000  0.86120000  0.61270000  1.0 0.0896335793
H  H802  1  0.47450000  0.33570000  0.11270000  1.0 0.0896335793
H  H803  1  0.86120000  0.52550000  0.11270000  1.0 0.0896335793
H  H804  1  0.66430000  0.13880000  0.11270000  1.0 0.0896335793
H  H805  1  0.33570000  0.47450000  0.61270000  1.0 0.0896335793
H  H806  1  0.52550000  0.86120000  0.61270000  1.0 0.0896335793
H  H807  1  0.13880000  0.66430000  0.61270000  1.0 0.0896335793
H  H808  1  0.66430000  0.52550000  0.11270000  1.0 0.0896335793
H  H809  1  0.47450000  0.13880000  0.11270000  1.0 0.0896335793
H  H810  1  0.86120000  0.33570000  0.11270000  1.0 0.0896335793
H  H811  1  0.47450000  0.33570000  0.38730000  1.0 0.0896335793
H  H812  1  0.86120000  0.52550000  0.38730000  1.0 0.0896335793
H  H813  1  0.66430000  0.13880000  0.38730000  1.0 0.0896335793
H  H814  1  0.52550000  0.66430000  0.88730000  1.0 0.0896335793
H  H815  1  0.13880000  0.47450000  0.88730000  1.0 0.0896335793
H  H816  1  0.33570000  0.86120000  0.88730000  1.0 0.0896335793
H  H817  1  0.47390000  0.69780000  0.55130000  1.0 0.1066301293
H  H818  1  0.30220000  0.77610000  0.55130000  1.0 0.1066301293
H  H819  1  0.22390000  0.52610000  0.55130000  1.0 0.1066301293
H  H820  1  0.52610000  0.30220000  0.05130000  1.0 0.1066301293
H  H821  1  0.69780000  0.22390000  0.05130000  1.0 0.1066301293
H  H822  1  0.77610000  0.47390000  0.05130000  1.0 0.1066301293
H  H823  1  0.69780000  0.47390000  0.44870000  1.0 0.1066301293
H  H824  1  0.77610000  0.30220000  0.44870000  1.0 0.1066301293
H  H825  1  0.52610000  0.22390000  0.44870000  1.0 0.1066301293
H  H826  1  0.30220000  0.52610000  0.94870000  1.0 0.1066301293
H  H827  1  0.22390000  0.69780000  0.94870000  1.0 0.1066301293
H  H828  1  0.47390000  0.77610000  0.94870000  1.0 0.1066301293
H  H829  1  0.52610000  0.30220000  0.44870000  1.0 0.1066301293
H  H830  1  0.69780000  0.22390000  0.44870000  1.0 0.1066301293
H  H831  1  0.77610000  0.47390000  0.44870000  1.0 0.1066301293
H  H832  1  0.47390000  0.69780000  0.94870000  1.0 0.1066301293
H  H833  1  0.30220000  0.77610000  0.94870000  1.0 0.1066301293
H  H834  1  0.22390000  0.52610000  0.94870000  1.0 0.1066301293
H  H835  1  0.30220000  0.52610000  0.55130000  1.0 0.1066301293
H  H836  1  0.22390000  0.69780000  0.55130000  1.0 0.1066301293
H  H837  1  0.47390000  0.77610000  0.55130000  1.0 0.1066301293
H  H838  1  0.69780000  0.47390000  0.05130000  1.0 0.1066301293
H  H839  1  0.77610000  0.30220000  0.05130000  1.0 0.1066301293
H  H840  1  0.52610000  0.22390000  0.05130000  1.0 0.1066301293
H  H841  1  0.55730000  0.70700000  0.50250000  1.0 0.0708706454
H  H842  1  0.29300000  0.85030000  0.50250000  1.0 0.0708706454
H  H843  1  0.14970000  0.44270000  0.50250000  1.0 0.0708706454
H  H844  1  0.44270000  0.29300000  0.00250000  1.0 0.0708706454
H  H845  1  0.70700000  0.14970000  0.00250000  1.0 0.0708706454
H  H846  1  0.85030000  0.55730000  0.00250000  1.0 0.0708706454
H  H847  1  0.70700000  0.55730000  0.49750000  1.0 0.0708706454
H  H848  1  0.85030000  0.29300000  0.49750000  1.0 0.0708706454
H  H849  1  0.44270000  0.14970000  0.49750000  1.0 0.0708706454
H  H850  1  0.29300000  0.44270000  0.99750000  1.0 0.0708706454
H  H851  1  0.14970000  0.70700000  0.99750000  1.0 0.0708706454
H  H852  1  0.55730000  0.85030000  0.99750000  1.0 0.0708706454
H  H853  1  0.44270000  0.29300000  0.49750000  1.0 0.0708706454
H  H854  1  0.70700000  0.14970000  0.49750000  1.0 0.0708706454
H  H855  1  0.85030000  0.55730000  0.49750000  1.0 0.0708706454
H  H856  1  0.55730000  0.70700000  0.99750000  1.0 0.0708706454
H  H857  1  0.29300000  0.85030000  0.99750000  1.0 0.0708706454
H  H858  1  0.14970000  0.44270000  0.99750000  1.0 0.0708706454
H  H859  1  0.29300000  0.44270000  0.50250000  1.0 0.0708706454
H  H860  1  0.14970000  0.70700000  0.50250000  1.0 0.0708706454
H  H861  1  0.55730000  0.85030000  0.50250000  1.0 0.0708706454
H  H862  1  0.70700000  0.55730000  0.00250000  1.0 0.0708706454
H  H863  1  0.85030000  0.29300000  0.00250000  1.0 0.0708706454
H  H864  1  0.44270000  0.14970000  0.00250000  1.0 0.0708706454
H  H865  1  0.52520000  0.64640000  0.51980000  1.0 0.0896335793
H  H866  1  0.35360000  0.87880000  0.51980000  1.0 0.0896335793
H  H867  1  0.12120000  0.47480000  0.51980000  1.0 0.0896335793
H  H868  1  0.47480000  0.35360000  0.01980000  1.0 0.0896335793
H  H869  1  0.64640000  0.12120000  0.01980000  1.0 0.0896335793
H  H870  1  0.87880000  0.52520000  0.01980000  1.0 0.0896335793
H  H871  1  0.64640000  0.52520000  0.48020000  1.0 0.0896335793
H  H872  1  0.87880000  0.35360000  0.48020000  1.0 0.0896335793
H  H873  1  0.47480000  0.12120000  0.48020000  1.0 0.0896335793
H  H874  1  0.35360000  0.47480000  0.98020000  1.0 0.0896335793
H  H875  1  0.12120000  0.64640000  0.98020000  1.0 0.0896335793
H  H876  1  0.52520000  0.87880000  0.98020000  1.0 0.0896335793
H  H877  1  0.47480000  0.35360000  0.48020000  1.0 0.0896335793
H  H878  1  0.64640000  0.12120000  0.48020000  1.0 0.0896335793
H  H879  1  0.87880000  0.52520000  0.48020000  1.0 0.0896335793
H  H880  1  0.52520000  0.64640000  0.98020000  1.0 0.0896335793
H  H881  1  0.35360000  0.87880000  0.98020000  1.0 0.0896335793
H  H882  1  0.12120000  0.47480000  0.98020000  1.0 0.0896335793
H  H883  1  0.35360000  0.47480000  0.51980000  1.0 0.0896335793
H  H884  1  0.12120000  0.64640000  0.51980000  1.0 0.0896335793
H  H885  1  0.52520000  0.87880000  0.51980000  1.0 0.0896335793
H  H886  1  0.64640000  0.52520000  0.01980000  1.0 0.0896335793
H  H887  1  0.87880000  0.35360000  0.01980000  1.0 0.0896335793
H  H888  1  0.47480000  0.12120000  0.01980000  1.0 0.0896335793
H  H889  1  0.52700000  0.72990000  0.44330000  1.0 0.0812699266
H  H890  1  0.27010000  0.79710000  0.44330000  1.0 0.0812699266
H  H891  1  0.20290000  0.47300000  0.44330000  1.0 0.0812699266
H  H892  1  0.47300000  0.27010000  0.94330000  1.0 0.0812699266
H  H893  1  0.72990000  0.20290000  0.94330000  1.0 0.0812699266
H  H894  1  0.79710000  0.52700000  0.94330000  1.0 0.0812699266
H  H895  1  0.72990000  0.52700000  0.55670000  1.0 0.0812699266
H  H896  1  0.79710000  0.27010000  0.55670000  1.0 0.0812699266
H  H897  1  0.47300000  0.20290000  0.55670000  1.0 0.0812699266
H  H898  1  0.27010000  0.47300000  0.05670000  1.0 0.0812699266
H  H899  1  0.20290000  0.72990000  0.05670000  1.0 0.0812699266
H  H900  1  0.52700000  0.79710000  0.05670000  1.0 0.0812699266
H  H901  1  0.47300000  0.27010000  0.55670000  1.0 0.0812699266
H  H902  1  0.72990000  0.20290000  0.55670000  1.0 0.0812699266
H  H903  1  0.79710000  0.52700000  0.55670000  1.0 0.0812699266
H  H904  1  0.52700000  0.72990000  0.05670000  1.0 0.0812699266
H  H905  1  0.27010000  0.79710000  0.05670000  1.0 0.0812699266
H  H906  1  0.20290000  0.47300000  0.05670000  1.0 0.0812699266
H  H907  1  0.27010000  0.47300000  0.44330000  1.0 0.0812699266
H  H908  1  0.20290000  0.72990000  0.44330000  1.0 0.0812699266
H  H909  1  0.52700000  0.79710000  0.44330000  1.0 0.0812699266
H  H910  1  0.72990000  0.52700000  0.94330000  1.0 0.0812699266
H  H911  1  0.79710000  0.27010000  0.94330000  1.0 0.0812699266
H  H912  1  0.47300000  0.20290000  0.94330000  1.0 0.0812699266
H  H913  1  0.49660000  0.71460000  0.47180000  1.0 0.0506574234
H  H914  1  0.28540000  0.78200000  0.47180000  1.0 0.0506574234
H  H915  1  0.21800000  0.50340000  0.47180000  1.0 0.0506574234
H  H916  1  0.50340000  0.28540000  0.97180000  1.0 0.0506574234
H  H917  1  0.71460000  0.21800000  0.97180000  1.0 0.0506574234
H  H918  1  0.78200000  0.49660000  0.97180000  1.0 0.0506574234
H  H919  1  0.71460000  0.49660000  0.52820000  1.0 0.0506574234
H  H920  1  0.78200000  0.28540000  0.52820000  1.0 0.0506574234
H  H921  1  0.50340000  0.21800000  0.52820000  1.0 0.0506574234
H  H922  1  0.28540000  0.50340000  0.02820000  1.0 0.0506574234
H  H923  1  0.21800000  0.71460000  0.02820000  1.0 0.0506574234
H  H924  1  0.49660000  0.78200000  0.02820000  1.0 0.0506574234
H  H925  1  0.50340000  0.28540000  0.52820000  1.0 0.0506574234
H  H926  1  0.71460000  0.21800000  0.52820000  1.0 0.0506574234
H  H927  1  0.78200000  0.49660000  0.52820000  1.0 0.0506574234
H  H928  1  0.49660000  0.71460000  0.02820000  1.0 0.0506574234
H  H929  1  0.28540000  0.78200000  0.02820000  1.0 0.0506574234
H  H930  1  0.21800000  0.50340000  0.02820000  1.0 0.0506574234
H  H931  1  0.28540000  0.50340000  0.47180000  1.0 0.0506574234
H  H932  1  0.21800000  0.71460000  0.47180000  1.0 0.0506574234
H  H933  1  0.49660000  0.78200000  0.47180000  1.0 0.0506574234
H  H934  1  0.71460000  0.49660000  0.97180000  1.0 0.0506574234
H  H935  1  0.78200000  0.28540000  0.97180000  1.0 0.0506574234
H  H936  1  0.50340000  0.21800000  0.97180000  1.0 0.0506574234
C  C1  1  0.46730000  0.62340000  0.54680000  1.0 0.0812699266
C  C2  1  0.37660000  0.84390000  0.54680000  1.0 0.0812699266
C  C3  1  0.15610000  0.53270000  0.54680000  1.0 0.0812699266
C  C4  1  0.53270000  0.37660000  0.04680000  1.0 0.0708706454
C  C5  1  0.62340000  0.15610000  0.04680000  1.0 0.0812699266
C  C6  1  0.84390000  0.46730000  0.04680000  1.0 0.0708706454
C  C7  1  0.62340000  0.46730000  0.45320000  1.0 0.0812699266
C  C8  1  0.84390000  0.37660000  0.45320000  1.0 0.0812699266
C  C9  1  0.53270000  0.15610000  0.45320000  1.0 0.0812699266
C  C10  1  0.37660000  0.53270000  0.95320000  1.0 0.0812699266
C  C11  1  0.15610000  0.62340000  0.95320000  1.0 0.0812699266
C  C12  1  0.46730000  0.84390000  0.95320000  1.0 0.0812699266
C  C13  1  0.53270000  0.37660000  0.45320000  1.0 0.0812699266
C  C14  1  0.62340000  0.15610000  0.45320000  1.0 0.0812699266
C  C15  1  0.84390000  0.46730000  0.45320000  1.0 0.0812699266
C  C16  1  0.46730000  0.62340000  0.95320000  1.0 0.0812699266
C  C17  1  0.37660000  0.84390000  0.95320000  1.0 0.0812699266
C  C18  1  0.15610000  0.53270000  0.95320000  1.0 0.0812699266
C  C19  1  0.37660000  0.53270000  0.54680000  1.0 0.0812699266
C  C20  1  0.15610000  0.62340000  0.54680000  1.0 0.0812699266
C  C21  1  0.46730000  0.84390000  0.54680000  1.0 0.0812699266
C  C22  1  0.62340000  0.46730000  0.04680000  1.0 0.0708706454
C  C23  1  0.84390000  0.37660000  0.04680000  1.0 0.0812699266
C  C24  1  0.53270000  0.15610000  0.04680000  1.0 0.0708706454
C  C25  1  0.47840000  0.65910000  0.53401000  1.0 0.0609318614
C  C26  1  0.34090000  0.81930000  0.53401000  1.0 0.0609318614
C  C27  1  0.18070000  0.52160000  0.53401000  1.0 0.0609318614
C  C28  1  0.52160000  0.34090000  0.03401000  1.0 0.0609318614
C  C29  1  0.65910000  0.18070000  0.03401000  1.0 0.0609318614
C  C30  1  0.81930000  0.47840000  0.03401000  1.0 0.0609318614
C  C31  1  0.65910000  0.47840000  0.46599000  1.0 0.0609318614
C  C32  1  0.81930000  0.34090000  0.46599000  1.0 0.0609318614
C  C33  1  0.52160000  0.18070000  0.46599000  1.0 0.0609318614
C  C34  1  0.34090000  0.52160000  0.96599000  1.0 0.0609318614
C  C35  1  0.18070000  0.65910000  0.96599000  1.0 0.0609318614
C  C36  1  0.47840000  0.81930000  0.96599000  1.0 0.0609318614
C  C37  1  0.52160000  0.34090000  0.46599000  1.0 0.0609318614
C  C38  1  0.65910000  0.18070000  0.46599000  1.0 0.0609318614
C  C39  1  0.81930000  0.47840000  0.46599000  1.0 0.0609318614
C  C40  1  0.47840000  0.65910000  0.96599000  1.0 0.0609318614
C  C41  1  0.34090000  0.81930000  0.96599000  1.0 0.0609318614
C  C42  1  0.18070000  0.52160000  0.96599000  1.0 0.0609318614
C  C43  1  0.34090000  0.52160000  0.53401000  1.0 0.0609318614
C  C44  1  0.18070000  0.65910000  0.53401000  1.0 0.0609318614
C  C45  1  0.47840000  0.81930000  0.53401000  1.0 0.0609318614
C  C46  1  0.65910000  0.47840000  0.03401000  1.0 0.0609318614
C  C47  1  0.81930000  0.34090000  0.03401000  1.0 0.0609318614
C  C48  1  0.52160000  0.18070000  0.03401000  1.0 0.0609318614
C  C49  1  0.47430000  0.69380000  0.53718000  1.0 -0.0814512193
C  C50  1  0.30620000  0.78050000  0.53718000  1.0 -0.0814512193
C  C51  1  0.21950000  0.52570000  0.53718000  1.0 -0.0814512193
C  C52  1  0.52570000  0.30620000  0.03718000  1.0 -0.0814512193
C  C53  1  0.69380000  0.21950000  0.03718000  1.0 -0.0814512193
C  C54  1  0.78050000  0.47430000  0.03718000  1.0 -0.0814512193
C  C55  1  0.69380000  0.47430000  0.46282000  1.0 -0.0814512193
C  C56  1  0.78050000  0.30620000  0.46282000  1.0 -0.0814512193
C  C57  1  0.52570000  0.21950000  0.46282000  1.0 -0.0814512193
C  C58  1  0.30620000  0.52570000  0.96282000  1.0 -0.0814512193
C  C59  1  0.21950000  0.69380000  0.96282000  1.0 -0.0814512193
C  C60  1  0.47430000  0.78050000  0.96282000  1.0 -0.0814512193
C  C61  1  0.52570000  0.30620000  0.46282000  1.0 -0.0814512193
C  C62  1  0.69380000  0.21950000  0.46282000  1.0 -0.0814512193
C  C63  1  0.78050000  0.47430000  0.46282000  1.0 -0.0814512193
C  C64  1  0.47430000  0.69380000  0.96282000  1.0 -0.0814512193
C  C65  1  0.30620000  0.78050000  0.96282000  1.0 -0.0814512193
C  C66  1  0.21950000  0.52570000  0.96282000  1.0 -0.0814512193
C  C67  1  0.30620000  0.52570000  0.53718000  1.0 -0.0814512193
C  C68  1  0.21950000  0.69380000  0.53718000  1.0 -0.0814512193
C  C69  1  0.47430000  0.78050000  0.53718000  1.0 -0.0814512193
C  C70  1  0.69380000  0.47430000  0.03718000  1.0 -0.0814512193
C  C71  1  0.78050000  0.30620000  0.03718000  1.0 -0.0814512193
C  C72  1  0.52570000  0.21950000  0.03718000  1.0 -0.0814512193
C  C73  1  0.49880000  0.65730000  0.51870000  1.0 -0.0814512193
C  C74  1  0.34270000  0.84150000  0.51870000  1.0 -0.0814512193
C  C75  1  0.15850000  0.50120000  0.51870000  1.0 -0.0814512193
C  C76  1  0.50120000  0.34270000  0.01870000  1.0 -0.0814512193
C  C77  1  0.65730000  0.15850000  0.01870000  1.0 -0.0814512193
C  C78  1  0.84150000  0.49880000  0.01870000  1.0 -0.0814512193
C  C79  1  0.65730000  0.49880000  0.48130000  1.0 -0.0814512193
C  C80  1  0.84150000  0.34270000  0.48130000  1.0 -0.0814512193
C  C81  1  0.50120000  0.15850000  0.48130000  1.0 -0.0814512193
C  C82  1  0.34270000  0.50120000  0.98130000  1.0 -0.0814512193
C  C83  1  0.15850000  0.65730000  0.98130000  1.0 -0.0814512193
C  C84  1  0.49880000  0.84150000  0.98130000  1.0 -0.0814512193
C  C85  1  0.50120000  0.34270000  0.48130000  1.0 -0.0814512193
C  C86  1  0.65730000  0.15850000  0.48130000  1.0 -0.0814512193
C  C87  1  0.84150000  0.49880000  0.48130000  1.0 -0.0814512193
C  C88  1  0.49880000  0.65730000  0.98130000  1.0 -0.0814512193
C  C89  1  0.34270000  0.84150000  0.98130000  1.0 -0.0814512193
C  C90  1  0.15850000  0.50120000  0.98130000  1.0 -0.0814512193
C  C91  1  0.34270000  0.50120000  0.51870000  1.0 -0.0814512193
C  C92  1  0.15850000  0.65730000  0.51870000  1.0 -0.0814512193
C  C93  1  0.49880000  0.84150000  0.51870000  1.0 -0.0814512193
C  C94  1  0.65730000  0.49880000  0.01870000  1.0 -0.0814512193
C  C95  1  0.84150000  0.34270000  0.01870000  1.0 -0.0814512193
C  C96  1  0.50120000  0.15850000  0.01870000  1.0 -0.0814512193
C  C97  1  0.49050000  0.72650000  0.52500000  1.0 0.0022249279
C  C98  1  0.27350000  0.76400000  0.52500000  1.0 0.0022249279
C  C99  1  0.23600000  0.50950000  0.52500000  1.0 0.0022249279
C  C100  1  0.50950000  0.27350000  0.02500000  1.0 0.0022249279
C  C101  1  0.72650000  0.23600000  0.02500000  1.0 0.0022249279
C  C102  1  0.76400000  0.49050000  0.02500000  1.0 0.0022249279
C  C103  1  0.72650000  0.49050000  0.47500000  1.0 0.0022249279
C  C104  1  0.76400000  0.27350000  0.47500000  1.0 0.0022249279
C  C105  1  0.50950000  0.23600000  0.47500000  1.0 0.0022249279
C  C106  1  0.27350000  0.50950000  0.97500000  1.0 0.0022249279
C  C107  1  0.23600000  0.72650000  0.97500000  1.0 0.0022249279
C  C108  1  0.49050000  0.76400000  0.97500000  1.0 0.0022249279
C  C109  1  0.50950000  0.27350000  0.47500000  1.0 0.0022249279
C  C110  1  0.72650000  0.23600000  0.47500000  1.0 0.0022249279
C  C111  1  0.76400000  0.49050000  0.47500000  1.0 0.0022249279
C  C112  1  0.49050000  0.72650000  0.97500000  1.0 0.0022249279
C  C113  1  0.27350000  0.76400000  0.97500000  1.0 0.0022249279
C  C114  1  0.23600000  0.50950000  0.97500000  1.0 0.0022249279
C  C115  1  0.27350000  0.50950000  0.52500000  1.0 0.0022249279
C  C116  1  0.23600000  0.72650000  0.52500000  1.0 0.0022249279
C  C117  1  0.49050000  0.76400000  0.52500000  1.0 0.0022249279
C  C118  1  0.72650000  0.49050000  0.02500000  1.0 0.0022249279
C  C119  1  0.76400000  0.27350000  0.02500000  1.0 0.0022249279
C  C120  1  0.50950000  0.23600000  0.02500000  1.0 0.0022249279
C  C121  1  0.51500000  0.69000000  0.50651000  1.0 -0.0880332006
C  C122  1  0.31000000  0.82500000  0.50651000  1.0 -0.0880332006
C  C123  1  0.17500000  0.48500000  0.50651000  1.0 -0.0814512193
C  C124  1  0.48500000  0.31000000  0.00651000  1.0 -0.0880332006
C  C125  1  0.69000000  0.17500000  0.00651000  1.0 -0.0880332006
C  C126  1  0.82500000  0.51500000  0.00651000  1.0 -0.0880332006
C  C127  1  0.69000000  0.51500000  0.49349000  1.0 -0.0880332006
C  C128  1  0.82500000  0.31000000  0.49349000  1.0 -0.0814512193
C  C129  1  0.48500000  0.17500000  0.49349000  1.0 -0.0814512193
C  C130  1  0.31000000  0.48500000  0.99349000  1.0 -0.0880332006
C  C131  1  0.17500000  0.69000000  0.99349000  1.0 -0.0880332006
C  C132  1  0.51500000  0.82500000  0.99349000  1.0 -0.0880332006
C  C133  1  0.48500000  0.31000000  0.49349000  1.0 -0.0880332006
C  C134  1  0.69000000  0.17500000  0.49349000  1.0 -0.0880332006
C  C135  1  0.82500000  0.51500000  0.49349000  1.0 -0.0880332006
C  C136  1  0.51500000  0.69000000  0.99349000  1.0 -0.0880332006
C  C137  1  0.31000000  0.82500000  0.99349000  1.0 -0.0880332006
C  C138  1  0.17500000  0.48500000  0.99349000  1.0 -0.0814512193
C  C139  1  0.31000000  0.48500000  0.50651000  1.0 -0.0880332006
C  C140  1  0.17500000  0.69000000  0.50651000  1.0 -0.0880332006
C  C141  1  0.51500000  0.82500000  0.50651000  1.0 -0.0880332006
C  C142  1  0.69000000  0.51500000  0.00651000  1.0 -0.0880332006
C  C143  1  0.82500000  0.31000000  0.00651000  1.0 -0.0880332006
C  C144  1  0.48500000  0.17500000  0.00651000  1.0 -0.0880332006
C  C145  1  0.51080000  0.72470000  0.50968000  1.0 0.0609318614
C  C146  1  0.27530000  0.78610000  0.50968000  1.0 0.0609318614
C  C147  1  0.21390000  0.48920000  0.50968000  1.0 0.0609318614
C  C148  1  0.48920000  0.27530000  0.00968000  1.0 0.0609318614
C  C149  1  0.72470000  0.21390000  0.00968000  1.0 0.0609318614
C  C150  1  0.78610000  0.51080000  0.00968000  1.0 0.0609318614
C  C151  1  0.72470000  0.51080000  0.49032000  1.0 0.0609318614
C  C152  1  0.78610000  0.27530000  0.49032000  1.0 0.0609318614
C  C153  1  0.48920000  0.21390000  0.49032000  1.0 0.0609318614
C  C154  1  0.27530000  0.48920000  0.99032000  1.0 0.0609318614
C  C155  1  0.21390000  0.72470000  0.99032000  1.0 0.0609318614
C  C156  1  0.51080000  0.78610000  0.99032000  1.0 0.0609318614
C  C157  1  0.48920000  0.27530000  0.49032000  1.0 0.0609318614
C  C158  1  0.72470000  0.21390000  0.49032000  1.0 0.0609318614
C  C159  1  0.78610000  0.51080000  0.49032000  1.0 0.0609318614
C  C160  1  0.51080000  0.72470000  0.99032000  1.0 0.0609318614
C  C161  1  0.27530000  0.78610000  0.99032000  1.0 0.0609318614
C  C162  1  0.21390000  0.48920000  0.99032000  1.0 0.0609318614
C  C163  1  0.27530000  0.48920000  0.50968000  1.0 0.0609318614
C  C164  1  0.21390000  0.72470000  0.50968000  1.0 0.0609318614
C  C165  1  0.51080000  0.78610000  0.50968000  1.0 0.0609318614
C  C166  1  0.72470000  0.51080000  0.00968000  1.0 0.0609318614
C  C167  1  0.78610000  0.27530000  0.00968000  1.0 0.0609318614
C  C168  1  0.48920000  0.21390000  0.00968000  1.0 0.0609318614
C  C169  1  0.53870000  0.76935000  0.48340000  1.0 0.0199814232
C  C170  1  0.23065000  0.76935000  0.48340000  1.0 0.0199814232
C  C171  1  0.23065000  0.46130000  0.48340000  1.0 0.0199814232
C  C172  1  0.46130000  0.23065000  0.98340000  1.0 0.0199814232
C  C173  1  0.76935000  0.23065000  0.98340000  1.0 0.0199814232
C  C174  1  0.76935000  0.53870000  0.98340000  1.0 0.0199814232
C  C175  1  0.76935000  0.53870000  0.51660000  1.0 0.0199814232
C  C176  1  0.76935000  0.23065000  0.51660000  1.0 0.0199814232
C  C177  1  0.46130000  0.23065000  0.51660000  1.0 0.0199814232
C  C178  1  0.23065000  0.46130000  0.01660000  1.0 0.0199814232
C  C179  1  0.23065000  0.76935000  0.01660000  1.0 0.0199814232
C  C180  1  0.53870000  0.76935000  0.01660000  1.0 0.0199814232
C  C181  1  0.57440000  0.80730000  0.48030000  1.0 -0.0084605356
C  C182  1  0.19270000  0.76710000  0.48030000  1.0 -0.0084605356
C  C183  1  0.23290000  0.42560000  0.48030000  1.0 -0.0084605356
C  C184  1  0.42560000  0.19270000  0.98030000  1.0 -0.0084605356
C  C185  1  0.80730000  0.23290000  0.98030000  1.0 -0.0084605356
C  C186  1  0.76710000  0.57440000  0.98030000  1.0 -0.0084605356
C  C187  1  0.80730000  0.57440000  0.51970000  1.0 -0.0084605356
C  C188  1  0.76710000  0.19270000  0.51970000  1.0 -0.0084605356
C  C189  1  0.42560000  0.23290000  0.51970000  1.0 -0.0084605356
C  C190  1  0.19270000  0.42560000  0.01970000  1.0 -0.0084605356
C  C191  1  0.23290000  0.80730000  0.01970000  1.0 -0.0084605356
C  C192  1  0.57440000  0.76710000  0.01970000  1.0 -0.0084605356
C  C193  1  0.42560000  0.19270000  0.51970000  1.0 -0.0084605356
C  C194  1  0.80730000  0.23290000  0.51970000  1.0 -0.0084605356
C  C195  1  0.76710000  0.57440000  0.51970000  1.0 -0.0084605356
C  C196  1  0.57440000  0.80730000  0.01970000  1.0 -0.0084605356
C  C197  1  0.19270000  0.76710000  0.01970000  1.0 -0.0084605356
C  C198  1  0.23290000  0.42560000  0.01970000  1.0 -0.0084605356
C  C199  1  0.19270000  0.42560000  0.48030000  1.0 -0.0084605356
C  C200  1  0.23290000  0.80730000  0.48030000  1.0 -0.0084605356
C  C201  1  0.57440000  0.76710000  0.48030000  1.0 -0.0084605356
C  C202  1  0.80730000  0.57440000  0.98030000  1.0 -0.0084605356
C  C203  1  0.76710000  0.19270000  0.98030000  1.0 -0.0084605356
C  C204  1  0.42560000  0.23290000  0.98030000  1.0 -0.0084605356
C  C205  1  0.59250000  0.81640000  0.46330000  1.0 -0.0023782535
C  C206  1  0.18360000  0.77610000  0.46330000  1.0 -0.0023782535
C  C207  1  0.22390000  0.40750000  0.46330000  1.0 -0.0023782535
C  C208  1  0.40750000  0.18360000  0.96330000  1.0 0.0022249279
C  C209  1  0.81640000  0.22390000  0.96330000  1.0 -0.0023782535
C  C210  1  0.77610000  0.59250000  0.96330000  1.0 -0.0023782535
C  C211  1  0.81640000  0.59250000  0.53670000  1.0 -0.0023782535
C  C212  1  0.77610000  0.18360000  0.53670000  1.0 -0.0023782535
C  C213  1  0.40750000  0.22390000  0.53670000  1.0 -0.0023782535
C  C214  1  0.18360000  0.40750000  0.03670000  1.0 -0.0023782535
C  C215  1  0.22390000  0.81640000  0.03670000  1.0 -0.0023782535
C  C216  1  0.59250000  0.77610000  0.03670000  1.0 -0.0023782535
C  C217  1  0.40750000  0.18360000  0.53670000  1.0 0.0022249279
C  C218  1  0.81640000  0.22390000  0.53670000  1.0 -0.0023782535
C  C219  1  0.77610000  0.59250000  0.53670000  1.0 -0.0023782535
C  C220  1  0.59250000  0.81640000  0.03670000  1.0 -0.0023782535
C  C221  1  0.18360000  0.77610000  0.03670000  1.0 -0.0023782535
C  C222  1  0.22390000  0.40750000  0.03670000  1.0 -0.0023782535
C  C223  1  0.18360000  0.40750000  0.46330000  1.0 -0.0023782535
C  C224  1  0.22390000  0.81640000  0.46330000  1.0 -0.0023782535
C  C225  1  0.59250000  0.77610000  0.46330000  1.0 -0.0023782535
C  C226  1  0.81640000  0.59250000  0.96330000  1.0 -0.0023782535
C  C227  1  0.77610000  0.18360000  0.96330000  1.0 0.0022249279
C  C228  1  0.40750000  0.22390000  0.96330000  1.0 -0.0023782535
C  C229  1  0.57490000  0.78745000  0.44950000  1.0 0.0022249279
C  C230  1  0.21255000  0.78745000  0.44950000  1.0 0.0022249279
C  C231  1  0.21255000  0.42510000  0.44950000  1.0 0.0022249279
C  C232  1  0.42510000  0.21255000  0.94950000  1.0 0.0022249279
C  C233  1  0.78745000  0.21255000  0.94950000  1.0 0.0022249279
C  C234  1  0.78745000  0.57490000  0.94950000  1.0 0.0022249279
C  C235  1  0.78745000  0.57490000  0.55050000  1.0 0.0022249279
C  C236  1  0.78745000  0.21255000  0.55050000  1.0 0.0022249279
C  C237  1  0.42510000  0.21255000  0.55050000  1.0 0.0022249279
C  C238  1  0.21255000  0.42510000  0.05050000  1.0 0.0022249279
C  C239  1  0.21255000  0.78745000  0.05050000  1.0 0.0022249279
C  C240  1  0.57490000  0.78745000  0.05050000  1.0 0.0022249279
C  C241  1  0.58930000  0.79465000  0.43100000  1.0 -0.1186590055
C  C242  1  0.20535000  0.79465000  0.43100000  1.0 -0.1186590055
C  C243  1  0.20535000  0.41070000  0.43100000  1.0 -0.1186590055
C  C244  1  0.41070000  0.20535000  0.93100000  1.0 -0.1104105449
C  C245  1  0.79465000  0.20535000  0.93100000  1.0 -0.1104105449
C  C246  1  0.79465000  0.58930000  0.93100000  1.0 -0.1186590055
C  C247  1  0.79465000  0.58930000  0.56900000  1.0 -0.1186590055
C  C248  1  0.79465000  0.20535000  0.56900000  1.0 -0.1104105449
C  C249  1  0.41070000  0.20535000  0.56900000  1.0 -0.1104105449
C  C250  1  0.20535000  0.41070000  0.06900000  1.0 -0.1186590055
C  C251  1  0.20535000  0.79465000  0.06900000  1.0 -0.1186590055
C  C252  1  0.58930000  0.79465000  0.06900000  1.0 -0.1186590055
C  C253  1  0.60850000  0.80425000  0.41710000  1.0 -0.0594615013
C  C254  1  0.19575000  0.80425000  0.41710000  1.0 -0.0594615013
C  C255  1  0.19575000  0.39150000  0.41710000  1.0 -0.0594615013
C  C256  1  0.39150000  0.19575000  0.91710000  1.0 -0.0594615013
C  C257  1  0.80425000  0.19575000  0.91710000  1.0 -0.0594615013
C  C258  1  0.80425000  0.60850000  0.91710000  1.0 -0.0594615013
C  C259  1  0.80425000  0.60850000  0.58290000  1.0 -0.0594615013
C  C260  1  0.80425000  0.19575000  0.58290000  1.0 -0.0594615013
C  C261  1  0.39150000  0.19575000  0.58290000  1.0 -0.0594615013
C  C262  1  0.19575000  0.39150000  0.08290000  1.0 -0.0594615013
C  C263  1  0.19575000  0.80425000  0.08290000  1.0 -0.0594615013
C  C264  1  0.60850000  0.80425000  0.08290000  1.0 -0.0594615013
C  C265  1  0.62630000  0.81315000  0.39950000  1.0 0.0289423662
C  C266  1  0.18685000  0.81315000  0.39950000  1.0 0.0289423662
C  C267  1  0.18685000  0.37370000  0.39950000  1.0 0.0199814232
C  C268  1  0.37370000  0.18685000  0.89950000  1.0 0.0199814232
C  C269  1  0.81315000  0.18685000  0.89950000  1.0 0.0199814232
C  C270  1  0.81315000  0.62630000  0.89950000  1.0 0.0199814232
C  C271  1  0.81315000  0.62630000  0.60050000  1.0 0.0199814232
C  C272  1  0.81315000  0.18685000  0.60050000  1.0 0.0199814232
C  C273  1  0.37370000  0.18685000  0.60050000  1.0 0.0199814232
C  C274  1  0.18685000  0.37370000  0.10050000  1.0 0.0199814232
C  C275  1  0.18685000  0.81315000  0.10050000  1.0 0.0289423662
C  C276  1  0.62630000  0.81315000  0.10050000  1.0 0.0289423662
C  C277  1  0.63380000  0.78550000  0.39130000  1.0 -0.1186590055
C  C278  1  0.21450000  0.84830000  0.39130000  1.0 -0.1186590055
C  C279  1  0.15170000  0.36620000  0.39130000  1.0 -0.1186590055
C  C280  1  0.36620000  0.21450000  0.89130000  1.0 -0.1186590055
C  C281  1  0.78550000  0.15170000  0.89130000  1.0 -0.1186590055
C  C282  1  0.84830000  0.63380000  0.89130000  1.0 -0.1186590055
C  C283  1  0.78550000  0.63380000  0.60870000  1.0 -0.1186590055
C  C284  1  0.84830000  0.21450000  0.60870000  1.0 -0.1186590055
C  C285  1  0.36620000  0.15170000  0.60870000  1.0 -0.1186590055
C  C286  1  0.21450000  0.36620000  0.10870000  1.0 -0.1186590055
C  C287  1  0.15170000  0.78550000  0.10870000  1.0 -0.1186590055
C  C288  1  0.63380000  0.84830000  0.10870000  1.0 -0.1186590055
C  C289  1  0.36620000  0.21450000  0.60870000  1.0 -0.1186590055
C  C290  1  0.78550000  0.15170000  0.60870000  1.0 -0.1186590055
C  C291  1  0.84830000  0.63380000  0.60870000  1.0 -0.1186590055
C  C292  1  0.63380000  0.78550000  0.10870000  1.0 -0.1186590055
C  C293  1  0.21450000  0.84830000  0.10870000  1.0 -0.1186590055
C  C294  1  0.15170000  0.36620000  0.10870000  1.0 -0.1186590055
C  C295  1  0.21450000  0.36620000  0.39130000  1.0 -0.1186590055
C  C296  1  0.15170000  0.78550000  0.39130000  1.0 -0.1186590055
C  C297  1  0.63380000  0.84830000  0.39130000  1.0 -0.1186590055
C  C298  1  0.78550000  0.63380000  0.89130000  1.0 -0.1186590055
C  C299  1  0.84830000  0.21450000  0.89130000  1.0 -0.1186590055
C  C300  1  0.36620000  0.15170000  0.89130000  1.0 -0.1186590055
C  C301  1  0.65010000  0.79240000  0.37350000  1.0 0.0409008468
C  C302  1  0.20760000  0.85770000  0.37350000  1.0 0.0409008468
C  C303  1  0.14230000  0.34990000  0.37350000  1.0 0.0409008468
C  C304  1  0.34990000  0.20760000  0.87350000  1.0 0.0409008468
C  C305  1  0.79240000  0.14230000  0.87350000  1.0 0.0409008468
C  C306  1  0.85770000  0.65010000  0.87350000  1.0 0.0409008468
C  C307  1  0.79240000  0.65010000  0.62650000  1.0 0.0409008468
C  C308  1  0.85770000  0.20760000  0.62650000  1.0 0.0409008468
C  C309  1  0.34990000  0.14230000  0.62650000  1.0 0.0409008468
C  C310  1  0.20760000  0.34990000  0.12650000  1.0 0.0409008468
C  C311  1  0.14230000  0.79240000  0.12650000  1.0 0.0409008468
C  C312  1  0.65010000  0.85770000  0.12650000  1.0 0.0409008468
C  C313  1  0.34990000  0.20760000  0.62650000  1.0 0.0409008468
C  C314  1  0.79240000  0.14230000  0.62650000  1.0 0.0409008468
C  C315  1  0.85770000  0.65010000  0.62650000  1.0 0.0409008468
C  C316  1  0.65010000  0.79240000  0.12650000  1.0 0.0409008468
C  C317  1  0.20760000  0.85770000  0.12650000  1.0 0.0409008468
C  C318  1  0.14230000  0.34990000  0.12650000  1.0 0.0409008468
C  C319  1  0.20760000  0.34990000  0.37350000  1.0 0.0409008468
C  C320  1  0.14230000  0.79240000  0.37350000  1.0 0.0409008468
C  C321  1  0.65010000  0.85770000  0.37350000  1.0 0.0409008468
C  C322  1  0.79240000  0.65010000  0.87350000  1.0 0.0409008468
C  C323  1  0.85770000  0.20760000  0.87350000  1.0 0.0409008468
C  C324  1  0.34990000  0.14230000  0.87350000  1.0 0.0409008468
C  C325  1  0.65810000  0.82905000  0.36470000  1.0 -0.1640943706
C  C326  1  0.17095000  0.82905000  0.36470000  1.0 -0.1640943706
C  C327  1  0.17095000  0.34190000  0.36470000  1.0 -0.1640943706
C  C328  1  0.34190000  0.17095000  0.86470000  1.0 -0.1640943706
C  C329  1  0.82905000  0.17095000  0.86470000  1.0 -0.1659027323
C  C330  1  0.82905000  0.65810000  0.86470000  1.0 -0.1640943706
C  C331  1  0.82905000  0.65810000  0.63530000  1.0 -0.1640943706
C  C332  1  0.82905000  0.17095000  0.63530000  1.0 -0.1659027323
C  C333  1  0.34190000  0.17095000  0.63530000  1.0 -0.1640943706
C  C334  1  0.17095000  0.34190000  0.13530000  1.0 -0.1640943706
C  C335  1  0.17095000  0.82905000  0.13530000  1.0 -0.1640943706
C  C336  1  0.65810000  0.82905000  0.13530000  1.0 -0.1640943706
C  C337  1  0.65280000  0.76120000  0.36470000  1.0 -0.0023782535
C  C338  1  0.23880000  0.89160000  0.36470000  1.0 -0.0023782535
C  C339  1  0.10840000  0.34720000  0.36470000  1.0 -0.0023782535
C  C340  1  0.34720000  0.23880000  0.86470000  1.0 -0.0023782535
C  C341  1  0.76120000  0.10840000  0.86470000  1.0 -0.0023782535
C  C342  1  0.89160000  0.65280000  0.86470000  1.0 -0.0023782535
C  C343  1  0.76120000  0.65280000  0.63530000  1.0 -0.0023782535
C  C344  1  0.89160000  0.23880000  0.63530000  1.0 -0.0023782535
C  C345  1  0.34720000  0.10840000  0.63530000  1.0 -0.0023782535
C  C346  1  0.23880000  0.34720000  0.13530000  1.0 -0.0023782535
C  C347  1  0.10840000  0.76120000  0.13530000  1.0 -0.0023782535
C  C348  1  0.65280000  0.89160000  0.13530000  1.0 -0.0023782535
C  C349  1  0.34720000  0.23880000  0.63530000  1.0 -0.0023782535
C  C350  1  0.76120000  0.10840000  0.63530000  1.0 -0.0023782535
C  C351  1  0.89160000  0.65280000  0.63530000  1.0 -0.0023782535
C  C352  1  0.65280000  0.76120000  0.13530000  1.0 -0.0023782535
C  C353  1  0.23880000  0.89160000  0.13530000  1.0 -0.0023782535
C  C354  1  0.10840000  0.34720000  0.13530000  1.0 -0.0023782535
C  C355  1  0.23880000  0.34720000  0.36470000  1.0 -0.0023782535
C  C356  1  0.10840000  0.76120000  0.36470000  1.0 -0.0023782535
C  C357  1  0.65280000  0.89160000  0.36470000  1.0 -0.0023782535
C  C358  1  0.76120000  0.65280000  0.86470000  1.0 -0.0023782535
C  C359  1  0.89160000  0.23880000  0.86470000  1.0 -0.0023782535
C  C360  1  0.34720000  0.10840000  0.86470000  1.0 -0.0023782535
C  C361  1  0.65540000  0.73360000  0.35890000  1.0 -0.0594615013
C  C362  1  0.26640000  0.92180000  0.35890000  1.0 -0.0594615013
C  C363  1  0.07820000  0.34460000  0.35890000  1.0 -0.0594615013
C  C364  1  0.34460000  0.26640000  0.85890000  1.0 -0.0594615013
C  C365  1  0.73360000  0.07820000  0.85890000  1.0 -0.0594615013
C  C366  1  0.92180000  0.65540000  0.85890000  1.0 -0.0594615013
C  C367  1  0.73360000  0.65540000  0.64110000  1.0 -0.0594615013
C  C368  1  0.92180000  0.26640000  0.64110000  1.0 -0.0594615013
C  C369  1  0.34460000  0.07820000  0.64110000  1.0 -0.0594615013
C  C370  1  0.26640000  0.34460000  0.14110000  1.0 -0.0594615013
C  C371  1  0.07820000  0.73360000  0.14110000  1.0 -0.0594615013
C  C372  1  0.65540000  0.92180000  0.14110000  1.0 -0.0594615013
C  C373  1  0.34460000  0.26640000  0.64110000  1.0 -0.0594615013
C  C374  1  0.73360000  0.07820000  0.64110000  1.0 -0.0594615013
C  C375  1  0.92180000  0.65540000  0.64110000  1.0 -0.0594615013
C  C376  1  0.65540000  0.73360000  0.14110000  1.0 -0.0594615013
C  C377  1  0.26640000  0.92180000  0.14110000  1.0 -0.0594615013
C  C378  1  0.07820000  0.34460000  0.14110000  1.0 -0.0594615013
C  C379  1  0.26640000  0.34460000  0.35890000  1.0 -0.0594615013
C  C380  1  0.07820000  0.73360000  0.35890000  1.0 -0.0594615013
C  C381  1  0.65540000  0.92180000  0.35890000  1.0 -0.0594615013
C  C382  1  0.73360000  0.65540000  0.85890000  1.0 -0.0594615013
C  C383  1  0.92180000  0.26640000  0.85890000  1.0 -0.0594615013
C  C384  1  0.34460000  0.07820000  0.85890000  1.0 -0.0594615013
C  C385  1  0.66360000  0.70120000  0.35365000  1.0 0.0199814232
C  C386  1  0.29880000  0.96240000  0.35365000  1.0 0.0199814232
C  C387  1  0.03760000  0.33640000  0.35365000  1.0 0.0199814232
C  C388  1  0.33640000  0.29880000  0.85365000  1.0 0.0199814232
C  C389  1  0.70120000  0.03760000  0.85365000  1.0 0.0199814232
C  C390  1  0.96240000  0.66360000  0.85365000  1.0 0.0199814232
C  C391  1  0.70120000  0.66360000  0.64635000  1.0 0.0199814232
C  C392  1  0.96240000  0.29880000  0.64635000  1.0 0.0199814232
C  C393  1  0.33640000  0.03760000  0.64635000  1.0 0.0199814232
C  C394  1  0.29880000  0.33640000  0.14635000  1.0 0.0199814232
C  C395  1  0.03760000  0.70120000  0.14635000  1.0 0.0199814232
C  C396  1  0.66360000  0.96240000  0.14635000  1.0 0.0199814232
C  C397  1  0.33640000  0.29880000  0.64635000  1.0 0.0199814232
C  C398  1  0.70120000  0.03760000  0.64635000  1.0 0.0199814232
C  C399  1  0.96240000  0.66360000  0.64635000  1.0 0.0199814232
C  C400  1  0.66360000  0.70120000  0.14635000  1.0 0.0199814232
C  C401  1  0.29880000  0.96240000  0.14635000  1.0 0.0199814232
C  C402  1  0.03760000  0.33640000  0.14635000  1.0 0.0199814232
C  C403  1  0.29880000  0.33640000  0.35365000  1.0 0.0199814232
C  C404  1  0.03760000  0.70120000  0.35365000  1.0 0.0199814232
C  C405  1  0.66360000  0.96240000  0.35365000  1.0 0.0199814232
C  C406  1  0.70120000  0.66360000  0.85365000  1.0 0.0199814232
C  C407  1  0.96240000  0.29880000  0.85365000  1.0 0.0199814232
C  C408  1  0.33640000  0.03760000  0.85365000  1.0 0.0199814232
C  C409  1  0.68240000  0.70010000  0.33770000  1.0 -0.0880332006
C  C410  1  0.29990000  0.98230000  0.33770000  1.0 -0.0880332006
C  C411  1  0.01770000  0.31760000  0.33770000  1.0 -0.0880332006
C  C412  1  0.31760000  0.29990000  0.83770000  1.0 -0.0880332006
C  C413  1  0.70010000  0.01770000  0.83770000  1.0 -0.0880332006
C  C414  1  0.98230000  0.68240000  0.83770000  1.0 -0.0880332006
C  C415  1  0.70010000  0.68240000  0.66230000  1.0 -0.0880332006
C  C416  1  0.98230000  0.29990000  0.66230000  1.0 -0.0880332006
C  C417  1  0.31760000  0.01770000  0.66230000  1.0 -0.0880332006
C  C418  1  0.29990000  0.31760000  0.16230000  1.0 -0.0880332006
C  C419  1  0.01770000  0.70010000  0.16230000  1.0 -0.0880332006
C  C420  1  0.68240000  0.98230000  0.16230000  1.0 -0.0880332006
C  C421  1  0.31760000  0.29990000  0.66230000  1.0 -0.0880332006
C  C422  1  0.70010000  0.01770000  0.66230000  1.0 -0.0880332006
C  C423  1  0.98230000  0.68240000  0.66230000  1.0 -0.0880332006
C  C424  1  0.68240000  0.70010000  0.16230000  1.0 -0.0880332006
C  C425  1  0.29990000  0.98230000  0.16230000  1.0 -0.0880332006
C  C426  1  0.01770000  0.31760000  0.16230000  1.0 -0.0880332006
C  C427  1  0.29990000  0.31760000  0.33770000  1.0 -0.0880332006
C  C428  1  0.01770000  0.70010000  0.33770000  1.0 -0.0880332006
C  C429  1  0.68240000  0.98230000  0.33770000  1.0 -0.0880332006
C  C430  1  0.70010000  0.68240000  0.83770000  1.0 -0.0880332006
C  C431  1  0.98230000  0.29990000  0.83770000  1.0 -0.0880332006
C  C432  1  0.31760000  0.01770000  0.83770000  1.0 -0.0880332006
C  C433  1  0.64840000  0.66790000  0.36549000  1.0 -0.0814512193
C  C434  1  0.33210000  0.98050000  0.36549000  1.0 -0.0814512193
C  C435  1  0.01950000  0.35160000  0.36549000  1.0 -0.0814512193
C  C436  1  0.35160000  0.33210000  0.86549000  1.0 -0.0814512193
C  C437  1  0.66790000  0.01950000  0.86549000  1.0 -0.0814512193
C  C438  1  0.98050000  0.64840000  0.86549000  1.0 -0.0814512193
C  C439  1  0.66790000  0.64840000  0.63451000  1.0 -0.0814512193
C  C440  1  0.98050000  0.33210000  0.63451000  1.0 -0.0814512193
C  C441  1  0.35160000  0.01950000  0.63451000  1.0 -0.0814512193
C  C442  1  0.33210000  0.35160000  0.13451000  1.0 -0.0814512193
C  C443  1  0.01950000  0.66790000  0.13451000  1.0 -0.0814512193
C  C444  1  0.64840000  0.98050000  0.13451000  1.0 -0.0814512193
C  C445  1  0.35160000  0.33210000  0.63451000  1.0 -0.0814512193
C  C446  1  0.66790000  0.01950000  0.63451000  1.0 -0.0814512193
C  C447  1  0.98050000  0.64840000  0.63451000  1.0 -0.0814512193
C  C448  1  0.64840000  0.66790000  0.13451000  1.0 -0.0814512193
C  C449  1  0.33210000  0.98050000  0.13451000  1.0 -0.0814512193
C  C450  1  0.01950000  0.35160000  0.13451000  1.0 -0.0814512193
C  C451  1  0.33210000  0.35160000  0.36549000  1.0 -0.0814512193
C  C452  1  0.01950000  0.66790000  0.36549000  1.0 -0.0814512193
C  C453  1  0.64840000  0.98050000  0.36549000  1.0 -0.0814512193
C  C454  1  0.66790000  0.64840000  0.86549000  1.0 -0.0814512193
C  C455  1  0.98050000  0.33210000  0.86549000  1.0 -0.0814512193
C  C456  1  0.35160000  0.01950000  0.86549000  1.0 -0.0814512193
C  C457  1  0.68610000  0.66560000  0.33359000  1.0 0.0289423662
C  C458  1  0.33440000  0.02050000  0.33359000  1.0 0.0289423662
C  C459  1  0.97950000  0.31390000  0.33359000  1.0 0.0289423662
C  C460  1  0.31390000  0.33440000  0.83359000  1.0 0.0289423662
C  C461  1  0.66560000  0.97950000  0.83359000  1.0 0.0289423662
C  C462  1  0.02050000  0.68610000  0.83359000  1.0 0.0289423662
C  C463  1  0.66560000  0.68610000  0.66641000  1.0 0.0289423662
C  C464  1  0.02050000  0.33440000  0.66641000  1.0 0.0289423662
C  C465  1  0.31390000  0.97950000  0.66641000  1.0 0.0289423662
C  C466  1  0.33440000  0.31390000  0.16641000  1.0 0.0289423662
C  C467  1  0.97950000  0.66560000  0.16641000  1.0 0.0289423662
C  C468  1  0.68610000  0.02050000  0.16641000  1.0 0.0289423662
C  C469  1  0.31390000  0.33440000  0.66641000  1.0 0.0289423662
C  C470  1  0.66560000  0.97950000  0.66641000  1.0 0.0289423662
C  C471  1  0.02050000  0.68610000  0.66641000  1.0 0.0289423662
C  C472  1  0.68610000  0.66560000  0.16641000  1.0 0.0289423662
C  C473  1  0.33440000  0.02050000  0.16641000  1.0 0.0289423662
C  C474  1  0.97950000  0.31390000  0.16641000  1.0 0.0289423662
C  C475  1  0.33440000  0.31390000  0.33359000  1.0 0.0289423662
C  C476  1  0.97950000  0.66560000  0.33359000  1.0 0.0289423662
C  C477  1  0.68610000  0.02050000  0.33359000  1.0 0.0289423662
C  C478  1  0.66560000  0.68610000  0.83359000  1.0 0.0289423662
C  C479  1  0.02050000  0.33440000  0.83359000  1.0 0.0289423662
C  C480  1  0.31390000  0.97950000  0.83359000  1.0 0.0289423662
C  C481  1  0.65210000  0.63340000  0.36138000  1.0 0.0289423662
C  C482  1  0.36660000  0.01870000  0.36138000  1.0 0.0289423662
C  C483  1  0.98130000  0.34790000  0.36138000  1.0 0.0289423662
C  C484  1  0.34790000  0.36660000  0.86138000  1.0 0.0289423662
C  C485  1  0.63340000  0.98130000  0.86138000  1.0 0.0289423662
C  C486  1  0.01870000  0.65210000  0.86138000  1.0 0.0289423662
C  C487  1  0.63340000  0.65210000  0.63862000  1.0 0.0289423662
C  C488  1  0.01870000  0.36660000  0.63862000  1.0 0.0289423662
C  C489  1  0.34790000  0.98130000  0.63862000  1.0 0.0289423662
C  C490  1  0.36660000  0.34790000  0.13862000  1.0 0.0289423662
C  C491  1  0.98130000  0.63340000  0.13862000  1.0 0.0289423662
C  C492  1  0.65210000  0.01870000  0.13862000  1.0 0.0289423662
C  C493  1  0.34790000  0.36660000  0.63862000  1.0 0.0289423662
C  C494  1  0.63340000  0.98130000  0.63862000  1.0 0.0289423662
C  C495  1  0.01870000  0.65210000  0.63862000  1.0 0.0289423662
C  C496  1  0.65210000  0.63340000  0.13862000  1.0 0.0289423662
C  C497  1  0.36660000  0.01870000  0.13862000  1.0 0.0289423662
C  C498  1  0.98130000  0.34790000  0.13862000  1.0 0.0289423662
C  C499  1  0.36660000  0.34790000  0.36138000  1.0 0.0289423662
C  C500  1  0.98130000  0.63340000  0.36138000  1.0 0.0289423662
C  C501  1  0.65210000  0.01870000  0.36138000  1.0 0.0289423662
C  C502  1  0.63340000  0.65210000  0.86138000  1.0 0.0289423662
C  C503  1  0.01870000  0.36660000  0.86138000  1.0 0.0289423662
C  C504  1  0.34790000  0.98130000  0.86138000  1.0 0.0289423662
C  C505  1  0.71090000  0.66960000  0.31752000  1.0 0.0199814232
C  C506  1  0.33040000  0.04130000  0.31752000  1.0 0.0199814232
C  C507  1  0.95870000  0.28910000  0.31752000  1.0 0.0199814232
C  C508  1  0.28910000  0.33040000  0.81752000  1.0 0.0199814232
C  C509  1  0.66960000  0.95870000  0.81752000  1.0 0.0199814232
C  C510  1  0.04130000  0.71090000  0.81752000  1.0 0.0199814232
C  C511  1  0.66960000  0.71090000  0.68248000  1.0 0.0199814232
C  C512  1  0.04130000  0.33040000  0.68248000  1.0 0.0199814232
C  C513  1  0.28910000  0.95870000  0.68248000  1.0 0.0199814232
C  C514  1  0.33040000  0.28910000  0.18248000  1.0 0.0199814232
C  C515  1  0.95870000  0.66960000  0.18248000  1.0 0.0199814232
C  C516  1  0.71090000  0.04130000  0.18248000  1.0 0.0199814232
C  C517  1  0.28910000  0.33040000  0.68248000  1.0 0.0199814232
C  C518  1  0.66960000  0.95870000  0.68248000  1.0 0.0199814232
C  C519  1  0.04130000  0.71090000  0.68248000  1.0 0.0199814232
C  C520  1  0.71090000  0.66960000  0.18248000  1.0 0.0199814232
C  C521  1  0.33040000  0.04130000  0.18248000  1.0 0.0199814232
C  C522  1  0.95870000  0.28910000  0.18248000  1.0 0.0199814232
C  C523  1  0.33040000  0.28910000  0.31752000  1.0 0.0199814232
C  C524  1  0.95870000  0.66960000  0.31752000  1.0 0.0199814232
C  C525  1  0.71090000  0.04130000  0.31752000  1.0 0.0199814232
C  C526  1  0.66960000  0.71090000  0.81752000  1.0 0.0199814232
C  C527  1  0.04130000  0.33040000  0.81752000  1.0 0.0199814232
C  C528  1  0.28910000  0.95870000  0.81752000  1.0 0.0199814232
C  C529  1  0.67100000  0.63220000  0.34543000  1.0 -0.1104105449
C  C530  1  0.36780000  0.03880000  0.34543000  1.0 -0.1104105449
C  C531  1  0.96120000  0.32900000  0.34543000  1.0 -0.1104105449
C  C532  1  0.32900000  0.36780000  0.84543000  1.0 -0.1104105449
C  C533  1  0.63220000  0.96120000  0.84543000  1.0 -0.1104105449
C  C534  1  0.03880000  0.67100000  0.84543000  1.0 -0.1104105449
C  C535  1  0.63220000  0.67100000  0.65457000  1.0 -0.1104105449
C  C536  1  0.03880000  0.36780000  0.65457000  1.0 -0.1104105449
C  C537  1  0.32900000  0.96120000  0.65457000  1.0 -0.0992189101
C  C538  1  0.36780000  0.32900000  0.15457000  1.0 -0.1104105449
C  C539  1  0.96120000  0.63220000  0.15457000  1.0 -0.1104105449
C  C540  1  0.67100000  0.03880000  0.15457000  1.0 -0.1104105449
C  C541  1  0.32900000  0.36780000  0.65457000  1.0 -0.1104105449
C  C542  1  0.63220000  0.96120000  0.65457000  1.0 -0.1104105449
C  C543  1  0.03880000  0.67100000  0.65457000  1.0 -0.1104105449
C  C544  1  0.67100000  0.63220000  0.15457000  1.0 -0.1104105449
C  C545  1  0.36780000  0.03880000  0.15457000  1.0 -0.1104105449
C  C546  1  0.96120000  0.32900000  0.15457000  1.0 -0.1104105449
C  C547  1  0.36780000  0.32900000  0.34543000  1.0 -0.1104105449
C  C548  1  0.96120000  0.63220000  0.34543000  1.0 -0.1104105449
C  C549  1  0.67100000  0.03880000  0.34543000  1.0 -0.1104105449
C  C550  1  0.63220000  0.67100000  0.84543000  1.0 -0.1104105449
C  C551  1  0.03880000  0.36780000  0.84543000  1.0 -0.1104105449
C  C552  1  0.32900000  0.96120000  0.84543000  1.0 -0.0992189101
C  C553  1  0.63440000  0.59530000  0.37420000  1.0 0.0289423662
C  C554  1  0.40470000  0.03910000  0.37420000  1.0 0.0199814232
C  C555  1  0.96090000  0.36560000  0.37420000  1.0 0.0289423662
C  C556  1  0.36560000  0.40470000  0.87420000  1.0 0.0289423662
C  C557  1  0.59530000  0.96090000  0.87420000  1.0 0.0289423662
C  C558  1  0.03910000  0.63440000  0.87420000  1.0 0.0289423662
C  C559  1  0.59530000  0.63440000  0.62580000  1.0 0.0289423662
C  C560  1  0.03910000  0.40470000  0.62580000  1.0 0.0199814232
C  C561  1  0.36560000  0.96090000  0.62580000  1.0 0.0289423662
C  C562  1  0.40470000  0.36560000  0.12580000  1.0 0.0289423662
C  C563  1  0.96090000  0.59530000  0.12580000  1.0 0.0289423662
C  C564  1  0.63440000  0.03910000  0.12580000  1.0 0.0199814232
C  C565  1  0.36560000  0.40470000  0.62580000  1.0 0.0289423662
C  C566  1  0.59530000  0.96090000  0.62580000  1.0 0.0289423662
C  C567  1  0.03910000  0.63440000  0.62580000  1.0 0.0289423662
C  C568  1  0.63440000  0.59530000  0.12580000  1.0 0.0289423662
C  C569  1  0.40470000  0.03910000  0.12580000  1.0 0.0199814232
C  C570  1  0.96090000  0.36560000  0.12580000  1.0 0.0289423662
C  C571  1  0.40470000  0.36560000  0.37420000  1.0 0.0289423662
C  C572  1  0.96090000  0.59530000  0.37420000  1.0 0.0289423662
C  C573  1  0.63440000  0.03910000  0.37420000  1.0 0.0199814232
C  C574  1  0.59530000  0.63440000  0.87420000  1.0 0.0289423662
C  C575  1  0.03910000  0.40470000  0.87420000  1.0 0.0199814232
C  C576  1  0.36560000  0.96090000  0.87420000  1.0 0.0289423662
C  C577  1  0.74300000  0.70760000  0.31147000  1.0 -0.0476085188
C  C578  1  0.29240000  0.03540000  0.31147000  1.0 -0.0396749091
C  C579  1  0.96460000  0.25700000  0.31147000  1.0 -0.0396749091
C  C580  1  0.25700000  0.29240000  0.81147000  1.0 -0.0396749091
C  C581  1  0.70760000  0.96460000  0.81147000  1.0 -0.0396749091
C  C582  1  0.03540000  0.74300000  0.81147000  1.0 -0.0476085188
C  C583  1  0.70760000  0.74300000  0.68853000  1.0 -0.0396749091
C  C584  1  0.03540000  0.29240000  0.68853000  1.0 -0.0476085188
C  C585  1  0.25700000  0.96460000  0.68853000  1.0 -0.0476085188
C  C586  1  0.29240000  0.25700000  0.18853000  1.0 -0.0396749091
C  C587  1  0.96460000  0.70760000  0.18853000  1.0 -0.0476085188
C  C588  1  0.74300000  0.03540000  0.18853000  1.0 -0.0396749091
C  C589  1  0.25700000  0.29240000  0.68853000  1.0 -0.0396749091
C  C590  1  0.70760000  0.96460000  0.68853000  1.0 -0.0396749091
C  C591  1  0.03540000  0.74300000  0.68853000  1.0 -0.0476085188
C  C592  1  0.74300000  0.70760000  0.18853000  1.0 -0.0476085188
C  C593  1  0.29240000  0.03540000  0.18853000  1.0 -0.0396749091
C  C594  1  0.96460000  0.25700000  0.18853000  1.0 -0.0396749091
C  C595  1  0.29240000  0.25700000  0.31147000  1.0 -0.0396749091
C  C596  1  0.96460000  0.70760000  0.31147000  1.0 -0.0476085188
C  C597  1  0.74300000  0.03540000  0.31147000  1.0 -0.0396749091
C  C598  1  0.70760000  0.74300000  0.81147000  1.0 -0.0396749091
C  C599  1  0.03540000  0.29240000  0.81147000  1.0 -0.0476085188
C  C600  1  0.25700000  0.96460000  0.81147000  1.0 -0.0476085188
C  C601  1  0.70160000  0.63320000  0.30848000  1.0 -0.0992189101
C  C602  1  0.36680000  0.06840000  0.30848000  1.0 -0.0992189101
C  C603  1  0.93160000  0.29840000  0.30848000  1.0 -0.0992189101
C  C604  1  0.29840000  0.36680000  0.80848000  1.0 -0.0992189101
C  C605  1  0.63320000  0.93160000  0.80848000  1.0 -0.0992189101
C  C606  1  0.06840000  0.70160000  0.80848000  1.0 -0.0992189101
C  C607  1  0.63320000  0.70160000  0.69152000  1.0 -0.0992189101
C  C608  1  0.06840000  0.36680000  0.69152000  1.0 -0.0992189101
C  C609  1  0.29840000  0.93160000  0.69152000  1.0 -0.0992189101
C  C610  1  0.36680000  0.29840000  0.19152000  1.0 -0.0992189101
C  C611  1  0.93160000  0.63320000  0.19152000  1.0 -0.0992189101
C  C612  1  0.70160000  0.06840000  0.19152000  1.0 -0.0992189101
C  C613  1  0.29840000  0.36680000  0.69152000  1.0 -0.0992189101
C  C614  1  0.63320000  0.93160000  0.69152000  1.0 -0.0992189101
C  C615  1  0.06840000  0.70160000  0.69152000  1.0 -0.0992189101
C  C616  1  0.70160000  0.63320000  0.19152000  1.0 -0.0992189101
C  C617  1  0.36680000  0.06840000  0.19152000  1.0 -0.0992189101
C  C618  1  0.93160000  0.29840000  0.19152000  1.0 -0.0992189101
C  C619  1  0.36680000  0.29840000  0.30848000  1.0 -0.0992189101
C  C620  1  0.93160000  0.63320000  0.30848000  1.0 -0.0992189101
C  C621  1  0.70160000  0.06840000  0.30848000  1.0 -0.0992189101
C  C622  1  0.63320000  0.70160000  0.80848000  1.0 -0.0992189101
C  C623  1  0.06840000  0.36680000  0.80848000  1.0 -0.0992189101
C  C624  1  0.29840000  0.93160000  0.80848000  1.0 -0.0992189101
C  C625  1  0.60630000  0.59170000  0.38741000  1.0 -0.0594615013
C  C626  1  0.40830000  0.01460000  0.38741000  1.0 -0.0594615013
C  C627  1  0.98540000  0.39370000  0.38741000  1.0 -0.0594615013
C  C628  1  0.39370000  0.40830000  0.88741000  1.0 -0.0594615013
C  C629  1  0.59170000  0.98540000  0.88741000  1.0 -0.0692919694
C  C630  1  0.01460000  0.60630000  0.88741000  1.0 -0.0692919694
C  C631  1  0.59170000  0.60630000  0.61259000  1.0 -0.0692919694
C  C632  1  0.01460000  0.40830000  0.61259000  1.0 -0.0594615013
C  C633  1  0.39370000  0.98540000  0.61259000  1.0 -0.0692919694
C  C634  1  0.40830000  0.39370000  0.11259000  1.0 -0.0594615013
C  C635  1  0.98540000  0.59170000  0.11259000  1.0 -0.0594615013
C  C636  1  0.60630000  0.01460000  0.11259000  1.0 -0.0594615013
C  C637  1  0.39370000  0.40830000  0.61259000  1.0 -0.0594615013
C  C638  1  0.59170000  0.98540000  0.61259000  1.0 -0.0692919694
C  C639  1  0.01460000  0.60630000  0.61259000  1.0 -0.0692919694
C  C640  1  0.60630000  0.59170000  0.11259000  1.0 -0.0594615013
C  C641  1  0.40830000  0.01460000  0.11259000  1.0 -0.0594615013
C  C642  1  0.98540000  0.39370000  0.11259000  1.0 -0.0594615013
C  C643  1  0.40830000  0.39370000  0.38741000  1.0 -0.0594615013
C  C644  1  0.98540000  0.59170000  0.38741000  1.0 -0.0594615013
C  C645  1  0.60630000  0.01460000  0.38741000  1.0 -0.0594615013
C  C646  1  0.59170000  0.60630000  0.88741000  1.0 -0.0692919694
C  C647  1  0.01460000  0.40830000  0.88741000  1.0 -0.0594615013
C  C648  1  0.39370000  0.98540000  0.88741000  1.0 -0.0692919694
C  C649  1  0.64610000  0.56530000  0.37266000  1.0 0.0098855297
C  C650  1  0.43470000  0.08080000  0.37266000  1.0 0.0022249279
C  C651  1  0.91920000  0.35390000  0.37266000  1.0 0.0098855297
C  C652  1  0.35390000  0.43470000  0.87266000  1.0 0.0098855297
C  C653  1  0.56530000  0.91920000  0.87266000  1.0 0.0022249279
C  C654  1  0.08080000  0.64610000  0.87266000  1.0 0.0022249279
C  C655  1  0.56530000  0.64610000  0.62734000  1.0 0.0022249279
C  C656  1  0.08080000  0.43470000  0.62734000  1.0 0.0098855297
C  C657  1  0.35390000  0.91920000  0.62734000  1.0 0.0022249279
C  C658  1  0.43470000  0.35390000  0.12734000  1.0 0.0022249279
C  C659  1  0.91920000  0.56530000  0.12734000  1.0 0.0098855297
C  C660  1  0.64610000  0.08080000  0.12734000  1.0 0.0098855297
C  C661  1  0.35390000  0.43470000  0.62734000  1.0 0.0098855297
C  C662  1  0.56530000  0.91920000  0.62734000  1.0 0.0022249279
C  C663  1  0.08080000  0.64610000  0.62734000  1.0 0.0022249279
C  C664  1  0.64610000  0.56530000  0.12734000  1.0 0.0098855297
C  C665  1  0.43470000  0.08080000  0.12734000  1.0 0.0022249279
C  C666  1  0.91920000  0.35390000  0.12734000  1.0 0.0098855297
C  C667  1  0.43470000  0.35390000  0.37266000  1.0 0.0022249279
C  C668  1  0.91920000  0.56530000  0.37266000  1.0 0.0098855297
C  C669  1  0.64610000  0.08080000  0.37266000  1.0 0.0098855297
C  C670  1  0.56530000  0.64610000  0.87266000  1.0 0.0022249279
C  C671  1  0.08080000  0.43470000  0.87266000  1.0 0.0098855297
C  C672  1  0.35390000  0.91920000  0.87266000  1.0 0.0022249279
C  C673  1  0.76580000  0.70920000  0.29638000  1.0 -0.0594615013
C  C674  1  0.29080000  0.05660000  0.29638000  1.0 -0.0594615013
C  C675  1  0.94340000  0.23420000  0.29638000  1.0 -0.0594615013
C  C676  1  0.23420000  0.29080000  0.79638000  1.0 -0.0594615013
C  C677  1  0.70920000  0.94340000  0.79638000  1.0 -0.0594615013
C  C678  1  0.05660000  0.76580000  0.79638000  1.0 -0.0594615013
C  C679  1  0.70920000  0.76580000  0.70362000  1.0 -0.0594615013
C  C680  1  0.05660000  0.29080000  0.70362000  1.0 -0.0594615013
C  C681  1  0.23420000  0.94340000  0.70362000  1.0 -0.0594615013
C  C682  1  0.29080000  0.23420000  0.20362000  1.0 -0.0594615013
C  C683  1  0.94340000  0.70920000  0.20362000  1.0 -0.0594615013
C  C684  1  0.76580000  0.05660000  0.20362000  1.0 -0.0594615013
C  C685  1  0.23420000  0.29080000  0.70362000  1.0 -0.0594615013
C  C686  1  0.70920000  0.94340000  0.70362000  1.0 -0.0594615013
C  C687  1  0.05660000  0.76580000  0.70362000  1.0 -0.0594615013
C  C688  1  0.76580000  0.70920000  0.20362000  1.0 -0.0594615013
C  C689  1  0.29080000  0.05660000  0.20362000  1.0 -0.0594615013
C  C690  1  0.94340000  0.23420000  0.20362000  1.0 -0.0594615013
C  C691  1  0.29080000  0.23420000  0.29638000  1.0 -0.0594615013
C  C692  1  0.94340000  0.70920000  0.29638000  1.0 -0.0594615013
C  C693  1  0.76580000  0.05660000  0.29638000  1.0 -0.0594615013
C  C694  1  0.70920000  0.76580000  0.79638000  1.0 -0.0594615013
C  C695  1  0.05660000  0.29080000  0.79638000  1.0 -0.0594615013
C  C696  1  0.23420000  0.94340000  0.79638000  1.0 -0.0594615013
C  C697  1  0.72440000  0.63480000  0.29338000  1.0 -0.0594615013
C  C698  1  0.36520000  0.08960000  0.29338000  1.0 -0.0594615013
C  C699  1  0.91040000  0.27560000  0.29338000  1.0 -0.0594615013
C  C700  1  0.27560000  0.36520000  0.79338000  1.0 -0.0594615013
C  C701  1  0.63480000  0.91040000  0.79338000  1.0 -0.0594615013
C  C702  1  0.08960000  0.72440000  0.79338000  1.0 -0.0594615013
C  C703  1  0.63480000  0.72440000  0.70662000  1.0 -0.0594615013
C  C704  1  0.08960000  0.36520000  0.70662000  1.0 -0.0594615013
C  C705  1  0.27560000  0.91040000  0.70662000  1.0 -0.0594615013
C  C706  1  0.36520000  0.27560000  0.20662000  1.0 -0.0594615013
C  C707  1  0.91040000  0.63480000  0.20662000  1.0 -0.0594615013
C  C708  1  0.72440000  0.08960000  0.20662000  1.0 -0.0594615013
C  C709  1  0.27560000  0.36520000  0.70662000  1.0 -0.0594615013
C  C710  1  0.63480000  0.91040000  0.70662000  1.0 -0.0594615013
C  C711  1  0.08960000  0.72440000  0.70662000  1.0 -0.0594615013
C  C712  1  0.72440000  0.63480000  0.20662000  1.0 -0.0594615013
C  C713  1  0.36520000  0.08960000  0.20662000  1.0 -0.0594615013
C  C714  1  0.91040000  0.27560000  0.20662000  1.0 -0.0594615013
C  C715  1  0.36520000  0.27560000  0.29338000  1.0 -0.0594615013
C  C716  1  0.91040000  0.63480000  0.29338000  1.0 -0.0594615013
C  C717  1  0.72440000  0.08960000  0.29338000  1.0 -0.0594615013
C  C718  1  0.63480000  0.72440000  0.79338000  1.0 -0.0594615013
C  C719  1  0.08960000  0.36520000  0.79338000  1.0 -0.0594615013
C  C720  1  0.27560000  0.91040000  0.79338000  1.0 -0.0594615013
C  C721  1  0.58990000  0.55790000  0.39908000  1.0 -0.0992189101
C  C722  1  0.44210000  0.03200000  0.39908000  1.0 -0.0992189101
C  C723  1  0.96800000  0.41010000  0.39908000  1.0 -0.0992189101
C  C724  1  0.41010000  0.44210000  0.89908000  1.0 -0.0992189101
C  C725  1  0.55790000  0.96800000  0.89908000  1.0 -0.0992189101
C  C726  1  0.03200000  0.58990000  0.89908000  1.0 -0.0992189101
C  C727  1  0.55790000  0.58990000  0.60092000  1.0 -0.0992189101
C  C728  1  0.03200000  0.44210000  0.60092000  1.0 -0.0992189101
C  C729  1  0.41010000  0.96800000  0.60092000  1.0 -0.0992189101
C  C730  1  0.44210000  0.41010000  0.10092000  1.0 -0.0992189101
C  C731  1  0.96800000  0.55790000  0.10092000  1.0 -0.0992189101
C  C732  1  0.58990000  0.03200000  0.10092000  1.0 -0.0992189101
C  C733  1  0.41010000  0.44210000  0.60092000  1.0 -0.0992189101
C  C734  1  0.55790000  0.96800000  0.60092000  1.0 -0.0992189101
C  C735  1  0.03200000  0.58990000  0.60092000  1.0 -0.0992189101
C  C736  1  0.58990000  0.55790000  0.10092000  1.0 -0.0992189101
C  C737  1  0.44210000  0.03200000  0.10092000  1.0 -0.0992189101
C  C738  1  0.96800000  0.41010000  0.10092000  1.0 -0.0992189101
C  C739  1  0.44210000  0.41010000  0.39908000  1.0 -0.0992189101
C  C740  1  0.96800000  0.55790000  0.39908000  1.0 -0.0992189101
C  C741  1  0.58990000  0.03200000  0.39908000  1.0 -0.0992189101
C  C742  1  0.55790000  0.58990000  0.89908000  1.0 -0.0992189101
C  C743  1  0.03200000  0.44210000  0.89908000  1.0 -0.0992189101
C  C744  1  0.41010000  0.96800000  0.89908000  1.0 -0.0992189101
C  C745  1  0.62970000  0.53150000  0.38433000  1.0 -0.0880332006
C  C746  1  0.46850000  0.09820000  0.38433000  1.0 -0.0814512193
C  C747  1  0.90180000  0.37030000  0.38433000  1.0 -0.0814512193
C  C748  1  0.37030000  0.46850000  0.88433000  1.0 -0.0880332006
C  C749  1  0.53150000  0.90180000  0.88433000  1.0 -0.0814512193
C  C750  1  0.09820000  0.62970000  0.88433000  1.0 -0.0814512193
C  C751  1  0.53150000  0.62970000  0.61567000  1.0 -0.0814512193
C  C752  1  0.09820000  0.46850000  0.61567000  1.0 -0.0880332006
C  C753  1  0.37030000  0.90180000  0.61567000  1.0 -0.0814512193
C  C754  1  0.46850000  0.37030000  0.11567000  1.0 -0.0814512193
C  C755  1  0.90180000  0.53150000  0.11567000  1.0 -0.0814512193
C  C756  1  0.62970000  0.09820000  0.11567000  1.0 -0.0880332006
C  C757  1  0.37030000  0.46850000  0.61567000  1.0 -0.0880332006
C  C758  1  0.53150000  0.90180000  0.61567000  1.0 -0.0814512193
C  C759  1  0.09820000  0.62970000  0.61567000  1.0 -0.0814512193
C  C760  1  0.62970000  0.53150000  0.11567000  1.0 -0.0880332006
C  C761  1  0.46850000  0.09820000  0.11567000  1.0 -0.0814512193
C  C762  1  0.90180000  0.37030000  0.11567000  1.0 -0.0814512193
C  C763  1  0.46850000  0.37030000  0.38433000  1.0 -0.0814512193
C  C764  1  0.90180000  0.53150000  0.38433000  1.0 -0.0814512193
C  C765  1  0.62970000  0.09820000  0.38433000  1.0 -0.0880332006
C  C766  1  0.53150000  0.62970000  0.88433000  1.0 -0.0814512193
C  C767  1  0.09820000  0.46850000  0.88433000  1.0 -0.0880332006
C  C768  1  0.37030000  0.90180000  0.88433000  1.0 -0.0814512193
C  C769  1  0.75650000  0.67280000  0.28734000  1.0 0.0289423662
C  C770  1  0.32720000  0.08370000  0.28734000  1.0 0.0289423662
C  C771  1  0.91630000  0.24350000  0.28734000  1.0 0.0289423662
C  C772  1  0.24350000  0.32720000  0.78734000  1.0 0.0289423662
C  C773  1  0.67280000  0.91630000  0.78734000  1.0 0.0289423662
C  C774  1  0.08370000  0.75650000  0.78734000  1.0 0.0289423662
C  C775  1  0.67280000  0.75650000  0.71266000  1.0 0.0289423662
C  C776  1  0.08370000  0.32720000  0.71266000  1.0 0.0289423662
C  C777  1  0.24350000  0.91630000  0.71266000  1.0 0.0289423662
C  C778  1  0.32720000  0.24350000  0.21266000  1.0 0.0289423662
C  C779  1  0.91630000  0.67280000  0.21266000  1.0 0.0289423662
C  C780  1  0.75650000  0.08370000  0.21266000  1.0 0.0289423662
C  C781  1  0.24350000  0.32720000  0.71266000  1.0 0.0289423662
C  C782  1  0.67280000  0.91630000  0.71266000  1.0 0.0289423662
C  C783  1  0.08370000  0.75650000  0.71266000  1.0 0.0289423662
C  C784  1  0.75650000  0.67280000  0.21266000  1.0 0.0289423662
C  C785  1  0.32720000  0.08370000  0.21266000  1.0 0.0289423662
C  C786  1  0.91630000  0.24350000  0.21266000  1.0 0.0289423662
C  C787  1  0.32720000  0.24350000  0.28734000  1.0 0.0289423662
C  C788  1  0.91630000  0.67280000  0.28734000  1.0 0.0289423662
C  C789  1  0.75650000  0.08370000  0.28734000  1.0 0.0289423662
C  C790  1  0.67280000  0.75650000  0.78734000  1.0 0.0289423662
C  C791  1  0.08370000  0.32720000  0.78734000  1.0 0.0289423662
C  C792  1  0.24350000  0.91630000  0.78734000  1.0 0.0289423662
C  C793  1  0.60160000  0.52790000  0.39754000  1.0 0.0289423662
C  C794  1  0.47210000  0.07370000  0.39754000  1.0 0.0289423662
C  C795  1  0.92630000  0.39840000  0.39754000  1.0 0.0289423662
C  C796  1  0.39840000  0.47210000  0.89754000  1.0 0.0289423662
C  C797  1  0.52790000  0.92630000  0.89754000  1.0 0.0289423662
C  C798  1  0.07370000  0.60160000  0.89754000  1.0 0.0289423662
C  C799  1  0.52790000  0.60160000  0.60246000  1.0 0.0289423662
C  C800  1  0.07370000  0.47210000  0.60246000  1.0 0.0289423662
C  C801  1  0.39840000  0.92630000  0.60246000  1.0 0.0289423662
C  C802  1  0.47210000  0.39840000  0.10246000  1.0 0.0289423662
C  C803  1  0.92630000  0.52790000  0.10246000  1.0 0.0289423662
C  C804  1  0.60160000  0.07370000  0.10246000  1.0 0.0289423662
C  C805  1  0.39840000  0.47210000  0.60246000  1.0 0.0289423662
C  C806  1  0.52790000  0.92630000  0.60246000  1.0 0.0289423662
C  C807  1  0.07370000  0.60160000  0.60246000  1.0 0.0289423662
C  C808  1  0.60160000  0.52790000  0.10246000  1.0 0.0289423662
C  C809  1  0.47210000  0.07370000  0.10246000  1.0 0.0289423662
C  C810  1  0.92630000  0.39840000  0.10246000  1.0 0.0289423662
C  C811  1  0.47210000  0.39840000  0.39754000  1.0 0.0289423662
C  C812  1  0.92630000  0.52790000  0.39754000  1.0 0.0289423662
C  C813  1  0.60160000  0.07370000  0.39754000  1.0 0.0289423662
C  C814  1  0.52790000  0.60160000  0.89754000  1.0 0.0289423662
C  C815  1  0.07370000  0.47210000  0.89754000  1.0 0.0289423662
C  C816  1  0.39840000  0.92630000  0.89754000  1.0 0.0289423662
C  C817  1  0.78830000  0.67800000  0.27300000  1.0 0.2566843173
C  C818  1  0.32200000  0.11030000  0.27300000  1.0 0.2527873888
C  C819  1  0.88970000  0.21170000  0.27300000  1.0 0.2566843173
C  C820  1  0.21170000  0.32200000  0.77300000  1.0 0.2527873888
C  C821  1  0.67800000  0.88970000  0.77300000  1.0 0.2566843173
C  C822  1  0.11030000  0.78830000  0.77300000  1.0 0.2527873888
C  C823  1  0.67800000  0.78830000  0.72700000  1.0 0.2566843173
C  C824  1  0.11030000  0.32200000  0.72700000  1.0 0.2527873888
C  C825  1  0.21170000  0.88970000  0.72700000  1.0 0.2566843173
C  C826  1  0.32200000  0.21170000  0.22700000  1.0 0.2527873888
C  C827  1  0.88970000  0.67800000  0.22700000  1.0 0.2566843173
C  C828  1  0.78830000  0.11030000  0.22700000  1.0 0.2566843173
C  C829  1  0.21170000  0.32200000  0.72700000  1.0 0.2527873888
C  C830  1  0.67800000  0.88970000  0.72700000  1.0 0.2566843173
C  C831  1  0.11030000  0.78830000  0.72700000  1.0 0.2527873888
C  C832  1  0.78830000  0.67800000  0.22700000  1.0 0.2566843173
C  C833  1  0.32200000  0.11030000  0.22700000  1.0 0.2527873888
C  C834  1  0.88970000  0.21170000  0.22700000  1.0 0.2566843173
C  C835  1  0.32200000  0.21170000  0.27300000  1.0 0.2527873888
C  C836  1  0.88970000  0.67800000  0.27300000  1.0 0.2566843173
C  C837  1  0.78830000  0.11030000  0.27300000  1.0 0.2566843173
C  C838  1  0.67800000  0.78830000  0.77300000  1.0 0.2566843173
C  C839  1  0.11030000  0.32200000  0.77300000  1.0 0.2527873888
C  C840  1  0.21170000  0.88970000  0.77300000  1.0 0.2566843173
C  C841  1  0.59200000  0.49530000  0.41140000  1.0 0.1509289446
C  C842  1  0.50470000  0.09670000  0.41140000  1.0 0.1509289446
C  C843  1  0.90330000  0.40800000  0.41140000  1.0 0.1509289446
C  C844  1  0.40800000  0.50470000  0.91140000  1.0 0.1509289446
C  C845  1  0.49530000  0.90330000  0.91140000  1.0 0.1509289446
C  C846  1  0.09670000  0.59200000  0.91140000  1.0 0.1509289446
C  C847  1  0.49530000  0.59200000  0.58860000  1.0 0.1509289446
C  C848  1  0.09670000  0.50470000  0.58860000  1.0 0.1509289446
C  C849  1  0.40800000  0.90330000  0.58860000  1.0 0.1509289446
C  C850  1  0.50470000  0.40800000  0.08860000  1.0 0.1509289446
C  C851  1  0.90330000  0.49530000  0.08860000  1.0 0.1509289446
C  C852  1  0.59200000  0.09670000  0.08860000  1.0 0.1509289446
C  C853  1  0.40800000  0.50470000  0.58860000  1.0 0.1509289446
C  C854  1  0.49530000  0.90330000  0.58860000  1.0 0.1509289446
C  C855  1  0.09670000  0.59200000  0.58860000  1.0 0.1509289446
C  C856  1  0.59200000  0.49530000  0.08860000  1.0 0.1509289446
C  C857  1  0.50470000  0.09670000  0.08860000  1.0 0.1509289446
C  C858  1  0.90330000  0.40800000  0.08860000  1.0 0.1509289446
C  C859  1  0.50470000  0.40800000  0.41140000  1.0 0.1509289446
C  C860  1  0.90330000  0.49530000  0.41140000  1.0 0.1509289446
C  C861  1  0.59200000  0.09670000  0.41140000  1.0 0.1509289446
C  C862  1  0.49530000  0.59200000  0.91140000  1.0 0.1509289446
C  C863  1  0.09670000  0.50470000  0.91140000  1.0 0.1509289446
C  C864  1  0.40800000  0.90330000  0.91140000  1.0 0.1509289446
C  C865  1  0.71560000  0.68260000  0.34048000  1.0 0.0409008468
C  C866  1  0.31740000  0.03300000  0.34048000  1.0 0.0409008468
C  C867  1  0.96700000  0.28440000  0.34048000  1.0 0.0409008468
C  C868  1  0.28440000  0.31740000  0.84048000  1.0 0.0409008468
C  C869  1  0.68260000  0.96700000  0.84048000  1.0 0.0409008468
C  C870  1  0.03300000  0.71560000  0.84048000  1.0 0.0409008468
C  C871  1  0.68260000  0.71560000  0.65952000  1.0 0.0409008468
C  C872  1  0.03300000  0.31740000  0.65952000  1.0 0.0409008468
C  C873  1  0.28440000  0.96700000  0.65952000  1.0 0.0409008468
C  C874  1  0.31740000  0.28440000  0.15952000  1.0 0.0409008468
C  C875  1  0.96700000  0.68260000  0.15952000  1.0 0.0409008468
C  C876  1  0.71560000  0.03300000  0.15952000  1.0 0.0409008468
C  C877  1  0.28440000  0.31740000  0.65952000  1.0 0.0409008468
C  C878  1  0.68260000  0.96700000  0.65952000  1.0 0.0409008468
C  C879  1  0.03300000  0.71560000  0.65952000  1.0 0.0409008468
C  C880  1  0.71560000  0.68260000  0.15952000  1.0 0.0409008468
C  C881  1  0.31740000  0.03300000  0.15952000  1.0 0.0409008468
C  C882  1  0.96700000  0.28440000  0.15952000  1.0 0.0409008468
C  C883  1  0.31740000  0.28440000  0.34048000  1.0 0.0409008468
C  C884  1  0.96700000  0.68260000  0.34048000  1.0 0.0409008468
C  C885  1  0.71560000  0.03300000  0.34048000  1.0 0.0409008468
C  C886  1  0.68260000  0.71560000  0.84048000  1.0 0.0409008468
C  C887  1  0.03300000  0.31740000  0.84048000  1.0 0.0409008468
C  C888  1  0.28440000  0.96700000  0.84048000  1.0 0.0409008468
C  C889  1  0.71640000  0.71860000  0.34627000  1.0 -0.1285118842
C  C890  1  0.28140000  0.99780000  0.34627000  1.0 -0.1285118842
C  C891  1  0.00220000  0.28360000  0.34627000  1.0 -0.1285118842
C  C892  1  0.28360000  0.28140000  0.84627000  1.0 -0.1285118842
C  C893  1  0.71860000  0.00220000  0.84627000  1.0 -0.1285118842
C  C894  1  0.99780000  0.71640000  0.84627000  1.0 -0.1285118842
C  C895  1  0.71860000  0.71640000  0.65373000  1.0 -0.1285118842
C  C896  1  0.99780000  0.28140000  0.65373000  1.0 -0.1285118842
C  C897  1  0.28360000  0.00220000  0.65373000  1.0 -0.1285118842
C  C898  1  0.28140000  0.28360000  0.15373000  1.0 -0.1285118842
C  C899  1  0.00220000  0.71860000  0.15373000  1.0 -0.1285118842
C  C900  1  0.71640000  0.99780000  0.15373000  1.0 -0.1285118842
C  C901  1  0.28360000  0.28140000  0.65373000  1.0 -0.1285118842
C  C902  1  0.71860000  0.00220000  0.65373000  1.0 -0.1285118842
C  C903  1  0.99780000  0.71640000  0.65373000  1.0 -0.1285118842
C  C904  1  0.71640000  0.71860000  0.15373000  1.0 -0.1285118842
C  C905  1  0.28140000  0.99780000  0.15373000  1.0 -0.1285118842
C  C906  1  0.00220000  0.28360000  0.15373000  1.0 -0.1285118842
C  C907  1  0.28140000  0.28360000  0.34627000  1.0 -0.1285118842
C  C908  1  0.00220000  0.71860000  0.34627000  1.0 -0.1285118842
C  C909  1  0.71640000  0.99780000  0.34627000  1.0 -0.1285118842
C  C910  1  0.71860000  0.71640000  0.84627000  1.0 -0.1285118842
C  C911  1  0.99780000  0.28140000  0.84627000  1.0 -0.1285118842
C  C912  1  0.28360000  0.00220000  0.84627000  1.0 -0.1285118842
C  C913  1  0.69850000  0.71890000  0.36261000  1.0 0.0022249279
C  C914  1  0.28110000  0.97960000  0.36261000  1.0 0.0022249279
C  C915  1  0.02040000  0.30150000  0.36261000  1.0 0.0022249279
C  C916  1  0.30150000  0.28110000  0.86261000  1.0 0.0022249279
C  C917  1  0.71890000  0.02040000  0.86261000  1.0 0.0022249279
C  C918  1  0.97960000  0.69850000  0.86261000  1.0 0.0022249279
C  C919  1  0.71890000  0.69850000  0.63739000  1.0 0.0022249279
C  C920  1  0.97960000  0.28110000  0.63739000  1.0 0.0022249279
C  C921  1  0.30150000  0.02040000  0.63739000  1.0 0.0022249279
C  C922  1  0.28110000  0.30150000  0.13739000  1.0 -0.0023782535
C  C923  1  0.02040000  0.71890000  0.13739000  1.0 -0.0023782535
C  C924  1  0.69850000  0.97960000  0.13739000  1.0 0.0022249279
C  C925  1  0.30150000  0.28110000  0.63739000  1.0 0.0022249279
C  C926  1  0.71890000  0.02040000  0.63739000  1.0 0.0022249279
C  C927  1  0.97960000  0.69850000  0.63739000  1.0 0.0022249279
C  C928  1  0.69850000  0.71890000  0.13739000  1.0 0.0022249279
C  C929  1  0.28110000  0.97960000  0.13739000  1.0 -0.0023782535
C  C930  1  0.02040000  0.30150000  0.13739000  1.0 0.0022249279
C  C931  1  0.28110000  0.30150000  0.36261000  1.0 0.0022249279
C  C932  1  0.02040000  0.71890000  0.36261000  1.0 0.0022249279
C  C933  1  0.69850000  0.97960000  0.36261000  1.0 0.0022249279
C  C934  1  0.71890000  0.69850000  0.86261000  1.0 0.0022249279
C  C935  1  0.97960000  0.28110000  0.86261000  1.0 0.0022249279
C  C936  1  0.30150000  0.02040000  0.86261000  1.0 0.0022249279
C  C937  1  0.67970000  0.68330000  0.37316000  1.0 -0.0992189101
C  C938  1  0.31670000  0.99640000  0.37316000  1.0 -0.0992189101
C  C939  1  0.00360000  0.32030000  0.37316000  1.0 -0.1104105449
C  C940  1  0.32030000  0.31670000  0.87316000  1.0 -0.0992189101
C  C941  1  0.68330000  0.00360000  0.87316000  1.0 -0.0992189101
C  C942  1  0.99640000  0.67970000  0.87316000  1.0 -0.0992189101
C  C943  1  0.68330000  0.67970000  0.62684000  1.0 -0.0992189101
C  C944  1  0.99640000  0.31670000  0.62684000  1.0 -0.0992189101
C  C945  1  0.32030000  0.00360000  0.62684000  1.0 -0.0992189101
C  C946  1  0.31670000  0.32030000  0.12684000  1.0 -0.0992189101
C  C947  1  0.00360000  0.68330000  0.12684000  1.0 -0.0992189101
C  C948  1  0.67970000  0.99640000  0.12684000  1.0 -0.0992189101
C  C949  1  0.32030000  0.31670000  0.62684000  1.0 -0.0992189101
C  C950  1  0.68330000  0.00360000  0.62684000  1.0 -0.0992189101
C  C951  1  0.99640000  0.67970000  0.62684000  1.0 -0.0992189101
C  C952  1  0.67970000  0.68330000  0.12684000  1.0 -0.0992189101
C  C953  1  0.31670000  0.99640000  0.12684000  1.0 -0.0992189101
C  C954  1  0.00360000  0.32030000  0.12684000  1.0 -0.1104105449
C  C955  1  0.31670000  0.32030000  0.37316000  1.0 -0.0992189101
C  C956  1  0.00360000  0.68330000  0.37316000  1.0 -0.1104105449
C  C957  1  0.67970000  0.99640000  0.37316000  1.0 -0.0992189101
C  C958  1  0.68330000  0.67970000  0.87316000  1.0 -0.0992189101
C  C959  1  0.99640000  0.31670000  0.87316000  1.0 -0.0992189101
C  C960  1  0.32030000  0.00360000  0.87316000  1.0 -0.0992189101
C  C961  1  0.67890000  0.64730000  0.36738000  1.0 0.0289423662
C  C962  1  0.35270000  0.03160000  0.36738000  1.0 0.0289423662
C  C963  1  0.96840000  0.32110000  0.36738000  1.0 0.0289423662
C  C964  1  0.32110000  0.35270000  0.86738000  1.0 0.0289423662
C  C965  1  0.64730000  0.96840000  0.86738000  1.0 0.0409008468
C  C966  1  0.03160000  0.67890000  0.86738000  1.0 0.0289423662
C  C967  1  0.64730000  0.67890000  0.63262000  1.0 0.0289423662
C  C968  1  0.03160000  0.35270000  0.63262000  1.0 0.0289423662
C  C969  1  0.32110000  0.96840000  0.63262000  1.0 0.0289423662
C  C970  1  0.35270000  0.32110000  0.13262000  1.0 0.0289423662
C  C971  1  0.96840000  0.64730000  0.13262000  1.0 0.0289423662
C  C972  1  0.67890000  0.03160000  0.13262000  1.0 0.0289423662
C  C973  1  0.32110000  0.35270000  0.63262000  1.0 0.0289423662
C  C974  1  0.64730000  0.96840000  0.63262000  1.0 0.0409008468
C  C975  1  0.03160000  0.67890000  0.63262000  1.0 0.0289423662
C  C976  1  0.67890000  0.64730000  0.13262000  1.0 0.0289423662
C  C977  1  0.35270000  0.03160000  0.13262000  1.0 0.0289423662
C  C978  1  0.96840000  0.32110000  0.13262000  1.0 0.0289423662
C  C979  1  0.35270000  0.32110000  0.36738000  1.0 0.0289423662
C  C980  1  0.96840000  0.64730000  0.36738000  1.0 0.0289423662
C  C981  1  0.67890000  0.03160000  0.36738000  1.0 0.0289423662
C  C982  1  0.64730000  0.67890000  0.86738000  1.0 0.0289423662
C  C983  1  0.03160000  0.35270000  0.86738000  1.0 0.0289423662
C  C984  1  0.32110000  0.96840000  0.86738000  1.0 0.0289423662
C  C985  1  0.69680000  0.64700000  0.35104000  1.0 -0.0692919694
C  C986  1  0.35300000  0.04980000  0.35104000  1.0 -0.0814512193
C  C987  1  0.95020000  0.30320000  0.35104000  1.0 -0.0692919694
C  C988  1  0.30320000  0.35300000  0.85104000  1.0 -0.0692919694
C  C989  1  0.64700000  0.95020000  0.85104000  1.0 -0.0692919694
C  C990  1  0.04980000  0.69680000  0.85104000  1.0 -0.0814512193
C  C991  1  0.64700000  0.69680000  0.64896000  1.0 -0.0692919694
C  C992  1  0.04980000  0.35300000  0.64896000  1.0 -0.0692919694
C  C993  1  0.30320000  0.95020000  0.64896000  1.0 -0.0814512193
C  C994  1  0.35300000  0.30320000  0.14896000  1.0 -0.0814512193
C  C995  1  0.95020000  0.64700000  0.14896000  1.0 -0.0692919694
C  C996  1  0.69680000  0.04980000  0.14896000  1.0 -0.0814512193
C  C997  1  0.30320000  0.35300000  0.64896000  1.0 -0.0692919694
C  C998  1  0.64700000  0.95020000  0.64896000  1.0 -0.0692919694
C  C999  1  0.04980000  0.69680000  0.64896000  1.0 -0.0814512193
C  C1000  1  0.69680000  0.64700000  0.14896000  1.0 -0.0692919694
C  C1001  1  0.35300000  0.04980000  0.14896000  1.0 -0.0814512193
C  C1002  1  0.95020000  0.30320000  0.14896000  1.0 -0.0692919694
C  C1003  1  0.35300000  0.30320000  0.35104000  1.0 -0.0692919694
C  C1004  1  0.95020000  0.64700000  0.35104000  1.0 -0.0692919694
C  C1005  1  0.69680000  0.04980000  0.35104000  1.0 -0.0814512193
C  C1006  1  0.64700000  0.69680000  0.85104000  1.0 -0.0692919694
C  C1007  1  0.04980000  0.35300000  0.85104000  1.0 -0.0692919694
C  C1008  1  0.30320000  0.95020000  0.85104000  1.0 -0.0814512193
C  C1009  1  0.69570000  0.75500000  0.36880000  1.0 0.0022249279
C  C1010  1  0.24500000  0.94070000  0.36880000  1.0 0.0022249279
C  C1011  1  0.05930000  0.30430000  0.36880000  1.0 0.0022249279
C  C1012  1  0.30430000  0.24500000  0.86880000  1.0 0.0022249279
C  C1013  1  0.75500000  0.05930000  0.86880000  1.0 0.0022249279
C  C1014  1  0.94070000  0.69570000  0.86880000  1.0 0.0022249279
C  C1015  1  0.75500000  0.69570000  0.63120000  1.0 0.0022249279
C  C1016  1  0.94070000  0.24500000  0.63120000  1.0 0.0022249279
C  C1017  1  0.30430000  0.05930000  0.63120000  1.0 0.0022249279
C  C1018  1  0.24500000  0.30430000  0.13120000  1.0 0.0022249279
C  C1019  1  0.05930000  0.75500000  0.13120000  1.0 0.0022249279
C  C1020  1  0.69570000  0.94070000  0.13120000  1.0 0.0022249279
C  C1021  1  0.30430000  0.24500000  0.63120000  1.0 0.0022249279
C  C1022  1  0.75500000  0.05930000  0.63120000  1.0 0.0022249279
C  C1023  1  0.94070000  0.69570000  0.63120000  1.0 0.0022249279
C  C1024  1  0.69570000  0.75500000  0.13120000  1.0 0.0022249279
C  C1025  1  0.24500000  0.94070000  0.13120000  1.0 0.0022249279
C  C1026  1  0.05930000  0.30430000  0.13120000  1.0 0.0022249279
C  C1027  1  0.24500000  0.30430000  0.36880000  1.0 0.0022249279
C  C1028  1  0.05930000  0.75500000  0.36880000  1.0 0.0022249279
C  C1029  1  0.69570000  0.94070000  0.36880000  1.0 0.0022249279
C  C1030  1  0.75500000  0.69570000  0.86880000  1.0 0.0022249279
C  C1031  1  0.94070000  0.24500000  0.86880000  1.0 0.0022249279
C  C1032  1  0.30430000  0.05930000  0.86880000  1.0 0.0022249279
C  C1033  1  0.69970000  0.78520000  0.37630000  1.0 -0.0880332006
C  C1034  1  0.21480000  0.91450000  0.37630000  1.0 -0.0880332006
C  C1035  1  0.08550000  0.30030000  0.37630000  1.0 -0.0880332006
C  C1036  1  0.30030000  0.21480000  0.87630000  1.0 -0.0880332006
C  C1037  1  0.78520000  0.08550000  0.87630000  1.0 -0.0880332006
C  C1038  1  0.91450000  0.69970000  0.87630000  1.0 -0.0992189101
C  C1039  1  0.78520000  0.69970000  0.62370000  1.0 -0.0880332006
C  C1040  1  0.91450000  0.21480000  0.62370000  1.0 -0.0880332006
C  C1041  1  0.30030000  0.08550000  0.62370000  1.0 -0.0880332006
C  C1042  1  0.21480000  0.30030000  0.12370000  1.0 -0.0880332006
C  C1043  1  0.08550000  0.78520000  0.12370000  1.0 -0.0880332006
C  C1044  1  0.69970000  0.91450000  0.12370000  1.0 -0.0880332006
C  C1045  1  0.30030000  0.21480000  0.62370000  1.0 -0.0880332006
C  C1046  1  0.78520000  0.08550000  0.62370000  1.0 -0.0880332006
C  C1047  1  0.91450000  0.69970000  0.62370000  1.0 -0.0992189101
C  C1048  1  0.69970000  0.78520000  0.12370000  1.0 -0.0880332006
C  C1049  1  0.21480000  0.91450000  0.12370000  1.0 -0.0880332006
C  C1050  1  0.08550000  0.30030000  0.12370000  1.0 -0.0880332006
C  C1051  1  0.21480000  0.30030000  0.37630000  1.0 -0.0880332006
C  C1052  1  0.08550000  0.78520000  0.37630000  1.0 -0.0880332006
C  C1053  1  0.69970000  0.91450000  0.37630000  1.0 -0.0880332006
C  C1054  1  0.78520000  0.69970000  0.87630000  1.0 -0.0880332006
C  C1055  1  0.91450000  0.21480000  0.87630000  1.0 -0.0880332006
C  C1056  1  0.30030000  0.08550000  0.87630000  1.0 -0.0880332006
C  C1057  1  0.69450000  0.81700000  0.38460000  1.0 0.0506574234
C  C1058  1  0.18300000  0.87750000  0.38460000  1.0 0.0506574234
C  C1059  1  0.12250000  0.30550000  0.38460000  1.0 0.0506574234
C  C1060  1  0.30550000  0.18300000  0.88460000  1.0 0.0506574234
C  C1061  1  0.81700000  0.12250000  0.88460000  1.0 0.0506574234
C  C1062  1  0.87750000  0.69450000  0.88460000  1.0 0.0506574234
C  C1063  1  0.81700000  0.69450000  0.61540000  1.0 0.0506574234
C  C1064  1  0.87750000  0.18300000  0.61540000  1.0 0.0506574234
C  C1065  1  0.30550000  0.12250000  0.61540000  1.0 0.0506574234
C  C1066  1  0.18300000  0.30550000  0.11540000  1.0 0.0506574234
C  C1067  1  0.12250000  0.81700000  0.11540000  1.0 0.0506574234
C  C1068  1  0.69450000  0.87750000  0.11540000  1.0 0.0506574234
C  C1069  1  0.30550000  0.18300000  0.61540000  1.0 0.0506574234
C  C1070  1  0.81700000  0.12250000  0.61540000  1.0 0.0506574234
C  C1071  1  0.87750000  0.69450000  0.61540000  1.0 0.0506574234
C  C1072  1  0.69450000  0.81700000  0.11540000  1.0 0.0506574234
C  C1073  1  0.18300000  0.87750000  0.11540000  1.0 0.0506574234
C  C1074  1  0.12250000  0.30550000  0.11540000  1.0 0.0506574234
C  C1075  1  0.18300000  0.30550000  0.38460000  1.0 0.0506574234
C  C1076  1  0.12250000  0.81700000  0.38460000  1.0 0.0506574234
C  C1077  1  0.69450000  0.87750000  0.38460000  1.0 0.0506574234
C  C1078  1  0.81700000  0.69450000  0.88460000  1.0 0.0506574234
C  C1079  1  0.87750000  0.18300000  0.88460000  1.0 0.0506574234
C  C1080  1  0.30550000  0.12250000  0.88460000  1.0 0.0506574234
C  C1081  1  0.70190000  0.85095000  0.37630000  1.0 -0.1186590055
C  C1082  1  0.14905000  0.85095000  0.37630000  1.0 -0.1104105449
C  C1083  1  0.14905000  0.29810000  0.37630000  1.0 -0.1104105449
C  C1084  1  0.29810000  0.14905000  0.87630000  1.0 -0.1104105449
C  C1085  1  0.85095000  0.14905000  0.87630000  1.0 -0.1104105449
C  C1086  1  0.85095000  0.70190000  0.87630000  1.0 -0.1186590055
C  C1087  1  0.85095000  0.70190000  0.62370000  1.0 -0.1186590055
C  C1088  1  0.85095000  0.14905000  0.62370000  1.0 -0.1104105449
C  C1089  1  0.29810000  0.14905000  0.62370000  1.0 -0.1104105449
C  C1090  1  0.14905000  0.29810000  0.12370000  1.0 -0.1104105449
C  C1091  1  0.14905000  0.85095000  0.12370000  1.0 -0.1104105449
C  C1092  1  0.70190000  0.85095000  0.12370000  1.0 -0.1104105449
C  C1093  1  0.67890000  0.80570000  0.40220000  1.0 -0.1497944048
C  C1094  1  0.19430000  0.87320000  0.40220000  1.0 -0.1497944048
C  C1095  1  0.12680000  0.32110000  0.40220000  1.0 -0.1497944048
C  C1096  1  0.32110000  0.19430000  0.90220000  1.0 -0.1497944048
C  C1097  1  0.80570000  0.12680000  0.90220000  1.0 -0.1497944048
C  C1098  1  0.87320000  0.67890000  0.90220000  1.0 -0.1497944048
C  C1099  1  0.80570000  0.67890000  0.59780000  1.0 -0.1497944048
C  C1100  1  0.87320000  0.19430000  0.59780000  1.0 -0.1497944048
C  C1101  1  0.32110000  0.12680000  0.59780000  1.0 -0.1497944048
C  C1102  1  0.19430000  0.32110000  0.09780000  1.0 -0.1497944048
C  C1103  1  0.12680000  0.80570000  0.09780000  1.0 -0.1497944048
C  C1104  1  0.67890000  0.87320000  0.09780000  1.0 -0.1497944048
C  C1105  1  0.32110000  0.19430000  0.59780000  1.0 -0.1497944048
C  C1106  1  0.80570000  0.12680000  0.59780000  1.0 -0.1497944048
C  C1107  1  0.87320000  0.67890000  0.59780000  1.0 -0.1497944048
C  C1108  1  0.67890000  0.80570000  0.09780000  1.0 -0.1497944048
C  C1109  1  0.19430000  0.87320000  0.09780000  1.0 -0.1497944048
C  C1110  1  0.12680000  0.32110000  0.09780000  1.0 -0.1497944048
C  C1111  1  0.19430000  0.32110000  0.40220000  1.0 -0.1497944048
C  C1112  1  0.12680000  0.80570000  0.40220000  1.0 -0.1497944048
C  C1113  1  0.67890000  0.87320000  0.40220000  1.0 -0.1497944048
C  C1114  1  0.80570000  0.67890000  0.90220000  1.0 -0.1497944048
C  C1115  1  0.87320000  0.19430000  0.90220000  1.0 -0.1497944048
C  C1116  1  0.32110000  0.12680000  0.90220000  1.0 -0.1497944048
C  C1117  1  0.67110000  0.83555000  0.41090000  1.0 0.0409008468
C  C1118  1  0.16445000  0.83555000  0.41090000  1.0 0.0409008468
C  C1119  1  0.16445000  0.32890000  0.41090000  1.0 0.0409008468
C  C1120  1  0.32890000  0.16445000  0.91090000  1.0 0.0409008468
C  C1121  1  0.83555000  0.16445000  0.91090000  1.0 0.0409008468
C  C1122  1  0.83555000  0.67110000  0.91090000  1.0 0.0409008468
C  C1123  1  0.83555000  0.67110000  0.58910000  1.0 0.0409008468
C  C1124  1  0.83555000  0.16445000  0.58910000  1.0 0.0409008468
C  C1125  1  0.32890000  0.16445000  0.58910000  1.0 0.0409008468
C  C1126  1  0.16445000  0.32890000  0.08910000  1.0 0.0409008468
C  C1127  1  0.16445000  0.83555000  0.08910000  1.0 0.0409008468
C  C1128  1  0.67110000  0.83555000  0.08910000  1.0 0.0409008468
C  C1129  1  0.65580000  0.82790000  0.42860000  1.0 -0.1285118842
C  C1130  1  0.17210000  0.82790000  0.42860000  1.0 -0.1285118842
C  C1131  1  0.17210000  0.34420000  0.42860000  1.0 -0.1285118842
C  C1132  1  0.34420000  0.17210000  0.92860000  1.0 -0.1285118842
C  C1133  1  0.82790000  0.17210000  0.92860000  1.0 -0.1285118842
C  C1134  1  0.82790000  0.65580000  0.92860000  1.0 -0.1285118842
C  C1135  1  0.82790000  0.65580000  0.57140000  1.0 -0.1285118842
C  C1136  1  0.82790000  0.17210000  0.57140000  1.0 -0.1285118842
C  C1137  1  0.34420000  0.17210000  0.57140000  1.0 -0.1285118842
C  C1138  1  0.17210000  0.34420000  0.07140000  1.0 -0.1285118842
C  C1139  1  0.17210000  0.82790000  0.07140000  1.0 -0.1285118842
C  C1140  1  0.65580000  0.82790000  0.07140000  1.0 -0.1285118842
C  C1141  1  0.63410000  0.81705000  0.44120000  1.0 -0.0692919694
C  C1142  1  0.18295000  0.81705000  0.44120000  1.0 -0.0692919694
C  C1143  1  0.18295000  0.36590000  0.44120000  1.0 -0.0692919694
C  C1144  1  0.36590000  0.18295000  0.94120000  1.0 -0.0692919694
C  C1145  1  0.81705000  0.18295000  0.94120000  1.0 -0.0692919694
C  C1146  1  0.81705000  0.63410000  0.94120000  1.0 -0.0692919694
C  C1147  1  0.81705000  0.63410000  0.55880000  1.0 -0.0692919694
C  C1148  1  0.81705000  0.18295000  0.55880000  1.0 -0.0692919694
C  C1149  1  0.36590000  0.18295000  0.55880000  1.0 -0.0692919694
C  C1150  1  0.18295000  0.36590000  0.05880000  1.0 -0.0692919694
C  C1151  1  0.18295000  0.81705000  0.05880000  1.0 -0.0692919694
C  C1152  1  0.63410000  0.81705000  0.05880000  1.0 -0.0692919694
C  C1153  1  0.57150000  0.78575000  0.49100000  1.0 0.0199814232
C  C1154  1  0.21425000  0.78575000  0.49100000  1.0 0.0199814232
C  C1155  1  0.21425000  0.42850000  0.49100000  1.0 0.0199814232
C  C1156  1  0.42850000  0.21425000  0.99100000  1.0 0.0289423662
C  C1157  1  0.78575000  0.21425000  0.99100000  1.0 0.0289423662
C  C1158  1  0.78575000  0.57150000  0.99100000  1.0 0.0289423662
C  C1159  1  0.78575000  0.57150000  0.50900000  1.0 0.0199814232
C  C1160  1  0.78575000  0.21425000  0.50900000  1.0 0.0289423662
C  C1161  1  0.42850000  0.21425000  0.50900000  1.0 0.0289423662
C  C1162  1  0.21425000  0.42850000  0.00900000  1.0 0.0199814232
C  C1163  1  0.21425000  0.78575000  0.00900000  1.0 0.0199814232
C  C1164  1  0.57150000  0.78575000  0.00900000  1.0 0.0199814232
C  C1165  1  0.60920000  0.82210000  0.48920000  1.0 -0.1497944048
C  C1166  1  0.17790000  0.78710000  0.48920000  1.0 -0.1497944048
C  C1167  1  0.21290000  0.39080000  0.48920000  1.0 -0.1497944048
C  C1168  1  0.39080000  0.17790000  0.98920000  1.0 -0.1497944048
C  C1169  1  0.82210000  0.21290000  0.98920000  1.0 -0.1497944048
C  C1170  1  0.78710000  0.60920000  0.98920000  1.0 -0.1497944048
C  C1171  1  0.82210000  0.60920000  0.51080000  1.0 -0.1497944048
C  C1172  1  0.78710000  0.17790000  0.51080000  1.0 -0.1497944048
C  C1173  1  0.39080000  0.21290000  0.51080000  1.0 -0.1497944048
C  C1174  1  0.17790000  0.39080000  0.01080000  1.0 -0.1497944048
C  C1175  1  0.21290000  0.82210000  0.01080000  1.0 -0.1497944048
C  C1176  1  0.60920000  0.78710000  0.01080000  1.0 -0.1497944048
C  C1177  1  0.39080000  0.17790000  0.51080000  1.0 -0.1497944048
C  C1178  1  0.82210000  0.21290000  0.51080000  1.0 -0.1497944048
C  C1179  1  0.78710000  0.60920000  0.51080000  1.0 -0.1497944048
C  C1180  1  0.60920000  0.82210000  0.01080000  1.0 -0.1497944048
C  C1181  1  0.17790000  0.78710000  0.01080000  1.0 -0.1497944048
C  C1182  1  0.21290000  0.39080000  0.01080000  1.0 -0.1497944048
C  C1183  1  0.17790000  0.39080000  0.48920000  1.0 -0.1497944048
C  C1184  1  0.21290000  0.82210000  0.48920000  1.0 -0.1497944048
C  C1185  1  0.60920000  0.78710000  0.48920000  1.0 -0.1497944048
C  C1186  1  0.82210000  0.60920000  0.98920000  1.0 -0.1497944048
C  C1187  1  0.78710000  0.17790000  0.98920000  1.0 -0.1497944048
C  C1188  1  0.39080000  0.21290000  0.98920000  1.0 -0.1497944048
C  C1189  1  0.63060000  0.83150000  0.47300000  1.0 -0.0814512193
C  C1190  1  0.16850000  0.79910000  0.47300000  1.0 -0.0814512193
C  C1191  1  0.20090000  0.36940000  0.47300000  1.0 -0.0880332006
C  C1192  1  0.36940000  0.16850000  0.97300000  1.0 -0.0814512193
C  C1193  1  0.83150000  0.20090000  0.97300000  1.0 -0.0814512193
C  C1194  1  0.79910000  0.63060000  0.97300000  1.0 -0.0814512193
C  C1195  1  0.83150000  0.63060000  0.52700000  1.0 -0.0880332006
C  C1196  1  0.79910000  0.16850000  0.52700000  1.0 -0.0880332006
C  C1197  1  0.36940000  0.20090000  0.52700000  1.0 -0.0814512193
C  C1198  1  0.16850000  0.36940000  0.02700000  1.0 -0.0880332006
C  C1199  1  0.20090000  0.83150000  0.02700000  1.0 -0.0880332006
C  C1200  1  0.63060000  0.79910000  0.02700000  1.0 -0.0814512193
C  C1201  1  0.36940000  0.16850000  0.52700000  1.0 -0.0814512193
C  C1202  1  0.83150000  0.20090000  0.52700000  1.0 -0.0814512193
C  C1203  1  0.79910000  0.63060000  0.52700000  1.0 -0.0814512193
C  C1204  1  0.63060000  0.83150000  0.02700000  1.0 -0.0814512193
C  C1205  1  0.16850000  0.79910000  0.02700000  1.0 -0.0814512193
C  C1206  1  0.20090000  0.36940000  0.02700000  1.0 -0.0880332006
C  C1207  1  0.16850000  0.36940000  0.47300000  1.0 -0.0880332006
C  C1208  1  0.20090000  0.83150000  0.47300000  1.0 -0.0880332006
C  C1209  1  0.63060000  0.79910000  0.47300000  1.0 -0.0814512193
C  C1210  1  0.83150000  0.63060000  0.97300000  1.0 -0.0880332006
C  C1211  1  0.79910000  0.16850000  0.97300000  1.0 -0.0880332006
C  C1212  1  0.36940000  0.20090000  0.97300000  1.0 -0.0814512193
C  C1213  1  0.61440000  0.80630000  0.45870000  1.0 -0.0300786046
C  C1214  1  0.19370000  0.80810000  0.45870000  1.0 -0.0300786046
C  C1215  1  0.19190000  0.38560000  0.45870000  1.0 -0.0300786046
C  C1216  1  0.38560000  0.19370000  0.95870000  1.0 -0.0300786046
C  C1217  1  0.80630000  0.19190000  0.95870000  1.0 -0.0300786046
C  C1218  1  0.80810000  0.61440000  0.95870000  1.0 -0.0300786046
C  C1219  1  0.80630000  0.61440000  0.54130000  1.0 -0.0300786046
C  C1220  1  0.80810000  0.19370000  0.54130000  1.0 -0.0300786046
C  C1221  1  0.38560000  0.19190000  0.54130000  1.0 -0.0300786046
C  C1222  1  0.19370000  0.38560000  0.04130000  1.0 -0.0300786046
C  C1223  1  0.19190000  0.80630000  0.04130000  1.0 -0.0300786046
C  C1224  1  0.61440000  0.80810000  0.04130000  1.0 -0.0300786046
C  C1225  1  0.38560000  0.19370000  0.54130000  1.0 -0.0300786046
C  C1226  1  0.80630000  0.19190000  0.54130000  1.0 -0.0300786046
C  C1227  1  0.80810000  0.61440000  0.54130000  1.0 -0.0300786046
C  C1228  1  0.61440000  0.80630000  0.04130000  1.0 -0.0300786046
C  C1229  1  0.19370000  0.80810000  0.04130000  1.0 -0.0300786046
C  C1230  1  0.19190000  0.38560000  0.04130000  1.0 -0.0300786046
C  C1231  1  0.19370000  0.38560000  0.45870000  1.0 -0.0300786046
C  C1232  1  0.19190000  0.80630000  0.45870000  1.0 -0.0300786046
C  C1233  1  0.61440000  0.80810000  0.45870000  1.0 -0.0300786046
C  C1234  1  0.80630000  0.61440000  0.95870000  1.0 -0.0300786046
C  C1235  1  0.80810000  0.19370000  0.95870000  1.0 -0.0300786046
C  C1236  1  0.38560000  0.19190000  0.95870000  1.0 -0.0300786046
C  C1237  1  0.57670000  0.76720000  0.46050000  1.0 -0.0023782535
C  C1238  1  0.23280000  0.80950000  0.46050000  1.0 -0.0023782535
C  C1239  1  0.19050000  0.42330000  0.46050000  1.0 -0.0023782535
C  C1240  1  0.42330000  0.23280000  0.96050000  1.0 -0.0023782535
C  C1241  1  0.76720000  0.19050000  0.96050000  1.0 -0.0023782535
C  C1242  1  0.80950000  0.57670000  0.96050000  1.0 -0.0023782535
C  C1243  1  0.76720000  0.57670000  0.53950000  1.0 -0.0023782535
C  C1244  1  0.80950000  0.23280000  0.53950000  1.0 -0.0023782535
C  C1245  1  0.42330000  0.19050000  0.53950000  1.0 -0.0023782535
C  C1246  1  0.23280000  0.42330000  0.03950000  1.0 -0.0023782535
C  C1247  1  0.19050000  0.76720000  0.03950000  1.0 -0.0023782535
C  C1248  1  0.57670000  0.80950000  0.03950000  1.0 -0.0084605356
C  C1249  1  0.42330000  0.23280000  0.53950000  1.0 -0.0023782535
C  C1250  1  0.76720000  0.19050000  0.53950000  1.0 -0.0023782535
C  C1251  1  0.80950000  0.57670000  0.53950000  1.0 -0.0023782535
C  C1252  1  0.57670000  0.76720000  0.03950000  1.0 -0.0023782535
C  C1253  1  0.23280000  0.80950000  0.03950000  1.0 -0.0084605356
C  C1254  1  0.19050000  0.42330000  0.03950000  1.0 -0.0023782535
C  C1255  1  0.23280000  0.42330000  0.46050000  1.0 -0.0023782535
C  C1256  1  0.19050000  0.76720000  0.46050000  1.0 -0.0023782535
C  C1257  1  0.57670000  0.80950000  0.46050000  1.0 -0.0023782535
C  C1258  1  0.76720000  0.57670000  0.96050000  1.0 -0.0023782535
C  C1259  1  0.80950000  0.23280000  0.96050000  1.0 -0.0023782535
C  C1260  1  0.42330000  0.19050000  0.96050000  1.0 -0.0023782535
C  C1261  1  0.55530000  0.75790000  0.47670000  1.0 0.0022249279
C  C1262  1  0.24210000  0.79740000  0.47670000  1.0 0.0022249279
C  C1263  1  0.20260000  0.44470000  0.47670000  1.0 0.0022249279
C  C1264  1  0.44470000  0.24210000  0.97670000  1.0 0.0022249279
C  C1265  1  0.75790000  0.20260000  0.97670000  1.0 0.0022249279
C  C1266  1  0.79740000  0.55530000  0.97670000  1.0 0.0022249279
C  C1267  1  0.75790000  0.55530000  0.52330000  1.0 0.0022249279
C  C1268  1  0.79740000  0.24210000  0.52330000  1.0 0.0022249279
C  C1269  1  0.44470000  0.20260000  0.52330000  1.0 0.0022249279
C  C1270  1  0.24210000  0.44470000  0.02330000  1.0 0.0022249279
C  C1271  1  0.20260000  0.75790000  0.02330000  1.0 0.0022249279
C  C1272  1  0.55530000  0.79740000  0.02330000  1.0 0.0022249279
C  C1273  1  0.44470000  0.24210000  0.52330000  1.0 0.0022249279
C  C1274  1  0.75790000  0.20260000  0.52330000  1.0 0.0022249279
C  C1275  1  0.79740000  0.55530000  0.52330000  1.0 0.0022249279
C  C1276  1  0.55530000  0.75790000  0.02330000  1.0 0.0022249279
C  C1277  1  0.24210000  0.79740000  0.02330000  1.0 0.0022249279
C  C1278  1  0.20260000  0.44470000  0.02330000  1.0 0.0022249279
C  C1279  1  0.24210000  0.44470000  0.47670000  1.0 0.0022249279
C  C1280  1  0.20260000  0.75790000  0.47670000  1.0 0.0022249279
C  C1281  1  0.55530000  0.79740000  0.47670000  1.0 0.0022249279
C  C1282  1  0.75790000  0.55530000  0.97670000  1.0 0.0022249279
C  C1283  1  0.79740000  0.24210000  0.97670000  1.0 0.0022249279
C  C1284  1  0.44470000  0.20260000  0.97670000  1.0 0.0022249279
C  C1285  1  0.79800000  0.67830000  0.27520000  1.0 0.2566843173
C  C1286  1  0.32170000  0.11970000  0.27520000  1.0 0.2566843173
C  C1287  1  0.88030000  0.20200000  0.27520000  1.0 0.2566843173
C  C1288  1  0.20200000  0.32170000  0.77520000  1.0 0.2566843173
C  C1289  1  0.67830000  0.88030000  0.77520000  1.0 0.2566843173
C  C1290  1  0.11970000  0.79800000  0.77520000  1.0 0.2566843173
C  C1291  1  0.67830000  0.79800000  0.72480000  1.0 0.2566843173
C  C1292  1  0.11970000  0.32170000  0.72480000  1.0 0.2566843173
C  C1293  1  0.20200000  0.88030000  0.72480000  1.0 0.2566843173
C  C1294  1  0.32170000  0.20200000  0.22480000  1.0 0.2566843173
C  C1295  1  0.88030000  0.67830000  0.22480000  1.0 0.2566843173
C  C1296  1  0.79800000  0.11970000  0.22480000  1.0 0.2566843173
C  C1297  1  0.20200000  0.32170000  0.72480000  1.0 0.2566843173
C  C1298  1  0.67830000  0.88030000  0.72480000  1.0 0.2566843173
C  C1299  1  0.11970000  0.79800000  0.72480000  1.0 0.2566843173
C  C1300  1  0.79800000  0.67830000  0.22480000  1.0 0.2566843173
C  C1301  1  0.32170000  0.11970000  0.22480000  1.0 0.2566843173
C  C1302  1  0.88030000  0.20200000  0.22480000  1.0 0.2566843173
C  C1303  1  0.32170000  0.20200000  0.27520000  1.0 0.2566843173
C  C1304  1  0.88030000  0.67830000  0.27520000  1.0 0.2566843173
C  C1305  1  0.79800000  0.11970000  0.27520000  1.0 0.2566843173
C  C1306  1  0.67830000  0.79800000  0.77520000  1.0 0.2566843173
C  C1307  1  0.11970000  0.32170000  0.77520000  1.0 0.2566843173
C  C1308  1  0.20200000  0.88030000  0.77520000  1.0 0.2566843173
C  C1309  1  0.77630000  0.68020000  0.29215000  1.0 0.0409008468
C  C1310  1  0.31980000  0.09610000  0.29215000  1.0 0.0409008468
C  C1311  1  0.90390000  0.22370000  0.29215000  1.0 0.0409008468
C  C1312  1  0.22370000  0.31980000  0.79215000  1.0 0.0409008468
C  C1313  1  0.68020000  0.90390000  0.79215000  1.0 0.0409008468
C  C1314  1  0.09610000  0.77630000  0.79215000  1.0 0.0409008468
C  C1315  1  0.68020000  0.77630000  0.70785000  1.0 0.0409008468
C  C1316  1  0.09610000  0.31980000  0.70785000  1.0 0.0409008468
C  C1317  1  0.22370000  0.90390000  0.70785000  1.0 0.0409008468
C  C1318  1  0.31980000  0.22370000  0.20785000  1.0 0.0409008468
C  C1319  1  0.90390000  0.68020000  0.20785000  1.0 0.0409008468
C  C1320  1  0.77630000  0.09610000  0.20785000  1.0 0.0409008468
C  C1321  1  0.22370000  0.31980000  0.70785000  1.0 0.0409008468
C  C1322  1  0.68020000  0.90390000  0.70785000  1.0 0.0409008468
C  C1323  1  0.09610000  0.77630000  0.70785000  1.0 0.0409008468
C  C1324  1  0.77630000  0.68020000  0.20785000  1.0 0.0409008468
C  C1325  1  0.31980000  0.09610000  0.20785000  1.0 0.0409008468
C  C1326  1  0.90390000  0.22370000  0.20785000  1.0 0.0409008468
C  C1327  1  0.31980000  0.22370000  0.29215000  1.0 0.0409008468
C  C1328  1  0.90390000  0.68020000  0.29215000  1.0 0.0409008468
C  C1329  1  0.77630000  0.09610000  0.29215000  1.0 0.0409008468
C  C1330  1  0.68020000  0.77630000  0.79215000  1.0 0.0409008468
C  C1331  1  0.09610000  0.31980000  0.79215000  1.0 0.0409008468
C  C1332  1  0.22370000  0.90390000  0.79215000  1.0 0.0409008468
C  C1333  1  0.79070000  0.71760000  0.30128000  1.0 -0.1104105449
C  C1334  1  0.28240000  0.07310000  0.30128000  1.0 -0.1186590055
C  C1335  1  0.92690000  0.20930000  0.30128000  1.0 -0.1186590055
C  C1336  1  0.20930000  0.28240000  0.80128000  1.0 -0.1104105449
C  C1337  1  0.71760000  0.92690000  0.80128000  1.0 -0.1186590055
C  C1338  1  0.07310000  0.79070000  0.80128000  1.0 -0.1104105449
C  C1339  1  0.71760000  0.79070000  0.69872000  1.0 -0.1104105449
C  C1340  1  0.07310000  0.28240000  0.69872000  1.0 -0.1104105449
C  C1341  1  0.20930000  0.92690000  0.69872000  1.0 -0.1186590055
C  C1342  1  0.28240000  0.20930000  0.19872000  1.0 -0.1186590055
C  C1343  1  0.92690000  0.71760000  0.19872000  1.0 -0.1104105449
C  C1344  1  0.79070000  0.07310000  0.19872000  1.0 -0.1186590055
C  C1345  1  0.20930000  0.28240000  0.69872000  1.0 -0.1104105449
C  C1346  1  0.71760000  0.92690000  0.69872000  1.0 -0.1186590055
C  C1347  1  0.07310000  0.79070000  0.69872000  1.0 -0.1104105449
C  C1348  1  0.79070000  0.71760000  0.19872000  1.0 -0.1104105449
C  C1349  1  0.28240000  0.07310000  0.19872000  1.0 -0.1186590055
C  C1350  1  0.92690000  0.20930000  0.19872000  1.0 -0.1186590055
C  C1351  1  0.28240000  0.20930000  0.30128000  1.0 -0.1186590055
C  C1352  1  0.92690000  0.71760000  0.30128000  1.0 -0.1104105449
C  C1353  1  0.79070000  0.07310000  0.30128000  1.0 -0.1186590055
C  C1354  1  0.71760000  0.79070000  0.80128000  1.0 -0.1104105449
C  C1355  1  0.07310000  0.28240000  0.80128000  1.0 -0.1104105449
C  C1356  1  0.20930000  0.92690000  0.80128000  1.0 -0.1186590055
C  C1357  1  0.77090000  0.71890000  0.31690000  1.0 -0.0880332006
C  C1358  1  0.28110000  0.05200000  0.31690000  1.0 -0.0880332006
C  C1359  1  0.94800000  0.22910000  0.31690000  1.0 -0.0880332006
C  C1360  1  0.22910000  0.28110000  0.81690000  1.0 -0.0880332006
C  C1361  1  0.71890000  0.94800000  0.81690000  1.0 -0.0880332006
C  C1362  1  0.05200000  0.77090000  0.81690000  1.0 -0.0880332006
C  C1363  1  0.71890000  0.77090000  0.68310000  1.0 -0.0880332006
C  C1364  1  0.05200000  0.28110000  0.68310000  1.0 -0.0880332006
C  C1365  1  0.22910000  0.94800000  0.68310000  1.0 -0.0814512193
C  C1366  1  0.28110000  0.22910000  0.18310000  1.0 -0.0880332006
C  C1367  1  0.94800000  0.71890000  0.18310000  1.0 -0.0814512193
C  C1368  1  0.77090000  0.05200000  0.18310000  1.0 -0.0814512193
C  C1369  1  0.22910000  0.28110000  0.68310000  1.0 -0.0880332006
C  C1370  1  0.71890000  0.94800000  0.68310000  1.0 -0.0880332006
C  C1371  1  0.05200000  0.77090000  0.68310000  1.0 -0.0880332006
C  C1372  1  0.77090000  0.71890000  0.18310000  1.0 -0.0880332006
C  C1373  1  0.28110000  0.05200000  0.18310000  1.0 -0.0880332006
C  C1374  1  0.94800000  0.22910000  0.18310000  1.0 -0.0880332006
C  C1375  1  0.28110000  0.22910000  0.31690000  1.0 -0.0880332006
C  C1376  1  0.94800000  0.71890000  0.31690000  1.0 -0.0814512193
C  C1377  1  0.77090000  0.05200000  0.31690000  1.0 -0.0814512193
C  C1378  1  0.71890000  0.77090000  0.81690000  1.0 -0.0880332006
C  C1379  1  0.05200000  0.28110000  0.81690000  1.0 -0.0880332006
C  C1380  1  0.22910000  0.94800000  0.81690000  1.0 -0.0814512193
C  C1381  1  0.73680000  0.68290000  0.32338000  1.0 0.0199814232
C  C1382  1  0.31710000  0.05390000  0.32338000  1.0 0.0199814232
C  C1383  1  0.94610000  0.26320000  0.32338000  1.0 0.0199814232
C  C1384  1  0.26320000  0.31710000  0.82338000  1.0 0.0199814232
C  C1385  1  0.68290000  0.94610000  0.82338000  1.0 0.0199814232
C  C1386  1  0.05390000  0.73680000  0.82338000  1.0 0.0199814232
C  C1387  1  0.68290000  0.73680000  0.67662000  1.0 0.0199814232
C  C1388  1  0.05390000  0.31710000  0.67662000  1.0 0.0199814232
C  C1389  1  0.26320000  0.94610000  0.67662000  1.0 0.0199814232
C  C1390  1  0.31710000  0.26320000  0.17662000  1.0 0.0199814232
C  C1391  1  0.94610000  0.68290000  0.17662000  1.0 0.0199814232
C  C1392  1  0.73680000  0.05390000  0.17662000  1.0 0.0199814232
C  C1393  1  0.26320000  0.31710000  0.67662000  1.0 0.0199814232
C  C1394  1  0.68290000  0.94610000  0.67662000  1.0 0.0199814232
C  C1395  1  0.05390000  0.73680000  0.67662000  1.0 0.0199814232
C  C1396  1  0.73680000  0.68290000  0.17662000  1.0 0.0199814232
C  C1397  1  0.31710000  0.05390000  0.17662000  1.0 0.0199814232
C  C1398  1  0.94610000  0.26320000  0.17662000  1.0 0.0199814232
C  C1399  1  0.31710000  0.26320000  0.32338000  1.0 0.0199814232
C  C1400  1  0.94610000  0.68290000  0.32338000  1.0 0.0199814232
C  C1401  1  0.73680000  0.05390000  0.32338000  1.0 0.0199814232
C  C1402  1  0.68290000  0.73680000  0.82338000  1.0 0.0199814232
C  C1403  1  0.05390000  0.31710000  0.82338000  1.0 0.0199814232
C  C1404  1  0.26320000  0.94610000  0.82338000  1.0 0.0199814232
C  C1405  1  0.72240000  0.64560000  0.31425000  1.0 -0.0223230359
C  C1406  1  0.35440000  0.07680000  0.31425000  1.0 -0.0223230359
C  C1407  1  0.92320000  0.27760000  0.31425000  1.0 -0.0223230359
C  C1408  1  0.27760000  0.35440000  0.81425000  1.0 -0.0223230359
C  C1409  1  0.64560000  0.92320000  0.81425000  1.0 -0.0300786046
C  C1410  1  0.07680000  0.72240000  0.81425000  1.0 -0.0300786046
C  C1411  1  0.64560000  0.72240000  0.68575000  1.0 -0.0223230359
C  C1412  1  0.07680000  0.35440000  0.68575000  1.0 -0.0300786046
C  C1413  1  0.27760000  0.92320000  0.68575000  1.0 -0.0300786046
C  C1414  1  0.35440000  0.27760000  0.18575000  1.0 -0.0223230359
C  C1415  1  0.92320000  0.64560000  0.18575000  1.0 -0.0223230359
C  C1416  1  0.72240000  0.07680000  0.18575000  1.0 -0.0300786046
C  C1417  1  0.27760000  0.35440000  0.68575000  1.0 -0.0223230359
C  C1418  1  0.64560000  0.92320000  0.68575000  1.0 -0.0300786046
C  C1419  1  0.07680000  0.72240000  0.68575000  1.0 -0.0300786046
C  C1420  1  0.72240000  0.64560000  0.18575000  1.0 -0.0223230359
C  C1421  1  0.35440000  0.07680000  0.18575000  1.0 -0.0223230359
C  C1422  1  0.92320000  0.27760000  0.18575000  1.0 -0.0223230359
C  C1423  1  0.35440000  0.27760000  0.31425000  1.0 -0.0223230359
C  C1424  1  0.92320000  0.64560000  0.31425000  1.0 -0.0223230359
C  C1425  1  0.72240000  0.07680000  0.31425000  1.0 -0.0300786046
C  C1426  1  0.64560000  0.72240000  0.81425000  1.0 -0.0223230359
C  C1427  1  0.07680000  0.35440000  0.81425000  1.0 -0.0300786046
C  C1428  1  0.27760000  0.92320000  0.81425000  1.0 -0.0300786046
C  C1429  1  0.74220000  0.64420000  0.29863000  1.0 -0.0594615013
C  C1430  1  0.35580000  0.09800000  0.29863000  1.0 -0.0594615013
C  C1431  1  0.90200000  0.25780000  0.29863000  1.0 -0.0594615013
C  C1432  1  0.25780000  0.35580000  0.79863000  1.0 -0.0594615013
C  C1433  1  0.64420000  0.90200000  0.79863000  1.0 -0.0594615013
C  C1434  1  0.09800000  0.74220000  0.79863000  1.0 -0.0594615013
C  C1435  1  0.64420000  0.74220000  0.70137000  1.0 -0.0594615013
C  C1436  1  0.09800000  0.35580000  0.70137000  1.0 -0.0476085188
C  C1437  1  0.25780000  0.90200000  0.70137000  1.0 -0.0594615013
C  C1438  1  0.35580000  0.25780000  0.20137000  1.0 -0.0594615013
C  C1439  1  0.90200000  0.64420000  0.20137000  1.0 -0.0594615013
C  C1440  1  0.74220000  0.09800000  0.20137000  1.0 -0.0594615013
C  C1441  1  0.25780000  0.35580000  0.70137000  1.0 -0.0594615013
C  C1442  1  0.64420000  0.90200000  0.70137000  1.0 -0.0594615013
C  C1443  1  0.09800000  0.74220000  0.70137000  1.0 -0.0594615013
C  C1444  1  0.74220000  0.64420000  0.20137000  1.0 -0.0594615013
C  C1445  1  0.35580000  0.09800000  0.20137000  1.0 -0.0594615013
C  C1446  1  0.90200000  0.25780000  0.20137000  1.0 -0.0594615013
C  C1447  1  0.35580000  0.25780000  0.29863000  1.0 -0.0594615013
C  C1448  1  0.90200000  0.64420000  0.29863000  1.0 -0.0594615013
C  C1449  1  0.74220000  0.09800000  0.29863000  1.0 -0.0594615013
C  C1450  1  0.64420000  0.74220000  0.79863000  1.0 -0.0594615013
C  C1451  1  0.09800000  0.35580000  0.79863000  1.0 -0.0476085188
C  C1452  1  0.25780000  0.90200000  0.79863000  1.0 -0.0594615013
C  C1453  1  0.62720000  0.54020000  0.40202000  1.0 0.0409008468
C  C1454  1  0.45980000  0.08700000  0.40202000  1.0 0.0409008468
C  C1455  1  0.91300000  0.37280000  0.40202000  1.0 0.0409008468
C  C1456  1  0.37280000  0.45980000  0.90202000  1.0 0.0409008468
C  C1457  1  0.54020000  0.91300000  0.90202000  1.0 0.0409008468
C  C1458  1  0.08700000  0.62720000  0.90202000  1.0 0.0409008468
C  C1459  1  0.54020000  0.62720000  0.59798000  1.0 0.0409008468
C  C1460  1  0.08700000  0.45980000  0.59798000  1.0 0.0409008468
C  C1461  1  0.37280000  0.91300000  0.59798000  1.0 0.0409008468
C  C1462  1  0.45980000  0.37280000  0.09798000  1.0 0.0409008468
C  C1463  1  0.91300000  0.54020000  0.09798000  1.0 0.0409008468
C  C1464  1  0.62720000  0.08700000  0.09798000  1.0 0.0409008468
C  C1465  1  0.37280000  0.45980000  0.59798000  1.0 0.0409008468
C  C1466  1  0.54020000  0.91300000  0.59798000  1.0 0.0409008468
C  C1467  1  0.08700000  0.62720000  0.59798000  1.0 0.0409008468
C  C1468  1  0.62720000  0.54020000  0.09798000  1.0 0.0409008468
C  C1469  1  0.45980000  0.08700000  0.09798000  1.0 0.0409008468
C  C1470  1  0.91300000  0.37280000  0.09798000  1.0 0.0409008468
C  C1471  1  0.45980000  0.37280000  0.40202000  1.0 0.0409008468
C  C1472  1  0.91300000  0.54020000  0.40202000  1.0 0.0409008468
C  C1473  1  0.62720000  0.08700000  0.40202000  1.0 0.0409008468
C  C1474  1  0.54020000  0.62720000  0.90202000  1.0 0.0409008468
C  C1475  1  0.08700000  0.45980000  0.90202000  1.0 0.0409008468
C  C1476  1  0.37280000  0.91300000  0.90202000  1.0 0.0409008468
C  C1477  1  0.61560000  0.57020000  0.40448000  1.0 -0.0396749091
C  C1478  1  0.42980000  0.04540000  0.40448000  1.0 -0.0396749091
C  C1479  1  0.95460000  0.38440000  0.40448000  1.0 -0.0396749091
C  C1480  1  0.38440000  0.42980000  0.90448000  1.0 -0.0396749091
C  C1481  1  0.57020000  0.95460000  0.90448000  1.0 -0.0396749091
C  C1482  1  0.04540000  0.61560000  0.90448000  1.0 -0.0396749091
C  C1483  1  0.57020000  0.61560000  0.59552000  1.0 -0.0396749091
C  C1484  1  0.04540000  0.42980000  0.59552000  1.0 -0.0396749091
C  C1485  1  0.38440000  0.95460000  0.59552000  1.0 -0.0396749091
C  C1486  1  0.42980000  0.38440000  0.09552000  1.0 -0.0396749091
C  C1487  1  0.95460000  0.57020000  0.09552000  1.0 -0.0396749091
C  C1488  1  0.61560000  0.04540000  0.09552000  1.0 -0.0396749091
C  C1489  1  0.38440000  0.42980000  0.59552000  1.0 -0.0396749091
C  C1490  1  0.57020000  0.95460000  0.59552000  1.0 -0.0396749091
C  C1491  1  0.04540000  0.61560000  0.59552000  1.0 -0.0396749091
C  C1492  1  0.61560000  0.57020000  0.09552000  1.0 -0.0396749091
C  C1493  1  0.42980000  0.04540000  0.09552000  1.0 -0.0396749091
C  C1494  1  0.95460000  0.38440000  0.09552000  1.0 -0.0396749091
C  C1495  1  0.42980000  0.38440000  0.40448000  1.0 -0.0396749091
C  C1496  1  0.95460000  0.57020000  0.40448000  1.0 -0.0396749091
C  C1497  1  0.61560000  0.04540000  0.40448000  1.0 -0.0396749091
C  C1498  1  0.57020000  0.61560000  0.90448000  1.0 -0.0396749091
C  C1499  1  0.04540000  0.42980000  0.90448000  1.0 -0.0396749091
C  C1500  1  0.38440000  0.95460000  0.90448000  1.0 -0.0396749091
C  C1501  1  0.63330000  0.60580000  0.39394000  1.0 -0.0300786046
C  C1502  1  0.39420000  0.02750000  0.39394000  1.0 -0.0300786046
C  C1503  1  0.97250000  0.36670000  0.39394000  1.0 -0.0300786046
C  C1504  1  0.36670000  0.39420000  0.89394000  1.0 -0.0396749091
C  C1505  1  0.60580000  0.97250000  0.89394000  1.0 -0.0300786046
C  C1506  1  0.02750000  0.63330000  0.89394000  1.0 -0.0396749091
C  C1507  1  0.60580000  0.63330000  0.60606000  1.0 -0.0300786046
C  C1508  1  0.02750000  0.39420000  0.60606000  1.0 -0.0396749091
C  C1509  1  0.36670000  0.97250000  0.60606000  1.0 -0.0300786046
C  C1510  1  0.39420000  0.36670000  0.10606000  1.0 -0.0300786046
C  C1511  1  0.97250000  0.60580000  0.10606000  1.0 -0.0396749091
C  C1512  1  0.63330000  0.02750000  0.10606000  1.0 -0.0300786046
C  C1513  1  0.36670000  0.39420000  0.60606000  1.0 -0.0396749091
C  C1514  1  0.60580000  0.97250000  0.60606000  1.0 -0.0300786046
C  C1515  1  0.02750000  0.63330000  0.60606000  1.0 -0.0396749091
C  C1516  1  0.63330000  0.60580000  0.10606000  1.0 -0.0300786046
C  C1517  1  0.39420000  0.02750000  0.10606000  1.0 -0.0300786046
C  C1518  1  0.97250000  0.36670000  0.10606000  1.0 -0.0300786046
C  C1519  1  0.39420000  0.36670000  0.39394000  1.0 -0.0300786046
C  C1520  1  0.97250000  0.60580000  0.39394000  1.0 -0.0396749091
C  C1521  1  0.63330000  0.02750000  0.39394000  1.0 -0.0300786046
C  C1522  1  0.60580000  0.63330000  0.89394000  1.0 -0.0300786046
C  C1523  1  0.02750000  0.39420000  0.89394000  1.0 -0.0396749091
C  C1524  1  0.36670000  0.97250000  0.89394000  1.0 -0.0300786046
C  C1525  1  0.66250000  0.61160000  0.38092000  1.0 0.0289423662
C  C1526  1  0.38840000  0.05090000  0.38092000  1.0 0.0289423662
C  C1527  1  0.94910000  0.33750000  0.38092000  1.0 0.0289423662
C  C1528  1  0.33750000  0.38840000  0.88092000  1.0 0.0289423662
C  C1529  1  0.61160000  0.94910000  0.88092000  1.0 0.0289423662
C  C1530  1  0.05090000  0.66250000  0.88092000  1.0 0.0289423662
C  C1531  1  0.61160000  0.66250000  0.61908000  1.0 0.0289423662
C  C1532  1  0.05090000  0.38840000  0.61908000  1.0 0.0289423662
C  C1533  1  0.33750000  0.94910000  0.61908000  1.0 0.0289423662
C  C1534  1  0.38840000  0.33750000  0.11908000  1.0 0.0199814232
C  C1535  1  0.94910000  0.61160000  0.11908000  1.0 0.0199814232
C  C1536  1  0.66250000  0.05090000  0.11908000  1.0 0.0199814232
C  C1537  1  0.33750000  0.38840000  0.61908000  1.0 0.0289423662
C  C1538  1  0.61160000  0.94910000  0.61908000  1.0 0.0289423662
C  C1539  1  0.05090000  0.66250000  0.61908000  1.0 0.0289423662
C  C1540  1  0.66250000  0.61160000  0.11908000  1.0 0.0289423662
C  C1541  1  0.38840000  0.05090000  0.11908000  1.0 0.0289423662
C  C1542  1  0.94910000  0.33750000  0.11908000  1.0 0.0289423662
C  C1543  1  0.38840000  0.33750000  0.38092000  1.0 0.0199814232
C  C1544  1  0.94910000  0.61160000  0.38092000  1.0 0.0289423662
C  C1545  1  0.66250000  0.05090000  0.38092000  1.0 0.0199814232
C  C1546  1  0.61160000  0.66250000  0.88092000  1.0 0.0289423662
C  C1547  1  0.05090000  0.38840000  0.88092000  1.0 0.0289423662
C  C1548  1  0.33750000  0.94910000  0.88092000  1.0 0.0289423662
C  C1549  1  0.67410000  0.58160000  0.37846000  1.0 -0.0880332006
C  C1550  1  0.41840000  0.09250000  0.37846000  1.0 -0.0880332006
C  C1551  1  0.90750000  0.32590000  0.37846000  1.0 -0.0880332006
C  C1552  1  0.32590000  0.41840000  0.87846000  1.0 -0.0880332006
C  C1553  1  0.58160000  0.90750000  0.87846000  1.0 -0.0814512193
C  C1554  1  0.09250000  0.67410000  0.87846000  1.0 -0.0880332006
C  C1555  1  0.58160000  0.67410000  0.62154000  1.0 -0.0880332006
C  C1556  1  0.09250000  0.41840000  0.62154000  1.0 -0.0880332006
C  C1557  1  0.32590000  0.90750000  0.62154000  1.0 -0.0880332006
C  C1558  1  0.41840000  0.32590000  0.12154000  1.0 -0.0880332006
C  C1559  1  0.90750000  0.58160000  0.12154000  1.0 -0.0880332006
C  C1560  1  0.67410000  0.09250000  0.12154000  1.0 -0.0880332006
C  C1561  1  0.32590000  0.41840000  0.62154000  1.0 -0.0880332006
C  C1562  1  0.58160000  0.90750000  0.62154000  1.0 -0.0814512193
C  C1563  1  0.09250000  0.67410000  0.62154000  1.0 -0.0814512193
C  C1564  1  0.67410000  0.58160000  0.12154000  1.0 -0.0880332006
C  C1565  1  0.41840000  0.09250000  0.12154000  1.0 -0.0880332006
C  C1566  1  0.90750000  0.32590000  0.12154000  1.0 -0.0880332006
C  C1567  1  0.41840000  0.32590000  0.37846000  1.0 -0.0880332006
C  C1568  1  0.90750000  0.58160000  0.37846000  1.0 -0.0880332006
C  C1569  1  0.67410000  0.09250000  0.37846000  1.0 -0.0880332006
C  C1570  1  0.58160000  0.67410000  0.87846000  1.0 -0.0880332006
C  C1571  1  0.09250000  0.41840000  0.87846000  1.0 -0.0880332006
C  C1572  1  0.32590000  0.90750000  0.87846000  1.0 -0.0880332006
C  C1573  1  0.65640000  0.54600000  0.38900000  1.0 -0.0814512193
C  C1574  1  0.45400000  0.11040000  0.38900000  1.0 -0.0814512193
C  C1575  1  0.88960000  0.34360000  0.38900000  1.0 -0.0814512193
C  C1576  1  0.34360000  0.45400000  0.88900000  1.0 -0.0814512193
C  C1577  1  0.54600000  0.88960000  0.88900000  1.0 -0.0814512193
C  C1578  1  0.11040000  0.65640000  0.88900000  1.0 -0.0814512193
C  C1579  1  0.54600000  0.65640000  0.61100000  1.0 -0.0814512193
C  C1580  1  0.11040000  0.45400000  0.61100000  1.0 -0.0814512193
C  C1581  1  0.34360000  0.88960000  0.61100000  1.0 -0.0814512193
C  C1582  1  0.45400000  0.34360000  0.11100000  1.0 -0.0814512193
C  C1583  1  0.88960000  0.54600000  0.11100000  1.0 -0.0814512193
C  C1584  1  0.65640000  0.11040000  0.11100000  1.0 -0.0814512193
C  C1585  1  0.34360000  0.45400000  0.61100000  1.0 -0.0814512193
C  C1586  1  0.54600000  0.88960000  0.61100000  1.0 -0.0814512193
C  C1587  1  0.11040000  0.65640000  0.61100000  1.0 -0.0814512193
C  C1588  1  0.65640000  0.54600000  0.11100000  1.0 -0.0814512193
C  C1589  1  0.45400000  0.11040000  0.11100000  1.0 -0.0814512193
C  C1590  1  0.88960000  0.34360000  0.11100000  1.0 -0.0814512193
C  C1591  1  0.45400000  0.34360000  0.38900000  1.0 -0.0814512193
C  C1592  1  0.88960000  0.54600000  0.38900000  1.0 -0.0814512193
C  C1593  1  0.65640000  0.11040000  0.38900000  1.0 -0.0814512193
C  C1594  1  0.54600000  0.65640000  0.88900000  1.0 -0.0814512193
C  C1595  1  0.11040000  0.45400000  0.88900000  1.0 -0.0814512193
C  C1596  1  0.34360000  0.88960000  0.88900000  1.0 -0.0814512193
C  C1597  1  0.59920000  0.50090000  0.41250000  1.0 0.116457715
C  C1598  1  0.49910000  0.09830000  0.41250000  1.0 0.116457715
C  C1599  1  0.90170000  0.40080000  0.41250000  1.0 0.116457715
C  C1600  1  0.40080000  0.49910000  0.91250000  1.0 0.116457715
C  C1601  1  0.50090000  0.90170000  0.91250000  1.0 0.116457715
C  C1602  1  0.09830000  0.59920000  0.91250000  1.0 0.116457715
C  C1603  1  0.50090000  0.59920000  0.58750000  1.0 0.116457715
C  C1604  1  0.09830000  0.49910000  0.58750000  1.0 0.116457715
C  C1605  1  0.40080000  0.90170000  0.58750000  1.0 0.116457715
C  C1606  1  0.49910000  0.40080000  0.08750000  1.0 0.116457715
C  C1607  1  0.90170000  0.50090000  0.08750000  1.0 0.116457715
C  C1608  1  0.59920000  0.09830000  0.08750000  1.0 0.116457715
C  C1609  1  0.40080000  0.49910000  0.58750000  1.0 0.116457715
C  C1610  1  0.50090000  0.90170000  0.58750000  1.0 0.116457715
C  C1611  1  0.09830000  0.59920000  0.58750000  1.0 0.116457715
C  C1612  1  0.59920000  0.50090000  0.08750000  1.0 0.116457715
C  C1613  1  0.49910000  0.09830000  0.08750000  1.0 0.116457715
C  C1614  1  0.90170000  0.40080000  0.08750000  1.0 0.116457715
C  C1615  1  0.49910000  0.40080000  0.41250000  1.0 0.116457715
C  C1616  1  0.90170000  0.50090000  0.41250000  1.0 0.116457715
C  C1617  1  0.59920000  0.09830000  0.41250000  1.0 0.116457715
C  C1618  1  0.50090000  0.59920000  0.91250000  1.0 0.116457715
C  C1619  1  0.09830000  0.49910000  0.91250000  1.0 0.116457715
C  C1620  1  0.40080000  0.90170000  0.91250000  1.0 0.116457715
C  C1621  1  0.49650000  0.66640000  0.53720000  1.0 0.0708706454
C  C1622  1  0.33360000  0.83010000  0.53720000  1.0 0.0708706454
C  C1623  1  0.16990000  0.50350000  0.53720000  1.0 0.0708706454
C  C1624  1  0.50350000  0.33360000  0.03720000  1.0 0.0708706454
C  C1625  1  0.66640000  0.16990000  0.03720000  1.0 0.0708706454
C  C1626  1  0.83010000  0.49650000  0.03720000  1.0 0.0708706454
C  C1627  1  0.66640000  0.49650000  0.46280000  1.0 0.0708706454
C  C1628  1  0.83010000  0.33360000  0.46280000  1.0 0.0708706454
C  C1629  1  0.50350000  0.16990000  0.46280000  1.0 0.0708706454
C  C1630  1  0.33360000  0.50350000  0.96280000  1.0 0.0708706454
C  C1631  1  0.16990000  0.66640000  0.96280000  1.0 0.0708706454
C  C1632  1  0.49650000  0.83010000  0.96280000  1.0 0.0708706454
C  C1633  1  0.50350000  0.33360000  0.46280000  1.0 0.0708706454
C  C1634  1  0.66640000  0.16990000  0.46280000  1.0 0.0708706454
C  C1635  1  0.83010000  0.49650000  0.46280000  1.0 0.0708706454
C  C1636  1  0.49650000  0.66640000  0.96280000  1.0 0.0708706454
C  C1637  1  0.33360000  0.83010000  0.96280000  1.0 0.0708706454
C  C1638  1  0.16990000  0.50350000  0.96280000  1.0 0.0708706454
C  C1639  1  0.33360000  0.50350000  0.53720000  1.0 0.0708706454
C  C1640  1  0.16990000  0.66640000  0.53720000  1.0 0.0708706454
C  C1641  1  0.49650000  0.83010000  0.53720000  1.0 0.0708706454
C  C1642  1  0.66640000  0.49650000  0.03720000  1.0 0.0708706454
C  C1643  1  0.83010000  0.33360000  0.03720000  1.0 0.0708706454
C  C1644  1  0.50350000  0.16990000  0.03720000  1.0 0.0708706454
C  C1645  1  0.49080000  0.69970000  0.54140000  1.0 -0.0880332006
C  C1646  1  0.30030000  0.79110000  0.54140000  1.0 -0.0880332006
C  C1647  1  0.20890000  0.50920000  0.54140000  1.0 -0.0880332006
C  C1648  1  0.50920000  0.30030000  0.04140000  1.0 -0.0880332006
C  C1649  1  0.69970000  0.20890000  0.04140000  1.0 -0.0880332006
C  C1650  1  0.79110000  0.49080000  0.04140000  1.0 -0.0880332006
C  C1651  1  0.69970000  0.49080000  0.45860000  1.0 -0.0880332006
C  C1652  1  0.79110000  0.30030000  0.45860000  1.0 -0.0880332006
C  C1653  1  0.50920000  0.20890000  0.45860000  1.0 -0.0880332006
C  C1654  1  0.30030000  0.50920000  0.95860000  1.0 -0.0880332006
C  C1655  1  0.20890000  0.69970000  0.95860000  1.0 -0.0880332006
C  C1656  1  0.49080000  0.79110000  0.95860000  1.0 -0.0880332006
C  C1657  1  0.50920000  0.30030000  0.45860000  1.0 -0.0880332006
C  C1658  1  0.69970000  0.20890000  0.45860000  1.0 -0.0880332006
C  C1659  1  0.79110000  0.49080000  0.45860000  1.0 -0.0880332006
C  C1660  1  0.49080000  0.69970000  0.95860000  1.0 -0.0880332006
C  C1661  1  0.30030000  0.79110000  0.95860000  1.0 -0.0880332006
C  C1662  1  0.20890000  0.50920000  0.95860000  1.0 -0.0880332006
C  C1663  1  0.30030000  0.50920000  0.54140000  1.0 -0.0880332006
C  C1664  1  0.20890000  0.69970000  0.54140000  1.0 -0.0880332006
C  C1665  1  0.49080000  0.79110000  0.54140000  1.0 -0.0880332006
C  C1666  1  0.69970000  0.49080000  0.04140000  1.0 -0.0880332006
C  C1667  1  0.79110000  0.30030000  0.04140000  1.0 -0.0880332006
C  C1668  1  0.50920000  0.20890000  0.04140000  1.0 -0.0880332006
C  C1669  1  0.50990000  0.73570000  0.53110000  1.0 0.0022249279
C  C1670  1  0.26430000  0.77420000  0.53110000  1.0 0.0022249279
C  C1671  1  0.22580000  0.49010000  0.53110000  1.0 0.0022249279
C  C1672  1  0.49010000  0.26430000  0.03110000  1.0 0.0022249279
C  C1673  1  0.73570000  0.22580000  0.03110000  1.0 -0.0023782535
C  C1674  1  0.77420000  0.50990000  0.03110000  1.0 0.0022249279
C  C1675  1  0.73570000  0.50990000  0.46890000  1.0 0.0022249279
C  C1676  1  0.77420000  0.26430000  0.46890000  1.0 0.0022249279
C  C1677  1  0.49010000  0.22580000  0.46890000  1.0 0.0022249279
C  C1678  1  0.26430000  0.49010000  0.96890000  1.0 0.0022249279
C  C1679  1  0.22580000  0.73570000  0.96890000  1.0 0.0022249279
C  C1680  1  0.50990000  0.77420000  0.96890000  1.0 0.0022249279
C  C1681  1  0.49010000  0.26430000  0.46890000  1.0 0.0022249279
C  C1682  1  0.73570000  0.22580000  0.46890000  1.0 0.0022249279
C  C1683  1  0.77420000  0.50990000  0.46890000  1.0 0.0022249279
C  C1684  1  0.50990000  0.73570000  0.96890000  1.0 0.0022249279
C  C1685  1  0.26430000  0.77420000  0.96890000  1.0 0.0022249279
C  C1686  1  0.22580000  0.49010000  0.96890000  1.0 0.0022249279
C  C1687  1  0.26430000  0.49010000  0.53110000  1.0 0.0022249279
C  C1688  1  0.22580000  0.73570000  0.53110000  1.0 0.0022249279
C  C1689  1  0.50990000  0.77420000  0.53110000  1.0 0.0022249279
C  C1690  1  0.73570000  0.50990000  0.03110000  1.0 0.0022249279
C  C1691  1  0.77420000  0.26430000  0.03110000  1.0 0.0022249279
C  C1692  1  0.49010000  0.22580000  0.03110000  1.0 0.0022249279
C  C1693  1  0.53470000  0.73840000  0.51657000  1.0 0.0506574234
C  C1694  1  0.26160000  0.79630000  0.51657000  1.0 0.0506574234
C  C1695  1  0.20370000  0.46530000  0.51657000  1.0 0.0506574234
C  C1696  1  0.46530000  0.26160000  0.01657000  1.0 0.0506574234
C  C1697  1  0.73840000  0.20370000  0.01657000  1.0 0.0506574234
C  C1698  1  0.79630000  0.53470000  0.01657000  1.0 0.0506574234
C  C1699  1  0.73840000  0.53470000  0.48343000  1.0 0.0506574234
C  C1700  1  0.79630000  0.26160000  0.48343000  1.0 0.0506574234
C  C1701  1  0.46530000  0.20370000  0.48343000  1.0 0.0506574234
C  C1702  1  0.26160000  0.46530000  0.98343000  1.0 0.0506574234
C  C1703  1  0.20370000  0.73840000  0.98343000  1.0 0.0506574234
C  C1704  1  0.53470000  0.79630000  0.98343000  1.0 0.0506574234
C  C1705  1  0.46530000  0.26160000  0.48343000  1.0 0.0506574234
C  C1706  1  0.73840000  0.20370000  0.48343000  1.0 0.0506574234
C  C1707  1  0.79630000  0.53470000  0.48343000  1.0 0.0506574234
C  C1708  1  0.53470000  0.73840000  0.98343000  1.0 0.0506574234
C  C1709  1  0.26160000  0.79630000  0.98343000  1.0 0.0506574234
C  C1710  1  0.20370000  0.46530000  0.98343000  1.0 0.0506574234
C  C1711  1  0.26160000  0.46530000  0.51657000  1.0 0.0506574234
C  C1712  1  0.20370000  0.73840000  0.51657000  1.0 0.0506574234
C  C1713  1  0.53470000  0.79630000  0.51657000  1.0 0.0506574234
C  C1714  1  0.73840000  0.53470000  0.01657000  1.0 0.0506574234
C  C1715  1  0.79630000  0.26160000  0.01657000  1.0 0.0506574234
C  C1716  1  0.46530000  0.20370000  0.01657000  1.0 0.0506574234
C  C1717  1  0.54040000  0.70510000  0.51237000  1.0 -0.0880332006
C  C1718  1  0.29490000  0.83530000  0.51237000  1.0 -0.0992189101
C  C1719  1  0.16470000  0.45960000  0.51237000  1.0 -0.0992189101
C  C1720  1  0.45960000  0.29490000  0.01237000  1.0 -0.0992189101
C  C1721  1  0.70510000  0.16470000  0.01237000  1.0 -0.0880332006
C  C1722  1  0.83530000  0.54040000  0.01237000  1.0 -0.0992189101
C  C1723  1  0.70510000  0.54040000  0.48763000  1.0 -0.0992189101
C  C1724  1  0.83530000  0.29490000  0.48763000  1.0 -0.0992189101
C  C1725  1  0.45960000  0.16470000  0.48763000  1.0 -0.0992189101
C  C1726  1  0.29490000  0.45960000  0.98763000  1.0 -0.0992189101
C  C1727  1  0.16470000  0.70510000  0.98763000  1.0 -0.0992189101
C  C1728  1  0.54040000  0.83530000  0.98763000  1.0 -0.0992189101
C  C1729  1  0.45960000  0.29490000  0.48763000  1.0 -0.0992189101
C  C1730  1  0.70510000  0.16470000  0.48763000  1.0 -0.0880332006
C  C1731  1  0.83530000  0.54040000  0.48763000  1.0 -0.0880332006
C  C1732  1  0.54040000  0.70510000  0.98763000  1.0 -0.0880332006
C  C1733  1  0.29490000  0.83530000  0.98763000  1.0 -0.0992189101
C  C1734  1  0.16470000  0.45960000  0.98763000  1.0 -0.0992189101
C  C1735  1  0.29490000  0.45960000  0.51237000  1.0 -0.0992189101
C  C1736  1  0.16470000  0.70510000  0.51237000  1.0 -0.0992189101
C  C1737  1  0.54040000  0.83530000  0.51237000  1.0 -0.0992189101
C  C1738  1  0.70510000  0.54040000  0.01237000  1.0 -0.0992189101
C  C1739  1  0.83530000  0.29490000  0.01237000  1.0 -0.0992189101
C  C1740  1  0.45960000  0.16470000  0.01237000  1.0 -0.0992189101
C  C1741  1  0.52130000  0.66910000  0.52269000  1.0 -0.0692919694
C  C1742  1  0.33090000  0.85220000  0.52269000  1.0 -0.0692919694
C  C1743  1  0.14780000  0.47870000  0.52269000  1.0 -0.0692919694
C  C1744  1  0.47870000  0.33090000  0.02269000  1.0 -0.0692919694
C  C1745  1  0.66910000  0.14780000  0.02269000  1.0 -0.0692919694
C  C1746  1  0.85220000  0.52130000  0.02269000  1.0 -0.0692919694
C  C1747  1  0.66910000  0.52130000  0.47731000  1.0 -0.0692919694
C  C1748  1  0.85220000  0.33090000  0.47731000  1.0 -0.0692919694
C  C1749  1  0.47870000  0.14780000  0.47731000  1.0 -0.0692919694
C  C1750  1  0.33090000  0.47870000  0.97731000  1.0 -0.0692919694
C  C1751  1  0.14780000  0.66910000  0.97731000  1.0 -0.0692919694
C  C1752  1  0.52130000  0.85220000  0.97731000  1.0 -0.0692919694
C  C1753  1  0.47870000  0.33090000  0.47731000  1.0 -0.0692919694
C  C1754  1  0.66910000  0.14780000  0.47731000  1.0 -0.0692919694
C  C1755  1  0.85220000  0.52130000  0.47731000  1.0 -0.0692919694
C  C1756  1  0.52130000  0.66910000  0.97731000  1.0 -0.0692919694
C  C1757  1  0.33090000  0.85220000  0.97731000  1.0 -0.0692919694
C  C1758  1  0.14780000  0.47870000  0.97731000  1.0 -0.0692919694
C  C1759  1  0.33090000  0.47870000  0.52269000  1.0 -0.0692919694
C  C1760  1  0.14780000  0.66910000  0.52269000  1.0 -0.0692919694
C  C1761  1  0.52130000  0.85220000  0.52269000  1.0 -0.0692919694
C  C1762  1  0.66910000  0.52130000  0.02269000  1.0 -0.0692919694
C  C1763  1  0.85220000  0.33090000  0.02269000  1.0 -0.0692919694
C  C1764  1  0.47870000  0.14780000  0.02269000  1.0 -0.0692919694
C  C1765  1  0.47240000  0.62660000  0.54800000  1.0 0.0609318614
C  C1766  1  0.37340000  0.84580000  0.54800000  1.0 0.0609318614
C  C1767  1  0.15420000  0.52760000  0.54800000  1.0 0.0609318614
C  C1768  1  0.52760000  0.37340000  0.04800000  1.0 0.0609318614
C  C1769  1  0.62660000  0.15420000  0.04800000  1.0 0.0609318614
C  C1770  1  0.84580000  0.47240000  0.04800000  1.0 0.0609318614
C  C1771  1  0.62660000  0.47240000  0.45200000  1.0 0.0609318614
C  C1772  1  0.84580000  0.37340000  0.45200000  1.0 0.0609318614
C  C1773  1  0.52760000  0.15420000  0.45200000  1.0 0.0609318614
C  C1774  1  0.37340000  0.52760000  0.95200000  1.0 0.0609318614
C  C1775  1  0.15420000  0.62660000  0.95200000  1.0 0.0609318614
C  C1776  1  0.47240000  0.84580000  0.95200000  1.0 0.0609318614
C  C1777  1  0.52760000  0.37340000  0.45200000  1.0 0.0609318614
C  C1778  1  0.62660000  0.15420000  0.45200000  1.0 0.0609318614
C  C1779  1  0.84580000  0.47240000  0.45200000  1.0 0.0609318614
C  C1780  1  0.47240000  0.62660000  0.95200000  1.0 0.0609318614
C  C1781  1  0.37340000  0.84580000  0.95200000  1.0 0.0609318614
C  C1782  1  0.15420000  0.52760000  0.95200000  1.0 0.0609318614
C  C1783  1  0.37340000  0.52760000  0.54800000  1.0 0.0609318614
C  C1784  1  0.15420000  0.62660000  0.54800000  1.0 0.0609318614
C  C1785  1  0.47240000  0.84580000  0.54800000  1.0 0.0609318614
C  C1786  1  0.62660000  0.47240000  0.04800000  1.0 0.0609318614
C  C1787  1  0.84580000  0.37340000  0.04800000  1.0 0.0609318614
C  C1788  1  0.52760000  0.15420000  0.04800000  1.0 0.0609318614
C  C1789  1  0.53910000  0.74960000  0.45270000  1.0 -0.1285118842
C  C1790  1  0.25040000  0.78950000  0.45270000  1.0 -0.1285118842
C  C1791  1  0.21050000  0.46090000  0.45270000  1.0 -0.1285118842
C  C1792  1  0.46090000  0.25040000  0.95270000  1.0 -0.1285118842
C  C1793  1  0.74960000  0.21050000  0.95270000  1.0 -0.1285118842
C  C1794  1  0.78950000  0.53910000  0.95270000  1.0 -0.1285118842
C  C1795  1  0.74960000  0.53910000  0.54730000  1.0 -0.1285118842
C  C1796  1  0.78950000  0.25040000  0.54730000  1.0 -0.1285118842
C  C1797  1  0.46090000  0.21050000  0.54730000  1.0 -0.1285118842
C  C1798  1  0.25040000  0.46090000  0.04730000  1.0 -0.1285118842
C  C1799  1  0.21050000  0.74960000  0.04730000  1.0 -0.1285118842
C  C1800  1  0.53910000  0.78950000  0.04730000  1.0 -0.1285118842
C  C1801  1  0.46090000  0.25040000  0.54730000  1.0 -0.1285118842
C  C1802  1  0.74960000  0.21050000  0.54730000  1.0 -0.1285118842
C  C1803  1  0.78950000  0.53910000  0.54730000  1.0 -0.1285118842
C  C1804  1  0.53910000  0.74960000  0.04730000  1.0 -0.1285118842
C  C1805  1  0.25040000  0.78950000  0.04730000  1.0 -0.1285118842
C  C1806  1  0.21050000  0.46090000  0.04730000  1.0 -0.1285118842
C  C1807  1  0.25040000  0.46090000  0.45270000  1.0 -0.1285118842
C  C1808  1  0.21050000  0.74960000  0.45270000  1.0 -0.1285118842
C  C1809  1  0.53910000  0.78950000  0.45270000  1.0 -0.1285118842
C  C1810  1  0.74960000  0.53910000  0.95270000  1.0 -0.1285118842
C  C1811  1  0.78950000  0.25040000  0.95270000  1.0 -0.1285118842
C  C1812  1  0.46090000  0.21050000  0.95270000  1.0 -0.1285118842
C  C1813  1  0.52100000  0.74050000  0.46960000  1.0 -0.1399546375
C  C1814  1  0.25950000  0.78050000  0.46960000  1.0 -0.1399546375
C  C1815  1  0.21950000  0.47900000  0.46960000  1.0 -0.1399546375
C  C1816  1  0.47900000  0.25950000  0.96960000  1.0 -0.1399546375
C  C1817  1  0.74050000  0.21950000  0.96960000  1.0 -0.1399546375
C  C1818  1  0.78050000  0.52100000  0.96960000  1.0 -0.1399546375
C  C1819  1  0.74050000  0.52100000  0.53040000  1.0 -0.1399546375
C  C1820  1  0.78050000  0.25950000  0.53040000  1.0 -0.1399546375
C  C1821  1  0.47900000  0.21950000  0.53040000  1.0 -0.1399546375
C  C1822  1  0.25950000  0.47900000  0.03040000  1.0 -0.1399546375
C  C1823  1  0.21950000  0.74050000  0.03040000  1.0 -0.1399546375
C  C1824  1  0.52100000  0.78050000  0.03040000  1.0 -0.1399546375
C  C1825  1  0.47900000  0.25950000  0.53040000  1.0 -0.1399546375
C  C1826  1  0.74050000  0.21950000  0.53040000  1.0 -0.1399546375
C  C1827  1  0.78050000  0.52100000  0.53040000  1.0 -0.1399546375
C  C1828  1  0.52100000  0.74050000  0.03040000  1.0 -0.1399546375
C  C1829  1  0.25950000  0.78050000  0.03040000  1.0 -0.1399546375
C  C1830  1  0.21950000  0.47900000  0.03040000  1.0 -0.1399546375
C  C1831  1  0.25950000  0.47900000  0.46960000  1.0 -0.1399546375
C  C1832  1  0.21950000  0.74050000  0.46960000  1.0 -0.1399546375
C  C1833  1  0.52100000  0.78050000  0.46960000  1.0 -0.1399546375
C  C1834  1  0.74050000  0.52100000  0.96960000  1.0 -0.1399546375
C  C1835  1  0.78050000  0.25950000  0.96960000  1.0 -0.1399546375
C  C1836  1  0.47900000  0.21950000  0.96960000  1.0 -0.1399546375
N  N1  1  0.51990000  0.75995000  0.50060000  1.0 -0.0084605356
N  N2  1  0.24005000  0.75995000  0.50060000  1.0 -0.0084605356
N  N3  1  0.24005000  0.48010000  0.50060000  1.0 -0.0084605356
N  N4  1  0.48010000  0.24005000  0.00060000  1.0 -0.0084605356
N  N5  1  0.75995000  0.24005000  0.00060000  1.0 -0.0084605356
N  N6  1  0.75995000  0.51990000  0.00060000  1.0 -0.0084605356
N  N7  1  0.75995000  0.51990000  0.49940000  1.0 -0.0084605356
N  N8  1  0.75995000  0.24005000  0.49940000  1.0 -0.0084605356
N  N9  1  0.48010000  0.24005000  0.49940000  1.0 -0.0084605356
N  N10  1  0.24005000  0.48010000  0.99940000  1.0 -0.0084605356
N  N11  1  0.24005000  0.75995000  0.99940000  1.0 -0.0084605356
N  N12  1  0.51990000  0.75995000  0.99940000  1.0 -0.0084605356
N  N13  1  0.54930000  0.77465000  0.50730000  1.0 -0.0396749091
N  N14  1  0.22535000  0.77465000  0.50730000  1.0 -0.0396749091
N  N15  1  0.22535000  0.45070000  0.50730000  1.0 -0.0396749091
N  N16  1  0.45070000  0.22535000  0.00730000  1.0 -0.0396749091
N  N17  1  0.77465000  0.22535000  0.00730000  1.0 -0.0396749091
N  N18  1  0.77465000  0.54930000  0.00730000  1.0 -0.0396749091
N  N19  1  0.77465000  0.54930000  0.49270000  1.0 -0.0396749091
N  N20  1  0.77465000  0.22535000  0.49270000  1.0 -0.0396749091
N  N21  1  0.45070000  0.22535000  0.49270000  1.0 -0.0396749091
N  N22  1  0.22535000  0.45070000  0.99270000  1.0 -0.0396749091
N  N23  1  0.22535000  0.77465000  0.99270000  1.0 -0.0396749091
N  N24  1  0.54930000  0.77465000  0.99270000  1.0 -0.0396749091
O  O1  1  0.47688000  0.59632000  0.54387000  1.0 -0.3102055811
O  O2  1  0.40368000  0.88056000  0.54387000  1.0 -0.3102055811
O  O3  1  0.11944000  0.52312000  0.54387000  1.0 -0.3102055811
O  O4  1  0.52312000  0.40368000  0.04387000  1.0 -0.3102055811
O  O5  1  0.59632000  0.11944000  0.04387000  1.0 -0.3102055811
O  O6  1  0.88056000  0.47688000  0.04387000  1.0 -0.3102055811
O  O7  1  0.59632000  0.47688000  0.45613000  1.0 -0.3102055811
O  O8  1  0.88056000  0.40368000  0.45613000  1.0 -0.3102055811
O  O9  1  0.52312000  0.11944000  0.45613000  1.0 -0.3102055811
O  O10  1  0.40368000  0.52312000  0.95613000  1.0 -0.3102055811
O  O11  1  0.11944000  0.59632000  0.95613000  1.0 -0.3102055811
O  O12  1  0.47688000  0.88056000  0.95613000  1.0 -0.3102055811
O  O13  1  0.52312000  0.40368000  0.45613000  1.0 -0.3102055811
O  O14  1  0.59632000  0.11944000  0.45613000  1.0 -0.3102055811
O  O15  1  0.88056000  0.47688000  0.45613000  1.0 -0.3102055811
O  O16  1  0.47688000  0.59632000  0.95613000  1.0 -0.3102055811
O  O17  1  0.40368000  0.88056000  0.95613000  1.0 -0.3102055811
O  O18  1  0.11944000  0.52312000  0.95613000  1.0 -0.3102055811
O  O19  1  0.40368000  0.52312000  0.54387000  1.0 -0.3102055811
O  O20  1  0.11944000  0.59632000  0.54387000  1.0 -0.3102055811
O  O21  1  0.47688000  0.88056000  0.54387000  1.0 -0.3102055811
O  O22  1  0.59632000  0.47688000  0.04387000  1.0 -0.3102055811
O  O23  1  0.88056000  0.40368000  0.04387000  1.0 -0.3102055811
O  O24  1  0.52312000  0.11944000  0.04387000  1.0 -0.3102055811
O  O25  1  0.49892000  0.57449000  0.57524000  1.0 -0.3280471884
O  O26  1  0.42551000  0.92443000  0.57524000  1.0 -0.3280471884
O  O27  1  0.07557000  0.50108000  0.57524000  1.0 -0.3280471884
O  O28  1  0.50108000  0.42551000  0.07524000  1.0 -0.3280471884
O  O29  1  0.57449000  0.07557000  0.07524000  1.0 -0.3280471884
O  O30  1  0.92443000  0.49892000  0.07524000  1.0 -0.3280471884
O  O31  1  0.57449000  0.49892000  0.42476000  1.0 -0.3280471884
O  O32  1  0.92443000  0.42551000  0.42476000  1.0 -0.3280471884
O  O33  1  0.50108000  0.07557000  0.42476000  1.0 -0.3280471884
O  O34  1  0.42551000  0.50108000  0.92476000  1.0 -0.3280471884
O  O35  1  0.07557000  0.57449000  0.92476000  1.0 -0.3280471884
O  O36  1  0.49892000  0.92443000  0.92476000  1.0 -0.3280471884
O  O37  1  0.50108000  0.42551000  0.42476000  1.0 -0.3280471884
O  O38  1  0.57449000  0.07557000  0.42476000  1.0 -0.3280471884
O  O39  1  0.92443000  0.49892000  0.42476000  1.0 -0.3280471884
O  O40  1  0.49892000  0.57449000  0.92476000  1.0 -0.3280471884
O  O41  1  0.42551000  0.92443000  0.92476000  1.0 -0.3280471884
O  O42  1  0.07557000  0.50108000  0.92476000  1.0 -0.3280471884
O  O43  1  0.42551000  0.50108000  0.57524000  1.0 -0.3280471884
O  O44  1  0.07557000  0.57449000  0.57524000  1.0 -0.3280471884
O  O45  1  0.49892000  0.92443000  0.57524000  1.0 -0.3280471884
O  O46  1  0.57449000  0.49892000  0.07524000  1.0 -0.3280471884
O  O47  1  0.92443000  0.42551000  0.07524000  1.0 -0.3280471884
O  O48  1  0.50108000  0.07557000  0.07524000  1.0 -0.3280471884
O  O49  1  0.44745000  0.62632000  0.56011000  1.0 -0.3699089069
O  O50  1  0.37368000  0.82113000  0.56011000  1.0 -0.3699089069
O  O51  1  0.17887000  0.55255000  0.56011000  1.0 -0.3699089069
O  O52  1  0.55255000  0.37368000  0.06011000  1.0 -0.3699089069
O  O53  1  0.62632000  0.17887000  0.06011000  1.0 -0.3699089069
O  O54  1  0.82113000  0.44745000  0.06011000  1.0 -0.3699089069
O  O55  1  0.62632000  0.44745000  0.43989000  1.0 -0.3699089069
O  O56  1  0.82113000  0.37368000  0.43989000  1.0 -0.3699089069
O  O57  1  0.55255000  0.17887000  0.43989000  1.0 -0.3699089069
O  O58  1  0.37368000  0.55255000  0.93989000  1.0 -0.3699089069
O  O59  1  0.17887000  0.62632000  0.93989000  1.0 -0.3699089069
O  O60  1  0.44745000  0.82113000  0.93989000  1.0 -0.3699089069
O  O61  1  0.55255000  0.37368000  0.43989000  1.0 -0.3699089069
O  O62  1  0.62632000  0.17887000  0.43989000  1.0 -0.3699089069
O  O63  1  0.82113000  0.44745000  0.43989000  1.0 -0.3699089069
O  O64  1  0.44745000  0.62632000  0.93989000  1.0 -0.3699089069
O  O65  1  0.37368000  0.82113000  0.93989000  1.0 -0.3699089069
O  O66  1  0.17887000  0.55255000  0.93989000  1.0 -0.3699089069
O  O67  1  0.37368000  0.55255000  0.56011000  1.0 -0.3699089069
O  O68  1  0.17887000  0.62632000  0.56011000  1.0 -0.3699089069
O  O69  1  0.44745000  0.82113000  0.56011000  1.0 -0.3699089069
O  O70  1  0.62632000  0.44745000  0.06011000  1.0 -0.3699089069
O  O71  1  0.82113000  0.37368000  0.06011000  1.0 -0.3699089069
O  O72  1  0.55255000  0.17887000  0.06011000  1.0 -0.3699089069
O  O73  1  0.46974000  0.60381000  0.59171000  1.0 -0.346664906
O  O74  1  0.39619000  0.86593000  0.59171000  1.0 -0.346664906
O  O75  1  0.13407000  0.53026000  0.59171000  1.0 -0.346664906
O  O76  1  0.53026000  0.39619000  0.09171000  1.0 -0.346664906
O  O77  1  0.60381000  0.13407000  0.09171000  1.0 -0.346664906
O  O78  1  0.86593000  0.46974000  0.09171000  1.0 -0.346664906
O  O79  1  0.60381000  0.46974000  0.40829000  1.0 -0.346664906
O  O80  1  0.86593000  0.39619000  0.40829000  1.0 -0.346664906
O  O81  1  0.53026000  0.13407000  0.40829000  1.0 -0.346664906
O  O82  1  0.39619000  0.53026000  0.90829000  1.0 -0.346664906
O  O83  1  0.13407000  0.60381000  0.90829000  1.0 -0.346664906
O  O84  1  0.46974000  0.86593000  0.90829000  1.0 -0.346664906
O  O85  1  0.53026000  0.39619000  0.40829000  1.0 -0.346664906
O  O86  1  0.60381000  0.13407000  0.40829000  1.0 -0.346664906
O  O87  1  0.86593000  0.46974000  0.40829000  1.0 -0.346664906
O  O88  1  0.46974000  0.60381000  0.90829000  1.0 -0.346664906
O  O89  1  0.39619000  0.86593000  0.90829000  1.0 -0.346664906
O  O90  1  0.13407000  0.53026000  0.90829000  1.0 -0.346664906
O  O91  1  0.39619000  0.53026000  0.59171000  1.0 -0.346664906
O  O92  1  0.13407000  0.60381000  0.59171000  1.0 -0.346664906
O  O93  1  0.46974000  0.86593000  0.59171000  1.0 -0.346664906
O  O94  1  0.60381000  0.46974000  0.09171000  1.0 -0.346664906
O  O95  1  0.86593000  0.39619000  0.09171000  1.0 -0.346664906
O  O96  1  0.53026000  0.13407000  0.09171000  1.0 -0.346664906
O  O97  1  0.81938000  0.71268000  0.26848000  1.0 -0.346664906
O  O98  1  0.28732000  0.10670000  0.26848000  1.0 -0.346664906
O  O99  1  0.89330000  0.18062000  0.26848000  1.0 -0.346664906
O  O100  1  0.18062000  0.28732000  0.76848000  1.0 -0.346664906
O  O101  1  0.71268000  0.89330000  0.76848000  1.0 -0.346664906
O  O102  1  0.10670000  0.81938000  0.76848000  1.0 -0.346664906
O  O103  1  0.71268000  0.81938000  0.73152000  1.0 -0.346664906
O  O104  1  0.10670000  0.28732000  0.73152000  1.0 -0.346664906
O  O105  1  0.18062000  0.89330000  0.73152000  1.0 -0.346664906
O  O106  1  0.28732000  0.18062000  0.23152000  1.0 -0.346664906
O  O107  1  0.89330000  0.71268000  0.23152000  1.0 -0.346664906
O  O108  1  0.81938000  0.10670000  0.23152000  1.0 -0.346664906
O  O109  1  0.18062000  0.28732000  0.73152000  1.0 -0.346664906
O  O110  1  0.71268000  0.89330000  0.73152000  1.0 -0.346664906
O  O111  1  0.10670000  0.81938000  0.73152000  1.0 -0.346664906
O  O112  1  0.81938000  0.71268000  0.23152000  1.0 -0.346664906
O  O113  1  0.28732000  0.10670000  0.23152000  1.0 -0.346664906
O  O114  1  0.89330000  0.18062000  0.23152000  1.0 -0.346664906
O  O115  1  0.28732000  0.18062000  0.26848000  1.0 -0.346664906
O  O116  1  0.89330000  0.71268000  0.26848000  1.0 -0.346664906
O  O117  1  0.81938000  0.10670000  0.26848000  1.0 -0.346664906
O  O118  1  0.71268000  0.81938000  0.76848000  1.0 -0.346664906
O  O119  1  0.10670000  0.28732000  0.76848000  1.0 -0.346664906
O  O120  1  0.18062000  0.89330000  0.76848000  1.0 -0.346664906
O  O121  1  0.78376000  0.64242000  0.26872000  1.0 -0.3699089069
O  O122  1  0.35758000  0.14134000  0.26872000  1.0 -0.3699089069
O  O123  1  0.85866000  0.21624000  0.26872000  1.0 -0.3699089069
O  O124  1  0.21624000  0.35758000  0.76872000  1.0 -0.3699089069
O  O125  1  0.64242000  0.85866000  0.76872000  1.0 -0.3699089069
O  O126  1  0.14134000  0.78376000  0.76872000  1.0 -0.3699089069
O  O127  1  0.64242000  0.78376000  0.73128000  1.0 -0.3699089069
O  O128  1  0.14134000  0.35758000  0.73128000  1.0 -0.3699089069
O  O129  1  0.21624000  0.85866000  0.73128000  1.0 -0.3699089069
O  O130  1  0.35758000  0.21624000  0.23128000  1.0 -0.3699089069
O  O131  1  0.85866000  0.64242000  0.23128000  1.0 -0.3699089069
O  O132  1  0.78376000  0.14134000  0.23128000  1.0 -0.3699089069
O  O133  1  0.21624000  0.35758000  0.73128000  1.0 -0.3699089069
O  O134  1  0.64242000  0.85866000  0.73128000  1.0 -0.3699089069
O  O135  1  0.14134000  0.78376000  0.73128000  1.0 -0.3699089069
O  O136  1  0.78376000  0.64242000  0.23128000  1.0 -0.3699089069
O  O137  1  0.35758000  0.14134000  0.23128000  1.0 -0.3699089069
O  O138  1  0.85866000  0.21624000  0.23128000  1.0 -0.3699089069
O  O139  1  0.35758000  0.21624000  0.26872000  1.0 -0.3699089069
O  O140  1  0.85866000  0.64242000  0.26872000  1.0 -0.3699089069
O  O141  1  0.78376000  0.14134000  0.26872000  1.0 -0.3699089069
O  O142  1  0.64242000  0.78376000  0.76872000  1.0 -0.3699089069
O  O143  1  0.14134000  0.35758000  0.76872000  1.0 -0.3699089069
O  O144  1  0.21624000  0.85866000  0.76872000  1.0 -0.3699089069
