# DDEC6 charges by PACMAN v1.1 (https://github.com/mtap-research/PACMAN-charge/)
data_WONBAD_ASR_pacman
_symmetry_space_group_name_H-M   'P 1'
_cell_length_a   9.39766000
_cell_length_b   9.39766000
_cell_length_c   12.75440000
_cell_angle_alpha   90.00000000
_cell_angle_beta   90.00000000
_cell_angle_gamma   110.72600000
_symmetry_Int_Tables_number   1
_chemical_formula_structural   CdHC5O8
_chemical_formula_sum   'Cd4 H4 C20 O32'
_cell_volume   1053.51998402
_cell_formula_units_Z   4
loop_
 _symmetry_equiv_pos_site_id
 _symmetry_equiv_pos_as_xyz
  1  'x, y, z'
loop_
 _atom_site_type_symbol
 _atom_site_label
 _atom_site_symmetry_multiplicity
 _atom_site_fract_x
 _atom_site_fract_y
 _atom_site_fract_z
 _atom_site_occupancy
 _atom_site_charge
Cd  Cd1  1  0.38558000  0.27796000  0.25000000  1.0 0.921950087
Cd  Cd2  1  0.72204000  0.61442000  0.75000000  1.0 0.921950087
Cd  Cd3  1  0.63849000  0.36151000  0.50000000  1.0 0.7555357367
Cd  Cd4  1  0.63849000  0.36151000  0.00000000  1.0 0.7555357367
H  H1  1  0.57750000  0.83830000  0.43480000  1.0 0.1306867301
H  H2  1  0.16170000  0.42250000  0.56520000  1.0 0.1306867301
H  H3  1  0.16170000  0.42250000  0.93480000  1.0 0.1306867301
H  H4  1  0.57750000  0.83830000  0.06520000  1.0 0.1306867301
C  C1  1  0.56670000  0.96090000  0.30610000  1.0 -0.1111090295
C  C2  1  0.03910000  0.43330000  0.69390000  1.0 -0.1111090295
C  C3  1  0.03910000  0.43330000  0.80610000  1.0 -0.1111090295
C  C4  1  0.56670000  0.96090000  0.19390000  1.0 -0.1111090295
C  C5  1  0.57540000  0.83700000  0.36190000  1.0 -0.1217326373
C  C6  1  0.16300000  0.42460000  0.63810000  1.0 -0.1217326373
C  C7  1  0.16300000  0.42460000  0.86190000  1.0 -0.1217326373
C  C8  1  0.57540000  0.83700000  0.13810000  1.0 -0.1217326373
C  C9  1  0.58120000  0.70800000  0.30580000  1.0 -0.1278103292
C  C10  1  0.29200000  0.41880000  0.69420000  1.0 -0.1278103292
C  C11  1  0.29200000  0.41880000  0.80580000  1.0 -0.1278103292
C  C12  1  0.58120000  0.70800000  0.19420000  1.0 -0.1278103292
C  C13  1  0.56320000  0.09300000  0.37470000  1.0 0.4476269335
C  C14  1  0.90700000  0.43680000  0.62530000  1.0 0.4476269335
C  C15  1  0.90700000  0.43680000  0.87470000  1.0 0.4476269335
C  C16  1  0.56320000  0.09300000  0.12530000  1.0 0.4476269335
C  C17  1  0.59930000  0.58050000  0.37180000  1.0 0.4704706818
C  C18  1  0.41950000  0.40070000  0.62820000  1.0 0.4704706818
C  C19  1  0.41950000  0.40070000  0.87180000  1.0 0.4704706818
C  C20  1  0.59930000  0.58050000  0.12820000  1.0 0.4704706818
O  O1  1  0.41090000  0.10530000  0.36050000  1.0 -0.4465227574
O  O2  1  0.89470000  0.58910000  0.63950000  1.0 -0.4438845068
O  O3  1  0.89470000  0.58910000  0.86050000  1.0 -0.4438845068
O  O4  1  0.41090000  0.10530000  0.13950000  1.0 -0.4465227574
O  O5  1  0.65000000  0.16540000  0.41280000  1.0 0.0905459299
O  O6  1  0.83460000  0.35000000  0.58720000  1.0 0.0847572014
O  O7  1  0.83460000  0.35000000  0.91280000  1.0 0.0847572014
O  O8  1  0.65000000  0.16540000  0.08720000  1.0 0.0905459299
O  O9  1  0.70510000  0.57890000  0.40800000  1.0 0.0905459299
O  O10  1  0.42110000  0.29490000  0.59200000  1.0 0.0905459299
O  O11  1  0.42110000  0.29490000  0.90800000  1.0 0.0905459299
O  O12  1  0.70510000  0.57890000  0.09200000  1.0 0.0905459299
O  O13  1  0.45140000  0.45780000  0.38330000  1.0 -0.4198475405
O  O14  1  0.54220000  0.54860000  0.61670000  1.0 -0.4198475405
O  O15  1  0.54220000  0.54860000  0.88330000  1.0 -0.4198475405
O  O16  1  0.45140000  0.45780000  0.11670000  1.0 -0.4198475405
O  O17  1  0.57950000  0.21490000  0.15460000  1.0 -0.1705049574
O  O18  1  0.78510000  0.42050000  0.84540000  1.0 -0.1705049574
O  O19  1  0.78510000  0.42050000  0.65460000  1.0 -0.1705049574
O  O20  1  0.57950000  0.21490000  0.34540000  1.0 -0.1705049574
O  O21  1  0.59600000  0.08960000  0.02100000  1.0 -0.2200513724
O  O22  1  0.91040000  0.40400000  0.97900000  1.0 -0.2200513724
O  O23  1  0.91040000  0.40400000  0.52100000  1.0 -0.2200513724
O  O24  1  0.59600000  0.08960000  0.47900000  1.0 -0.2200513724
O  O25  1  0.65980000  0.61720000  0.03300000  1.0 -0.2200513724
O  O26  1  0.38280000  0.34020000  0.96700000  1.0 -0.2200513724
O  O27  1  0.38280000  0.34020000  0.53300000  1.0 -0.2200513724
O  O28  1  0.65980000  0.61720000  0.46700000  1.0 -0.2200513724
O  O29  1  0.58570000  0.45910000  0.16240000  1.0 -0.2294138819
O  O30  1  0.54090000  0.41430000  0.83760000  1.0 -0.2294138819
O  O31  1  0.54090000  0.41430000  0.66240000  1.0 -0.2294138819
O  O32  1  0.58570000  0.45910000  0.33760000  1.0 -0.2294138819
