# DDEC6 charges by PACMAN v1.1 (https://github.com/mtap-research/PACMAN-charge/)
data_WOPDEL_ASR_pacman
_symmetry_space_group_name_H-M   'P 1'
_cell_length_a   13.90940000
_cell_length_b   13.90940000
_cell_length_c   16.28000000
_cell_angle_alpha   72.19810000
_cell_angle_beta   107.80200000
_cell_angle_gamma   121.66300000
_symmetry_Int_Tables_number   1
_chemical_formula_structural   MnH31C27(NO2)2
_chemical_formula_sum   'Mn4 H124 C108 N8 O16'
_cell_volume   2511.18633917
_cell_formula_units_Z   4
loop_
 _symmetry_equiv_pos_site_id
 _symmetry_equiv_pos_as_xyz
  1  'x, y, z'
loop_
 _atom_site_type_symbol
 _atom_site_label
 _atom_site_symmetry_multiplicity
 _atom_site_fract_x
 _atom_site_fract_y
 _atom_site_fract_z
 _atom_site_occupancy
 _atom_site_charge
Mn  Mn1  1  0.44060000  0.02978000  0.86424000  1.0 0.8737986992
Mn  Mn2  1  0.02978000  0.44060000  0.63576000  1.0 0.8737986992
Mn  Mn3  1  0.55940000  0.97022000  0.13576000  1.0 0.8737986992
Mn  Mn4  1  0.97022000  0.55940000  0.36424000  1.0 0.8750303298
H  H1  1  0.35770000  0.98630000  0.31170000  1.0 0.0794149951
H  H2  1  0.98630000  0.35770000  0.18830000  1.0 0.0794149951
H  H3  1  0.64230000  0.01370000  0.68830000  1.0 0.0794149951
H  H4  1  0.01370000  0.64230000  0.81170000  1.0 0.0794149951
H  H5  1  0.24180000  0.98960000  0.29250000  1.0 0.0606992216
H  H6  1  0.98960000  0.24180000  0.20750000  1.0 0.0606992216
H  H7  1  0.75820000  0.01040000  0.70750000  1.0 0.0606992216
H  H8  1  0.01040000  0.75820000  0.79250000  1.0 0.0606992216
H  H9  1  0.34570000  0.09190000  0.24940000  1.0 0.0606992216
H  H10  1  0.09190000  0.34570000  0.25060000  1.0 0.0606992216
H  H11  1  0.65430000  0.90810000  0.75060000  1.0 0.0606992216
H  H12  1  0.90810000  0.65430000  0.74940000  1.0 0.0606992216
H  H13  1  0.52780000  0.20780000  0.43580000  1.0 0.0705513082
H  H14  1  0.20780000  0.52780000  0.06420000  1.0 0.0705513082
H  H15  1  0.47220000  0.79220000  0.56420000  1.0 0.0705513082
H  H16  1  0.79220000  0.47220000  0.93580000  1.0 0.0705513082
H  H17  1  0.52560000  0.09940000  0.42300000  1.0 0.0794149951
H  H18  1  0.09940000  0.52560000  0.07700000  1.0 0.0794149951
H  H19  1  0.47440000  0.90060000  0.57700000  1.0 0.0794149951
H  H20  1  0.90060000  0.47440000  0.92300000  1.0 0.0794149951
H  H21  1  0.52680000  0.19680000  0.34250000  1.0 0.0705513082
H  H22  1  0.19680000  0.52680000  0.15750000  1.0 0.0705513082
H  H23  1  0.47320000  0.80320000  0.65750000  1.0 0.0705513082
H  H24  1  0.80320000  0.47320000  0.84250000  1.0 0.0705513082
H  H25  1  0.35820000  0.23900000  0.30690000  1.0 0.0606992216
H  H26  1  0.23900000  0.35820000  0.19310000  1.0 0.0606992216
H  H27  1  0.64180000  0.76100000  0.69310000  1.0 0.0606992216
H  H28  1  0.76100000  0.64180000  0.80690000  1.0 0.0606992216
H  H29  1  0.24640000  0.14880000  0.34570000  1.0 0.1112057724
H  H30  1  0.14880000  0.24640000  0.15430000  1.0 0.1112057724
H  H31  1  0.75360000  0.85120000  0.65430000  1.0 0.1112057724
H  H32  1  0.85120000  0.75360000  0.84570000  1.0 0.1112057724
H  H33  1  0.35830000  0.22250000  0.40660000  1.0 0.0606992216
H  H34  1  0.22250000  0.35830000  0.09340000  1.0 0.0606992216
H  H35  1  0.64170000  0.77750000  0.59340000  1.0 0.0606992216
H  H36  1  0.77750000  0.64170000  0.90660000  1.0 0.0606992216
H  H37  1  0.21010000  0.80510000  0.66170000  1.0 0.1293664615
H  H38  1  0.80510000  0.21010000  0.83830000  1.0 0.1293664615
H  H39  1  0.78990000  0.19490000  0.33830000  1.0 0.1293664615
H  H40  1  0.19490000  0.78990000  0.16170000  1.0 0.1293664615
H  H41  1  0.21080000  0.86680000  0.40550000  1.0 0.1293664615
H  H42  1  0.86680000  0.21080000  0.09450000  1.0 0.1293664615
H  H43  1  0.78920000  0.13320000  0.59450000  1.0 0.1293664615
H  H44  1  0.13320000  0.78920000  0.90550000  1.0 0.1293664615
H  H45  1  0.40920000  0.11980000  0.54350000  1.0 0.1293664615
H  H46  1  0.11980000  0.40920000  0.95650000  1.0 0.1293664615
H  H47  1  0.59080000  0.88020000  0.45650000  1.0 0.1293664615
H  H48  1  0.88020000  0.59080000  0.04350000  1.0 0.1293664615
H  H49  1  0.28520000  0.77000000  0.84200000  1.0 0.1193688596
H  H50  1  0.77000000  0.28520000  0.65800000  1.0 0.1193688596
H  H51  1  0.71480000  0.23000000  0.15800000  1.0 0.1193688596
H  H52  1  0.23000000  0.71480000  0.34200000  1.0 0.1193688596
H  H53  1  0.28580000  0.60640000  0.84630000  1.0 0.1516348332
H  H54  1  0.60640000  0.28580000  0.65370000  1.0 0.1516348332
H  H55  1  0.71420000  0.39360000  0.15370000  1.0 0.1516348332
H  H56  1  0.39360000  0.71420000  0.34630000  1.0 0.1516348332
H  H57  1  0.62620000  0.76820000  0.91900000  1.0 0.1376661456
H  H58  1  0.76820000  0.62620000  0.58100000  1.0 0.1376661456
H  H59  1  0.37380000  0.23180000  0.08100000  1.0 0.1376661456
H  H60  1  0.23180000  0.37380000  0.41900000  1.0 0.1376661456
H  H61  1  0.61600000  0.92480000  0.91170000  1.0 0.1046373978
H  H62  1  0.92480000  0.61600000  0.58830000  1.0 0.1046373978
H  H63  1  0.38400000  0.07520000  0.08830000  1.0 0.1046373978
H  H64  1  0.07520000  0.38400000  0.41170000  1.0 0.1046373978
H  H65  1  0.53850000  0.57590000  0.89920000  1.0 0.1193688596
H  H66  1  0.57590000  0.53850000  0.60080000  1.0 0.1193688596
H  H67  1  0.46150000  0.42410000  0.10080000  1.0 0.1193688596
H  H68  1  0.42410000  0.46150000  0.39920000  1.0 0.1193688596
H  H69  1  0.30420000  0.45500000  0.85170000  1.0 0.1293664615
H  H70  1  0.45500000  0.30420000  0.64830000  1.0 0.1293664615
H  H71  1  0.69580000  0.54500000  0.14830000  1.0 0.1293664615
H  H72  1  0.54500000  0.69580000  0.35170000  1.0 0.1293664615
H  H73  1  0.58130000  0.29710000  0.86810000  1.0 0.1112057724
H  H74  1  0.29710000  0.58130000  0.63190000  1.0 0.1112057724
H  H75  1  0.41870000  0.70290000  0.13190000  1.0 0.1112057724
H  H76  1  0.70290000  0.41870000  0.36810000  1.0 0.1112057724
H  H77  1  0.56860000  0.44860000  0.87020000  1.0 0.1376661456
H  H78  1  0.44860000  0.56860000  0.62980000  1.0 0.1376661456
H  H79  1  0.43140000  0.55140000  0.12980000  1.0 0.1376661456
H  H80  1  0.55140000  0.43140000  0.37020000  1.0 0.1376661456
H  H81  1  0.23000000  0.24880000  0.86220000  1.0 0.1376661456
H  H82  1  0.24880000  0.23000000  0.63780000  1.0 0.1376661456
H  H83  1  0.77000000  0.75120000  0.13780000  1.0 0.1376661456
H  H84  1  0.75120000  0.77000000  0.36220000  1.0 0.1376661456
H  H85  1  0.25490000  0.09990000  0.86270000  1.0 0.1112057724
H  H86  1  0.09990000  0.25490000  0.63730000  1.0 0.1112057724
H  H87  1  0.74510000  0.90010000  0.13730000  1.0 0.1112057724
H  H88  1  0.90010000  0.74510000  0.36270000  1.0 0.1112057724
H  H89  1  0.44470000  0.09770000  0.28660000  1.0 0.0794149951
H  H90  1  0.09770000  0.44470000  0.21340000  1.0 0.0794149951
H  H91  1  0.55530000  0.90230000  0.71340000  1.0 0.0794149951
H  H92  1  0.90230000  0.55530000  0.78660000  1.0 0.0794149951
H  H93  1  0.43340000  0.99700000  0.36640000  1.0 0.0794149951
H  H94  1  0.99700000  0.43340000  0.13360000  1.0 0.0794149951
H  H95  1  0.56660000  0.00300000  0.63360000  1.0 0.0794149951
H  H96  1  0.00300000  0.56660000  0.86640000  1.0 0.0794149951
H  H97  1  0.32590000  0.98670000  0.29370000  1.0 0.0794149951
H  H98  1  0.98670000  0.32590000  0.20630000  1.0 0.0794149951
H  H99  1  0.67410000  0.01330000  0.70630000  1.0 0.0794149951
H  H100  1  0.01330000  0.67410000  0.79370000  1.0 0.0794149951
H  H101  1  0.46380000  0.23600000  0.43800000  1.0 0.0606992216
H  H102  1  0.23600000  0.46380000  0.06200000  1.0 0.0606992216
H  H103  1  0.53620000  0.76400000  0.56200000  1.0 0.0606992216
H  H104  1  0.76400000  0.53620000  0.93800000  1.0 0.0606992216
H  H105  1  0.53410000  0.17630000  0.44040000  1.0 0.0794149951
H  H106  1  0.17630000  0.53410000  0.05960000  1.0 0.0794149951
H  H107  1  0.46590000  0.82370000  0.55960000  1.0 0.0794149951
H  H108  1  0.82370000  0.46590000  0.94040000  1.0 0.0794149951
H  H109  1  0.50590000  0.25230000  0.35340000  1.0 0.0502704776
H  H110  1  0.25230000  0.50590000  0.14660000  1.0 0.0502704776
H  H111  1  0.49410000  0.74770000  0.64660000  1.0 0.0502704776
H  H112  1  0.74770000  0.49410000  0.85340000  1.0 0.0502704776
H  H113  1  0.31440000  0.19360000  0.27740000  1.0 0.0606992216
H  H114  1  0.19360000  0.31440000  0.22260000  1.0 0.0606992216
H  H115  1  0.68560000  0.80640000  0.72260000  1.0 0.0606992216
H  H116  1  0.80640000  0.68560000  0.77740000  1.0 0.0606992216
H  H117  1  0.21780000  0.06560000  0.29230000  1.0 0.0705513082
H  H118  1  0.06560000  0.21780000  0.20770000  1.0 0.0705513082
H  H119  1  0.78220000  0.93440000  0.70770000  1.0 0.0705513082
H  H120  1  0.93440000  0.78220000  0.79230000  1.0 0.0705513082
H  H121  1  0.24870000  0.14710000  0.35540000  1.0 0.1112057724
H  H122  1  0.14710000  0.24870000  0.14460000  1.0 0.1112057724
H  H123  1  0.75130000  0.85290000  0.64460000  1.0 0.1112057724
H  H124  1  0.85290000  0.75130000  0.85540000  1.0 0.1193688596
C  C1  1  0.32400000  0.03500000  0.30100000  1.0 -0.1685384164
C  C2  1  0.03500000  0.32400000  0.19900000  1.0 -0.1685384164
C  C3  1  0.67600000  0.96500000  0.69900000  1.0 -0.1685384164
C  C4  1  0.96500000  0.67600000  0.80100000  1.0 -0.1685384164
C  C5  1  0.49930000  0.15530000  0.39670000  1.0 -0.1832504859
C  C6  1  0.15530000  0.49930000  0.10330000  1.0 -0.1902462731
C  C7  1  0.50070000  0.84470000  0.60330000  1.0 -0.1902462731
C  C8  1  0.84470000  0.50070000  0.89670000  1.0 -0.1832504859
C  C9  1  0.32880000  0.18420000  0.35750000  1.0 -0.2393974019
C  C10  1  0.18420000  0.32880000  0.14250000  1.0 -0.2393974019
C  C11  1  0.67120000  0.81580000  0.64250000  1.0 -0.2393974019
C  C12  1  0.81580000  0.67120000  0.85750000  1.0 -0.2393974019
C  C13  1  0.31550000  0.96810000  0.61530000  1.0 0.0035762399
C  C14  1  0.96810000  0.31550000  0.88470000  1.0 0.0035762399
C  C15  1  0.68450000  0.03190000  0.38470000  1.0 0.0035762399
C  C16  1  0.03190000  0.68450000  0.11530000  1.0 0.0035762399
C  C17  1  0.23900000  0.85520000  0.61190000  1.0 -0.1220471055
C  C18  1  0.85520000  0.23900000  0.88810000  1.0 -0.1220471055
C  C19  1  0.76100000  0.14480000  0.38810000  1.0 -0.1220471055
C  C20  1  0.14480000  0.76100000  0.11190000  1.0 -0.1220471055
C  C21  1  0.20480000  0.81580000  0.53480000  1.0 -0.0036367712
C  C22  1  0.81580000  0.20480000  0.96520000  1.0 -0.0036367712
C  C23  1  0.79520000  0.18420000  0.46520000  1.0 -0.0036367712
C  C24  1  0.18420000  0.79520000  0.03480000  1.0 -0.0036367712
C  C25  1  0.24120000  0.89260000  0.45870000  1.0 -0.2393974019
C  C26  1  0.89260000  0.24120000  0.04130000  1.0 -0.2393974019
C  C27  1  0.75880000  0.10740000  0.54130000  1.0 -0.2393974019
C  C28  1  0.10740000  0.75880000  0.95870000  1.0 -0.2393974019
C  C29  1  0.32150000  0.00570000  0.46060000  1.0 -0.0036367712
C  C30  1  0.00570000  0.32150000  0.03940000  1.0 -0.0036367712
C  C31  1  0.67850000  0.99430000  0.53940000  1.0 -0.0036367712
C  C32  1  0.99430000  0.67850000  0.96060000  1.0 -0.0036367712
C  C33  1  0.35700000  0.04320000  0.54050000  1.0 -0.2299411536
C  C34  1  0.04320000  0.35700000  0.95950000  1.0 -0.2299411536
C  C35  1  0.64300000  0.95680000  0.45950000  1.0 -0.2299411536
C  C36  1  0.95680000  0.64300000  0.04050000  1.0 -0.2299411536
C  C37  1  0.35470000  0.01110000  0.70040000  1.0 0.5214853793
C  C38  1  0.01110000  0.35470000  0.79960000  1.0 0.5214853793
C  C39  1  0.64530000  0.98890000  0.29960000  1.0 0.5214853793
C  C40  1  0.98890000  0.64530000  0.20040000  1.0 0.5214853793
C  C41  1  0.12590000  0.68990000  0.53170000  1.0 0.5691486507
C  C42  1  0.68990000  0.12590000  0.96830000  1.0 0.5691486507
C  C43  1  0.87410000  0.31010000  0.46830000  1.0 0.5691486507
C  C44  1  0.31010000  0.87410000  0.03170000  1.0 0.5691486507
C  C45  1  0.36560000  0.09340000  0.37840000  1.0 0.1832479149
C  C46  1  0.09340000  0.36560000  0.12160000  1.0 0.1832479149
C  C47  1  0.63440000  0.90660000  0.62160000  1.0 0.1832479149
C  C48  1  0.90660000  0.63440000  0.87840000  1.0 0.1832479149
C  C49  1  0.35530000  0.76970000  0.85760000  1.0 0.0502704776
C  C50  1  0.76970000  0.35530000  0.64240000  1.0 0.0502704776
C  C51  1  0.64470000  0.23030000  0.14240000  1.0 0.0502704776
C  C52  1  0.23030000  0.64470000  0.35760000  1.0 0.0502704776
C  C53  1  0.35500000  0.67100000  0.85970000  1.0 -0.1902462731
C  C54  1  0.67100000  0.35500000  0.64030000  1.0 -0.1902462731
C  C55  1  0.64500000  0.32900000  0.14030000  1.0 -0.1902462731
C  C56  1  0.32900000  0.64500000  0.35970000  1.0 -0.1902462731
C  C57  1  0.45480000  0.66580000  0.88120000  1.0 0.1112057724
C  C58  1  0.66580000  0.45480000  0.61880000  1.0 0.1112057724
C  C59  1  0.54520000  0.33420000  0.11880000  1.0 0.1112057724
C  C60  1  0.33420000  0.54520000  0.38120000  1.0 0.1112057724
C  C61  1  0.55530000  0.76650000  0.90230000  1.0 -0.2054212183
C  C62  1  0.76650000  0.55530000  0.59770000  1.0 -0.2054212183
C  C63  1  0.44470000  0.23350000  0.09770000  1.0 -0.2054212183
C  C64  1  0.23350000  0.44470000  0.40230000  1.0 -0.2027423389
C  C65  1  0.54790000  0.85930000  0.89830000  1.0 0.0278764426
C  C66  1  0.85930000  0.54790000  0.60170000  1.0 0.0278764426
C  C67  1  0.45210000  0.14070000  0.10170000  1.0 0.0278764426
C  C68  1  0.14070000  0.45210000  0.39830000  1.0 0.0278764426
C  C69  1  0.46490000  0.56790000  0.88360000  1.0 -0.1685384164
C  C70  1  0.56790000  0.46490000  0.61640000  1.0 -0.1685384164
C  C71  1  0.53510000  0.43210000  0.11640000  1.0 -0.1685384164
C  C72  1  0.43210000  0.53510000  0.38360000  1.0 -0.1685384164
C  C73  1  0.37890000  0.46590000  0.86570000  1.0 -0.1685384164
C  C74  1  0.46590000  0.37890000  0.63430000  1.0 -0.1685384164
C  C75  1  0.62110000  0.53410000  0.13430000  1.0 -0.1685384164
C  C76  1  0.53410000  0.62110000  0.36570000  1.0 -0.1685384164
C  C77  1  0.50930000  0.28610000  0.86800000  1.0 0.0502704776
C  C78  1  0.28610000  0.50930000  0.63200000  1.0 0.0502704776
C  C79  1  0.49070000  0.71390000  0.13200000  1.0 0.0502704776
C  C80  1  0.71390000  0.49070000  0.36800000  1.0 0.0502704776
C  C81  1  0.50240000  0.37800000  0.86870000  1.0 -0.2299411536
C  C82  1  0.37800000  0.50240000  0.63130000  1.0 -0.2249850273
C  C83  1  0.49760000  0.62200000  0.13130000  1.0 -0.2249850273
C  C84  1  0.62200000  0.49760000  0.36870000  1.0 -0.2249850273
C  C85  1  0.39690000  0.36930000  0.86730000  1.0 0.1696884393
C  C86  1  0.36930000  0.39690000  0.63270000  1.0 0.1696884393
C  C87  1  0.60310000  0.63070000  0.13270000  1.0 0.1696884393
C  C88  1  0.63070000  0.60310000  0.36730000  1.0 0.1696884393
C  C89  1  0.30300000  0.26100000  0.86430000  1.0 -0.2027423389
C  C90  1  0.26100000  0.30300000  0.63570000  1.0 -0.2027423389
C  C91  1  0.69700000  0.73900000  0.13570000  1.0 -0.2027423389
C  C92  1  0.73900000  0.69700000  0.36430000  1.0 -0.2027423389
C  C93  1  0.31950000  0.17170000  0.86460000  1.0 0.0606992216
C  C94  1  0.17170000  0.31950000  0.63540000  1.0 0.0606992216
C  C95  1  0.68050000  0.82830000  0.13540000  1.0 0.0606992216
C  C96  1  0.82830000  0.68050000  0.36460000  1.0 0.0606992216
C  C97  1  0.39520000  0.03840000  0.32630000  1.0 -0.1832504859
C  C98  1  0.03840000  0.39520000  0.17370000  1.0 -0.1832504859
C  C99  1  0.60480000  0.96160000  0.67370000  1.0 -0.1832504859
C  C100  1  0.96160000  0.60480000  0.82630000  1.0 -0.1832504859
C  C101  1  0.47790000  0.19950000  0.40510000  1.0 -0.1685384164
C  C102  1  0.19950000  0.47790000  0.09490000  1.0 -0.1685384164
C  C103  1  0.52210000  0.80050000  0.59490000  1.0 -0.1685384164
C  C104  1  0.80050000  0.52210000  0.90510000  1.0 -0.1685384164
C  C105  1  0.27890000  0.12790000  0.32080000  1.0 -0.2027423389
C  C106  1  0.12790000  0.27890000  0.17920000  1.0 -0.2027423389
C  C107  1  0.72110000  0.87210000  0.67920000  1.0 -0.2027423389
C  C108  1  0.87210000  0.72110000  0.82080000  1.0 -0.2027423389
N  N1  1  0.45030000  0.86630000  0.87650000  1.0 -0.2482235671
N  N2  1  0.86630000  0.45030000  0.62350000  1.0 -0.2482235671
N  N3  1  0.54970000  0.13370000  0.12350000  1.0 -0.2482235671
N  N4  1  0.13370000  0.54970000  0.37650000  1.0 -0.2482235671
N  N5  1  0.42100000  0.17900000  0.86720000  1.0 -0.2393974019
N  N6  1  0.17900000  0.42100000  0.63280000  1.0 -0.2393974019
N  N7  1  0.57900000  0.82100000  0.13280000  1.0 -0.2393974019
N  N8  1  0.82100000  0.57900000  0.36720000  1.0 -0.2393974019
O  O1  1  0.28900000  0.95900000  0.75670000  1.0 -0.5430276484
O  O2  1  0.95900000  0.28900000  0.74330000  1.0 -0.5430276484
O  O3  1  0.71100000  0.04100000  0.24330000  1.0 -0.5430276484
O  O4  1  0.04100000  0.71100000  0.25670000  1.0 -0.5430276484
O  O5  1  0.45280000  0.09200000  0.71640000  1.0 -0.5323115379
O  O6  1  0.09200000  0.45280000  0.78360000  1.0 -0.5323115379
O  O7  1  0.54720000  0.90800000  0.28360000  1.0 -0.5323115379
O  O8  1  0.90800000  0.54720000  0.21640000  1.0 -0.5323115379
O  O9  1  0.06490000  0.66490000  0.45780000  1.0 -0.5623238102
O  O10  1  0.66490000  0.06490000  0.04220000  1.0 -0.5623238102
O  O11  1  0.93510000  0.33510000  0.54220000  1.0 -0.5623238102
O  O12  1  0.33510000  0.93510000  0.95780000  1.0 -0.5623238102
O  O13  1  0.12360000  0.61940000  0.60250000  1.0 -0.5623238102
O  O14  1  0.61940000  0.12360000  0.89750000  1.0 -0.5623238102
O  O15  1  0.87640000  0.38060000  0.39750000  1.0 -0.5623238102
O  O16  1  0.38060000  0.87640000  0.10250000  1.0 -0.5623238102
