# DDEC6 charges by PACMAN v1.1 (https://github.com/mtap-research/PACMAN-charge/)
data_WOPGOZ_ASR_pacman
_symmetry_space_group_name_H-M   'P 1'
_cell_length_a   20.42300000
_cell_length_b   43.21000000
_cell_length_c   7.05180000
_cell_angle_alpha   90.00000000
_cell_angle_beta   90.00000000
_cell_angle_gamma   90.00000000
_symmetry_Int_Tables_number   1
_chemical_formula_structural   Co2H19C30N3O10
_chemical_formula_sum   'Co16 H152 C240 N24 O80'
_cell_volume   6223.05716159
_cell_formula_units_Z   8
loop_
 _symmetry_equiv_pos_site_id
 _symmetry_equiv_pos_as_xyz
  1  'x, y, z'
loop_
 _atom_site_type_symbol
 _atom_site_label
 _atom_site_symmetry_multiplicity
 _atom_site_fract_x
 _atom_site_fract_y
 _atom_site_fract_z
 _atom_site_occupancy
 _atom_site_charge
Co  Co1  1  0.75000000  0.84515000  0.07907000  1.0 0.9852131802
Co  Co2  1  0.25000000  0.15485000  0.92093000  1.0 0.9824731547
Co  Co3  1  0.75000000  0.65485000  0.07907000  1.0 0.9824731547
Co  Co4  1  0.25000000  0.34515000  0.92093000  1.0 0.9824731547
Co  Co5  1  0.25000000  0.84637000  0.09137000  1.0 0.8927901882
Co  Co6  1  0.75000000  0.15363000  0.90863000  1.0 0.8927901882
Co  Co7  1  0.25000000  0.65363000  0.09137000  1.0 0.8927901882
Co  Co8  1  0.75000000  0.34637000  0.90863000  1.0 0.8927901882
Co  Co9  1  0.68963000  0.75000000  0.35306000  1.0 0.673876484
Co  Co10  1  0.31037000  0.25000000  0.64694000  1.0 0.6760579544
Co  Co11  1  0.81037000  0.75000000  0.35306000  1.0 0.673876484
Co  Co12  1  0.18963000  0.25000000  0.64694000  1.0 0.6760579544
Co  Co13  1  0.57442000  0.25000000  0.40159000  1.0 0.7280479866
Co  Co14  1  0.42558000  0.75000000  0.59841000  1.0 0.7280479866
Co  Co15  1  0.92558000  0.25000000  0.40159000  1.0 0.7387292582
Co  Co16  1  0.07442000  0.75000000  0.59841000  1.0 0.7280479866
H  H1  1  0.50079000  0.79222000  0.15617000  1.0 0.1210296183
H  H2  1  0.49921000  0.20778000  0.84383000  1.0 0.1210296183
H  H3  1  0.99921000  0.70778000  0.15617000  1.0 0.1210296183
H  H4  1  0.00079000  0.29222000  0.84383000  1.0 0.1210296183
H  H5  1  0.49921000  0.29222000  0.84383000  1.0 0.1210296183
H  H6  1  0.50079000  0.70778000  0.15617000  1.0 0.1210296183
H  H7  1  0.00079000  0.20778000  0.84383000  1.0 0.1210296183
H  H8  1  0.99921000  0.79222000  0.15617000  1.0 0.1210296183
H  H9  1  0.41937000  0.88457000  0.15392000  1.0 0.1277629427
H  H10  1  0.58063000  0.11543000  0.84608000  1.0 0.1277629427
H  H11  1  0.08063000  0.61543000  0.15392000  1.0 0.1277629427
H  H12  1  0.91937000  0.38457000  0.84608000  1.0 0.1277629427
H  H13  1  0.58063000  0.38457000  0.84608000  1.0 0.1277629427
H  H14  1  0.41937000  0.61543000  0.15392000  1.0 0.1277629427
H  H15  1  0.91937000  0.11543000  0.84608000  1.0 0.1277629427
H  H16  1  0.08063000  0.88457000  0.15392000  1.0 0.1277629427
H  H17  1  0.62152000  0.87068000  0.31335000  1.0 0.1106526055
H  H18  1  0.37848000  0.12932000  0.68665000  1.0 0.1106526055
H  H19  1  0.87848000  0.62932000  0.31335000  1.0 0.1106526055
H  H20  1  0.12152000  0.37068000  0.68665000  1.0 0.1106526055
H  H21  1  0.37848000  0.37068000  0.68665000  1.0 0.1106526055
H  H22  1  0.62152000  0.62932000  0.31335000  1.0 0.1106526055
H  H23  1  0.12152000  0.12932000  0.68665000  1.0 0.1106526055
H  H24  1  0.87848000  0.87068000  0.31335000  1.0 0.1106526055
H  H25  1  0.62012000  0.91881000  0.19042000  1.0 0.0696546781
H  H26  1  0.37988000  0.08119000  0.80958000  1.0 0.0696546781
H  H27  1  0.87988000  0.58119000  0.19042000  1.0 0.0696546781
H  H28  1  0.12012000  0.41881000  0.80958000  1.0 0.0696546781
H  H29  1  0.37988000  0.41881000  0.80958000  1.0 0.0696546781
H  H30  1  0.62012000  0.58119000  0.19042000  1.0 0.0696546781
H  H31  1  0.12012000  0.08119000  0.80958000  1.0 0.0696546781
H  H32  1  0.87988000  0.91881000  0.19042000  1.0 0.0696546781
H  H33  1  0.60456000  0.91775000  0.44175000  1.0 0.0696546781
H  H34  1  0.39544000  0.08225000  0.55825000  1.0 0.0696546781
H  H35  1  0.89544000  0.58225000  0.44175000  1.0 0.0696546781
H  H36  1  0.10456000  0.41775000  0.55825000  1.0 0.0696546781
H  H37  1  0.39544000  0.41775000  0.55825000  1.0 0.0696546781
H  H38  1  0.60456000  0.58225000  0.44175000  1.0 0.0696546781
H  H39  1  0.10456000  0.08225000  0.55825000  1.0 0.0696546781
H  H40  1  0.89544000  0.91775000  0.44175000  1.0 0.0696546781
H  H41  1  0.59236000  0.96364000  0.61399000  1.0 0.1000935131
H  H42  1  0.40764000  0.03636000  0.38601000  1.0 0.1000935131
H  H43  1  0.90764000  0.53636000  0.61399000  1.0 0.1000935131
H  H44  1  0.09236000  0.46364000  0.38601000  1.0 0.1000935131
H  H45  1  0.40764000  0.46364000  0.38601000  1.0 0.1000935131
H  H46  1  0.59236000  0.53636000  0.61399000  1.0 0.1000935131
H  H47  1  0.09236000  0.03636000  0.38601000  1.0 0.1000935131
H  H48  1  0.90764000  0.96364000  0.61399000  1.0 0.1000935131
H  H49  1  0.58730000  0.02118000  0.62899000  1.0 0.1000935131
H  H50  1  0.41270000  0.97882000  0.37101000  1.0 0.1000935131
H  H51  1  0.91270000  0.47882000  0.62899000  1.0 0.1000935131
H  H52  1  0.08730000  0.52118000  0.37101000  1.0 0.1000935131
H  H53  1  0.41270000  0.52118000  0.37101000  1.0 0.1000935131
H  H54  1  0.58730000  0.47882000  0.62899000  1.0 0.1000935131
H  H55  1  0.08730000  0.97882000  0.37101000  1.0 0.1000935131
H  H56  1  0.91270000  0.02118000  0.62899000  1.0 0.1000935131
H  H57  1  0.56177000  0.02450000  0.01912000  1.0 0.1000935131
H  H58  1  0.43823000  0.97550000  0.98088000  1.0 0.1000935131
H  H59  1  0.93823000  0.47550000  0.01912000  1.0 0.1000935131
H  H60  1  0.06177000  0.52450000  0.98088000  1.0 0.1000935131
H  H61  1  0.43823000  0.52450000  0.98088000  1.0 0.1000935131
H  H62  1  0.56177000  0.47550000  0.01912000  1.0 0.1000935131
H  H63  1  0.06177000  0.97550000  0.98088000  1.0 0.1000935131
H  H64  1  0.93823000  0.02450000  0.01912000  1.0 0.1000935131
H  H65  1  0.56660000  0.96696000  0.00592000  1.0 0.1106526055
H  H66  1  0.43340000  0.03304000  0.99408000  1.0 0.1106526055
H  H67  1  0.93340000  0.53304000  0.00592000  1.0 0.1106526055
H  H68  1  0.06660000  0.46696000  0.99408000  1.0 0.1106526055
H  H69  1  0.43340000  0.46696000  0.99408000  1.0 0.1106526055
H  H70  1  0.56660000  0.53304000  0.00592000  1.0 0.1106526055
H  H71  1  0.06660000  0.03304000  0.99408000  1.0 0.1106526055
H  H72  1  0.93340000  0.96696000  0.00592000  1.0 0.1106526055
H  H73  1  0.58293000  0.06977000  0.48384000  1.0 0.0696546781
H  H74  1  0.41707000  0.93023000  0.51616000  1.0 0.0696546781
H  H75  1  0.91707000  0.43023000  0.48384000  1.0 0.0696546781
H  H76  1  0.08293000  0.56977000  0.51616000  1.0 0.0696546781
H  H77  1  0.41707000  0.56977000  0.51616000  1.0 0.0696546781
H  H78  1  0.58293000  0.43023000  0.48384000  1.0 0.0696546781
H  H79  1  0.08293000  0.93023000  0.51616000  1.0 0.0696546781
H  H80  1  0.91707000  0.06977000  0.48384000  1.0 0.0696546781
H  H81  1  0.61499000  0.07178000  0.24615000  1.0 0.0594072539
H  H82  1  0.38501000  0.92822000  0.75385000  1.0 0.0594072539
H  H83  1  0.88501000  0.42822000  0.24615000  1.0 0.0594072539
H  H84  1  0.11499000  0.57178000  0.75385000  1.0 0.0594072539
H  H85  1  0.38501000  0.57178000  0.75385000  1.0 0.0594072539
H  H86  1  0.61499000  0.42822000  0.24615000  1.0 0.0594072539
H  H87  1  0.11499000  0.92822000  0.75385000  1.0 0.0594072539
H  H88  1  0.88501000  0.07178000  0.24615000  1.0 0.0594072539
H  H89  1  0.59965000  0.12081000  0.37510000  1.0 0.1106526055
H  H90  1  0.40035000  0.87919000  0.62490000  1.0 0.1106526055
H  H91  1  0.90035000  0.37919000  0.37510000  1.0 0.1106526055
H  H92  1  0.09965000  0.62081000  0.62490000  1.0 0.1106526055
H  H93  1  0.40035000  0.62081000  0.62490000  1.0 0.1106526055
H  H94  1  0.59965000  0.37919000  0.37510000  1.0 0.1106526055
H  H95  1  0.09965000  0.87919000  0.62490000  1.0 0.1106526055
H  H96  1  0.90035000  0.12081000  0.37510000  1.0 0.1106526055
H  H97  1  0.45830000  0.19385000  0.29080000  1.0 0.1210296183
H  H98  1  0.54170000  0.80615000  0.70920000  1.0 0.1210296183
H  H99  1  0.04170000  0.30615000  0.29080000  1.0 0.1210296183
H  H100  1  0.95830000  0.69385000  0.70920000  1.0 0.1210296183
H  H101  1  0.54170000  0.69385000  0.70920000  1.0 0.1210296183
H  H102  1  0.45830000  0.30615000  0.29080000  1.0 0.1210296183
H  H103  1  0.95830000  0.80615000  0.70920000  1.0 0.1210296183
H  H104  1  0.04170000  0.19385000  0.29080000  1.0 0.1210296183
H  H105  1  0.40431000  0.09923000  0.16844000  1.0 0.1210296183
H  H106  1  0.59569000  0.90077000  0.83156000  1.0 0.1210296183
H  H107  1  0.09569000  0.40077000  0.16844000  1.0 0.1210296183
H  H108  1  0.90431000  0.59923000  0.83156000  1.0 0.1210296183
H  H109  1  0.59569000  0.59923000  0.83156000  1.0 0.1210296183
H  H110  1  0.40431000  0.40077000  0.16844000  1.0 0.1210296183
H  H111  1  0.90431000  0.90077000  0.83156000  1.0 0.1210296183
H  H112  1  0.09569000  0.09923000  0.16844000  1.0 0.1210296183
H  H113  1  0.75000000  0.85832000  0.50077000  1.0 0.1210296183
H  H114  1  0.25000000  0.14168000  0.49923000  1.0 0.1210296183
H  H115  1  0.75000000  0.64168000  0.50077000  1.0 0.1210296183
H  H116  1  0.25000000  0.35832000  0.49923000  1.0 0.1210296183
H  H117  1  0.75000000  0.90462000  0.70186000  1.0 0.1277629427
H  H118  1  0.25000000  0.09538000  0.29814000  1.0 0.1277629427
H  H119  1  0.75000000  0.59538000  0.70186000  1.0 0.1277629427
H  H120  1  0.25000000  0.40462000  0.29814000  1.0 0.1277629427
H  H121  1  0.75000000  0.95921000  0.17567000  1.0 0.1106526055
H  H122  1  0.25000000  0.04079000  0.82433000  1.0 0.1106526055
H  H123  1  0.75000000  0.54079000  0.17567000  1.0 0.1106526055
H  H124  1  0.25000000  0.45921000  0.82433000  1.0 0.1106526055
H  H125  1  0.75000000  0.91173000  0.00478000  1.0 0.1000935131
H  H126  1  0.25000000  0.08827000  0.99522000  1.0 0.1000935131
H  H127  1  0.75000000  0.58827000  0.00478000  1.0 0.1000935131
H  H128  1  0.25000000  0.41173000  0.99522000  1.0 0.1000935131
H  H129  1  0.75000000  0.03291000  0.35885000  1.0 0.2554105121
H  H130  1  0.25000000  0.96709000  0.64115000  1.0 0.2554105121
H  H131  1  0.75000000  0.46709000  0.35885000  1.0 0.2554105121
H  H132  1  0.25000000  0.53291000  0.64115000  1.0 0.2554105121
H  H133  1  0.75000000  0.99547000  0.25255000  1.0 0.2705114084
H  H134  1  0.25000000  0.00453000  0.74745000  1.0 0.2705114084
H  H135  1  0.75000000  0.50453000  0.25255000  1.0 0.2705114084
H  H136  1  0.25000000  0.49547000  0.74745000  1.0 0.2705114084
H  H137  1  0.75000000  0.09686000  0.14251000  1.0 0.0909746312
H  H138  1  0.25000000  0.90314000  0.85749000  1.0 0.0909746312
H  H139  1  0.75000000  0.40314000  0.14251000  1.0 0.0909746312
H  H140  1  0.25000000  0.59686000  0.85749000  1.0 0.0909746312
H  H141  1  0.75000000  0.04039000  0.05224000  1.0 0.1106526055
H  H142  1  0.25000000  0.95961000  0.94776000  1.0 0.1106526055
H  H143  1  0.75000000  0.45961000  0.05224000  1.0 0.1106526055
H  H144  1  0.25000000  0.54039000  0.94776000  1.0 0.1106526055
H  H145  1  0.75000000  0.06940000  0.46336000  1.0 0.1000935131
H  H146  1  0.25000000  0.93060000  0.53664000  1.0 0.1000935131
H  H147  1  0.75000000  0.43060000  0.46336000  1.0 0.1000935131
H  H148  1  0.25000000  0.56940000  0.53664000  1.0 0.1000935131
H  H149  1  0.75000000  0.12241000  0.57064000  1.0 0.1210296183
H  H150  1  0.25000000  0.87759000  0.42936000  1.0 0.1210296183
H  H151  1  0.75000000  0.37759000  0.57064000  1.0 0.1210296183
H  H152  1  0.25000000  0.62241000  0.42936000  1.0 0.1210296183
C  C1  1  0.62995000  0.81015000  0.26183000  1.0 0.6066310155
C  C2  1  0.37005000  0.18985000  0.73817000  1.0 0.6066310155
C  C3  1  0.87005000  0.68985000  0.26183000  1.0 0.6066310155
C  C4  1  0.12995000  0.31015000  0.73817000  1.0 0.6066310155
C  C5  1  0.37005000  0.31015000  0.73817000  1.0 0.6066310155
C  C6  1  0.62995000  0.68985000  0.26183000  1.0 0.6066310155
C  C7  1  0.12995000  0.18985000  0.73817000  1.0 0.6066310155
C  C8  1  0.87005000  0.81015000  0.26183000  1.0 0.6066310155
C  C9  1  0.56838000  0.82927000  0.23434000  1.0 -0.0100407249
C  C10  1  0.43162000  0.17073000  0.76566000  1.0 -0.0100407249
C  C11  1  0.93162000  0.67073000  0.23434000  1.0 -0.0100407249
C  C12  1  0.06838000  0.32927000  0.76566000  1.0 -0.0100407249
C  C13  1  0.43162000  0.32927000  0.76566000  1.0 -0.0100407249
C  C14  1  0.56838000  0.67073000  0.23434000  1.0 -0.0100407249
C  C15  1  0.06838000  0.17073000  0.76566000  1.0 -0.0100407249
C  C16  1  0.93162000  0.82927000  0.23434000  1.0 -0.0100407249
C  C17  1  0.50709000  0.81709000  0.17967000  1.0 -0.1215920229
C  C18  1  0.49291000  0.18291000  0.82033000  1.0 -0.1146369976
C  C19  1  0.99291000  0.68291000  0.17967000  1.0 -0.1146369976
C  C20  1  0.00709000  0.31709000  0.82033000  1.0 -0.1146369976
C  C21  1  0.49291000  0.31709000  0.82033000  1.0 -0.1146369976
C  C22  1  0.50709000  0.68291000  0.17967000  1.0 -0.1215920229
C  C23  1  0.00709000  0.18291000  0.82033000  1.0 -0.1146369976
C  C24  1  0.99291000  0.81709000  0.17967000  1.0 -0.1146369976
C  C25  1  0.45315000  0.83737000  0.15244000  1.0 0.0025304125
C  C26  1  0.54685000  0.16263000  0.84756000  1.0 -0.0015115761
C  C27  1  0.04685000  0.66263000  0.15244000  1.0 -0.0015115761
C  C28  1  0.95315000  0.33737000  0.84756000  1.0 -0.0015115761
C  C29  1  0.54685000  0.33737000  0.84756000  1.0 -0.0015115761
C  C30  1  0.45315000  0.66263000  0.15244000  1.0 0.0025304125
C  C31  1  0.95315000  0.16263000  0.84756000  1.0 -0.0015115761
C  C32  1  0.04685000  0.83737000  0.15244000  1.0 -0.0015115761
C  C33  1  0.46107000  0.86922000  0.17958000  1.0 -0.1842569736
C  C34  1  0.53893000  0.13078000  0.82042000  1.0 -0.1842569736
C  C35  1  0.03893000  0.63078000  0.17958000  1.0 -0.1842569736
C  C36  1  0.96107000  0.36922000  0.82042000  1.0 -0.1842569736
C  C37  1  0.53893000  0.36922000  0.82042000  1.0 -0.1842569736
C  C38  1  0.46107000  0.63078000  0.17958000  1.0 -0.1842569736
C  C39  1  0.96107000  0.13078000  0.82042000  1.0 -0.1842569736
C  C40  1  0.03893000  0.86922000  0.17958000  1.0 -0.1842569736
C  C41  1  0.52140000  0.88127000  0.23711000  1.0 0.2477076735
C  C42  1  0.47860000  0.11873000  0.76289000  1.0 0.2477076735
C  C43  1  0.97860000  0.61873000  0.23711000  1.0 0.2477076735
C  C44  1  0.02140000  0.38127000  0.76289000  1.0 0.2477076735
C  C45  1  0.47860000  0.38127000  0.76289000  1.0 0.2477076735
C  C46  1  0.52140000  0.61873000  0.23711000  1.0 0.2477076735
C  C47  1  0.02140000  0.11873000  0.76289000  1.0 0.2477076735
C  C48  1  0.97860000  0.88127000  0.23711000  1.0 0.2477076735
C  C49  1  0.57466000  0.86151000  0.26518000  1.0 -0.2219107252
C  C50  1  0.42534000  0.13849000  0.73482000  1.0 -0.2219107252
C  C51  1  0.92534000  0.63849000  0.26518000  1.0 -0.2219107252
C  C52  1  0.07466000  0.36151000  0.73482000  1.0 -0.2219107252
C  C53  1  0.42534000  0.36151000  0.73482000  1.0 -0.2219107252
C  C54  1  0.57466000  0.63849000  0.26518000  1.0 -0.2219107252
C  C55  1  0.07466000  0.13849000  0.73482000  1.0 -0.2219107252
C  C56  1  0.92534000  0.86151000  0.26518000  1.0 -0.2219107252
C  C57  1  0.38520000  0.82574000  0.09847000  1.0 0.5695474344
C  C58  1  0.61480000  0.17426000  0.90153000  1.0 0.5695474344
C  C59  1  0.11480000  0.67426000  0.09847000  1.0 0.5695474344
C  C60  1  0.88520000  0.32574000  0.90153000  1.0 0.5695474344
C  C61  1  0.61480000  0.32574000  0.90153000  1.0 0.5695474344
C  C62  1  0.38520000  0.67426000  0.09847000  1.0 0.5695474344
C  C63  1  0.88520000  0.17426000  0.90153000  1.0 0.5695474344
C  C64  1  0.11480000  0.82574000  0.09847000  1.0 0.5695474344
C  C65  1  0.58610000  0.92656000  0.30361000  1.0 -0.0100407249
C  C66  1  0.41390000  0.07344000  0.69639000  1.0 -0.0100407249
C  C67  1  0.91390000  0.57344000  0.30361000  1.0 -0.0100407249
C  C68  1  0.08610000  0.42656000  0.69639000  1.0 -0.0100407249
C  C69  1  0.41390000  0.42656000  0.69639000  1.0 -0.0100407249
C  C70  1  0.58610000  0.57344000  0.30361000  1.0 -0.0100407249
C  C71  1  0.08610000  0.07344000  0.69639000  1.0 -0.0100407249
C  C72  1  0.91390000  0.92656000  0.30361000  1.0 -0.0100407249
C  C73  1  0.58127000  0.96144000  0.30910000  1.0 0.0785647231
C  C74  1  0.41873000  0.03856000  0.69090000  1.0 0.0785647231
C  C75  1  0.91873000  0.53856000  0.30910000  1.0 0.0785647231
C  C76  1  0.08127000  0.46144000  0.69090000  1.0 0.0785647231
C  C77  1  0.41873000  0.46144000  0.69090000  1.0 0.0785647231
C  C78  1  0.58127000  0.53856000  0.30910000  1.0 0.0785647231
C  C79  1  0.08127000  0.03856000  0.69090000  1.0 0.0785647231
C  C80  1  0.91873000  0.96144000  0.30910000  1.0 0.0785647231
C  C81  1  0.58705000  0.97711000  0.48303000  1.0 -0.1215920229
C  C82  1  0.41295000  0.02289000  0.51697000  1.0 -0.1215920229
C  C83  1  0.91295000  0.52289000  0.48303000  1.0 -0.1215920229
C  C84  1  0.08705000  0.47711000  0.51697000  1.0 -0.1215920229
C  C85  1  0.41295000  0.47711000  0.51697000  1.0 -0.1215920229
C  C86  1  0.58705000  0.52289000  0.48303000  1.0 -0.1215920229
C  C87  1  0.08705000  0.02289000  0.51697000  1.0 -0.1215920229
C  C88  1  0.91295000  0.97711000  0.48303000  1.0 -0.1215920229
C  C89  1  0.58404000  0.00949000  0.49125000  1.0 -0.1270402622
C  C90  1  0.41596000  0.99051000  0.50875000  1.0 -0.1270402622
C  C91  1  0.91596000  0.49051000  0.49125000  1.0 -0.1270402622
C  C92  1  0.08404000  0.50949000  0.50875000  1.0 -0.1270402622
C  C93  1  0.41596000  0.50949000  0.50875000  1.0 -0.1270402622
C  C94  1  0.58404000  0.49051000  0.49125000  1.0 -0.1270402622
C  C95  1  0.08404000  0.99051000  0.50875000  1.0 -0.1270402622
C  C96  1  0.91596000  0.00949000  0.49125000  1.0 -0.1270402622
C  C97  1  0.57539000  0.02696000  0.32519000  1.0 0.0696546781
C  C98  1  0.42461000  0.97304000  0.67481000  1.0 0.0696546781
C  C99  1  0.92461000  0.47304000  0.32519000  1.0 0.0696546781
C  C100  1  0.07539000  0.52696000  0.67481000  1.0 0.0696546781
C  C101  1  0.42461000  0.52696000  0.67481000  1.0 0.0696546781
C  C102  1  0.57539000  0.47304000  0.32519000  1.0 0.0696546781
C  C103  1  0.07539000  0.97304000  0.67481000  1.0 0.0696546781
C  C104  1  0.92461000  0.02696000  0.32519000  1.0 0.0696546781
C  C105  1  0.56885000  0.01129000  0.15060000  1.0 -0.1270402622
C  C106  1  0.43115000  0.98871000  0.84940000  1.0 -0.1270402622
C  C107  1  0.93115000  0.48871000  0.15060000  1.0 -0.1270402622
C  C108  1  0.06885000  0.51129000  0.84940000  1.0 -0.1270402622
C  C109  1  0.43115000  0.51129000  0.84940000  1.0 -0.1270402622
C  C110  1  0.56885000  0.48871000  0.15060000  1.0 -0.1270402622
C  C111  1  0.06885000  0.98871000  0.84940000  1.0 -0.1270402622
C  C112  1  0.93115000  0.01129000  0.15060000  1.0 -0.1270402622
C  C113  1  0.57178000  0.97889000  0.14261000  1.0 -0.1215920229
C  C114  1  0.42822000  0.02111000  0.85739000  1.0 -0.1215920229
C  C115  1  0.92822000  0.52111000  0.14261000  1.0 -0.1215920229
C  C116  1  0.07178000  0.47889000  0.85739000  1.0 -0.1215920229
C  C117  1  0.42822000  0.47889000  0.85739000  1.0 -0.1215920229
C  C118  1  0.57178000  0.52111000  0.14261000  1.0 -0.1215920229
C  C119  1  0.07178000  0.02111000  0.85739000  1.0 -0.1215920229
C  C120  1  0.92822000  0.97889000  0.14261000  1.0 -0.1215920229
C  C121  1  0.57498000  0.06192000  0.33520000  1.0 -0.0015115761
C  C122  1  0.42502000  0.93808000  0.66480000  1.0 -0.0015115761
C  C123  1  0.92502000  0.43808000  0.33520000  1.0 -0.0015115761
C  C124  1  0.07498000  0.56192000  0.66480000  1.0 -0.0015115761
C  C125  1  0.42502000  0.56192000  0.66480000  1.0 -0.0015115761
C  C126  1  0.57498000  0.43808000  0.33520000  1.0 -0.0015115761
C  C127  1  0.07498000  0.93808000  0.66480000  1.0 -0.0015115761
C  C128  1  0.92502000  0.06192000  0.33520000  1.0 -0.0015115761
C  C129  1  0.50305000  0.10550000  0.27554000  1.0 0.2477076735
C  C130  1  0.49695000  0.89450000  0.72446000  1.0 0.2477076735
C  C131  1  0.99695000  0.39450000  0.27554000  1.0 0.2477076735
C  C132  1  0.00305000  0.60550000  0.72446000  1.0 0.2477076735
C  C133  1  0.49695000  0.60550000  0.72446000  1.0 0.2477076735
C  C134  1  0.50305000  0.39450000  0.27554000  1.0 0.2477076735
C  C135  1  0.00305000  0.89450000  0.72446000  1.0 0.2477076735
C  C136  1  0.99695000  0.10550000  0.27554000  1.0 0.2477076735
C  C137  1  0.54991000  0.12713000  0.33193000  1.0 -0.2256872905
C  C138  1  0.45009000  0.87287000  0.66807000  1.0 -0.2256872905
C  C139  1  0.95009000  0.37287000  0.33193000  1.0 -0.2256872905
C  C140  1  0.04991000  0.62713000  0.66807000  1.0 -0.2219107252
C  C141  1  0.45009000  0.62713000  0.66807000  1.0 -0.2256872905
C  C142  1  0.54991000  0.37287000  0.33193000  1.0 -0.2256872905
C  C143  1  0.04991000  0.87287000  0.66807000  1.0 -0.2256872905
C  C144  1  0.95009000  0.12713000  0.33193000  1.0 -0.2256872905
C  C145  1  0.53366000  0.15897000  0.33671000  1.0 -0.0100407249
C  C146  1  0.46634000  0.84103000  0.66329000  1.0 -0.0100407249
C  C147  1  0.96634000  0.34103000  0.33671000  1.0 -0.0100407249
C  C148  1  0.03366000  0.65897000  0.66329000  1.0 -0.0100407249
C  C149  1  0.46634000  0.65897000  0.66329000  1.0 -0.0100407249
C  C150  1  0.53366000  0.34103000  0.33671000  1.0 -0.0100407249
C  C151  1  0.03366000  0.84103000  0.66329000  1.0 -0.0100407249
C  C152  1  0.96634000  0.15897000  0.33671000  1.0 -0.0100407249
C  C153  1  0.47115000  0.16928000  0.28517000  1.0 -0.1215920229
C  C154  1  0.52885000  0.83072000  0.71483000  1.0 -0.1215920229
C  C155  1  0.02885000  0.33072000  0.28517000  1.0 -0.1215920229
C  C156  1  0.97115000  0.66928000  0.71483000  1.0 -0.1215920229
C  C157  1  0.52885000  0.66928000  0.71483000  1.0 -0.1215920229
C  C158  1  0.47115000  0.33072000  0.28517000  1.0 -0.1215920229
C  C159  1  0.97115000  0.83072000  0.71483000  1.0 -0.1215920229
C  C160  1  0.02885000  0.16928000  0.28517000  1.0 -0.1215920229
C  C161  1  0.42432000  0.14745000  0.22405000  1.0 0.0025304125
C  C162  1  0.57568000  0.85255000  0.77595000  1.0 0.0025304125
C  C163  1  0.07568000  0.35255000  0.22405000  1.0 0.0025304125
C  C164  1  0.92432000  0.64745000  0.77595000  1.0 0.0025304125
C  C165  1  0.57568000  0.64745000  0.77595000  1.0 0.0025304125
C  C166  1  0.42432000  0.35255000  0.22405000  1.0 0.0025304125
C  C167  1  0.92432000  0.85255000  0.77595000  1.0 0.0025304125
C  C168  1  0.07568000  0.14745000  0.22405000  1.0 0.0025304125
C  C169  1  0.44065000  0.11590000  0.21962000  1.0 -0.1912953707
C  C170  1  0.55935000  0.88410000  0.78038000  1.0 -0.1912953707
C  C171  1  0.05935000  0.38410000  0.21962000  1.0 -0.1912953707
C  C172  1  0.94065000  0.61590000  0.78038000  1.0 -0.1912953707
C  C173  1  0.55935000  0.61590000  0.78038000  1.0 -0.1912953707
C  C174  1  0.44065000  0.38410000  0.21962000  1.0 -0.1912953707
C  C175  1  0.94065000  0.88410000  0.78038000  1.0 -0.1912953707
C  C176  1  0.05935000  0.11590000  0.21962000  1.0 -0.1912953707
C  C177  1  0.35770000  0.15890000  0.15617000  1.0 0.5485437858
C  C178  1  0.64230000  0.84110000  0.84383000  1.0 0.5485437858
C  C179  1  0.14230000  0.34110000  0.15617000  1.0 0.5485437858
C  C180  1  0.85770000  0.65890000  0.84383000  1.0 0.5485437858
C  C181  1  0.64230000  0.65890000  0.84383000  1.0 0.5485437858
C  C182  1  0.35770000  0.34110000  0.15617000  1.0 0.5485437858
C  C183  1  0.85770000  0.84110000  0.84383000  1.0 0.5485437858
C  C184  1  0.14230000  0.15890000  0.15617000  1.0 0.5485437858
C  C185  1  0.58780000  0.18012000  0.39933000  1.0 0.5569235134
C  C186  1  0.41220000  0.81988000  0.60067000  1.0 0.5569235134
C  C187  1  0.91220000  0.31988000  0.39933000  1.0 0.5569235134
C  C188  1  0.08780000  0.68012000  0.60067000  1.0 0.5569235134
C  C189  1  0.41220000  0.68012000  0.60067000  1.0 0.5569235134
C  C190  1  0.58780000  0.31988000  0.39933000  1.0 0.5569235134
C  C191  1  0.08780000  0.81988000  0.60067000  1.0 0.5569235134
C  C192  1  0.91220000  0.18012000  0.39933000  1.0 0.5569235134
C  C193  1  0.75000000  0.88141000  0.43604000  1.0 0.0909746312
C  C194  1  0.25000000  0.11859000  0.56396000  1.0 0.0909746312
C  C195  1  0.75000000  0.61859000  0.43604000  1.0 0.0909746312
C  C196  1  0.25000000  0.38141000  0.56396000  1.0 0.0909746312
C  C197  1  0.75000000  0.90814000  0.54788000  1.0 -0.1575471115
C  C198  1  0.25000000  0.09186000  0.45212000  1.0 -0.1575471115
C  C199  1  0.75000000  0.59186000  0.54788000  1.0 -0.1575471115
C  C200  1  0.25000000  0.40814000  0.45212000  1.0 -0.1575471115
C  C201  1  0.75000000  0.93831000  0.46601000  1.0 0.0501289043
C  C202  1  0.25000000  0.06169000  0.53399000  1.0 0.0501289043
C  C203  1  0.75000000  0.56169000  0.46601000  1.0 0.0501289043
C  C204  1  0.25000000  0.43831000  0.53399000  1.0 0.0501289043
C  C205  1  0.75000000  0.93846000  0.26437000  1.0 -0.1912953707
C  C206  1  0.25000000  0.06154000  0.73563000  1.0 -0.1912953707
C  C207  1  0.75000000  0.56154000  0.26437000  1.0 -0.1912953707
C  C208  1  0.25000000  0.43846000  0.73563000  1.0 -0.1912953707
C  C209  1  0.75000000  0.91085000  0.16011000  1.0 0.0909746312
C  C210  1  0.25000000  0.08915000  0.83989000  1.0 0.0909746312
C  C211  1  0.75000000  0.58915000  0.16011000  1.0 0.0909746312
C  C212  1  0.25000000  0.41085000  0.83989000  1.0 0.0909746312
C  C213  1  0.75000000  0.96578000  0.59482000  1.0 0.1588754702
C  C214  1  0.25000000  0.03422000  0.40518000  1.0 0.1588754702
C  C215  1  0.75000000  0.53422000  0.59482000  1.0 0.1588754702
C  C216  1  0.25000000  0.46578000  0.40518000  1.0 0.1588754702
C  C217  1  0.75000000  0.01403000  0.71934000  1.0 0.1391090127
C  C218  1  0.25000000  0.98597000  0.28066000  1.0 0.1391090127
C  C219  1  0.75000000  0.48597000  0.71934000  1.0 0.1391090127
C  C220  1  0.25000000  0.51403000  0.28066000  1.0 0.1391090127
C  C221  1  0.75000000  0.04793000  0.75158000  1.0 0.0594072539
C  C222  1  0.25000000  0.95207000  0.24842000  1.0 0.0594072539
C  C223  1  0.75000000  0.45207000  0.75158000  1.0 0.0594072539
C  C224  1  0.25000000  0.54793000  0.24842000  1.0 0.0594072539
C  C225  1  0.75000000  0.05815000  0.94312000  1.0 -0.1701834881
C  C226  1  0.25000000  0.94185000  0.05688000  1.0 -0.1701834881
C  C227  1  0.75000000  0.44185000  0.94312000  1.0 -0.1701834881
C  C228  1  0.25000000  0.55815000  0.05688000  1.0 -0.1701834881
C  C229  1  0.75000000  0.08921000  0.99357000  1.0 0.1000935131
C  C230  1  0.25000000  0.91079000  0.00643000  1.0 0.1000935131
C  C231  1  0.75000000  0.41079000  0.99357000  1.0 0.1000935131
C  C232  1  0.25000000  0.58921000  0.00643000  1.0 0.1000935131
C  C233  1  0.75000000  0.07246000  0.61767000  1.0 -0.1701834881
C  C234  1  0.25000000  0.92754000  0.38233000  1.0 -0.1701834881
C  C235  1  0.75000000  0.42754000  0.61767000  1.0 -0.1701834881
C  C236  1  0.25000000  0.57246000  0.38233000  1.0 -0.1701834881
C  C237  1  0.75000000  0.10348000  0.67378000  1.0 0.1106526055
C  C238  1  0.25000000  0.89652000  0.32622000  1.0 0.1106526055
C  C239  1  0.75000000  0.39652000  0.67378000  1.0 0.1106526055
C  C240  1  0.25000000  0.60348000  0.32622000  1.0 0.1106526055
N  N1  1  0.75000000  0.88229000  0.24093000  1.0 -0.2402660166
N  N2  1  0.25000000  0.11771000  0.75907000  1.0 -0.2402660166
N  N3  1  0.75000000  0.61771000  0.24093000  1.0 -0.2402660166
N  N4  1  0.25000000  0.38229000  0.75907000  1.0 -0.2402660166
N  N5  1  0.75000000  0.99272000  0.86313000  1.0 -0.2530935434
N  N6  1  0.25000000  0.00728000  0.13687000  1.0 -0.2530935434
N  N7  1  0.75000000  0.50728000  0.86313000  1.0 -0.2530935434
N  N8  1  0.25000000  0.49272000  0.13687000  1.0 -0.2530935434
N  N9  1  0.75000000  0.96343000  0.78674000  1.0 -0.2402660166
N  N10  1  0.25000000  0.03657000  0.21326000  1.0 -0.2402660166
N  N11  1  0.75000000  0.53657000  0.78674000  1.0 -0.2402660166
N  N12  1  0.25000000  0.46343000  0.21326000  1.0 -0.2402660166
N  N13  1  0.75000000  0.99735000  0.54910000  1.0 0.1277629427
N  N14  1  0.25000000  0.00265000  0.45090000  1.0 0.1277629427
N  N15  1  0.75000000  0.50265000  0.54910000  1.0 0.1277629427
N  N16  1  0.25000000  0.49735000  0.45090000  1.0 0.1277629427
N  N17  1  0.75000000  0.00957000  0.36896000  1.0 -0.48057432
N  N18  1  0.25000000  0.99043000  0.63104000  1.0 -0.48057432
N  N19  1  0.75000000  0.49043000  0.36896000  1.0 -0.48057432
N  N20  1  0.25000000  0.50957000  0.63104000  1.0 -0.48057432
N  N21  1  0.75000000  0.11201000  0.85997000  1.0 -0.2103061778
N  N22  1  0.25000000  0.88799000  0.14003000  1.0 -0.2103061778
N  N23  1  0.75000000  0.38799000  0.85997000  1.0 -0.2103061778
N  N24  1  0.25000000  0.61201000  0.14003000  1.0 -0.2103061778
O  O1  1  0.68733000  0.82137000  0.23340000  1.0 -0.5436914813
O  O2  1  0.31267000  0.17863000  0.76660000  1.0 -0.5436914813
O  O3  1  0.81267000  0.67863000  0.23340000  1.0 -0.5436914813
O  O4  1  0.18733000  0.32137000  0.76660000  1.0 -0.5436914813
O  O5  1  0.31267000  0.32137000  0.76660000  1.0 -0.5436914813
O  O6  1  0.68733000  0.67863000  0.23340000  1.0 -0.5436914813
O  O7  1  0.18733000  0.17863000  0.76660000  1.0 -0.5436914813
O  O8  1  0.81267000  0.82137000  0.23340000  1.0 -0.5436914813
O  O9  1  0.62410000  0.78216000  0.32639000  1.0 -0.4903432269
O  O10  1  0.37590000  0.21784000  0.67361000  1.0 -0.4903432269
O  O11  1  0.87590000  0.71784000  0.32639000  1.0 -0.4903432269
O  O12  1  0.12410000  0.28216000  0.67361000  1.0 -0.4903432269
O  O13  1  0.37590000  0.28216000  0.67361000  1.0 -0.4903432269
O  O14  1  0.62410000  0.71784000  0.32639000  1.0 -0.4903432269
O  O15  1  0.12410000  0.21784000  0.67361000  1.0 -0.4903432269
O  O16  1  0.87590000  0.78216000  0.32639000  1.0 -0.4903432269
O  O17  1  0.37377000  0.79879000  0.05270000  1.0 -0.4517358295
O  O18  1  0.62623000  0.20121000  0.94730000  1.0 -0.4517358295
O  O19  1  0.12623000  0.70121000  0.05270000  1.0 -0.4517358295
O  O20  1  0.87377000  0.29879000  0.94730000  1.0 -0.4517358295
O  O21  1  0.62623000  0.29879000  0.94730000  1.0 -0.4517358295
O  O22  1  0.37377000  0.70121000  0.05270000  1.0 -0.4517358295
O  O23  1  0.87377000  0.20121000  0.94730000  1.0 -0.4517358295
O  O24  1  0.12623000  0.79879000  0.05270000  1.0 -0.4517358295
O  O25  1  0.33969000  0.84871000  0.10559000  1.0 -0.5586407733
O  O26  1  0.66031000  0.15129000  0.89441000  1.0 -0.5586407733
O  O27  1  0.16031000  0.65129000  0.10559000  1.0 -0.5586407733
O  O28  1  0.83969000  0.34871000  0.89441000  1.0 -0.5586407733
O  O29  1  0.66031000  0.34871000  0.89441000  1.0 -0.5586407733
O  O30  1  0.33969000  0.65129000  0.10559000  1.0 -0.5586407733
O  O31  1  0.83969000  0.15129000  0.89441000  1.0 -0.5586407733
O  O32  1  0.16031000  0.84871000  0.10559000  1.0 -0.5586407733
O  O33  1  0.52249000  0.91309000  0.26567000  1.0 -0.2103061778
O  O34  1  0.47751000  0.08691000  0.73433000  1.0 -0.2103061778
O  O35  1  0.97751000  0.58691000  0.26567000  1.0 -0.2103061778
O  O36  1  0.02249000  0.41309000  0.73433000  1.0 -0.2103061778
O  O37  1  0.47751000  0.41309000  0.73433000  1.0 -0.2103061778
O  O38  1  0.52249000  0.58691000  0.26567000  1.0 -0.2103061778
O  O39  1  0.02249000  0.08691000  0.73433000  1.0 -0.2103061778
O  O40  1  0.97751000  0.91309000  0.26567000  1.0 -0.2103061778
O  O41  1  0.51264000  0.07357000  0.26654000  1.0 -0.2219107252
O  O42  1  0.48736000  0.92643000  0.73346000  1.0 -0.2256872905
O  O43  1  0.98736000  0.42643000  0.26654000  1.0 -0.2219107252
O  O44  1  0.01264000  0.57357000  0.73346000  1.0 -0.2256872905
O  O45  1  0.48736000  0.57357000  0.73346000  1.0 -0.2256872905
O  O46  1  0.51264000  0.42643000  0.26654000  1.0 -0.2219107252
O  O47  1  0.01264000  0.92643000  0.73346000  1.0 -0.2219107252
O  O48  1  0.98736000  0.07357000  0.26654000  1.0 -0.2219107252
O  O49  1  0.32065000  0.13777000  0.06903000  1.0 -0.5677787241
O  O50  1  0.67935000  0.86223000  0.93097000  1.0 -0.5677787241
O  O51  1  0.17935000  0.36223000  0.06903000  1.0 -0.5677787241
O  O52  1  0.82065000  0.63777000  0.93097000  1.0 -0.5677787241
O  O53  1  0.67935000  0.63777000  0.93097000  1.0 -0.5677787241
O  O54  1  0.32065000  0.36223000  0.06903000  1.0 -0.5677787241
O  O55  1  0.82065000  0.86223000  0.93097000  1.0 -0.5677787241
O  O56  1  0.17935000  0.13777000  0.06903000  1.0 -0.5677787241
O  O57  1  0.34102000  0.18637000  0.17636000  1.0 -0.4903432269
O  O58  1  0.65898000  0.81363000  0.82364000  1.0 -0.4903432269
O  O59  1  0.15898000  0.31363000  0.17636000  1.0 -0.4903432269
O  O60  1  0.84102000  0.68637000  0.82364000  1.0 -0.4903432269
O  O61  1  0.65898000  0.68637000  0.82364000  1.0 -0.4903432269
O  O62  1  0.34102000  0.31363000  0.17636000  1.0 -0.4903432269
O  O63  1  0.84102000  0.81363000  0.82364000  1.0 -0.4903432269
O  O64  1  0.15898000  0.18637000  0.17636000  1.0 -0.4903432269
O  O65  1  0.57401000  0.21063000  0.40122000  1.0 -0.4517358295
O  O66  1  0.42599000  0.78937000  0.59878000  1.0 -0.4578070072
O  O67  1  0.92599000  0.28937000  0.40122000  1.0 -0.4578070072
O  O68  1  0.07401000  0.71063000  0.59878000  1.0 -0.4517358295
O  O69  1  0.42599000  0.71063000  0.59878000  1.0 -0.4578070072
O  O70  1  0.57401000  0.28937000  0.40122000  1.0 -0.4517358295
O  O71  1  0.07401000  0.78937000  0.59878000  1.0 -0.4517358295
O  O72  1  0.92599000  0.21063000  0.40122000  1.0 -0.4578070072
O  O73  1  0.64194000  0.17049000  0.44856000  1.0 -0.4903432269
O  O74  1  0.35806000  0.82951000  0.55144000  1.0 -0.4903432269
O  O75  1  0.85806000  0.32951000  0.44856000  1.0 -0.4903432269
O  O76  1  0.14194000  0.67049000  0.55144000  1.0 -0.4903432269
O  O77  1  0.35806000  0.67049000  0.55144000  1.0 -0.4903432269
O  O78  1  0.64194000  0.32951000  0.44856000  1.0 -0.4903432269
O  O79  1  0.14194000  0.82951000  0.55144000  1.0 -0.4903432269
O  O80  1  0.85806000  0.17049000  0.44856000  1.0 -0.4903432269
