# DDEC6 charges by PACMAN v1.1 (https://github.com/mtap-research/PACMAN-charge/)
data_WORKOF_ASR_pacman
_symmetry_space_group_name_H-M   'P 1'
_cell_length_a   19.11800000
_cell_length_b   23.02400000
_cell_length_c   30.07500000
_cell_angle_alpha   90.07000000
_cell_angle_beta   97.36000000
_cell_angle_gamma   90.09000000
_symmetry_Int_Tables_number   1
_chemical_formula_structural   Zn4H18C36O13
_chemical_formula_sum   'Zn32 H144 C288 O104'
_cell_volume   13129.09654078
_cell_formula_units_Z   8
loop_
 _symmetry_equiv_pos_site_id
 _symmetry_equiv_pos_as_xyz
  1  'x, y, z'
loop_
 _atom_site_type_symbol
 _atom_site_label
 _atom_site_symmetry_multiplicity
 _atom_site_fract_x
 _atom_site_fract_y
 _atom_site_fract_z
 _atom_site_occupancy
 _atom_site_charge
Zn  Zn1  1  0.11153000  0.16922000  0.89005000  1.0 0.9967658565
Zn  Zn2  1  0.00604000  0.23744000  0.81567000  1.0 0.9404993053
Zn  Zn3  1  0.01097000  0.10392000  0.81110000  1.0 0.9404993053
Zn  Zn4  1  0.94045000  0.16265000  0.88734000  1.0 0.9404993053
Zn  Zn5  1  0.98557000  0.22941000  0.39889000  1.0 0.96962059
Zn  Zn6  1  0.06990000  0.17097000  0.31979000  1.0 0.9490269021
Zn  Zn7  1  0.99646000  0.09424000  0.38397000  1.0 0.9306960748
Zn  Zn8  1  0.90399000  0.16544000  0.31062000  1.0 0.9404993053
Zn  Zn9  1  0.49671000  0.74147000  0.31256000  1.0 0.9967658565
Zn  Zn10  1  0.57730000  0.66533000  0.39392000  1.0 0.9490269021
Zn  Zn11  1  0.41106000  0.66008000  0.37766000  1.0 0.9404993053
Zn  Zn12  1  0.49678000  0.60278000  0.30960000  1.0 0.9306960748
Zn  Zn13  1  0.61086000  0.67508000  0.82712000  1.0 0.96962059
Zn  Zn14  1  0.51169000  0.73061000  0.89461000  1.0 0.9404993053
Zn  Zn15  1  0.43883000  0.66927000  0.80704000  1.0 0.9594364063
Zn  Zn16  1  0.52013000  0.59837000  0.88567000  1.0 0.9236385719
Zn  Zn17  1  0.88847000  0.83078000  0.10995000  1.0 0.9967658565
Zn  Zn18  1  0.99396000  0.76256000  0.18433000  1.0 0.9404993053
Zn  Zn19  1  0.98903000  0.89608000  0.18890000  1.0 0.9404993053
Zn  Zn20  1  0.05955000  0.83735000  0.11266000  1.0 0.9404993053
Zn  Zn21  1  0.01443000  0.77059000  0.60111000  1.0 0.96962059
Zn  Zn22  1  0.93010000  0.82903000  0.68021000  1.0 0.9490269021
Zn  Zn23  1  0.00354000  0.90576000  0.61603000  1.0 0.9306960748
Zn  Zn24  1  0.09601000  0.83456000  0.68938000  1.0 0.9404993053
Zn  Zn25  1  0.50329000  0.25853000  0.68744000  1.0 0.9967658565
Zn  Zn26  1  0.42270000  0.33467000  0.60608000  1.0 0.9490269021
Zn  Zn27  1  0.58894000  0.33992000  0.62234000  1.0 0.9404993053
Zn  Zn28  1  0.50322000  0.39722000  0.69040000  1.0 0.9306960748
Zn  Zn29  1  0.38914000  0.32492000  0.17288000  1.0 0.96962059
Zn  Zn30  1  0.48831000  0.26939000  0.10539000  1.0 0.9404993053
Zn  Zn31  1  0.56117000  0.33073000  0.19296000  1.0 0.9594364063
Zn  Zn32  1  0.47987000  0.40163000  0.11433000  1.0 0.9236385719
H  H1  1  0.00300000  0.08750000  0.67040000  1.0 0.1282766046
H  H2  1  0.00860000  0.26660000  0.67370000  1.0 0.1282766046
H  H3  1  0.02500000  0.27340000  0.60130000  1.0 0.1282766046
H  H4  1  0.02820000  0.21830000  0.52830000  1.0 0.1282766046
H  H5  1  0.99600000  0.04570000  0.52430000  1.0 0.1282766046
H  H6  1  0.99390000  0.03880000  0.59810000  1.0 0.1282766046
H  H7  1  0.12900000  0.95470000  0.38190000  1.0 0.1204697777
H  H8  1  0.24700000  0.05660000  0.30940000  1.0 0.1204697777
H  H9  1  0.32490000  0.98020000  0.30530000  1.0 0.1204697777
H  H10  1  0.36100000  0.87660000  0.32500000  1.0 0.1204697777
H  H11  1  0.24130000  0.77570000  0.39410000  1.0 0.1204697777
H  H12  1  0.16200000  0.85250000  0.39810000  1.0 0.1204697777
H  H13  1  0.38240000  0.63190000  0.51390000  1.0 0.1204697777
H  H14  1  0.58840000  0.68400000  0.53770000  1.0 0.1282766046
H  H15  1  0.63170000  0.71740000  0.61540000  1.0 0.1282766046
H  H16  1  0.63350000  0.69180000  0.69100000  1.0 0.1044936375
H  H17  1  0.42890000  0.64370000  0.66490000  1.0 0.1204697777
H  H18  1  0.38170000  0.61750000  0.58710000  1.0 0.1282766046
H  H19  1  0.15810000  0.96940000  0.79450000  1.0 0.1282766046
H  H20  1  0.21730000  0.00970000  0.92770000  1.0 0.1282766046
H  H21  1  0.27620000  0.92120000  0.93530000  1.0 0.1204697777
H  H22  1  0.34240000  0.84290000  0.90150000  1.0 0.1204697777
H  H23  1  0.29370000  0.81010000  0.76970000  1.0 0.1282766046
H  H24  1  0.22140000  0.88950000  0.76060000  1.0 0.1282766046
H  H25  1  0.85850000  0.36740000  0.80990000  1.0 0.1282766046
H  H26  1  0.76880000  0.27330000  0.90000000  1.0 0.1282766046
H  H27  1  0.68650000  0.34510000  0.90470000  1.0 0.1204697777
H  H28  1  0.64020000  0.44680000  0.88470000  1.0 0.1204697777
H  H29  1  0.72500000  0.53980000  0.79150000  1.0 0.1109867197
H  H30  1  0.81560000  0.46940000  0.79350000  1.0 0.1282766046
H  H31  1  0.13120000  0.38840000  0.80850000  1.0 0.1204697777
H  H32  1  0.22340000  0.31880000  0.92580000  1.0 0.1204697777
H  H33  1  0.31690000  0.38910000  0.92740000  1.0 0.1204697777
H  H34  1  0.36190000  0.48190000  0.89680000  1.0 0.1109867197
H  H35  1  0.26660000  0.54730000  0.77920000  1.0 0.1204697777
H  H36  1  0.17950000  0.47740000  0.77860000  1.0 0.1282766046
H  H37  1  0.92940000  0.16670000  0.02430000  1.0 0.1282766046
H  H38  1  0.13910000  0.15090000  0.03380000  1.0 0.1204697777
H  H39  1  0.14660000  0.15300000  0.11180000  1.0 0.1109867197
H  H40  1  0.08920000  0.15140000  0.17860000  1.0 0.1204697777
H  H41  1  0.87070000  0.16840000  0.16770000  1.0 0.1109867197
H  H42  1  0.86590000  0.17150000  0.09140000  1.0 0.1204697777
H  H43  1  0.80680000  0.01600000  0.90520000  1.0 0.1204697777
H  H44  1  0.85420000  0.97620000  0.77720000  1.0 0.1282766046
H  H45  1  0.77320000  0.90200000  0.77270000  1.0 0.1204697777
H  H46  1  0.68750000  0.84260000  0.80820000  1.0 0.1282766046
H  H47  1  0.65830000  0.86930000  0.93660000  1.0 0.1204697777
H  H48  1  0.73140000  0.95160000  0.94090000  1.0 0.1204697777
H  H49  1  0.85940000  0.36240000  0.38710000  1.0 0.1282766046
H  H50  1  0.74840000  0.30170000  0.27490000  1.0 0.1282766046
H  H51  1  0.67110000  0.37710000  0.27240000  1.0 0.1282766046
H  H52  1  0.63580000  0.47180000  0.30340000  1.0 0.1384200797
H  H53  1  0.72820000  0.52500000  0.42460000  1.0 0.1282766046
H  H54  1  0.80410000  0.44580000  0.42880000  1.0 0.1282766046
H  H55  1  0.20250000  0.31650000  0.30670000  1.0 0.1282766046
H  H56  1  0.14010000  0.35860000  0.42610000  1.0 0.1204697777
H  H57  1  0.19830000  0.44860000  0.42480000  1.0 0.1282766046
H  H58  1  0.27970000  0.51280000  0.39240000  1.0 0.1204697777
H  H59  1  0.36720000  0.45780000  0.28400000  1.0 0.1204697777
H  H60  1  0.30050000  0.37510000  0.27910000  1.0 0.1204697777
H  H61  1  0.86960000  0.95380000  0.38220000  1.0 0.1204697777
H  H62  1  0.72210000  0.04820000  0.30470000  1.0 0.1282766046
H  H63  1  0.63900000  0.97470000  0.30840000  1.0 0.1204697777
H  H64  1  0.60870000  0.87860000  0.34090000  1.0 0.1282766046
H  H65  1  0.75930000  0.78680000  0.41610000  1.0 0.1204697777
H  H66  1  0.83730000  0.85960000  0.41150000  1.0 0.1204697777
H  H67  1  0.48750000  0.58500000  0.16950000  1.0 0.1282766046
H  H68  1  0.43030000  0.75800000  0.17590000  1.0 0.1282766046
H  H69  1  0.45060000  0.76850000  0.10380000  1.0 0.1204697777
H  H70  1  0.48150000  0.72970000  0.03130000  1.0 0.1282766046
H  H71  1  0.52450000  0.55880000  0.02260000  1.0 0.1282766046
H  H72  1  0.51530000  0.54720000  0.09660000  1.0 0.1282766046
H  H73  1  0.99700000  0.91250000  0.32960000  1.0 0.1282766046
H  H74  1  0.99140000  0.73340000  0.32630000  1.0 0.1282766046
H  H75  1  0.97500000  0.72660000  0.39870000  1.0 0.1282766046
H  H76  1  0.97180000  0.78170000  0.47170000  1.0 0.1282766046
H  H77  1  0.00400000  0.95430000  0.47570000  1.0 0.1282766046
H  H78  1  0.00610000  0.96120000  0.40190000  1.0 0.1282766046
H  H79  1  0.87100000  0.04530000  0.61810000  1.0 0.1204697777
H  H80  1  0.75300000  0.94340000  0.69060000  1.0 0.1204697777
H  H81  1  0.67510000  0.01980000  0.69470000  1.0 0.1204697777
H  H82  1  0.63900000  0.12340000  0.67500000  1.0 0.1204697777
H  H83  1  0.75870000  0.22430000  0.60590000  1.0 0.1204697777
H  H84  1  0.83800000  0.14750000  0.60190000  1.0 0.1204697777
H  H85  1  0.61760000  0.36810000  0.48610000  1.0 0.1204697777
H  H86  1  0.41160000  0.31600000  0.46230000  1.0 0.1282766046
H  H87  1  0.36830000  0.28260000  0.38460000  1.0 0.1282766046
H  H88  1  0.36650000  0.30820000  0.30900000  1.0 0.1044936375
H  H89  1  0.57110000  0.35630000  0.33510000  1.0 0.1204697777
H  H90  1  0.61830000  0.38250000  0.41290000  1.0 0.1282766046
H  H91  1  0.84190000  0.03060000  0.20550000  1.0 0.1282766046
H  H92  1  0.78270000  0.99030000  0.07230000  1.0 0.1204697777
H  H93  1  0.72380000  0.07880000  0.06470000  1.0 0.1204697777
H  H94  1  0.65760000  0.15710000  0.09850000  1.0 0.1204697777
H  H95  1  0.70630000  0.18990000  0.23030000  1.0 0.1282766046
H  H96  1  0.77860000  0.11050000  0.23940000  1.0 0.1282766046
H  H97  1  0.14150000  0.63260000  0.19010000  1.0 0.1282766046
H  H98  1  0.23120000  0.72670000  0.10000000  1.0 0.1282766046
H  H99  1  0.31350000  0.65490000  0.09530000  1.0 0.1204697777
H  H100  1  0.35980000  0.55320000  0.11530000  1.0 0.1204697777
H  H101  1  0.27500000  0.46020000  0.20850000  1.0 0.1109867197
H  H102  1  0.18440000  0.53060000  0.20650000  1.0 0.1282766046
H  H103  1  0.86880000  0.61160000  0.19150000  1.0 0.1204697777
H  H104  1  0.77660000  0.68120000  0.07420000  1.0 0.1204697777
H  H105  1  0.68310000  0.61090000  0.07260000  1.0 0.1204697777
H  H106  1  0.63810000  0.51810000  0.10320000  1.0 0.1109867197
H  H107  1  0.73340000  0.45270000  0.22080000  1.0 0.1204697777
H  H108  1  0.82050000  0.52260000  0.22140000  1.0 0.1282766046
H  H109  1  0.07060000  0.83330000  0.97570000  1.0 0.1282766046
H  H110  1  0.86090000  0.84910000  0.96620000  1.0 0.1204697777
H  H111  1  0.85340000  0.84700000  0.88820000  1.0 0.1109867197
H  H112  1  0.91080000  0.84860000  0.82140000  1.0 0.1204697777
H  H113  1  0.12930000  0.83160000  0.83230000  1.0 0.1109867197
H  H114  1  0.13410000  0.82850000  0.90860000  1.0 0.1204697777
H  H115  1  0.19320000  0.98400000  0.09480000  1.0 0.1204697777
H  H116  1  0.14580000  0.02380000  0.22280000  1.0 0.1282766046
H  H117  1  0.22680000  0.09800000  0.22730000  1.0 0.1204697777
H  H118  1  0.31250000  0.15740000  0.19180000  1.0 0.1282766046
H  H119  1  0.34170000  0.13070000  0.06340000  1.0 0.1204697777
H  H120  1  0.26860000  0.04840000  0.05910000  1.0 0.1204697777
H  H121  1  0.14060000  0.63760000  0.61290000  1.0 0.1282766046
H  H122  1  0.25160000  0.69830000  0.72510000  1.0 0.1282766046
H  H123  1  0.32890000  0.62290000  0.72760000  1.0 0.1282766046
H  H124  1  0.36420000  0.52820000  0.69660000  1.0 0.1384200797
H  H125  1  0.27180000  0.47500000  0.57540000  1.0 0.1282766046
H  H126  1  0.19590000  0.55420000  0.57120000  1.0 0.1282766046
H  H127  1  0.79750000  0.68350000  0.69330000  1.0 0.1282766046
H  H128  1  0.85990000  0.64140000  0.57390000  1.0 0.1204697777
H  H129  1  0.80170000  0.55140000  0.57520000  1.0 0.1282766046
H  H130  1  0.72030000  0.48720000  0.60760000  1.0 0.1204697777
H  H131  1  0.63280000  0.54220000  0.71600000  1.0 0.1204697777
H  H132  1  0.69950000  0.62490000  0.72090000  1.0 0.1204697777
H  H133  1  0.13040000  0.04620000  0.61780000  1.0 0.1204697777
H  H134  1  0.27790000  0.95180000  0.69530000  1.0 0.1282766046
H  H135  1  0.36100000  0.02530000  0.69160000  1.0 0.1204697777
H  H136  1  0.39130000  0.12140000  0.65910000  1.0 0.1282766046
H  H137  1  0.24070000  0.21320000  0.58390000  1.0 0.1204697777
H  H138  1  0.16270000  0.14040000  0.58850000  1.0 0.1204697777
H  H139  1  0.51250000  0.41500000  0.83050000  1.0 0.1282766046
H  H140  1  0.56970000  0.24200000  0.82410000  1.0 0.1282766046
H  H141  1  0.54940000  0.23150000  0.89620000  1.0 0.1204697777
H  H142  1  0.51850000  0.27030000  0.96870000  1.0 0.1282766046
H  H143  1  0.47550000  0.44120000  0.97740000  1.0 0.1282766046
H  H144  1  0.48470000  0.45280000  0.90340000  1.0 0.1282766046
C  C1  1  0.00130000  0.12380000  0.65530000  1.0 -0.1501528031
C  C2  1  0.99990000  0.18150000  0.68020000  1.0 -0.0100534204
C  C3  1  0.00820000  0.23160000  0.65703000  1.0 -0.1015711049
C  C4  1  0.01580000  0.23710000  0.61430000  1.0 -0.1501528031
C  C5  1  0.01760000  0.18330000  0.54280000  1.0 -0.1760496079
C  C6  1  0.01030000  0.13170000  0.51960000  1.0 0.0002945474
C  C7  1  0.00070000  0.08030000  0.54160000  1.0 -0.1015711049
C  C8  1  0.99770000  0.07600000  0.58500000  1.0 -0.1320923904
C  C9  1  0.00010000  0.12780000  0.61290000  1.0 0.0609555096
C  C10  1  0.00890000  0.18300000  0.58830000  1.0 0.088322068
C  C11  1  0.99900000  0.17680000  0.73020000  1.0 0.5883856653
C  C12  1  0.01270000  0.13340000  0.46800000  1.0 0.5717994169
C  C13  1  0.16940000  0.95950000  0.36680000  1.0 -0.1501528031
C  C14  1  0.18110000  0.01240000  0.34660000  1.0 -0.0281412085
C  C15  1  0.23940000  0.02040000  0.32320000  1.0 -0.1108581478
C  C16  1  0.28500000  0.97490000  0.32070000  1.0 -0.1501528031
C  C17  1  0.32000000  0.87180000  0.33950000  1.0 -0.1404803343
C  C18  1  0.30900000  0.81930000  0.35780000  1.0 -0.0281412085
C  C19  1  0.24950000  0.81200000  0.38070000  1.0 -0.0896931046
C  C20  1  0.20290000  0.85790000  0.38370000  1.0 -0.1576362266
C  C21  1  0.21660000  0.91320000  0.36510000  1.0 0.0789093882
C  C22  1  0.27450000  0.91970000  0.34050000  1.0 0.0789093882
C  C23  1  0.12960000  0.05980000  0.35020000  1.0 0.5883856653
C  C24  1  0.35880000  0.77030000  0.35390000  1.0 0.5983545719
C  C25  1  0.42360000  0.63980000  0.53420000  1.0 -0.0896931046
C  C26  1  0.48880000  0.65720000  0.51700000  1.0 -0.0419615955
C  C27  1  0.54480000  0.67410000  0.54790000  1.0 -0.1404803343
C  C28  1  0.59290000  0.69750000  0.62520000  1.0 -0.1501528031
C  C29  1  0.59130000  0.68940000  0.67060000  1.0 -0.1015711049
C  C30  1  0.52580000  0.67740000  0.68640000  1.0 -0.0419615955
C  C31  1  0.47110000  0.65680000  0.65450000  1.0 -0.1501528031
C  C32  1  0.42190000  0.63520000  0.57720000  1.0 -0.1320923904
C  C33  1  0.47500000  0.65460000  0.60920000  1.0 0.088322068
C  C34  1  0.53940000  0.67720000  0.59340000  1.0 0.088322068
C  C35  1  0.48990000  0.65820000  0.46850000  1.0 0.5883856653
C  C36  1  0.52150000  0.67590000  0.73480000  1.0 0.5883856653
C  C37  1  0.18470000  0.96130000  0.82270000  1.0 -0.1320923904
C  C38  1  0.17630000  0.99480000  0.86050000  1.0 -0.0419615955
C  C39  1  0.21780000  0.98390000  0.90310000  1.0 -0.1015711049
C  C40  1  0.25780000  0.93480000  0.90640000  1.0 -0.1501528031
C  C41  1  0.31870000  0.85370000  0.87300000  1.0 -0.1404803343
C  C42  1  0.32780000  0.82200000  0.83590000  1.0 -0.0419615955
C  C43  1  0.28900000  0.83450000  0.79470000  1.0 -0.0896931046
C  C44  1  0.24520000  0.88000000  0.78930000  1.0 -0.1320923904
C  C45  1  0.27280000  0.90390000  0.86900000  1.0 0.0609555096
C  C46  1  0.23520000  0.91370000  0.82760000  1.0 0.0789093882
C  C47  1  0.12320000  0.04110000  0.85780000  1.0 0.5808601143
C  C48  1  0.38110000  0.77580000  0.84220000  1.0 0.5808601143
C  C49  1  0.82240000  0.36390000  0.82870000  1.0 -0.1404803343
C  C50  1  0.81900000  0.31490000  0.85440000  1.0 -0.0281412085
C  C51  1  0.76970000  0.30760000  0.88260000  1.0 -0.0896931046
C  C52  1  0.72160000  0.35040000  0.88530000  1.0 -0.1692976757
C  C53  1  0.67260000  0.44940000  0.86340000  1.0 -0.1501528031
C  C54  1  0.67110000  0.49520000  0.83770000  1.0 0.0002945474
C  C55  1  0.72450000  0.50570000  0.80910000  1.0 -0.1015711049
C  C56  1  0.77620000  0.46190000  0.80900000  1.0 -0.1501528031
C  C57  1  0.77290000  0.40920000  0.82990000  1.0 0.0718662911
C  C58  1  0.72150000  0.40300000  0.86040000  1.0 0.088322068
C  C59  1  0.87460000  0.26830000  0.85200000  1.0 0.5983545719
C  C60  1  0.61940000  0.54580000  0.84190000  1.0 0.5808601143
C  C61  1  0.16750000  0.39030000  0.83330000  1.0 -0.1404803343
C  C62  1  0.16940000  0.34810000  0.86450000  1.0 -0.023258792
C  C63  1  0.22370000  0.34720000  0.90290000  1.0 -0.0896931046
C  C64  1  0.27740000  0.39050000  0.90480000  1.0 -0.1864256664
C  C65  1  0.32400000  0.48110000  0.87300000  1.0 -0.1404803343
C  C66  1  0.32090000  0.52210000  0.84100000  1.0 -0.0578818229
C  C67  1  0.26710000  0.52030000  0.80310000  1.0 -0.1015711049
C  C68  1  0.21660000  0.47790000  0.80290000  1.0 -0.1404803343
C  C69  1  0.21600000  0.43720000  0.83480000  1.0 0.0789093882
C  C70  1  0.27120000  0.43600000  0.87220000  1.0 0.088322068
C  C71  1  0.11490000  0.30000000  0.86120000  1.0 0.5883856653
C  C72  1  0.37670000  0.56470000  0.84260000  1.0 0.5883856653
C  C73  1  0.97330000  0.16220000  0.04260000  1.0 -0.1501528031
C  C74  1  0.03330000  0.15920000  0.02270000  1.0 -0.0100534204
C  C75  1  0.09750000  0.15410000  0.04790000  1.0 -0.1108581478
C  C76  1  0.10160000  0.15360000  0.09440000  1.0 -0.1320923904
C  C77  1  0.04420000  0.15430000  0.16130000  1.0 -0.1501528031
C  C78  1  0.98160000  0.15900000  0.18370000  1.0 -0.0476424499
C  C79  1  0.91300000  0.16510000  0.15437000  1.0 -0.0896931046
C  C80  1  0.91000000  0.16610000  0.10940000  1.0 -0.1501528031
C  C81  1  0.97430000  0.15900000  0.08800000  1.0 0.088322068
C  C82  1  0.03920000  0.15390000  0.11680000  1.0 0.0789093882
C  C83  1  0.02840000  0.16200000  0.97190000  1.0 0.5983545719
C  C84  1  0.98490000  0.15880000  0.23220000  1.0 0.5883856653
C  C85  1  0.79690000  0.99610000  0.87740000  1.0 -0.1320923904
C  C86  1  0.83120000  0.01300000  0.84070000  1.0 -0.1015711049
C  C87  1  0.82550000  0.97080000  0.80040000  1.0 -0.0822282202
C  C88  1  0.77950000  0.92630000  0.79850000  1.0 -0.1576362266
C  C89  1  0.69700000  0.86430000  0.83520000  1.0 -0.1501528031
C  C90  1  0.67120000  0.84710000  0.87290000  1.0 -0.0100534204
C  C91  1  0.68030000  0.88060000  0.91140000  1.0 -0.1015711049
C  C92  1  0.72110000  0.93050000  0.91370000  1.0 -0.1501528031
C  C93  1  0.74740000  0.94930000  0.87320000  1.0 0.0609555096
C  C94  1  0.73820000  0.91490000  0.83680000  1.0 0.0718662911
C  C95  1  0.88130000  0.05680000  0.84242000  1.0 0.5477017955
C  C96  1  0.61400000  0.79870000  0.86880000  1.0 0.5983545719
C  C97  1  0.81940000  0.36520000  0.36500000  1.0 -0.1501528031
C  C98  1  0.81040000  0.32570000  0.33333333  1.0 -0.0033271265
C  C99  1  0.75400000  0.33040000  0.29780000  1.0 -0.1015711049
C  C100  1  0.70870000  0.37500000  0.29620000  1.0 -0.1404803343
C  C101  1  0.67100000  0.46680000  0.32840000  1.0 -0.1501528031
C  C102  1  0.67710000  0.50620000  0.36290000  1.0 -0.0281412085
C  C103  1  0.72590000  0.49830000  0.40030000  1.0 -0.1015711049
C  C104  1  0.77150000  0.45150000  0.40250000  1.0 -0.1501528031
C  C105  1  0.77050000  0.41340000  0.36760000  1.0 0.0789093882
C  C106  1  0.71610000  0.41970000  0.33000000  1.0 0.0718662911
C  C107  1  0.86370000  0.27680000  0.33390000  1.0 0.5883856653
C  C108  1  0.62740000  0.55690000  0.35960000  1.0 0.5983545719
C  C109  1  0.20320000  0.34310000  0.33090000  1.0 -0.1404803343
C  C110  1  0.16160000  0.32980000  0.36380000  1.0 -0.0662808708
C  C111  1  0.16430000  0.36840000  0.40150000  1.0 -0.0896931046
C  C112  1  0.20210000  0.42020000  0.40220000  1.0 -0.1692976757
C  C113  1  0.28460000  0.48440000  0.37010000  1.0 -0.1501528031
C  C114  1  0.32920000  0.49430000  0.33770000  1.0 -0.0578818229
C  C115  1  0.33450000  0.45200000  0.30490000  1.0 -0.0896931046
C  C116  1  0.29440000  0.40280000  0.30180000  1.0 -0.1404803343
C  C117  1  0.24640000  0.39240000  0.32990000  1.0 0.0718662911
C  C118  1  0.24520000  0.42930000  0.36920000  1.0 0.088322068
C  C119  1  0.11680000  0.27790000  0.36220000  1.0 0.5883856653
C  C120  1  0.37350000  0.54520000  0.34030000  1.0 0.5808601143
C  C121  1  0.82310000  0.95710000  0.36680000  1.0 -0.1576362266
C  C122  1  0.80400000  0.00650000  0.34150000  1.0 -0.0281412085
C  C123  1  0.73510000  0.01350000  0.32070000  1.0 -0.1108581478
C  C124  1  0.68560000  0.97010000  0.32330000  1.0 -0.1501528031
C  C125  1  0.65640000  0.87410000  0.35360000  1.0 -0.1501528031
C  C126  1  0.67550000  0.82410000  0.37650000  1.0 -0.023258792
C  C127  1  0.74520000  0.82020000  0.39880000  1.0 -0.0896931046
C  C128  1  0.79120000  0.86300000  0.39560000  1.0 -0.1501528031
C  C129  1  0.77470000  0.91290000  0.36980000  1.0 0.088322068
C  C130  1  0.70400000  0.91900000  0.34810000  1.0 0.0789093882
C  C131  1  0.85800000  0.05350000  0.33930000  1.0 0.5983545719
C  C132  1  0.62360000  0.77610000  0.37710000  1.0 0.5883856653
C  C133  1  0.48130000  0.62220000  0.15610000  1.0 -0.1576362266
C  C134  1  0.46500000  0.66940000  0.18160000  1.0 -0.0100534204
C  C135  1  0.44770000  0.72660000  0.16000000  1.0 -0.1015711049
C  C136  1  0.45780000  0.73130000  0.11740000  1.0 -0.1404803343
C  C137  1  0.48740000  0.69250000  0.04490000  1.0 -0.1576362266
C  C138  1  0.50470000  0.64540000  0.02057000  1.0 -0.023258792
C  C139  1  0.51360000  0.59120000  0.03997000  1.0 -0.1015711049
C  C140  1  0.50700000  0.58450000  0.08360000  1.0 -0.1320923904
C  C141  1  0.48860000  0.62930000  0.11030000  1.0 0.0789093882
C  C142  1  0.47870000  0.68500000  0.09010000  1.0 0.0789093882
C  C143  1  0.46080000  0.66160000  0.23070000  1.0 0.5808601143
C  C144  1  0.51140000  0.65290000  0.97170000  1.0 0.5983545719
C  C145  1  0.99870000  0.87620000  0.34470000  1.0 -0.1501528031
C  C146  1  0.00010000  0.81850000  0.31980000  1.0 -0.0100534204
C  C147  1  0.99180000  0.76840000  0.34297000  1.0 -0.1015711049
C  C148  1  0.98420000  0.76290000  0.38570000  1.0 -0.1501528031
C  C149  1  0.98240000  0.81670000  0.45720000  1.0 -0.1760496079
C  C150  1  0.98970000  0.86830000  0.48040000  1.0 -0.0033271265
C  C151  1  0.99930000  0.91970000  0.45840000  1.0 -0.1015711049
C  C152  1  0.00230000  0.92400000  0.41500000  1.0 -0.1320923904
C  C153  1  0.99990000  0.87220000  0.38710000  1.0 0.0609555096
C  C154  1  0.99110000  0.81700000  0.41170000  1.0 0.088322068
C  C155  1  0.00100000  0.82320000  0.26980000  1.0 0.5883856653
C  C156  1  0.98730000  0.86660000  0.53200000  1.0 0.5717994169
C  C157  1  0.83060000  0.04050000  0.63320000  1.0 -0.1501528031
C  C158  1  0.81890000  0.98760000  0.65340000  1.0 -0.0281412085
C  C159  1  0.76060000  0.97960000  0.67680000  1.0 -0.1108581478
C  C160  1  0.71500000  0.02510000  0.67930000  1.0 -0.1501528031
C  C161  1  0.68000000  0.12820000  0.66050000  1.0 -0.1404803343
C  C162  1  0.69100000  0.18070000  0.64220000  1.0 -0.0281412085
C  C163  1  0.75050000  0.18800000  0.61930000  1.0 -0.0896931046
C  C164  1  0.79710000  0.14210000  0.61630000  1.0 -0.1576362266
C  C165  1  0.78340000  0.08680000  0.63490000  1.0 0.0789093882
C  C166  1  0.72550000  0.08030000  0.65950000  1.0 0.0789093882
C  C167  1  0.87040000  0.94020000  0.64980000  1.0 0.5883856653
C  C168  1  0.64120000  0.22970000  0.64610000  1.0 0.5983545719
C  C169  1  0.57640000  0.36020000  0.46580000  1.0 -0.0896931046
C  C170  1  0.51120000  0.34280000  0.48300000  1.0 -0.0419615955
C  C171  1  0.45520000  0.32590000  0.45210000  1.0 -0.1404803343
C  C172  1  0.40710000  0.30250000  0.37480000  1.0 -0.1501528031
C  C173  1  0.40870000  0.31060000  0.32940000  1.0 -0.1015711049
C  C174  1  0.47420000  0.32260000  0.31360000  1.0 -0.0419615955
C  C175  1  0.52890000  0.34320000  0.34550000  1.0 -0.1501528031
C  C176  1  0.57810000  0.36480000  0.42280000  1.0 -0.1320923904
C  C177  1  0.52500000  0.34540000  0.39080000  1.0 0.088322068
C  C178  1  0.46060000  0.32280000  0.40660000  1.0 0.088322068
C  C179  1  0.51010000  0.34180000  0.53150000  1.0 0.5883856653
C  C180  1  0.47850000  0.32410000  0.26520000  1.0 0.5883856653
C  C181  1  0.81530000  0.03870000  0.17730000  1.0 -0.1320923904
C  C182  1  0.82370000  0.00520000  0.13950000  1.0 -0.0419615955
C  C183  1  0.78220000  0.01610000  0.09690000  1.0 -0.1015711049
C  C184  1  0.74220000  0.06520000  0.09360000  1.0 -0.1501528031
C  C185  1  0.68130000  0.14630000  0.12700000  1.0 -0.1404803343
C  C186  1  0.67220000  0.17800000  0.16410000  1.0 -0.0419615955
C  C187  1  0.71100000  0.16550000  0.20530000  1.0 -0.0896931046
C  C188  1  0.75480000  0.12000000  0.21070000  1.0 -0.1320923904
C  C189  1  0.72720000  0.09610000  0.13100000  1.0 0.0609555096
C  C190  1  0.76480000  0.08630000  0.17240000  1.0 0.0789093882
C  C191  1  0.87680000  0.95890000  0.14220000  1.0 0.5808601143
C  C192  1  0.61890000  0.22420000  0.15780000  1.0 0.5808601143
C  C193  1  0.17760000  0.63610000  0.17130000  1.0 -0.1404803343
C  C194  1  0.18100000  0.68510000  0.14560000  1.0 -0.0281412085
C  C195  1  0.23030000  0.69240000  0.11740000  1.0 -0.0896931046
C  C196  1  0.27840000  0.64960000  0.11470000  1.0 -0.1692976757
C  C197  1  0.32740000  0.55060000  0.13660000  1.0 -0.1501528031
C  C198  1  0.32890000  0.50480000  0.16230000  1.0 0.0002945474
C  C199  1  0.27550000  0.49430000  0.19090000  1.0 -0.1015711049
C  C200  1  0.22380000  0.53810000  0.19100000  1.0 -0.1501528031
C  C201  1  0.22710000  0.59080000  0.17010000  1.0 0.0718662911
C  C202  1  0.27850000  0.59700000  0.13960000  1.0 0.088322068
C  C203  1  0.12540000  0.73170000  0.14800000  1.0 0.5983545719
C  C204  1  0.38060000  0.45420000  0.15810000  1.0 0.5808601143
C  C205  1  0.83250000  0.60970000  0.16670000  1.0 -0.1404803343
C  C206  1  0.83060000  0.65190000  0.13550000  1.0 -0.023258792
C  C207  1  0.77630000  0.65280000  0.09710000  1.0 -0.0896931046
C  C208  1  0.72260000  0.60950000  0.09520000  1.0 -0.1864256664
C  C209  1  0.67600000  0.51890000  0.12700000  1.0 -0.1404803343
C  C210  1  0.67910000  0.47790000  0.15900000  1.0 -0.0578818229
C  C211  1  0.73290000  0.47970000  0.19690000  1.0 -0.1015711049
C  C212  1  0.78340000  0.52210000  0.19710000  1.0 -0.1404803343
C  C213  1  0.78400000  0.56280000  0.16520000  1.0 0.0718662911
C  C214  1  0.72880000  0.56400000  0.12780000  1.0 0.088322068
C  C215  1  0.88510000  0.70000000  0.13880000  1.0 0.5883856653
C  C216  1  0.62330000  0.43530000  0.15740000  1.0 0.5883856653
C  C217  1  0.02670000  0.83780000  0.95740000  1.0 -0.1501528031
C  C218  1  0.96670000  0.84080000  0.97730000  1.0 -0.0100534204
C  C219  1  0.90250000  0.84590000  0.95210000  1.0 -0.1108581478
C  C220  1  0.89840000  0.84640000  0.90560000  1.0 -0.1320923904
C  C221  1  0.95580000  0.84570000  0.83870000  1.0 -0.1501528031
C  C222  1  0.01840000  0.84100000  0.81630000  1.0 -0.0476424499
C  C223  1  0.08700000  0.83490000  0.84563000  1.0 -0.0896931046
C  C224  1  0.09000000  0.83390000  0.89060000  1.0 -0.1501528031
C  C225  1  0.02570000  0.84100000  0.91200000  1.0 0.088322068
C  C226  1  0.96080000  0.84610000  0.88320000  1.0 0.0789093882
C  C227  1  0.97160000  0.83800000  0.02810000  1.0 0.5983545719
C  C228  1  0.01510000  0.84120000  0.76780000  1.0 0.5883856653
C  C229  1  0.20310000  0.00390000  0.12260000  1.0 -0.1320923904
C  C230  1  0.16880000  0.98700000  0.15930000  1.0 -0.1015711049
C  C231  1  0.17450000  0.02920000  0.19960000  1.0 -0.0822282202
C  C232  1  0.22050000  0.07370000  0.20150000  1.0 -0.1576362266
C  C233  1  0.30300000  0.13570000  0.16480000  1.0 -0.1501528031
C  C234  1  0.32880000  0.15290000  0.12710000  1.0 -0.0100534204
C  C235  1  0.31970000  0.11940000  0.08860000  1.0 -0.1015711049
C  C236  1  0.27890000  0.06950000  0.08630000  1.0 -0.1501528031
C  C237  1  0.25260000  0.05070000  0.12680000  1.0 0.0546565958
C  C238  1  0.26180000  0.08510000  0.16320000  1.0 0.0718662911
C  C239  1  0.11870000  0.94320000  0.15758000  1.0 0.5477017955
C  C240  1  0.38600000  0.20130000  0.13120000  1.0 0.5983545719
C  C241  1  0.18060000  0.63480000  0.63500000  1.0 -0.1501528031
C  C242  1  0.18960000  0.67430000  0.66666667  1.0 -0.0033271265
C  C243  1  0.24600000  0.66960000  0.70220000  1.0 -0.1015711049
C  C244  1  0.29130000  0.62500000  0.70380000  1.0 -0.1404803343
C  C245  1  0.32900000  0.53320000  0.67160000  1.0 -0.1501528031
C  C246  1  0.32290000  0.49380000  0.63710000  1.0 -0.0281412085
C  C247  1  0.27410000  0.50170000  0.59970000  1.0 -0.1015711049
C  C248  1  0.22850000  0.54850000  0.59750000  1.0 -0.1501528031
C  C249  1  0.22950000  0.58660000  0.63240000  1.0 0.0789093882
C  C250  1  0.28390000  0.58030000  0.67000000  1.0 0.0718662911
C  C251  1  0.13630000  0.72320000  0.66610000  1.0 0.5883856653
C  C252  1  0.37260000  0.44310000  0.64040000  1.0 0.5983545719
C  C253  1  0.79680000  0.65690000  0.66910000  1.0 -0.1404803343
C  C254  1  0.83840000  0.67020000  0.63620000  1.0 -0.0662808708
C  C255  1  0.83570000  0.63160000  0.59850000  1.0 -0.0896931046
C  C256  1  0.79790000  0.57980000  0.59780000  1.0 -0.1692976757
C  C257  1  0.71540000  0.51560000  0.62990000  1.0 -0.1501528031
C  C258  1  0.67080000  0.50570000  0.66230000  1.0 -0.0578818229
C  C259  1  0.66550000  0.54800000  0.69510000  1.0 -0.0896931046
C  C260  1  0.70560000  0.59720000  0.69820000  1.0 -0.1404803343
C  C261  1  0.75360000  0.60760000  0.67010000  1.0 0.0718662911
C  C262  1  0.75480000  0.57070000  0.63080000  1.0 0.088322068
C  C263  1  0.88320000  0.72210000  0.63780000  1.0 0.5883856653
C  C264  1  0.62650000  0.45480000  0.65970000  1.0 0.5808601143
C  C265  1  0.17690000  0.04290000  0.63320000  1.0 -0.1576362266
C  C266  1  0.19600000  0.99350000  0.65850000  1.0 -0.0281412085
C  C267  1  0.26490000  0.98650000  0.67930000  1.0 -0.1108581478
C  C268  1  0.31440000  0.02990000  0.67670000  1.0 -0.1501528031
C  C269  1  0.34360000  0.12590000  0.64640000  1.0 -0.1501528031
C  C270  1  0.32450000  0.17590000  0.62350000  1.0 -0.023258792
C  C271  1  0.25480000  0.17980000  0.60120000  1.0 -0.0896931046
C  C272  1  0.20880000  0.13700000  0.60440000  1.0 -0.1501528031
C  C273  1  0.22530000  0.08710000  0.63020000  1.0 0.088322068
C  C274  1  0.29600000  0.08100000  0.65190000  1.0 0.0789093882
C  C275  1  0.14200000  0.94650000  0.66070000  1.0 0.5983545719
C  C276  1  0.37640000  0.22390000  0.62290000  1.0 0.5883856653
C  C277  1  0.51870000  0.37780000  0.84390000  1.0 -0.1576362266
C  C278  1  0.53500000  0.33060000  0.81840000  1.0 -0.0100534204
C  C279  1  0.55230000  0.27340000  0.84000000  1.0 -0.1015711049
C  C280  1  0.54220000  0.26870000  0.88260000  1.0 -0.1501528031
C  C281  1  0.51260000  0.30750000  0.95510000  1.0 -0.1576362266
C  C282  1  0.49530000  0.35460000  0.97943000  1.0 -0.023258792
C  C283  1  0.48640000  0.40880000  0.96003000  1.0 -0.1015711049
C  C284  1  0.49300000  0.41550000  0.91640000  1.0 -0.1320923904
C  C285  1  0.51140000  0.37070000  0.88970000  1.0 0.0789093882
C  C286  1  0.52130000  0.31500000  0.90990000  1.0 0.0718662911
C  C287  1  0.53920000  0.33840000  0.76930000  1.0 0.5883856653
C  C288  1  0.48860000  0.34710000  0.02830000  1.0 0.5983545719
O  O1  1  0.01690000  0.16814000  0.85196000  1.0 -1.0201607301
O  O2  1  0.98930000  0.16658000  0.35186000  1.0 -1.0201607301
O  O3  1  0.49470000  0.66845000  0.34938000  1.0 -1.0201607301
O  O4  1  0.51908000  0.66947000  0.85262000  1.0 -1.0201607301
O  O5  1  0.00320000  0.12840000  0.74809000  1.0 -0.5292434433
O  O6  1  0.99610000  0.22520000  0.75076000  1.0 -0.5385094233
O  O7  1  0.03750000  0.17640000  0.45239000  1.0 -0.5385094233
O  O8  1  0.99760000  0.08630000  0.44840000  1.0 -0.5090030535
O  O9  1  0.07790000  0.04930000  0.37161000  1.0 -0.5513378353
O  O10  1  0.13850000  0.10695000  0.33087000  1.0 -0.5292434433
O  O11  1  0.40850000  0.77870000  0.33215000  1.0 -0.5292434433
O  O12  1  0.34420000  0.72260000  0.37244000  1.0 -0.5292434433
O  O13  1  0.43570000  0.65110000  0.44305000  1.0 -0.5004210278
O  O14  1  0.55180000  0.66666667  0.45512000  1.0 -0.5513378353
O  O15  1  0.57390000  0.68960000  0.76038000  1.0 -0.5194588288
O  O16  1  0.45960000  0.66410000  0.74605000  1.0 -0.5513378353
O  O17  1  0.08390000  0.04580000  0.81969000  1.0 -0.5513378353
O  O18  1  0.12420000  0.07700000  0.88840000  1.0 -0.5580005689
O  O19  1  0.42240000  0.77080000  0.87926000  1.0 -0.5385094233
O  O20  1  0.38080000  0.73860000  0.80852000  1.0 -0.5580005689
O  O21  1  0.91770000  0.27640000  0.82353000  1.0 -0.5385094233
O  O22  1  0.87280000  0.22670000  0.87693000  1.0 -0.5090030535
O  O23  1  0.58240000  0.53700000  0.87254000  1.0 -0.5194588288
O  O24  1  0.61780000  0.58510000  0.81670000  1.0 -0.5194588288
O  O25  1  0.07420000  0.29830000  0.82401000  1.0 -0.5385094233
O  O26  1  0.11700000  0.26370000  0.89116000  1.0 -0.5513378353
O  O27  1  0.42740000  0.56060000  0.87358000  1.0 -0.5385094233
O  O28  1  0.37160000  0.60550000  0.81224000  1.0 -0.5513378353
O  O29  1  0.96670000  0.16270000  0.95151000  1.0 -0.5292434433
O  O30  1  0.08340000  0.16390000  0.95441000  1.0 -0.5194588288
O  O31  1  0.92610000  0.15830000  0.24851000  1.0 -0.5580005689
O  O32  1  0.04430000  0.16350000  0.25488000  1.0 -0.5385094233
O  O33  1  0.88420000  0.09180000  0.87577000  1.0 -0.5292434433
O  O34  1  0.92270000  0.06150000  0.81134000  1.0 -0.5513378353
O  O35  1  0.62040000  0.76310000  0.83860000  1.0 -0.5663260325
O  O36  1  0.57890000  0.79290000  0.90116000  1.0 -0.5292434433
O  O37  1  0.92180000  0.28440000  0.35600000  1.0 -0.5513378353
O  O38  1  0.84350000  0.23330000  0.30938000  1.0 -0.5292434433
O  O39  1  0.58460000  0.56080000  0.32434000  1.0 -0.5385094233
O  O40  1  0.63110000  0.59270000  0.39154000  1.0 -0.5292434433
O  O41  1  0.12340000  0.24200000  0.32959000  1.0 -0.5513378353
O  O42  1  0.07830000  0.27160000  0.39164000  1.0 -0.5090030535
O  O43  1  0.35770000  0.58770000  0.36353000  1.0 -0.5194588288
O  O44  1  0.42750000  0.54490000  0.32040000  1.0 -0.5385094233
O  O45  1  0.91980000  0.04400000  0.36002000  1.0 -0.5580005689
O  O46  1  0.84070000  0.09880000  0.31802000  1.0 -0.5292434433
O  O47  1  0.56020000  0.78450000  0.36381000  1.0 -0.5580005689
O  O48  1  0.64710000  0.72750000  0.39480000  1.0 -0.5385094233
O  O49  1  0.48490000  0.61370000  0.24597000  1.0 -0.5292434433
O  O50  1  0.44370000  0.70420000  0.25340000  1.0 -0.5806936129
O  O51  1  0.50230000  0.70320000  0.95476000  1.0 -0.5292434433
O  O52  1  0.52410000  0.60790000  0.95028000  1.0 -0.5385094233
O  O53  1  0.98310000  0.83186000  0.14804000  1.0 -1.0201607301
O  O54  1  0.01070000  0.83342000  0.64814000  1.0 -1.0201607301
O  O55  1  0.50530000  0.33155000  0.65062000  1.0 -1.0201607301
O  O56  1  0.48092000  0.33053000  0.14738000  1.0 -1.0201607301
O  O57  1  0.99680000  0.87160000  0.25191000  1.0 -0.5292434433
O  O58  1  0.00390000  0.77480000  0.24924000  1.0 -0.5385094233
O  O59  1  0.96250000  0.82360000  0.54761000  1.0 -0.5385094233
O  O60  1  0.00240000  0.91370000  0.55160000  1.0 -0.5090030535
O  O61  1  0.92210000  0.95070000  0.62839000  1.0 -0.5513378353
O  O62  1  0.86150000  0.89305000  0.66913000  1.0 -0.5292434433
O  O63  1  0.59150000  0.22130000  0.66785000  1.0 -0.5292434433
O  O64  1  0.65580000  0.27740000  0.62756000  1.0 -0.5385094233
O  O65  1  0.56430000  0.34890000  0.55695000  1.0 -0.5004210278
O  O66  1  0.44820000  0.33333333  0.54488000  1.0 -0.5513378353
O  O67  1  0.42610000  0.31040000  0.23962000  1.0 -0.5194588288
O  O68  1  0.54040000  0.33590000  0.25395000  1.0 -0.5513378353
O  O69  1  0.91610000  0.95420000  0.18031000  1.0 -0.5513378353
O  O70  1  0.87580000  0.92300000  0.11160000  1.0 -0.5580005689
O  O71  1  0.57760000  0.22920000  0.12074000  1.0 -0.5385094233
O  O72  1  0.61920000  0.26140000  0.19148000  1.0 -0.5580005689
O  O73  1  0.08230000  0.72360000  0.17647000  1.0 -0.5385094233
O  O74  1  0.12720000  0.77330000  0.12307000  1.0 -0.5090030535
O  O75  1  0.41760000  0.46300000  0.12746000  1.0 -0.5194588288
O  O76  1  0.38220000  0.41490000  0.18330000  1.0 -0.5194588288
O  O77  1  0.92580000  0.70170000  0.17599000  1.0 -0.5385094233
O  O78  1  0.88300000  0.73630000  0.10884000  1.0 -0.5513378353
O  O79  1  0.57260000  0.43940000  0.12642000  1.0 -0.5385094233
O  O80  1  0.62840000  0.39450000  0.18776000  1.0 -0.5513378353
O  O81  1  0.03330000  0.83730000  0.04849000  1.0 -0.5292434433
O  O82  1  0.91660000  0.83610000  0.04559000  1.0 -0.5194588288
O  O83  1  0.07390000  0.84170000  0.75149000  1.0 -0.5580005689
O  O84  1  0.95570000  0.83650000  0.74512000  1.0 -0.5385094233
O  O85  1  0.11580000  0.90820000  0.12423000  1.0 -0.5292434433
O  O86  1  0.07730000  0.93850000  0.18866000  1.0 -0.5513378353
O  O87  1  0.37960000  0.23690000  0.16140000  1.0 -0.5663260325
O  O88  1  0.42110000  0.20710000  0.09884000  1.0 -0.5292434433
O  O89  1  0.07820000  0.71560000  0.64400000  1.0 -0.5513378353
O  O90  1  0.15650000  0.76670000  0.69062000  1.0 -0.5292434433
O  O91  1  0.41540000  0.43920000  0.67566000  1.0 -0.5385094233
O  O92  1  0.36890000  0.40730000  0.60846000  1.0 -0.5292434433
O  O93  1  0.87660000  0.75800000  0.67041000  1.0 -0.5513378353
O  O94  1  0.92170000  0.72840000  0.60836000  1.0 -0.5090030535
O  O95  1  0.64230000  0.41230000  0.63647000  1.0 -0.5194588288
O  O96  1  0.57250000  0.45510000  0.67960000  1.0 -0.5385094233
O  O97  1  0.08020000  0.95600000  0.63998000  1.0 -0.5580005689
O  O98  1  0.15930000  0.90120000  0.68198000  1.0 -0.5292434433
O  O99  1  0.43980000  0.21550000  0.63619000  1.0 -0.5580005689
O  O100  1  0.35290000  0.27250000  0.60520000  1.0 -0.5385094233
O  O101  1  0.51510000  0.38630000  0.75403000  1.0 -0.5292434433
O  O102  1  0.55630000  0.29580000  0.74660000  1.0 -0.5806936129
O  O103  1  0.49770000  0.29680000  0.04524000  1.0 -0.5292434433
O  O104  1  0.47590000  0.39210000  0.04972000  1.0 -0.5385094233
