# DDEC6 charges by PACMAN v1.1 (https://github.com/mtap-research/PACMAN-charge/)
data_WOSHET_ASR_pacman
_symmetry_space_group_name_H-M   'P 1'
_cell_length_a   11.44600000
_cell_length_b   13.43400000
_cell_length_c   15.35200000
_cell_angle_alpha   79.59000000
_cell_angle_beta   76.45000000
_cell_angle_gamma   79.82000000
_symmetry_Int_Tables_number   1
_chemical_formula_structural   Cu5H21C39N19
_chemical_formula_sum   'Cu10 H42 C78 N38'
_cell_volume   2234.71801870
_cell_formula_units_Z   2
loop_
 _symmetry_equiv_pos_site_id
 _symmetry_equiv_pos_as_xyz
  1  'x, y, z'
loop_
 _atom_site_type_symbol
 _atom_site_label
 _atom_site_symmetry_multiplicity
 _atom_site_fract_x
 _atom_site_fract_y
 _atom_site_fract_z
 _atom_site_occupancy
 _atom_site_charge
Cu  Cu1  1  0.20021000  0.63781000  0.47923000  1.0 0.3069608958
Cu  Cu2  1  0.79979000  0.36219000  0.52077000  1.0 0.3069608958
Cu  Cu3  1  0.42746000  0.33448000  0.89380000  1.0 0.2704798432
Cu  Cu4  1  0.57254000  0.66552000  0.10620000  1.0 0.2704798432
Cu  Cu5  1  0.32764000  0.62898000  0.26946000  1.0 0.2753229292
Cu  Cu6  1  0.67236000  0.37102000  0.73054000  1.0 0.2753229292
Cu  Cu7  1  0.19201000  0.51428000  0.21743000  1.0 0.3006079347
Cu  Cu8  1  0.80799000  0.48572000  0.78257000  1.0 0.3006079347
Cu  Cu9  1  0.69859000  0.02949000  0.68497000  1.0 0.168828567
Cu  Cu10  1  0.30141000  0.97051000  0.31503000  1.0 0.168828567
H  H1  1  0.62730000  0.30840000  0.26560000  1.0 0.1415106909
H  H2  1  0.37270000  0.69160000  0.73440000  1.0 0.1415106909
H  H3  1  0.28540000  0.48280000  0.77500000  1.0 0.1019718611
H  H4  1  0.71460000  0.51720000  0.22500000  1.0 0.1019718611
H  H5  1  0.29660000  0.53430000  0.62210000  1.0 0.1218347793
H  H6  1  0.70340000  0.46570000  0.37790000  1.0 0.1218347793
H  H7  1  0.48400000  0.26060000  0.57730000  1.0 0.1415106909
H  H8  1  0.51600000  0.73940000  0.42270000  1.0 0.1415106909
H  H9  1  0.48610000  0.22420000  0.72850000  1.0 0.1019718611
H  H10  1  0.51390000  0.77580000  0.27150000  1.0 0.1019718611
H  H11  1  0.55240000  0.33400000  0.02160000  1.0 0.1288022922
H  H12  1  0.44760000  0.66600000  0.97840000  1.0 0.1288022922
H  H13  1  0.67870000  0.26820000  0.11860000  1.0 0.1218347793
H  H14  1  0.32130000  0.73180000  0.88140000  1.0 0.1218347793
H  H15  1  0.27300000  0.09690000  0.14100000  1.0 0.1019718611
H  H16  1  0.72700000  0.90310000  0.85900000  1.0 0.1019718611
H  H17  1  0.68420000  0.01830000  0.08400000  1.0 0.1415106909
H  H18  1  0.31580000  0.98170000  0.91600000  1.0 0.1415106909
H  H19  1  0.56880000  0.95350000  0.21710000  1.0 0.1019718611
H  H20  1  0.43120000  0.04650000  0.78290000  1.0 0.1019718611
H  H21  1  0.01700000  0.63790000  0.13920000  1.0 0.1218347793
H  H22  1  0.98300000  0.36210000  0.86080000  1.0 0.1218347793
H  H23  1  0.38090000  0.17190000  0.00820000  1.0 0.1218347793
H  H24  1  0.61910000  0.82810000  0.99180000  1.0 0.1218347793
H  H25  1  0.14870000  0.08960000  0.69080000  1.0 0.1288022922
H  H26  1  0.85130000  0.91040000  0.30920000  1.0 0.1288022922
H  H27  1  0.75100000  0.66320000  0.64540000  1.0 0.1288022922
H  H28  1  0.24900000  0.33680000  0.35460000  1.0 0.1288022922
H  H29  1  0.16990000  0.25430000  0.61740000  1.0 0.1415106909
H  H30  1  0.83010000  0.74570000  0.38260000  1.0 0.1415106909
H  H31  1  0.06270000  0.75950000  0.62560000  1.0 0.1415106909
H  H32  1  0.93730000  0.24050000  0.37440000  1.0 0.1415106909
H  H33  1  0.06560000  0.61360000  0.87510000  1.0 0.1288022922
H  H34  1  0.93440000  0.38640000  0.12490000  1.0 0.1288022922
H  H35  1  0.84590000  0.74780000  0.12490000  1.0 0.1019718611
H  H36  1  0.15410000  0.25220000  0.87510000  1.0 0.1019718611
H  H37  1  0.88740000  0.71960000  0.87130000  1.0 0.1019718611
H  H38  1  0.11260000  0.28040000  0.12870000  1.0 0.1019718611
H  H39  1  0.96050000  0.92100000  0.63490000  1.0 0.1101951452
H  H40  1  0.03950000  0.07900000  0.36510000  1.0 0.1101951452
H  H41  1  0.65690000  0.82480000  0.65510000  1.0 0.1101951452
H  H42  1  0.34310000  0.17520000  0.34490000  1.0 0.1101951452
C  C1  1  0.62030000  0.15120000  0.94650000  1.0 0.2489188427
C  C2  1  0.37970000  0.84880000  0.05350000  1.0 0.2489188427
C  C3  1  0.97800000  0.58780000  0.62050000  1.0 0.2489188427
C  C4  1  0.02200000  0.41220000  0.37950000  1.0 0.2489188427
C  C5  1  0.00060000  0.31700000  0.67910000  1.0 0.1856561156
C  C6  1  0.99940000  0.68300000  0.32090000  1.0 0.1856561156
C  C7  1  0.54680000  0.10490000  0.02880000  1.0 0.0699709478
C  C8  1  0.45320000  0.89510000  0.97120000  1.0 0.0699709478
C  C9  1  0.76610000  0.19430000  0.84100000  1.0 0.2595995219
C  C10  1  0.23390000  0.80570000  0.15900000  1.0 0.2595995219
C  C11  1  0.88590000  0.20320000  0.78170000  1.0 0.1493086146
C  C12  1  0.11410000  0.79680000  0.21830000  1.0 0.1493086146
C  C13  1  0.01160000  0.42500000  0.63880000  1.0 0.2228108795
C  C14  1  0.98840000  0.57500000  0.36120000  1.0 0.2228108795
C  C15  1  0.39420000  0.42980000  0.48320000  1.0 0.2704798432
C  C16  1  0.60580000  0.57020000  0.51680000  1.0 0.2704798432
C  C17  1  0.42040000  0.40990000  0.11000000  1.0 0.168828567
C  C18  1  0.57960000  0.59010000  0.89000000  1.0 0.168828567
C  C19  1  0.57530000  0.33280000  0.22570000  1.0 -0.166781629
C  C20  1  0.42470000  0.66720000  0.77430000  1.0 -0.166781629
C  C21  1  0.42820000  0.42550000  0.34340000  1.0 0.2228108795
C  C22  1  0.57180000  0.57450000  0.65660000  1.0 0.2228108795
C  C23  1  0.46550000  0.39300000  0.25300000  1.0 0.168828567
C  C24  1  0.53450000  0.60700000  0.74700000  1.0 0.168828567
C  C25  1  0.39020000  0.39990000  0.58240000  1.0 0.0894010292
C  C26  1  0.60980000  0.60010000  0.41760000  1.0 0.0894010292
C  C27  1  0.32940000  0.43870000  0.73490000  1.0 0.0599675529
C  C28  1  0.67060000  0.56130000  0.26510000  1.0 0.0599675529
C  C29  1  0.33220000  0.46930000  0.64310000  1.0 -0.166781629
C  C30  1  0.66780000  0.53070000  0.35690000  1.0 -0.166781629
C  C31  1  0.44550000  0.30830000  0.61560000  1.0 -0.1545512824
C  C32  1  0.55450000  0.69170000  0.38440000  1.0 -0.1587865401
C  C33  1  0.44420000  0.28650000  0.70770000  1.0 0.0599675529
C  C34  1  0.55580000  0.71350000  0.29230000  1.0 0.0599675529
C  C35  1  0.33300000  0.45250000  0.05440000  1.0 0.2228108795
C  C36  1  0.66700000  0.54750000  0.94560000  1.0 0.2228108795
C  C37  1  0.53120000  0.34820000  0.08080000  1.0 -0.1587865401
C  C38  1  0.46880000  0.65180000  0.91920000  1.0 -0.1587865401
C  C39  1  0.60650000  0.30980000  0.13780000  1.0 -0.0204602739
C  C40  1  0.39350000  0.69020000  0.86220000  1.0 -0.0204602739
C  C41  1  0.92060000  0.69180000  0.62970000  1.0 0.0699709478
C  C42  1  0.07940000  0.30820000  0.37030000  1.0 0.0699709478
C  C43  1  0.17700000  0.54170000  0.01180000  1.0 0.2398090811
C  C44  1  0.82300000  0.45830000  0.98820000  1.0 0.2398090811
C  C45  1  0.35720000  0.08240000  0.13010000  1.0 0.0699709478
C  C46  1  0.64280000  0.91760000  0.86990000  1.0 0.0699709478
C  C47  1  0.60040000  0.03670000  0.09490000  1.0 -0.1892100841
C  C48  1  0.39960000  0.96330000  0.90510000  1.0 -0.1892100841
C  C49  1  0.53010000  0.99720000  0.17500000  1.0 0.0599675529
C  C50  1  0.46990000  0.00280000  0.82500000  1.0 0.0599675529
C  C51  1  0.99410000  0.65370000  0.08350000  1.0 -0.1796330212
C  C52  1  0.00590000  0.34630000  0.91650000  1.0 -0.1796330212
C  C53  1  0.06550000  0.61120000  0.00900000  1.0 0.0789213132
C  C54  1  0.93450000  0.38880000  0.99100000  1.0 0.0789213132
C  C55  1  0.42140000  0.12730000  0.04880000  1.0 -0.1892100841
C  C56  1  0.57860000  0.87270000  0.95120000  1.0 -0.1892100841
C  C57  1  0.08590000  0.14280000  0.70280000  1.0 -0.062999416
C  C58  1  0.91410000  0.85720000  0.29720000  1.0 -0.062999416
C  C59  1  0.79720000  0.71460000  0.64220000  1.0 -0.1892100841
C  C60  1  0.20280000  0.28540000  0.35780000  1.0 -0.1892100841
C  C61  1  0.09910000  0.24000000  0.65870000  1.0 -0.166781629
C  C62  1  0.90090000  0.76000000  0.34130000  1.0 -0.166781629
C  C63  1  0.97700000  0.12210000  0.76660000  1.0 -0.0867235398
C  C64  1  0.02300000  0.87790000  0.23340000  1.0 -0.0867235398
C  C65  1  0.97900000  0.77060000  0.63050000  1.0 -0.1992106287
C  C66  1  0.02100000  0.22940000  0.36950000  1.0 -0.1992106287
C  C67  1  0.02160000  0.63910000  0.92740000  1.0 -0.1892100841
C  C68  1  0.97840000  0.36090000  0.07260000  1.0 -0.1892100841
C  C69  1  0.89000000  0.71900000  0.07430000  1.0 0.0789213132
C  C70  1  0.11000000  0.28100000  0.92570000  1.0 0.0789213132
C  C71  1  0.91470000  0.70350000  0.92540000  1.0 0.0699709478
C  C72  1  0.08530000  0.29650000  0.07460000  1.0 0.0699709478
C  C73  1  0.91590000  0.86830000  0.63880000  1.0 0.0789213132
C  C74  1  0.08410000  0.13170000  0.36120000  1.0 0.0789213132
C  C75  1  0.74060000  0.81230000  0.65030000  1.0 0.0599675529
C  C76  1  0.25940000  0.18770000  0.34970000  1.0 0.0599675529
C  C77  1  0.25670000  0.84740000  0.38190000  1.0 -0.0999363547
C  C78  1  0.74330000  0.15260000  0.61810000  1.0 -0.0999363547
N  N1  1  0.93100000  0.50340000  0.67300000  1.0 -0.3764924629
N  N2  1  0.06900000  0.49660000  0.32700000  1.0 -0.3764924629
N  N3  1  0.57390000  0.23260000  0.89270000  1.0 -0.2372743635
N  N4  1  0.42610000  0.76740000  0.10730000  1.0 -0.2372743635
N  N5  1  0.89690000  0.29970000  0.73770000  1.0 -0.2996934353
N  N6  1  0.10310000  0.70030000  0.26230000  1.0 -0.2996934353
N  N7  1  0.67170000  0.25850000  0.82570000  1.0 -0.1892100841
N  N8  1  0.32830000  0.74150000  0.17430000  1.0 -0.1892100841
N  N9  1  0.74170000  0.12310000  0.91720000  1.0 -0.4188413916
N  N10  1  0.25830000  0.87690000  0.08280000  1.0 -0.4188413916
N  N11  1  0.34140000  0.52010000  0.44660000  1.0 -0.1992106287
N  N12  1  0.65860000  0.47990000  0.55340000  1.0 -0.1992106287
N  N13  1  0.07970000  0.55800000  0.56270000  1.0 -0.1892100841
N  N14  1  0.92030000  0.44200000  0.43730000  1.0 -0.1892100841
N  N15  1  0.10080000  0.45570000  0.57310000  1.0 -0.2262037544
N  N16  1  0.89920000  0.54430000  0.42690000  1.0 -0.2262037544
N  N17  1  0.36450000  0.51540000  0.35620000  1.0 -0.1892100841
N  N18  1  0.63550000  0.48460000  0.64380000  1.0 -0.1892100841
N  N19  1  0.45110000  0.36660000  0.42080000  1.0 -0.4279050974
N  N20  1  0.54890000  0.63340000  0.57920000  1.0 -0.4279050974
N  N21  1  0.38980000  0.43160000  0.19610000  1.0 -0.3078178165
N  N22  1  0.61020000  0.56840000  0.80390000  1.0 -0.3078178165
N  N23  1  0.38710000  0.34830000  0.76930000  1.0 -0.2103663197
N  N24  1  0.61290000  0.65170000  0.23070000  1.0 -0.2103663197
N  N25  1  0.23730000  0.49360000  0.94230000  1.0 -0.2452813981
N  N26  1  0.76270000  0.50640000  0.05770000  1.0 -0.2452813981
N  N27  1  0.33760000  0.43610000  0.96920000  1.0 -0.1992106287
N  N28  1  0.66240000  0.56390000  0.03080000  1.0 -0.1992106287
N  N29  1  0.23240000  0.51590000  0.08660000  1.0 -0.3764924629
N  N30  1  0.76760000  0.48410000  0.91340000  1.0 -0.3764924629
N  N31  1  0.40790000  0.01840000  0.19570000  1.0 -0.2103663197
N  N32  1  0.59210000  0.98160000  0.80430000  1.0 -0.2103663197
N  N33  1  0.84690000  0.74470000  0.99890000  1.0 -0.2575066535
N  N34  1  0.15310000  0.25530000  0.00110000  1.0 -0.2575066535
N  N35  1  0.79680000  0.89060000  0.65160000  1.0 -0.1892100841
N  N36  1  0.20320000  0.10940000  0.34840000  1.0 -0.1892100841
N  N37  1  0.23140000  0.76840000  0.42180000  1.0 -0.3481159954
N  N38  1  0.76860000  0.23160000  0.57820000  1.0 -0.3481159954
