# DDEC6 charges by PACMAN v1.1 (https://github.com/mtap-research/PACMAN-charge/)
data_WOWHIZ_ASR_pacman
_symmetry_space_group_name_H-M   'P 1'
_cell_length_a   13.93700000
_cell_length_b   13.93700000
_cell_length_c   24.94900000
_cell_angle_alpha   89.95460000
_cell_angle_beta   90.04540000
_cell_angle_gamma   52.88450000
_symmetry_Int_Tables_number   1
_chemical_formula_structural   V11Co8H24C40(N2O5)8
_chemical_formula_sum   'V22 Co16 H48 C80 N32 O80'
_cell_volume   3864.36882188
_cell_formula_units_Z   2
loop_
 _symmetry_equiv_pos_site_id
 _symmetry_equiv_pos_as_xyz
  1  'x, y, z'
loop_
 _atom_site_type_symbol
 _atom_site_label
 _atom_site_symmetry_multiplicity
 _atom_site_fract_x
 _atom_site_fract_y
 _atom_site_fract_z
 _atom_site_occupancy
 _atom_site_charge
V  V1  1  0.88438000  0.20698000  0.82729000  1.0 1.6906179431
V  V2  1  0.79302000  0.11562000  0.32729000  1.0 1.6906179431
V  V3  1  0.94778000  0.25118000  0.70309000  1.0 1.9688733462
V  V4  1  0.74882000  0.05222000  0.20309000  1.0 1.9688733462
V  V5  1  0.66781000  0.53621000  0.69446000  1.0 1.9587845448
V  V6  1  0.46379000  0.33219000  0.19446000  1.0 1.9587845448
V  V7  1  0.51669000  0.74749000  0.78682000  1.0 0.9116511984
V  V8  1  0.25251000  0.48331000  0.28682000  1.0 0.9116511984
V  V9  1  0.59715000  0.90055000  0.84462000  1.0 1.9280525092
V  V10  1  0.09945000  0.40285000  0.34462000  1.0 1.9280525092
V  V11  1  0.31337000  0.18217000  0.83864000  1.0 1.9688733462
V  V12  1  0.81783000  0.68663000  0.33864000  1.0 1.9688733462
V  V13  1  0.19888000  0.46488000  0.86732000  1.0 0.8077998403
V  V14  1  0.53512000  0.80112000  0.36732000  1.0 0.7866231445
V  V15  1  0.24108000  0.55908000  0.98035000  1.0 1.9429635051
V  V16  1  0.44092000  0.75892000  0.48035000  1.0 1.9463631156
V  V17  1  0.96363000  0.83943000  0.98366000  1.0 1.9429635051
V  V18  1  0.16057000  0.03637000  0.48366000  1.0 1.9429635051
V  V19  1  0.93830000  0.95290000  0.85020000  1.0 0.6026317123
V  V20  1  0.04710000  0.06170000  0.35020000  1.0 0.6060428265
V  V21  1  0.00010000  0.15730000  0.37110000  1.0 0.6592642906
V  V22  1  0.84270000  0.99990000  0.87110000  1.0 0.6652320865
Co  Co1  1  0.18947000  0.27643000  0.70530000  1.0 1.0300135854
Co  Co2  1  0.72357000  0.81053000  0.20530000  1.0 1.0300135854
Co  Co3  1  0.42280000  0.51120000  0.69905000  1.0 0.9116511984
Co  Co4  1  0.48880000  0.57720000  0.19905000  1.0 0.9116511984
Co  Co5  1  0.48234000  0.57840000  0.96651000  1.0 0.9116511984
Co  Co6  1  0.42160000  0.51766000  0.46651000  1.0 0.9116511984
Co  Co7  1  0.18850000  0.27778000  0.47370000  1.0 1.013246322
Co  Co8  1  0.72222000  0.81150000  0.97370000  1.0 1.013246322
Co  Co9  1  0.79467000  0.89707000  0.75096000  1.0 0.9630884174
Co  Co10  1  0.10293000  0.20533000  0.25096000  1.0 0.9630884174
Co  Co11  1  0.92657000  0.03077000  0.09050000  1.0 0.9996976299
Co  Co12  1  0.96923000  0.07343000  0.59050000  1.0 0.9996976299
Co  Co13  1  0.09409000  0.19669000  0.92302000  1.0 0.9996976299
Co  Co14  1  0.80331000  0.90591000  0.42302000  1.0 0.9996976299
Co  Co15  1  0.63028000  0.72508000  0.58435000  1.0 0.9996976299
Co  Co16  1  0.27492000  0.36972000  0.08435000  1.0 0.9996976299
H  H1  1  0.92320000  0.47360000  0.75580000  1.0 0.1304317393
H  H2  1  0.52640000  0.07680000  0.25580000  1.0 0.1304317393
H  H3  1  0.79830000  0.67570000  0.76380000  1.0 0.1208379111
H  H4  1  0.32430000  0.20170000  0.26380000  1.0 0.1208379111
H  H5  1  0.05650000  0.69250000  0.71790000  1.0 0.1304317393
H  H6  1  0.30750000  0.94350000  0.21790000  1.0 0.1351129654
H  H7  1  0.24150000  0.79530000  0.73800000  1.0 0.1208379111
H  H8  1  0.20470000  0.75850000  0.23800000  1.0 0.1208379111
H  H9  1  0.07730000  0.96630000  0.70290000  1.0 0.1208379111
H  H10  1  0.03370000  0.92270000  0.20290000  1.0 0.1208379111
H  H11  1  0.17860000  0.81540000  0.56080000  1.0 0.1304317393
H  H12  1  0.18460000  0.82140000  0.06080000  1.0 0.1304317393
H  H13  1  0.21290000  0.77730000  0.91990000  1.0 0.1304317393
H  H14  1  0.22270000  0.78710000  0.41990000  1.0 0.1304317393
H  H15  1  0.08710000  0.98290000  0.92070000  1.0 0.11087422
H  H16  1  0.01710000  0.91290000  0.42070000  1.0 0.11087422
H  H17  1  0.35470000  0.99290000  0.94710000  1.0 0.1304317393
H  H18  1  0.00710000  0.64530000  0.44710000  1.0 0.1304317393
H  H19  1  0.90950000  0.45490000  0.43460000  1.0 0.1208379111
H  H20  1  0.54510000  0.09050000  0.93460000  1.0 0.1208379111
H  H21  1  0.73150000  0.61230000  0.47180000  1.0 0.1208379111
H  H22  1  0.38770000  0.26850000  0.97180000  1.0 0.1208379111
H  H23  1  0.88550000  0.51310000  0.61430000  1.0 0.1304317393
H  H24  1  0.48690000  0.11450000  0.11430000  1.0 0.1304317393
H  H25  1  0.55690000  0.14350000  0.80500000  1.0 0.1208379111
H  H26  1  0.85650000  0.44310000  0.30500000  1.0 0.1208379111
H  H27  1  0.43010000  0.33850000  0.77560000  1.0 0.11087422
H  H28  1  0.66150000  0.56990000  0.27560000  1.0 0.11087422
H  H29  1  0.66540000  0.27660000  0.67060000  1.0 0.1304317393
H  H30  1  0.72340000  0.33460000  0.17060000  1.0 0.1304317393
H  H31  1  0.63560000  0.21380000  0.08570000  1.0 0.1208379111
H  H32  1  0.78620000  0.36440000  0.58570000  1.0 0.1208379111
H  H33  1  0.49420000  0.39760000  0.04300000  1.0 0.1304317393
H  H34  1  0.60240000  0.50580000  0.54300000  1.0 0.1304317393
H  H35  1  0.75110000  0.37550000  0.96980000  1.0 0.1208379111
H  H36  1  0.62450000  0.24890000  0.46980000  1.0 0.1208379111
H  H37  1  0.56480000  0.13960000  0.37170000  1.0 0.11087422
H  H38  1  0.86040000  0.43520000  0.87170000  1.0 0.11087422
H  H39  1  0.36300000  0.25860000  0.39080000  1.0 0.1208379111
H  H40  1  0.74140000  0.63700000  0.89080000  1.0 0.1208379111
H  H41  1  0.42460000  0.03720000  0.50550000  1.0 0.1351129654
H  H42  1  0.96280000  0.57540000  0.00550000  1.0 0.1351129654
H  H43  1  0.33680000  0.90300000  0.59680000  1.0 0.1208379111
H  H44  1  0.09700000  0.66320000  0.09680000  1.0 0.1208379111
H  H45  1  0.20070000  0.09390000  0.63270000  1.0 0.1208379111
H  H46  1  0.90610000  0.79930000  0.13270000  1.0 0.1208379111
H  H47  1  0.46480000  0.07420000  0.70120000  1.0 0.1304317393
H  H48  1  0.92580000  0.53520000  0.20120000  1.0 0.1304317393
C  C1  1  0.95250000  0.51690000  0.74800000  1.0 0.0488433132
C  C2  1  0.48310000  0.04750000  0.24800000  1.0 0.0488433132
C  C3  1  0.87750000  0.63910000  0.75360000  1.0 0.0571119145
C  C4  1  0.36090000  0.12250000  0.25360000  1.0 0.0571119145
C  C5  1  0.02850000  0.64850000  0.72690000  1.0 -0.0148817036
C  C6  1  0.35150000  0.97150000  0.22690000  1.0 -0.0148817036
C  C7  1  0.10320000  0.52320000  0.72190000  1.0 0.0488433132
C  C8  1  0.47680000  0.89680000  0.22190000  1.0 0.0488433132
C  C9  1  0.23190000  0.45910000  0.70280000  1.0 0.5406667136
C  C10  1  0.54090000  0.76810000  0.20280000  1.0 0.5406667136
C  C11  1  0.22630000  0.79690000  0.70150000  1.0 -0.0041573113
C  C12  1  0.20310000  0.77370000  0.20150000  1.0 -0.0041573113
C  C13  1  0.13060000  0.90160000  0.68070000  1.0 0.0571119145
C  C14  1  0.09840000  0.86940000  0.18070000  1.0 0.0571119145
C  C15  1  0.18950000  0.81190000  0.59770000  1.0 0.0271455452
C  C16  1  0.18810000  0.81050000  0.09770000  1.0 0.0271455452
C  C17  1  0.28420000  0.70380000  0.62160000  1.0 0.0810454183
C  C18  1  0.29620000  0.71580000  0.12160000  1.0 0.0810454183
C  C19  1  0.35950000  0.58850000  0.58980000  1.0 0.5477633345
C  C20  1  0.41150000  0.64050000  0.08980000  1.0 0.5477633345
C  C21  1  0.24280000  0.82000000  0.92800000  1.0 0.0192590242
C  C22  1  0.18000000  0.75720000  0.42800000  1.0 0.0192590242
C  C23  1  0.16910000  0.94210000  0.92630000  1.0 0.0192590242
C  C24  1  0.05790000  0.83090000  0.42630000  1.0 0.0192590242
C  C25  1  0.32330000  0.95030000  0.94390000  1.0 0.096181387
C  C26  1  0.04970000  0.67670000  0.44390000  1.0 0.096181387
C  C27  1  0.40060000  0.82380000  0.95190000  1.0 0.0571119145
C  C28  1  0.17620000  0.59940000  0.45190000  1.0 0.0571119145
C  C29  1  0.52640000  0.75440000  0.97010000  1.0 0.5406667136
C  C30  1  0.24560000  0.47360000  0.47010000  1.0 0.5406667136
C  C31  1  0.90720000  0.46720000  0.47130000  1.0 0.0407409531
C  C32  1  0.53280000  0.09280000  0.97130000  1.0 0.0407409531
C  C33  1  0.79780000  0.56120000  0.49370000  1.0 0.0137935243
C  C34  1  0.43880000  0.20220000  0.99370000  1.0 0.0137935243
C  C35  1  0.88820000  0.50440000  0.57730000  1.0 0.0407409531
C  C36  1  0.49560000  0.11180000  0.07730000  1.0 0.0407409531
C  C37  1  0.99920000  0.41260000  0.55190000  1.0 0.0571119145
C  C38  1  0.58740000  0.00080000  0.05190000  1.0 0.0571119145
C  C39  1  0.11310000  0.33790000  0.58370000  1.0 0.5477633345
C  C40  1  0.66210000  0.88690000  0.08370000  1.0 0.5477633345
C  C41  1  0.57840000  0.16740000  0.77550000  1.0 0.0192590242
C  C42  1  0.83260000  0.42160000  0.27550000  1.0 0.0192590242
C  C43  1  0.50440000  0.28640000  0.75900000  1.0 0.0652616489
C  C44  1  0.71360000  0.49560000  0.25900000  1.0 0.0652616489
C  C45  1  0.63970000  0.24970000  0.69710000  1.0 0.0192590242
C  C46  1  0.75030000  0.36030000  0.19710000  1.0 0.0192590242
C  C47  1  0.71140000  0.12780000  0.71090000  1.0 0.0859412569
C  C48  1  0.87220000  0.28860000  0.21090000  1.0 0.0859412569
C  C49  1  0.83000000  0.03800000  0.68080000  1.0 0.5477633345
C  C50  1  0.96200000  0.17000000  0.18080000  1.0 0.5477633345
C  C51  1  0.66180000  0.24500000  0.06200000  1.0 0.0810454183
C  C52  1  0.75500000  0.33820000  0.56200000  1.0 0.0810454183
C  C53  1  0.57560000  0.35740000  0.03590000  1.0 0.0407409531
C  C54  1  0.64260000  0.42440000  0.53590000  1.0 0.0407409531
C  C55  1  0.72440000  0.34480000  0.99350000  1.0 0.0271455452
C  C56  1  0.65520000  0.27560000  0.49350000  1.0 0.0271455452
C  C57  1  0.80900000  0.23540000  0.01880000  1.0 0.0488433132
C  C58  1  0.76460000  0.19100000  0.51880000  1.0 0.0488433132
C  C59  1  0.94350000  0.16690000  0.01060000  1.0 0.5477633345
C  C60  1  0.83310000  0.05650000  0.51060000  1.0 0.5477633345
C  C61  1  0.53750000  0.11690000  0.39930000  1.0 0.0571119145
C  C62  1  0.88310000  0.46250000  0.89930000  1.0 0.0571119145
C  C63  1  0.41590000  0.19070000  0.41160000  1.0 0.0271455452
C  C64  1  0.80930000  0.58410000  0.91160000  1.0 0.0271455452
C  C65  1  0.45160000  0.06160000  0.47860000  1.0 0.0571119145
C  C66  1  0.93840000  0.54840000  0.97860000  1.0 0.0571119145
C  C67  1  0.57180000  0.98940000  0.46530000  1.0 0.0488433132
C  C68  1  0.01060000  0.42820000  0.96530000  1.0 0.0488433132
C  C69  1  0.66310000  0.87510000  0.49720000  1.0 0.5565055254
C  C70  1  0.12490000  0.33690000  0.99720000  1.0 0.5565055254
C  C71  1  0.36410000  0.93850000  0.61660000  1.0 0.0192590242
C  C72  1  0.06150000  0.63590000  0.11660000  1.0 0.0192590242
C  C73  1  0.28260000  0.05200000  0.63940000  1.0 0.0488433132
C  C74  1  0.94800000  0.71740000  0.13940000  1.0 0.0488433132
C  C75  1  0.43760000  0.04220000  0.67870000  1.0 0.0488433132
C  C76  1  0.95780000  0.56240000  0.17870000  1.0 0.0488433132
C  C77  1  0.52040000  0.93240000  0.65380000  1.0 0.0810454183
C  C78  1  0.06760000  0.47960000  0.15380000  1.0 0.0810454183
C  C79  1  0.65700000  0.86340000  0.65930000  1.0 0.5406667136
C  C80  1  0.13660000  0.34300000  0.15930000  1.0 0.5406667136
N  N1  1  0.06340000  0.45900000  0.73220000  1.0 -0.2203154937
N  N2  1  0.54100000  0.93660000  0.23220000  1.0 -0.2203154937
N  N3  1  0.91120000  0.70660000  0.74550000  1.0 -0.1910141718
N  N4  1  0.29340000  0.08880000  0.24550000  1.0 -0.1910141718
N  N5  1  0.30030000  0.69590000  0.67400000  1.0 -0.2203154937
N  N6  1  0.30410000  0.69970000  0.17400000  1.0 -0.2203154937
N  N7  1  0.11400000  0.91080000  0.62760000  1.0 -0.2117152271
N  N8  1  0.08920000  0.88600000  0.12760000  1.0 -0.2117152271
N  N9  1  0.36280000  0.75900000  0.94180000  1.0 -0.2287447658
N  N10  1  0.24100000  0.63720000  0.44180000  1.0 -0.2287447658
N  N11  1  0.21390000  0.00670000  0.93260000  1.0 -0.1910141718
N  N12  1  0.99330000  0.78610000  0.43260000  1.0 -0.1910141718
N  N13  1  0.00950000  0.39330000  0.49910000  1.0 -0.2420893964
N  N14  1  0.60670000  0.99050000  0.99910000  1.0 -0.2420893964
N  N15  1  0.78840000  0.57800000  0.54820000  1.0 -0.2203154937
N  N16  1  0.42200000  0.21160000  0.04820000  1.0 -0.2203154937
N  N17  1  0.68220000  0.08500000  0.74900000  1.0 -0.2287447658
N  N18  1  0.91500000  0.31780000  0.24900000  1.0 -0.2287447658
N  N19  1  0.53390000  0.32850000  0.72170000  1.0 -0.1910141718
N  N20  1  0.67150000  0.46610000  0.22170000  1.0 -0.1910141718
N  N21  1  0.77650000  0.18570000  0.05280000  1.0 -0.2203154937
N  N22  1  0.81430000  0.22350000  0.55280000  1.0 -0.2203154937
N  N23  1  0.60800000  0.40600000  0.00190000  1.0 -0.1910141718
N  N24  1  0.59400000  0.39200000  0.50190000  1.0 -0.1910141718
N  N25  1  0.61450000  0.01710000  0.42490000  1.0 -0.2287447658
N  N26  1  0.98290000  0.38550000  0.92490000  1.0 -0.2287447658
N  N27  1  0.37370000  0.16530000  0.45350000  1.0 -0.1786278543
N  N28  1  0.83470000  0.62630000  0.95350000  1.0 -0.1786278543
N  N29  1  0.48630000  0.87970000  0.62400000  1.0 -0.2287447658
N  N30  1  0.12030000  0.51370000  0.12400000  1.0 -0.2287447658
N  N31  1  0.32000000  0.10240000  0.67100000  1.0 -0.1910141718
N  N32  1  0.89760000  0.68000000  0.17100000  1.0 -0.1910141718
O  O1  1  0.28630000  0.34710000  0.69240000  1.0 -0.5470398423
O  O2  1  0.65290000  0.71370000  0.19240000  1.0 -0.5374712107
O  O3  1  0.26670000  0.51910000  0.69840000  1.0 -0.5218021727
O  O4  1  0.48090000  0.73330000  0.19840000  1.0 -0.5218021727
O  O5  1  0.42900000  0.49380000  0.61580000  1.0 -0.5043619034
O  O6  1  0.50620000  0.57100000  0.11580000  1.0 -0.5043619034
O  O7  1  0.34980000  0.60180000  0.53970000  1.0 -0.5470398423
O  O8  1  0.39820000  0.65020000  0.03970000  1.0 -0.5470398423
O  O9  1  0.58400000  0.64440000  0.97970000  1.0 -0.5311483102
O  O10  1  0.35560000  0.41600000  0.47970000  1.0 -0.5311483102
O  O11  1  0.57070000  0.81290000  0.97480000  1.0 -0.5719220098
O  O12  1  0.18710000  0.42930000  0.47480000  1.0 -0.5719220098
O  O13  1  0.20880000  0.27320000  0.55800000  1.0 -0.5130256769
O  O14  1  0.72680000  0.79120000  0.05800000  1.0 -0.5130256769
O  O15  1  0.10170000  0.34650000  0.63410000  1.0 -0.5719220098
O  O16  1  0.65350000  0.89830000  0.13410000  1.0 -0.5719220098
O  O17  1  0.88830000  0.93090000  0.69760000  1.0 -0.5374712107
O  O18  1  0.06910000  0.11170000  0.19760000  1.0 -0.5374712107
O  O19  1  0.85500000  0.07700000  0.64420000  1.0 -0.5311483102
O  O20  1  0.92300000  0.14500000  0.14420000  1.0 -0.5311483102
O  O21  1  0.01280000  0.06840000  0.03530000  1.0 -0.5374712107
O  O22  1  0.93160000  0.98720000  0.53530000  1.0 -0.5374712107
O  O23  1  0.97370000  0.21450000  0.98120000  1.0 -0.5311483102
O  O24  1  0.78550000  0.02630000  0.48120000  1.0 -0.5311483102
O  O25  1  0.77170000  0.82110000  0.48370000  1.0 -0.5374712107
O  O26  1  0.17890000  0.22830000  0.98370000  1.0 -0.5374712107
O  O27  1  0.62360000  0.84780000  0.53340000  1.0 -0.5374712107
O  O28  1  0.15220000  0.37640000  0.03340000  1.0 -0.5374712107
O  O29  1  0.71960000  0.76200000  0.63990000  1.0 -0.5218021727
O  O30  1  0.23800000  0.28040000  0.13990000  1.0 -0.5218021727
O  O31  1  0.69340000  0.91580000  0.68150000  1.0 -0.5218021727
O  O32  1  0.08420000  0.30660000  0.18150000  1.0 -0.5218021727
O  O33  1  0.99660000  0.18700000  0.86120000  1.0 -0.8500334826
O  O34  1  0.81300000  0.00340000  0.36120000  1.0 -0.8500334826
O  O35  1  0.91950000  0.18390000  0.75800000  1.0 -1.0015549021
O  O36  1  0.81610000  0.08050000  0.25800000  1.0 -1.0015549021
O  O37  1  0.84740000  0.11080000  0.84770000  1.0 -0.708393788
O  O38  1  0.88920000  0.15260000  0.34770000  1.0 -0.708393788
O  O39  1  0.82490000  0.02110000  0.14770000  1.0 -0.8393414822
O  O40  1  0.97890000  0.17510000  0.64770000  1.0 -0.8393414822
O  O41  1  0.06660000  0.24380000  0.72180000  1.0 -0.8614757018
O  O42  1  0.75620000  0.93340000  0.22180000  1.0 -0.8614757018
O  O43  1  0.82080000  0.40500000  0.69580000  1.0 -1.0194532034
O  O44  1  0.59500000  0.17920000  0.19580000  1.0 -1.0194532034
O  O45  1  0.64190000  0.60430000  0.63650000  1.0 -0.8173850533
O  O46  1  0.39570000  0.35810000  0.13650000  1.0 -0.8173850533
O  O47  1  0.57130000  0.50350000  0.69910000  1.0 -0.8883197424
O  O48  1  0.49650000  0.42870000  0.19910000  1.0 -0.8883197424
O  O49  1  0.64050000  0.63570000  0.74610000  1.0 -0.9528877494
O  O50  1  0.36430000  0.35950000  0.24610000  1.0 -0.9528877494
O  O51  1  0.57190000  0.78970000  0.84090000  1.0 -0.9841130134
O  O52  1  0.21030000  0.42810000  0.34090000  1.0 -0.9896119592
O  O53  1  0.66510000  0.89630000  0.79070000  1.0 -0.8393414822
O  O54  1  0.10370000  0.33490000  0.29070000  1.0 -0.8393414822
O  O55  1  0.68440000  0.86560000  0.89640000  1.0 -0.8147912976
O  O56  1  0.13440000  0.31560000  0.39640000  1.0 -0.8147912976
O  O57  1  0.45990000  0.04870000  0.85300000  1.0 -1.0015549021
O  O58  1  0.95130000  0.54010000  0.35300000  1.0 -1.0061589834
O  O59  1  0.28610000  0.19910000  0.77380000  1.0 -0.8393414822
O  O60  1  0.80090000  0.71390000  0.27380000  1.0 -0.8393414822
O  O61  1  0.20880000  0.17560000  0.86960000  1.0 -0.8614757018
O  O62  1  0.82440000  0.79120000  0.36960000  1.0 -0.8614757018
O  O63  1  0.30850000  0.30390000  0.86310000  1.0 -0.9556900021
O  O64  1  0.69610000  0.69150000  0.36310000  1.0 -0.9528877494
O  O65  1  0.19780000  0.49520000  0.93820000  1.0 -0.8950425145
O  O66  1  0.50480000  0.80220000  0.43820000  1.0 -0.8883197424
O  O67  1  0.28710000  0.48170000  0.03790000  1.0 -0.8614757018
O  O68  1  0.51830000  0.71290000  0.53790000  1.0 -0.8614757018
O  O69  1  0.35390000  0.55070000  0.95290000  1.0 -0.8883197424
O  O70  1  0.44930000  0.64610000  0.45290000  1.0 -0.8883197424
O  O71  1  0.11750000  0.71130000  0.99140000  1.0 -0.9896119592
O  O72  1  0.28870000  0.88250000  0.49140000  1.0 -0.9896119592
O  O73  1  0.87460000  0.79940000  0.97710000  1.0 -0.8289866802
O  O74  1  0.20060000  0.12540000  0.47710000  1.0 -0.8289866802
O  O75  1  0.92290000  0.92610000  0.03810000  1.0 -0.8393414822
O  O76  1  0.07390000  0.07710000  0.53810000  1.0 -0.8393414822
O  O77  1  0.95040000  0.92260000  0.92520000  1.0 -0.8500334826
O  O78  1  0.07740000  0.04960000  0.42520000  1.0 -0.8500334826
O  O79  1  0.87800000  0.90060000  0.81820000  1.0 -0.6394580361
O  O80  1  0.09940000  0.12200000  0.31820000  1.0 -0.6394580361
