# DDEC6 charges by PACMAN v1.1 (https://github.com/mtap-research/PACMAN-charge/)
data_WOYWIS_ASR_pacman
_symmetry_space_group_name_H-M   'P 1'
_cell_length_a   12.33800000
_cell_length_b   33.33000000
_cell_length_c   25.85700000
_cell_angle_alpha   90.00000000
_cell_angle_beta   97.45000000
_cell_angle_gamma   90.00000000
_symmetry_Int_Tables_number   1
_chemical_formula_structural   Mn9H140C158N24Cl5O24
_chemical_formula_sum   'Mn18 H280 C316 N48 Cl10 O48'
_cell_volume   10543.29864639
_cell_formula_units_Z   2
loop_
 _symmetry_equiv_pos_site_id
 _symmetry_equiv_pos_as_xyz
  1  'x, y, z'
loop_
 _atom_site_type_symbol
 _atom_site_label
 _atom_site_symmetry_multiplicity
 _atom_site_fract_x
 _atom_site_fract_y
 _atom_site_fract_z
 _atom_site_occupancy
 _atom_site_charge
Mn  Mn1  1  0.18573000  0.43275000  0.80050000  1.0 0.8810373309
Mn  Mn2  1  0.81427000  0.93275000  0.19950000  1.0 0.8810373309
Mn  Mn3  1  0.81427000  0.56725000  0.19950000  1.0 0.8810373309
Mn  Mn4  1  0.18573000  0.06725000  0.80050000  1.0 0.8810373309
Mn  Mn5  1  0.99076000  0.50370000  0.74678000  1.0 1.0793606999
Mn  Mn6  1  0.00924000  0.00370000  0.25322000  1.0 1.0793606999
Mn  Mn7  1  0.00924000  0.49630000  0.25322000  1.0 1.0793606999
Mn  Mn8  1  0.99076000  0.99630000  0.74678000  1.0 1.0793606999
Mn  Mn9  1  0.78054000  0.57151000  0.69730000  1.0 0.8876362207
Mn  Mn10  1  0.21946000  0.07151000  0.30270000  1.0 0.8810373309
Mn  Mn11  1  0.21946000  0.42849000  0.30270000  1.0 0.8810373309
Mn  Mn12  1  0.78054000  0.92849000  0.69730000  1.0 0.8876362207
Mn  Mn13  1  0.24370000  0.25000000  0.63619000  1.0 0.7268808547
Mn  Mn14  1  0.75630000  0.75000000  0.36381000  1.0 0.7268808547
Mn  Mn15  1  0.93501000  0.25000000  0.54055000  1.0 0.8876362207
Mn  Mn16  1  0.06499000  0.75000000  0.45945000  1.0 0.8876362207
Mn  Mn17  1  0.75332000  0.75000000  0.85380000  1.0 0.6896125438
Mn  Mn18  1  0.24668000  0.25000000  0.14620000  1.0 0.6896125438
H  H1  1  0.30130000  0.32650000  0.88330000  1.0 0.1299376566
H  H2  1  0.69870000  0.82650000  0.11670000  1.0 0.1299376566
H  H3  1  0.69870000  0.67350000  0.11670000  1.0 0.1299376566
H  H4  1  0.30130000  0.17350000  0.88330000  1.0 0.1299376566
H  H5  1  0.21460000  0.34590000  0.83890000  1.0 0.1509373352
H  H6  1  0.78540000  0.84590000  0.16110000  1.0 0.1509373352
H  H7  1  0.78540000  0.65410000  0.16110000  1.0 0.1509373352
H  H8  1  0.21460000  0.15410000  0.83890000  1.0 0.1509373352
H  H9  1  0.66720000  0.75000000  0.96180000  1.0 0.1299376566
H  H10  1  0.33280000  0.25000000  0.03820000  1.0 0.1299376566
H  H11  1  0.54350000  0.75000000  0.97470000  1.0 0.1299376566
H  H12  1  0.45650000  0.25000000  0.02530000  1.0 0.1299376566
H  H13  1  0.46690000  0.25000000  0.52140000  1.0 0.1299376566
H  H14  1  0.53310000  0.75000000  0.47860000  1.0 0.1299376566
H  H15  1  0.34230000  0.25000000  0.53280000  1.0 0.1402283079
H  H16  1  0.65770000  0.75000000  0.46720000  1.0 0.1402283079
H  H17  1  0.67100000  0.67580000  0.60860000  1.0 0.1299376566
H  H18  1  0.32900000  0.17580000  0.39140000  1.0 0.1299376566
H  H19  1  0.32900000  0.32420000  0.39140000  1.0 0.1299376566
H  H20  1  0.67100000  0.82420000  0.60860000  1.0 0.1299376566
H  H21  1  0.75250000  0.65760000  0.65600000  1.0 0.1598402148
H  H22  1  0.24750000  0.15760000  0.34400000  1.0 0.1598402148
H  H23  1  0.24750000  0.34240000  0.34400000  1.0 0.1598402148
H  H24  1  0.75250000  0.84240000  0.65600000  1.0 0.1598402148
H  H25  1  0.47310000  0.30090000  0.86920000  1.0 0.1299376566
H  H26  1  0.52690000  0.80090000  0.13080000  1.0 0.1299376566
H  H27  1  0.52690000  0.69910000  0.13080000  1.0 0.1299376566
H  H28  1  0.47310000  0.19910000  0.86920000  1.0 0.1299376566
H  H29  1  0.59360000  0.31780000  0.86630000  1.0 0.1509373352
H  H30  1  0.40640000  0.81780000  0.13370000  1.0 0.1509373352
H  H31  1  0.40640000  0.68220000  0.13370000  1.0 0.1509373352
H  H32  1  0.59360000  0.18220000  0.86630000  1.0 0.1509373352
H  H33  1  0.52870000  0.33080000  0.91340000  1.0 0.1402283079
H  H34  1  0.47130000  0.83080000  0.08660000  1.0 0.1402283079
H  H35  1  0.47130000  0.66920000  0.08660000  1.0 0.1402283079
H  H36  1  0.52870000  0.16920000  0.91340000  1.0 0.1402283079
H  H37  1  0.44880000  0.47240000  0.78040000  1.0 0.1598402148
H  H38  1  0.55120000  0.97240000  0.21960000  1.0 0.1598402148
H  H39  1  0.55120000  0.52760000  0.21960000  1.0 0.1598402148
H  H40  1  0.44880000  0.02760000  0.78040000  1.0 0.1598402148
H  H41  1  0.50900000  0.44540000  0.74170000  1.0 0.1509373352
H  H42  1  0.49100000  0.94540000  0.25830000  1.0 0.1509373352
H  H43  1  0.49100000  0.55460000  0.25830000  1.0 0.1509373352
H  H44  1  0.50900000  0.05460000  0.74170000  1.0 0.1509373352
H  H45  1  0.37850000  0.44850000  0.73400000  1.0 0.1598402148
H  H46  1  0.62150000  0.94850000  0.26600000  1.0 0.1598402148
H  H47  1  0.62150000  0.55150000  0.26600000  1.0 0.1598402148
H  H48  1  0.37850000  0.05150000  0.73400000  1.0 0.1598402148
H  H49  1  0.67400000  0.33390000  0.79460000  1.0 0.1096873171
H  H50  1  0.32600000  0.83390000  0.20540000  1.0 0.1096873171
H  H51  1  0.32600000  0.66610000  0.20540000  1.0 0.1096873171
H  H52  1  0.67400000  0.16610000  0.79460000  1.0 0.1096873171
H  H53  1  0.85860000  0.34360000  0.78510000  1.0 0.1203248302
H  H54  1  0.14140000  0.84360000  0.21490000  1.0 0.1203248302
H  H55  1  0.14140000  0.65640000  0.21490000  1.0 0.1203248302
H  H56  1  0.85860000  0.15640000  0.78510000  1.0 0.1203248302
H  H57  1  0.82670000  0.46190000  0.81540000  1.0 0.1203248302
H  H58  1  0.17330000  0.96190000  0.18460000  1.0 0.1203248302
H  H59  1  0.17330000  0.53810000  0.18460000  1.0 0.1203248302
H  H60  1  0.82670000  0.03810000  0.81540000  1.0 0.1203248302
H  H61  1  0.64610000  0.45210000  0.82740000  1.0 0.1203248302
H  H62  1  0.35390000  0.95210000  0.17260000  1.0 0.1203248302
H  H63  1  0.35390000  0.54790000  0.17260000  1.0 0.1203248302
H  H64  1  0.64610000  0.04790000  0.82740000  1.0 0.1203248302
H  H65  1  0.38200000  0.33880000  0.97200000  1.0 0.1299376566
H  H66  1  0.61800000  0.83880000  0.02800000  1.0 0.1299376566
H  H67  1  0.61800000  0.66120000  0.02800000  1.0 0.1299376566
H  H68  1  0.38200000  0.16120000  0.97200000  1.0 0.1299376566
H  H69  1  0.32700000  0.35140000  0.02230000  1.0 0.1402283079
H  H70  1  0.67300000  0.85140000  0.97770000  1.0 0.1402283079
H  H71  1  0.67300000  0.64860000  0.97770000  1.0 0.1402283079
H  H72  1  0.32700000  0.14860000  0.02230000  1.0 0.1402283079
H  H73  1  0.26730000  0.31980000  0.98160000  1.0 0.1402283079
H  H74  1  0.73270000  0.81980000  0.01840000  1.0 0.1402283079
H  H75  1  0.73270000  0.68020000  0.01840000  1.0 0.1402283079
H  H76  1  0.26730000  0.18020000  0.98160000  1.0 0.1402283079
H  H77  1  0.03700000  0.46910000  0.93950000  1.0 0.1402283079
H  H78  1  0.96300000  0.96910000  0.06050000  1.0 0.1402283079
H  H79  1  0.96300000  0.53090000  0.06050000  1.0 0.1402283079
H  H80  1  0.03700000  0.03090000  0.93950000  1.0 0.1402283079
H  H81  1  0.15000000  0.49240000  0.93830000  1.0 0.1509373352
H  H82  1  0.85000000  0.99240000  0.06170000  1.0 0.1509373352
H  H83  1  0.85000000  0.50760000  0.06170000  1.0 0.1509373352
H  H84  1  0.15000000  0.00760000  0.93830000  1.0 0.1509373352
H  H85  1  0.08190000  0.47710000  0.88510000  1.0 0.1698089587
H  H86  1  0.91810000  0.97710000  0.11490000  1.0 0.1698089587
H  H87  1  0.91810000  0.52290000  0.11490000  1.0 0.1698089587
H  H88  1  0.08190000  0.02290000  0.88510000  1.0 0.1698089587
H  H89  1  0.36270000  0.71410000  0.94940000  1.0 0.1402283079
H  H90  1  0.63730000  0.21410000  0.05060000  1.0 0.1402283079
H  H91  1  0.63730000  0.28590000  0.05060000  1.0 0.1402283079
H  H92  1  0.36270000  0.78590000  0.94940000  1.0 0.1402283079
H  H93  1  0.35320000  0.66620000  0.94840000  1.0 0.1598402148
H  H94  1  0.64680000  0.16620000  0.05160000  1.0 0.1598402148
H  H95  1  0.64680000  0.33380000  0.05160000  1.0 0.1598402148
H  H96  1  0.35320000  0.83380000  0.94840000  1.0 0.1598402148
H  H97  1  0.44250000  0.68770000  0.98970000  1.0 0.1299376566
H  H98  1  0.55750000  0.18770000  0.01030000  1.0 0.1299376566
H  H99  1  0.55750000  0.31230000  0.01030000  1.0 0.1299376566
H  H100  1  0.44250000  0.81230000  0.98970000  1.0 0.1299376566
H  H101  1  0.70700000  0.65700000  0.81080000  1.0 0.1509373352
H  H102  1  0.29300000  0.15700000  0.18920000  1.0 0.1509373352
H  H103  1  0.29300000  0.34300000  0.18920000  1.0 0.1509373352
H  H104  1  0.70700000  0.84300000  0.81080000  1.0 0.1509373352
H  H105  1  0.60640000  0.62630000  0.80350000  1.0 0.1509373352
H  H106  1  0.39360000  0.12630000  0.19650000  1.0 0.1509373352
H  H107  1  0.39360000  0.37370000  0.19650000  1.0 0.1509373352
H  H108  1  0.60640000  0.87370000  0.80350000  1.0 0.1509373352
H  H109  1  0.59600000  0.66900000  0.77500000  1.0 0.1598402148
H  H110  1  0.40400000  0.16900000  0.22500000  1.0 0.1598402148
H  H111  1  0.40400000  0.33100000  0.22500000  1.0 0.1598402148
H  H112  1  0.59600000  0.83100000  0.77500000  1.0 0.1598402148
H  H113  1  0.53240000  0.58160000  0.89030000  1.0 0.1096873171
H  H114  1  0.46760000  0.08160000  0.10970000  1.0 0.1096873171
H  H115  1  0.46760000  0.41840000  0.10970000  1.0 0.1096873171
H  H116  1  0.53240000  0.91840000  0.89030000  1.0 0.1096873171
H  H117  1  0.41930000  0.52600000  0.86850000  1.0 0.1203248302
H  H118  1  0.58070000  0.02600000  0.13150000  1.0 0.1203248302
H  H119  1  0.58070000  0.47400000  0.13150000  1.0 0.1203248302
H  H120  1  0.41930000  0.97400000  0.86850000  1.0 0.1203248302
H  H121  1  0.19830000  0.60040000  0.79260000  1.0 0.1203248302
H  H122  1  0.80170000  0.10040000  0.20740000  1.0 0.1203248302
H  H123  1  0.80170000  0.39960000  0.20740000  1.0 0.1203248302
H  H124  1  0.19830000  0.89960000  0.79260000  1.0 0.1203248302
H  H125  1  0.30800000  0.65360000  0.81690000  1.0 0.1203248302
H  H126  1  0.69200000  0.15360000  0.18310000  1.0 0.1203248302
H  H127  1  0.69200000  0.34640000  0.18310000  1.0 0.1203248302
H  H128  1  0.30800000  0.84640000  0.81690000  1.0 0.1203248302
H  H129  1  0.57840000  0.30360000  0.51180000  1.0 0.1299376566
H  H130  1  0.42160000  0.80360000  0.48820000  1.0 0.1299376566
H  H131  1  0.42160000  0.69640000  0.48820000  1.0 0.1299376566
H  H132  1  0.57840000  0.19640000  0.51180000  1.0 0.1299376566
H  H133  1  0.65140000  0.33460000  0.54850000  1.0 0.1698089587
H  H134  1  0.34860000  0.83460000  0.45150000  1.0 0.1698089587
H  H135  1  0.34860000  0.66540000  0.45150000  1.0 0.1698089587
H  H136  1  0.65140000  0.16540000  0.54850000  1.0 0.1698089587
H  H137  1  0.66150000  0.28750000  0.56010000  1.0 0.1598402148
H  H138  1  0.33850000  0.78750000  0.43990000  1.0 0.1598402148
H  H139  1  0.33850000  0.71250000  0.43990000  1.0 0.1598402148
H  H140  1  0.66150000  0.21250000  0.56010000  1.0 0.1598402148
H  H141  1  0.41360000  0.34220000  0.71710000  1.0 0.1598402148
H  H142  1  0.58640000  0.84220000  0.28290000  1.0 0.1598402148
H  H143  1  0.58640000  0.65780000  0.28290000  1.0 0.1598402148
H  H144  1  0.41360000  0.15780000  0.71710000  1.0 0.1598402148
H  H145  1  0.35690000  0.37620000  0.67900000  1.0 0.1598402148
H  H146  1  0.64310000  0.87620000  0.32100000  1.0 0.1598402148
H  H147  1  0.64310000  0.62380000  0.32100000  1.0 0.1598402148
H  H148  1  0.35690000  0.12380000  0.67900000  1.0 0.1598402148
H  H149  1  0.29280000  0.33540000  0.68760000  1.0 0.1598402148
H  H150  1  0.70720000  0.83540000  0.31240000  1.0 0.1598402148
H  H151  1  0.70720000  0.66460000  0.31240000  1.0 0.1598402148
H  H152  1  0.29280000  0.16460000  0.68760000  1.0 0.1598402148
H  H153  1  0.71740000  0.34820000  0.65540000  1.0 0.1299376566
H  H154  1  0.28260000  0.84820000  0.34460000  1.0 0.1299376566
H  H155  1  0.28260000  0.65180000  0.34460000  1.0 0.1299376566
H  H156  1  0.71740000  0.15180000  0.65540000  1.0 0.1299376566
H  H157  1  0.82170000  0.40470000  0.68060000  1.0 0.1299376566
H  H158  1  0.17830000  0.90470000  0.31940000  1.0 0.1299376566
H  H159  1  0.17830000  0.59530000  0.31940000  1.0 0.1299376566
H  H160  1  0.82170000  0.09530000  0.68060000  1.0 0.1299376566
H  H161  1  0.55210000  0.47450000  0.64090000  1.0 0.1203248302
H  H162  1  0.44790000  0.97450000  0.35910000  1.0 0.1203248302
H  H163  1  0.44790000  0.52550000  0.35910000  1.0 0.1203248302
H  H164  1  0.55210000  0.02550000  0.64090000  1.0 0.1203248302
H  H165  1  0.44980000  0.41690000  0.61740000  1.0 0.1203248302
H  H166  1  0.55020000  0.91690000  0.38260000  1.0 0.1203248302
H  H167  1  0.55020000  0.58310000  0.38260000  1.0 0.1203248302
H  H168  1  0.44980000  0.08310000  0.61740000  1.0 0.1203248302
H  H169  1  0.73220000  0.68190000  0.50860000  1.0 0.1598402148
H  H170  1  0.26780000  0.18190000  0.49140000  1.0 0.1598402148
H  H171  1  0.26780000  0.31810000  0.49140000  1.0 0.1598402148
H  H172  1  0.73220000  0.81810000  0.50860000  1.0 0.1598402148
H  H173  1  0.65760000  0.65040000  0.47350000  1.0 0.1509373352
H  H174  1  0.34240000  0.15040000  0.52650000  1.0 0.1509373352
H  H175  1  0.34240000  0.34960000  0.52650000  1.0 0.1509373352
H  H176  1  0.65760000  0.84960000  0.47350000  1.0 0.1509373352
H  H177  1  0.61670000  0.66850000  0.52490000  1.0 0.1299376566
H  H178  1  0.38330000  0.16850000  0.47510000  1.0 0.1402283079
H  H179  1  0.38330000  0.33150000  0.47510000  1.0 0.1402283079
H  H180  1  0.61670000  0.83150000  0.52490000  1.0 0.1402283079
H  H181  1  0.82630000  0.50880000  0.57390000  1.0 0.1509373352
H  H182  1  0.17370000  0.00880000  0.42610000  1.0 0.1509373352
H  H183  1  0.17370000  0.49120000  0.42610000  1.0 0.1509373352
H  H184  1  0.82630000  0.99120000  0.57390000  1.0 0.1509373352
H  H185  1  0.93160000  0.52880000  0.55420000  1.0 0.1402283079
H  H186  1  0.06840000  0.02880000  0.44580000  1.0 0.1402283079
H  H187  1  0.06840000  0.47120000  0.44580000  1.0 0.1402283079
H  H188  1  0.93160000  0.97120000  0.55420000  1.0 0.1402283079
H  H189  1  0.91760000  0.52960000  0.61490000  1.0 0.1598402148
H  H190  1  0.08240000  0.02960000  0.38510000  1.0 0.1598402148
H  H191  1  0.08240000  0.47040000  0.38510000  1.0 0.1598402148
H  H192  1  0.91760000  0.97040000  0.61490000  1.0 0.1598402148
H  H193  1  0.84760000  0.63830000  0.44860000  1.0 0.1299376566
H  H194  1  0.15240000  0.13830000  0.55140000  1.0 0.1299376566
H  H195  1  0.15240000  0.36170000  0.55140000  1.0 0.1299376566
H  H196  1  0.84760000  0.86170000  0.44860000  1.0 0.1299376566
H  H197  1  0.86680000  0.62130000  0.36320000  1.0 0.1299376566
H  H198  1  0.13320000  0.12130000  0.63680000  1.0 0.1299376566
H  H199  1  0.13320000  0.37870000  0.63680000  1.0 0.1299376566
H  H200  1  0.86680000  0.87870000  0.36320000  1.0 0.1299376566
H  H201  1  0.81900000  0.50410000  0.39490000  1.0 0.1299376566
H  H202  1  0.18100000  0.00410000  0.60510000  1.0 0.1299376566
H  H203  1  0.18100000  0.49590000  0.60510000  1.0 0.1299376566
H  H204  1  0.81900000  0.99590000  0.39490000  1.0 0.1299376566
H  H205  1  0.78410000  0.52130000  0.47790000  1.0 0.1203248302
H  H206  1  0.21590000  0.02130000  0.52210000  1.0 0.1203248302
H  H207  1  0.21590000  0.47870000  0.52210000  1.0 0.1203248302
H  H208  1  0.78410000  0.97870000  0.47790000  1.0 0.1203248302
H  H209  1  0.47650000  0.67510000  0.57320000  1.0 0.1402283079
H  H210  1  0.52350000  0.17510000  0.42680000  1.0 0.1402283079
H  H211  1  0.52350000  0.32490000  0.42680000  1.0 0.1402283079
H  H212  1  0.47650000  0.82490000  0.57320000  1.0 0.1402283079
H  H213  1  0.37210000  0.67880000  0.60370000  1.0 0.1698089587
H  H214  1  0.62790000  0.17880000  0.39630000  1.0 0.1698089587
H  H215  1  0.62790000  0.32120000  0.39630000  1.0 0.1698089587
H  H216  1  0.37210000  0.82120000  0.60370000  1.0 0.1698089587
H  H217  1  0.48010000  0.70410000  0.62270000  1.0 0.1509373352
H  H218  1  0.51990000  0.20410000  0.37730000  1.0 0.1509373352
H  H219  1  0.51990000  0.29590000  0.37730000  1.0 0.1509373352
H  H220  1  0.48010000  0.79590000  0.62270000  1.0 0.1509373352
H  H221  1  0.57740000  0.55820000  0.75920000  1.0 0.1598402148
H  H222  1  0.42260000  0.05820000  0.24080000  1.0 0.1598402148
H  H223  1  0.42260000  0.44180000  0.24080000  1.0 0.1598402148
H  H224  1  0.57740000  0.94180000  0.75920000  1.0 0.1598402148
H  H225  1  0.44700000  0.56190000  0.74940000  1.0 0.1509373352
H  H226  1  0.55300000  0.06190000  0.25060000  1.0 0.1509373352
H  H227  1  0.55300000  0.43810000  0.25060000  1.0 0.1509373352
H  H228  1  0.44700000  0.93810000  0.74940000  1.0 0.1509373352
H  H229  1  0.50900000  0.53320000  0.71320000  1.0 0.1598402148
H  H230  1  0.49100000  0.03320000  0.28680000  1.0 0.1598402148
H  H231  1  0.49100000  0.46680000  0.28680000  1.0 0.1598402148
H  H232  1  0.50900000  0.96680000  0.71320000  1.0 0.1598402148
H  H233  1  0.29050000  0.67360000  0.68870000  1.0 0.1203248302
H  H234  1  0.70950000  0.17360000  0.31130000  1.0 0.1203248302
H  H235  1  0.70950000  0.32640000  0.31130000  1.0 0.1203248302
H  H236  1  0.29050000  0.82640000  0.68870000  1.0 0.1203248302
H  H237  1  0.10780000  0.66560000  0.70130000  1.0 0.1203248302
H  H238  1  0.89220000  0.16560000  0.29870000  1.0 0.1203248302
H  H239  1  0.89220000  0.33440000  0.29870000  1.0 0.1203248302
H  H240  1  0.10780000  0.83440000  0.70130000  1.0 0.1203248302
H  H241  1  0.13100000  0.54660000  0.67070000  1.0 0.1299376566
H  H242  1  0.86900000  0.04660000  0.32930000  1.0 0.1203248302
H  H243  1  0.86900000  0.45340000  0.32930000  1.0 0.1203248302
H  H244  1  0.13100000  0.95340000  0.67070000  1.0 0.1299376566
H  H245  1  0.31130000  0.55540000  0.65820000  1.0 0.1203248302
H  H246  1  0.68870000  0.05540000  0.34180000  1.0 0.1203248302
H  H247  1  0.68870000  0.44460000  0.34180000  1.0 0.1203248302
H  H248  1  0.31130000  0.94460000  0.65820000  1.0 0.1203248302
H  H249  1  0.16530000  0.36310000  0.05000000  1.0 0.0971119497
H  H250  1  0.83470000  0.86310000  0.95000000  1.0 0.0971119497
H  H251  1  0.83470000  0.63690000  0.95000000  1.0 0.0971119497
H  H252  1  0.16530000  0.13690000  0.05000000  1.0 0.0971119497
H  H253  1  0.15290000  0.37650000  0.13790000  1.0 0.1096873171
H  H254  1  0.84710000  0.87650000  0.86210000  1.0 0.1096873171
H  H255  1  0.84710000  0.62350000  0.86210000  1.0 0.1096873171
H  H256  1  0.15290000  0.12350000  0.13790000  1.0 0.1096873171
H  H257  1  0.19330000  0.49490000  0.11150000  1.0 0.1096873171
H  H258  1  0.80670000  0.99490000  0.88850000  1.0 0.1096873171
H  H259  1  0.80670000  0.50510000  0.88850000  1.0 0.1096873171
H  H260  1  0.19330000  0.00510000  0.11150000  1.0 0.1096873171
H  H261  1  0.21150000  0.48130000  0.02450000  1.0 0.0940869886
H  H262  1  0.78850000  0.98130000  0.97550000  1.0 0.0940869886
H  H263  1  0.78850000  0.51870000  0.97550000  1.0 0.0940869886
H  H264  1  0.21150000  0.01870000  0.02450000  1.0 0.0940869886
H  H265  1  0.34640000  0.40570000  0.05420000  1.0 0.0971119497
H  H266  1  0.65360000  0.90570000  0.94580000  1.0 0.0971119497
H  H267  1  0.65360000  0.59430000  0.94580000  1.0 0.0971119497
H  H268  1  0.34640000  0.09430000  0.05420000  1.0 0.0971119497
H  H269  1  0.33610000  0.42080000  0.14000000  1.0 0.0940869886
H  H270  1  0.66390000  0.92080000  0.86000000  1.0 0.0940869886
H  H271  1  0.66390000  0.57920000  0.86000000  1.0 0.0940869886
H  H272  1  0.33610000  0.07920000  0.14000000  1.0 0.0940869886
H  H273  1  0.01850000  0.45420000  0.10300000  1.0 0.1096873171
H  H274  1  0.98150000  0.95420000  0.89700000  1.0 0.1096873171
H  H275  1  0.98150000  0.54580000  0.89700000  1.0 0.1096873171
H  H276  1  0.01850000  0.04580000  0.10300000  1.0 0.1096873171
H  H277  1  0.03600000  0.44070000  0.01470000  1.0 0.0971119497
H  H278  1  0.96400000  0.94070000  0.98530000  1.0 0.0971119497
H  H279  1  0.96400000  0.55930000  0.98530000  1.0 0.0971119497
H  H280  1  0.03600000  0.05930000  0.01470000  1.0 0.0971119497
C  C1  1  0.27770000  0.35186000  0.86548000  1.0 -0.0809558332
C  C2  1  0.72230000  0.85186000  0.13452000  1.0 -0.0809558332
C  C3  1  0.72230000  0.64814000  0.13452000  1.0 -0.0809558332
C  C4  1  0.27770000  0.14814000  0.86548000  1.0 -0.0809558332
C  C5  1  0.58970000  0.75000000  0.94610000  1.0 -0.0903189746
C  C6  1  0.41030000  0.25000000  0.05390000  1.0 -0.0903189746
C  C7  1  0.41930000  0.25000000  0.54940000  1.0 -0.0690406151
C  C8  1  0.58070000  0.75000000  0.45060000  1.0 -0.0690406151
C  C9  1  0.69330000  0.65080000  0.62781000  1.0 -0.0809558332
C  C10  1  0.30670000  0.15080000  0.37219000  1.0 -0.0809558332
C  C11  1  0.30670000  0.34920000  0.37219000  1.0 -0.0809558332
C  C12  1  0.69330000  0.84920000  0.62781000  1.0 -0.0809558332
C  C13  1  0.47450000  0.35899000  0.84530000  1.0 0.1509373352
C  C14  1  0.52550000  0.85899000  0.15470000  1.0 0.1509373352
C  C15  1  0.52550000  0.64101000  0.15470000  1.0 0.1509373352
C  C16  1  0.47450000  0.14101000  0.84530000  1.0 0.1509373352
C  C17  1  0.52380000  0.38715000  0.81690000  1.0 -0.1697325644
C  C18  1  0.47620000  0.88715000  0.18310000  1.0 -0.1697325644
C  C19  1  0.47620000  0.61285000  0.18310000  1.0 -0.1697325644
C  C20  1  0.52380000  0.11285000  0.81690000  1.0 -0.1697325644
C  C21  1  0.43850000  0.41295000  0.79440000  1.0 0.232850236
C  C22  1  0.56150000  0.91295000  0.20560000  1.0 0.232850236
C  C23  1  0.56150000  0.58705000  0.20560000  1.0 0.232850236
C  C24  1  0.43850000  0.08705000  0.79440000  1.0 0.232850236
C  C25  1  0.52140000  0.32420000  0.87620000  1.0 -0.5003602947
C  C26  1  0.47860000  0.82420000  0.12380000  1.0 -0.5003602947
C  C27  1  0.47860000  0.67580000  0.12380000  1.0 -0.5003602947
C  C28  1  0.52140000  0.17580000  0.87620000  1.0 -0.5003602947
C  C29  1  0.44420000  0.44770000  0.75970000  1.0 -0.5003602947
C  C30  1  0.55580000  0.94770000  0.24030000  1.0 -0.5070051012
C  C31  1  0.55580000  0.55230000  0.24030000  1.0 -0.5070051012
C  C32  1  0.44420000  0.05230000  0.75970000  1.0 -0.5003602947
C  C33  1  0.63970000  0.39179000  0.81160000  1.0 0.1096873171
C  C34  1  0.36030000  0.89179000  0.18840000  1.0 0.1096873171
C  C35  1  0.36030000  0.60821000  0.18840000  1.0 0.1096873171
C  C36  1  0.63970000  0.10821000  0.81160000  1.0 0.1096873171
C  C37  1  0.70490000  0.35997000  0.79920000  1.0 -0.1611765412
C  C38  1  0.29510000  0.85997000  0.20080000  1.0 -0.1611765412
C  C39  1  0.29510000  0.64003000  0.20080000  1.0 -0.1611765412
C  C40  1  0.70490000  0.14003000  0.79920000  1.0 -0.1611765412
C  C41  1  0.81520000  0.36559000  0.79340000  1.0 -0.1008469692
C  C42  1  0.18480000  0.86559000  0.20660000  1.0 -0.1008469692
C  C43  1  0.18480000  0.63441000  0.20660000  1.0 -0.1008469692
C  C44  1  0.81520000  0.13441000  0.79340000  1.0 -0.1008469692
C  C45  1  0.86060000  0.40407000  0.80020000  1.0 -0.0397844439
C  C46  1  0.13940000  0.90407000  0.19980000  1.0 -0.0397844439
C  C47  1  0.13940000  0.59593000  0.19980000  1.0 -0.0397844439
C  C48  1  0.86060000  0.09593000  0.80020000  1.0 -0.0397844439
C  C49  1  0.79620000  0.43575000  0.81180000  1.0 -0.1008469692
C  C50  1  0.20380000  0.93575000  0.18820000  1.0 -0.1008469692
C  C51  1  0.20380000  0.56425000  0.18820000  1.0 -0.1008469692
C  C52  1  0.79620000  0.06425000  0.81180000  1.0 -0.1008469692
C  C53  1  0.68840000  0.42998000  0.81830000  1.0 -0.1410302549
C  C54  1  0.31160000  0.92998000  0.18170000  1.0 -0.1410302549
C  C55  1  0.31160000  0.57002000  0.18170000  1.0 -0.1410302549
C  C56  1  0.68840000  0.07002000  0.81830000  1.0 -0.1410302549
C  C57  1  0.97650000  0.41138000  0.79440000  1.0 0.5697187496
C  C58  1  0.02350000  0.91138000  0.20560000  1.0 0.5697187496
C  C59  1  0.02350000  0.58862000  0.20560000  1.0 0.5697187496
C  C60  1  0.97650000  0.08862000  0.79440000  1.0 0.5697187496
C  C61  1  0.25460000  0.37724000  0.95550000  1.0 0.1402283079
C  C62  1  0.74540000  0.87724000  0.04450000  1.0 0.1402283079
C  C63  1  0.74540000  0.62276000  0.04450000  1.0 0.1402283079
C  C64  1  0.25460000  0.12276000  0.95550000  1.0 0.1402283079
C  C65  1  0.20280000  0.41036000  0.97289000  1.0 -0.1697325644
C  C66  1  0.79720000  0.91036000  0.02711000  1.0 -0.1697325644
C  C67  1  0.79720000  0.58964000  0.02711000  1.0 -0.1697325644
C  C68  1  0.20280000  0.08964000  0.97289000  1.0 -0.1697325644
C  C69  1  0.16290000  0.43212000  0.92730000  1.0 0.2200319457
C  C70  1  0.83710000  0.93212000  0.07270000  1.0 0.2200319457
C  C71  1  0.83710000  0.56788000  0.07270000  1.0 0.2200319457
C  C72  1  0.16290000  0.06788000  0.92730000  1.0 0.2200319457
C  C73  1  0.31260000  0.34400000  0.98540000  1.0 -0.5224577007
C  C74  1  0.68740000  0.84400000  0.01460000  1.0 -0.5224577007
C  C75  1  0.68740000  0.65600000  0.01460000  1.0 -0.5224577007
C  C76  1  0.31260000  0.15600000  0.98540000  1.0 -0.5224577007
C  C77  1  0.10280000  0.47100000  0.92210000  1.0 -0.5070051012
C  C78  1  0.89720000  0.97100000  0.07790000  1.0 -0.5070051012
C  C79  1  0.89720000  0.52900000  0.07790000  1.0 -0.5070051012
C  C80  1  0.10280000  0.02900000  0.92210000  1.0 -0.5070051012
C  C81  1  0.19000000  0.42000000  0.02730000  1.0 0.0705434022
C  C82  1  0.81000000  0.92000000  0.97270000  1.0 0.0705434022
C  C83  1  0.81000000  0.58000000  0.97270000  1.0 0.0705434022
C  C84  1  0.19000000  0.08000000  0.02730000  1.0 0.0705434022
C  C85  1  0.17390000  0.43718000  0.13214000  1.0 -0.0024387052
C  C86  1  0.82610000  0.93718000  0.86786000  1.0 -0.0024387052
C  C87  1  0.82610000  0.56282000  0.86786000  1.0 -0.0024387052
C  C88  1  0.17390000  0.06282000  0.13214000  1.0 -0.0024387052
C  C89  1  0.16520000  0.44580000  0.18814000  1.0 0.5697187496
C  C90  1  0.83480000  0.94580000  0.81186000  1.0 0.5697187496
C  C91  1  0.83480000  0.55420000  0.81186000  1.0 0.5697187496
C  C92  1  0.16520000  0.05420000  0.18814000  1.0 0.5697187496
C  C93  1  0.48430000  0.68704000  0.91600000  1.0 0.1299376566
C  C94  1  0.51570000  0.18704000  0.08400000  1.0 0.1299376566
C  C95  1  0.51570000  0.31296000  0.08400000  1.0 0.1299376566
C  C96  1  0.48430000  0.81296000  0.91600000  1.0 0.1299376566
C  C97  1  0.49460000  0.65922000  0.87730000  1.0 -0.1697325644
C  C98  1  0.50540000  0.15922000  0.12270000  1.0 -0.1697325644
C  C99  1  0.50540000  0.34078000  0.12270000  1.0 -0.1697325644
C  C100  1  0.49460000  0.84078000  0.87730000  1.0 -0.1697325644
C  C101  1  0.58450000  0.67237000  0.85280000  1.0 0.2134762171
C  C102  1  0.41550000  0.17237000  0.14720000  1.0 0.2134762171
C  C103  1  0.41550000  0.32763000  0.14720000  1.0 0.2134762171
C  C104  1  0.58450000  0.82763000  0.85280000  1.0 0.2134762171
C  C105  1  0.40380000  0.68895000  0.95410000  1.0 -0.5003602947
C  C106  1  0.59620000  0.18895000  0.04590000  1.0 -0.5003602947
C  C107  1  0.59620000  0.31105000  0.04590000  1.0 -0.5003602947
C  C108  1  0.40380000  0.81105000  0.95410000  1.0 -0.5003602947
C  C109  1  0.62710000  0.65460000  0.80660000  1.0 -0.5003602947
C  C110  1  0.37290000  0.15460000  0.19340000  1.0 -0.5003602947
C  C111  1  0.37290000  0.34540000  0.19340000  1.0 -0.5003602947
C  C112  1  0.62710000  0.84540000  0.80660000  1.0 -0.5003602947
C  C113  1  0.42360000  0.62429000  0.86270000  1.0 0.1096873171
C  C114  1  0.57640000  0.12429000  0.13730000  1.0 0.1096873171
C  C115  1  0.57640000  0.37571000  0.13730000  1.0 0.1096873171
C  C116  1  0.42360000  0.87571000  0.86270000  1.0 0.1096873171
C  C117  1  0.46040000  0.58570000  0.87320000  1.0 -0.1697325644
C  C118  1  0.53960000  0.08570000  0.12680000  1.0 -0.1697325644
C  C119  1  0.53960000  0.41430000  0.12680000  1.0 -0.1697325644
C  C120  1  0.46040000  0.91430000  0.87320000  1.0 -0.1697325644
C  C121  1  0.39400000  0.55230000  0.85930000  1.0 -0.1008469692
C  C122  1  0.60600000  0.05230000  0.14070000  1.0 -0.1008469692
C  C123  1  0.60600000  0.44770000  0.14070000  1.0 -0.1008469692
C  C124  1  0.39400000  0.94770000  0.85930000  1.0 -0.1008469692
C  C125  1  0.28880000  0.55820000  0.83130000  1.0 -0.029430383
C  C126  1  0.71120000  0.05820000  0.16870000  1.0 -0.029430383
C  C127  1  0.71120000  0.44180000  0.16870000  1.0 -0.029430383
C  C128  1  0.28880000  0.94180000  0.83130000  1.0 -0.029430383
C  C129  1  0.26420000  0.59590000  0.81530000  1.0 -0.0903189746
C  C130  1  0.73580000  0.09590000  0.18470000  1.0 -0.0903189746
C  C131  1  0.73580000  0.40410000  0.18470000  1.0 -0.0903189746
C  C132  1  0.26420000  0.90410000  0.81530000  1.0 -0.0903189746
C  C133  1  0.32950000  0.62780000  0.83000000  1.0 -0.1500591712
C  C134  1  0.67050000  0.12780000  0.17000000  1.0 -0.1410302549
C  C135  1  0.67050000  0.37220000  0.17000000  1.0 -0.1410302549
C  C136  1  0.32950000  0.87220000  0.83000000  1.0 -0.1500591712
C  C137  1  0.21730000  0.52314000  0.81367000  1.0 0.5771069838
C  C138  1  0.78270000  0.02314000  0.18633000  1.0 0.5771069838
C  C139  1  0.78270000  0.47686000  0.18633000  1.0 0.5771069838
C  C140  1  0.21730000  0.97686000  0.81367000  1.0 0.5771069838
C  C141  1  0.52460000  0.31225000  0.58150000  1.0 0.1698089587
C  C142  1  0.47540000  0.81225000  0.41850000  1.0 0.1698089587
C  C143  1  0.47540000  0.68775000  0.41850000  1.0 0.1698089587
C  C144  1  0.52460000  0.18775000  0.58150000  1.0 0.1698089587
C  C145  1  0.50600000  0.34073000  0.61890000  1.0 -0.1826052417
C  C146  1  0.49400000  0.84073000  0.38110000  1.0 -0.1826052417
C  C147  1  0.49400000  0.65927000  0.38110000  1.0 -0.1826052417
C  C148  1  0.50600000  0.15927000  0.61890000  1.0 -0.1826052417
C  C149  1  0.41130000  0.32854000  0.64020000  1.0 0.2200319457
C  C150  1  0.58870000  0.82854000  0.35980000  1.0 0.2200319457
C  C151  1  0.58870000  0.67146000  0.35980000  1.0 0.2200319457
C  C152  1  0.41130000  0.17146000  0.64020000  1.0 0.2200319457
C  C153  1  0.61120000  0.30925000  0.54760000  1.0 -0.5003602947
C  C154  1  0.38880000  0.80925000  0.45240000  1.0 -0.5003602947
C  C155  1  0.38880000  0.69075000  0.45240000  1.0 -0.5003602947
C  C156  1  0.61120000  0.19075000  0.54760000  1.0 -0.5003602947
C  C157  1  0.36460000  0.34719000  0.68480000  1.0 -0.4912196634
C  C158  1  0.63540000  0.84719000  0.31520000  1.0 -0.4912196634
C  C159  1  0.63540000  0.65281000  0.31520000  1.0 -0.4912196634
C  C160  1  0.36460000  0.15281000  0.68480000  1.0 -0.4912196634
C  C161  1  0.57340000  0.37682000  0.63340000  1.0 0.1096873171
C  C162  1  0.42660000  0.87682000  0.36660000  1.0 0.1096873171
C  C163  1  0.42660000  0.62318000  0.36660000  1.0 0.1096873171
C  C164  1  0.57340000  0.12318000  0.63340000  1.0 0.1096873171
C  C165  1  0.68380000  0.37393000  0.65270000  1.0 -0.1410302549
C  C166  1  0.31620000  0.87393000  0.34730000  1.0 -0.1410302549
C  C167  1  0.31620000  0.62607000  0.34730000  1.0 -0.1410302549
C  C168  1  0.68380000  0.12607000  0.65270000  1.0 -0.1410302549
C  C169  1  0.74620000  0.40745000  0.66810000  1.0 -0.0903189746
C  C170  1  0.25380000  0.90745000  0.33190000  1.0 -0.0903189746
C  C171  1  0.25380000  0.59255000  0.33190000  1.0 -0.0903189746
C  C172  1  0.74620000  0.09255000  0.66810000  1.0 -0.0903189746
C  C173  1  0.69700000  0.44537000  0.66490000  1.0 -0.0397844439
C  C174  1  0.30300000  0.94537000  0.33510000  1.0 -0.0397844439
C  C175  1  0.30300000  0.55463000  0.33510000  1.0 -0.0397844439
C  C176  1  0.69700000  0.05463000  0.66490000  1.0 -0.0397844439
C  C177  1  0.58570000  0.44881000  0.64460000  1.0 -0.1058285007
C  C178  1  0.41430000  0.94881000  0.35540000  1.0 -0.1058285007
C  C179  1  0.41430000  0.55119000  0.35540000  1.0 -0.1058285007
C  C180  1  0.58570000  0.05119000  0.64460000  1.0 -0.1058285007
C  C181  1  0.52540000  0.41449000  0.63000000  1.0 -0.1500591712
C  C182  1  0.47460000  0.91449000  0.37000000  1.0 -0.1500591712
C  C183  1  0.47460000  0.58551000  0.37000000  1.0 -0.1500591712
C  C184  1  0.52540000  0.08551000  0.63000000  1.0 -0.1500591712
C  C185  1  0.76190000  0.48154000  0.68265000  1.0 0.5771069838
C  C186  1  0.23810000  0.98154000  0.31735000  1.0 0.5771069838
C  C187  1  0.23810000  0.51846000  0.31735000  1.0 0.5771069838
C  C188  1  0.76190000  0.01846000  0.68265000  1.0 0.5771069838
C  C189  1  0.73540000  0.62567000  0.54077000  1.0 0.1698089587
C  C190  1  0.26460000  0.12567000  0.45923000  1.0 0.1698089587
C  C191  1  0.26460000  0.37433000  0.45923000  1.0 0.1698089587
C  C192  1  0.73540000  0.87433000  0.54077000  1.0 0.1698089587
C  C193  1  0.78920000  0.59198000  0.52544000  1.0 -0.1697325644
C  C194  1  0.21080000  0.09198000  0.47456000  1.0 -0.1697325644
C  C195  1  0.21080000  0.40802000  0.47456000  1.0 -0.1697325644
C  C196  1  0.78920000  0.90802000  0.52544000  1.0 -0.1697325644
C  C197  1  0.81950000  0.56990000  0.57190000  1.0 0.2399323581
C  C198  1  0.18050000  0.06990000  0.42810000  1.0 0.2399323581
C  C199  1  0.18050000  0.43010000  0.42810000  1.0 0.2399323581
C  C200  1  0.81950000  0.93010000  0.57190000  1.0 0.2399323581
C  C201  1  0.68070000  0.65955000  0.50920000  1.0 -0.5070051012
C  C202  1  0.31930000  0.15955000  0.49080000  1.0 -0.5070051012
C  C203  1  0.31930000  0.34045000  0.49080000  1.0 -0.5070051012
C  C204  1  0.68070000  0.84045000  0.50920000  1.0 -0.5070051012
C  C205  1  0.87880000  0.53094000  0.57940000  1.0 -0.4837944147
C  C206  1  0.12120000  0.03094000  0.42060000  1.0 -0.4837944147
C  C207  1  0.12120000  0.46906000  0.42060000  1.0 -0.4837944147
C  C208  1  0.87880000  0.96906000  0.57940000  1.0 -0.4837944147
C  C209  1  0.81060000  0.58167000  0.47247000  1.0 0.1096873171
C  C210  1  0.18940000  0.08167000  0.52753000  1.0 0.1096873171
C  C211  1  0.18940000  0.41833000  0.52753000  1.0 0.1096873171
C  C212  1  0.81060000  0.91833000  0.47247000  1.0 0.1096873171
C  C213  1  0.83840000  0.61122000  0.43748000  1.0 -0.1410302549
C  C214  1  0.16160000  0.11122000  0.56252000  1.0 -0.1410302549
C  C215  1  0.16160000  0.38878000  0.56252000  1.0 -0.1410302549
C  C216  1  0.83840000  0.88878000  0.43748000  1.0 -0.1410302549
C  C217  1  0.85240000  0.60086000  0.38701000  1.0 -0.1008469692
C  C218  1  0.14760000  0.10086000  0.61299000  1.0 -0.1008469692
C  C219  1  0.14760000  0.39914000  0.61299000  1.0 -0.1008469692
C  C220  1  0.85240000  0.89914000  0.38701000  1.0 -0.1008469692
C  C221  1  0.84590000  0.56111000  0.37024000  1.0 -0.029430383
C  C222  1  0.15410000  0.06111000  0.62976000  1.0 -0.029430383
C  C223  1  0.15410000  0.43889000  0.62976000  1.0 -0.029430383
C  C224  1  0.84590000  0.93889000  0.37024000  1.0 -0.029430383
C  C225  1  0.82200000  0.53143000  0.40540000  1.0 -0.1218471707
C  C226  1  0.17800000  0.03143000  0.59460000  1.0 -0.1218471707
C  C227  1  0.17800000  0.46857000  0.59460000  1.0 -0.1218471707
C  C228  1  0.82200000  0.96857000  0.40540000  1.0 -0.1218471707
C  C229  1  0.80290000  0.54165000  0.45500000  1.0 -0.1500591712
C  C230  1  0.19710000  0.04165000  0.54500000  1.0 -0.1500591712
C  C231  1  0.19710000  0.45835000  0.54500000  1.0 -0.1500591712
C  C232  1  0.80290000  0.95835000  0.45500000  1.0 -0.1500591712
C  C233  1  0.86000000  0.55031000  0.31544000  1.0 0.5771069838
C  C234  1  0.14000000  0.05031000  0.68456000  1.0 0.5771069838
C  C235  1  0.14000000  0.44969000  0.68456000  1.0 0.5771069838
C  C236  1  0.86000000  0.94969000  0.31544000  1.0 0.5771069838
C  C237  1  0.49480000  0.64474000  0.64260000  1.0 0.1598402148
C  C238  1  0.50520000  0.14474000  0.35740000  1.0 0.1598402148
C  C239  1  0.50520000  0.35526000  0.35740000  1.0 0.1598402148
C  C240  1  0.49480000  0.85526000  0.64260000  1.0 0.1598402148
C  C241  1  0.43940000  0.61814000  0.67100000  1.0 -0.1697325644
C  C242  1  0.56060000  0.11814000  0.32900000  1.0 -0.1697325644
C  C243  1  0.56060000  0.38186000  0.32900000  1.0 -0.1697325644
C  C244  1  0.43940000  0.88186000  0.67100000  1.0 -0.1697325644
C  C245  1  0.52250000  0.59248000  0.69600000  1.0 0.2399323581
C  C246  1  0.47750000  0.09248000  0.30400000  1.0 0.2399323581
C  C247  1  0.47750000  0.40752000  0.30400000  1.0 0.2399323581
C  C248  1  0.52250000  0.90752000  0.69600000  1.0 0.232850236
C  C249  1  0.45220000  0.67860000  0.60750000  1.0 -0.5003602947
C  C250  1  0.54780000  0.17860000  0.39250000  1.0 -0.5003602947
C  C251  1  0.54780000  0.32140000  0.39250000  1.0 -0.5003602947
C  C252  1  0.45220000  0.82140000  0.60750000  1.0 -0.5003602947
C  C253  1  0.51320000  0.55853000  0.73260000  1.0 -0.5003602947
C  C254  1  0.48680000  0.05853000  0.26740000  1.0 -0.5003602947
C  C255  1  0.48680000  0.44147000  0.26740000  1.0 -0.5003602947
C  C256  1  0.51320000  0.94147000  0.73260000  1.0 -0.5003602947
C  C257  1  0.32260000  0.61484000  0.67480000  1.0 0.1096873171
C  C258  1  0.67740000  0.11484000  0.32520000  1.0 0.1096873171
C  C259  1  0.67740000  0.38516000  0.32520000  1.0 0.1096873171
C  C260  1  0.32260000  0.88516000  0.67480000  1.0 0.1096873171
C  C261  1  0.25870000  0.64760000  0.68600000  1.0 -0.1500591712
C  C262  1  0.74130000  0.14760000  0.31400000  1.0 -0.1500591712
C  C263  1  0.74130000  0.35240000  0.31400000  1.0 -0.1500591712
C  C264  1  0.25870000  0.85240000  0.68600000  1.0 -0.1500591712
C  C265  1  0.14950000  0.64303000  0.69320000  1.0 -0.1008469692
C  C266  1  0.85050000  0.14303000  0.30680000  1.0 -0.1008469692
C  C267  1  0.85050000  0.35697000  0.30680000  1.0 -0.1008469692
C  C268  1  0.14950000  0.85697000  0.69320000  1.0 -0.1008469692
C  C269  1  0.10190000  0.60486000  0.68850000  1.0 -0.0397844439
C  C270  1  0.89810000  0.10486000  0.31150000  1.0 -0.0397844439
C  C271  1  0.89810000  0.39514000  0.31150000  1.0 -0.0397844439
C  C272  1  0.10190000  0.89514000  0.68850000  1.0 -0.0397844439
C  C273  1  0.16340000  0.57249000  0.67510000  1.0 -0.1008469692
C  C274  1  0.83660000  0.07249000  0.32490000  1.0 -0.1008469692
C  C275  1  0.83660000  0.42751000  0.32490000  1.0 -0.1008469692
C  C276  1  0.16340000  0.92751000  0.67510000  1.0 -0.1008469692
C  C277  1  0.27090000  0.57778000  0.66800000  1.0 -0.1410302549
C  C278  1  0.72910000  0.07778000  0.33200000  1.0 -0.1410302549
C  C279  1  0.72910000  0.42222000  0.33200000  1.0 -0.1410302549
C  C280  1  0.27090000  0.92222000  0.66800000  1.0 -0.1410302549
C  C281  1  0.98860000  0.59799000  0.69970000  1.0 0.5697187496
C  C282  1  0.01140000  0.09799000  0.30030000  1.0 0.5697187496
C  C283  1  0.01140000  0.40201000  0.30030000  1.0 0.5697187496
C  C284  1  0.98860000  0.90201000  0.69970000  1.0 0.5697187496
C  C285  1  0.17230000  0.39000000  0.06220000  1.0 -0.0609247948
C  C286  1  0.82770000  0.89000000  0.93780000  1.0 -0.0609247948
C  C287  1  0.82770000  0.61000000  0.93780000  1.0 -0.0609247948
C  C288  1  0.17230000  0.11000000  0.06220000  1.0 -0.0609247948
C  C289  1  0.16440000  0.39770000  0.11470000  1.0 -0.0515319037
C  C290  1  0.83560000  0.89770000  0.88530000  1.0 -0.0515319037
C  C291  1  0.83560000  0.60230000  0.88530000  1.0 -0.0515319037
C  C292  1  0.16440000  0.10230000  0.11470000  1.0 -0.0515319037
C  C293  1  0.18920000  0.46800000  0.09910000  1.0 -0.0397844439
C  C294  1  0.81080000  0.96800000  0.90090000  1.0 -0.0397844439
C  C295  1  0.81080000  0.53200000  0.90090000  1.0 -0.0397844439
C  C296  1  0.18920000  0.03200000  0.09910000  1.0 -0.0397844439
C  C297  1  0.19880000  0.45980000  0.04710000  1.0 -0.0609247948
C  C298  1  0.80120000  0.95980000  0.95290000  1.0 -0.0609247948
C  C299  1  0.80120000  0.54020000  0.95290000  1.0 -0.0609247948
C  C300  1  0.19880000  0.04020000  0.04710000  1.0 -0.0609247948
C  C301  1  0.27950000  0.41510000  0.06420000  1.0 -0.0809558332
C  C302  1  0.72050000  0.91510000  0.93580000  1.0 -0.0809558332
C  C303  1  0.72050000  0.58490000  0.93580000  1.0 -0.0809558332
C  C304  1  0.27950000  0.08490000  0.06420000  1.0 -0.0809558332
C  C305  1  0.27280000  0.42380000  0.11510000  1.0 -0.0515319037
C  C306  1  0.72720000  0.92380000  0.88490000  1.0 -0.0515319037
C  C307  1  0.72720000  0.57620000  0.88490000  1.0 -0.0515319037
C  C308  1  0.27280000  0.07620000  0.11510000  1.0 -0.0515319037
C  C309  1  0.08520000  0.44400000  0.09380000  1.0 -0.0397844439
C  C310  1  0.91480000  0.94400000  0.90620000  1.0 -0.0397844439
C  C311  1  0.91480000  0.55600000  0.90620000  1.0 -0.0397844439
C  C312  1  0.08520000  0.05600000  0.09380000  1.0 -0.0397844439
C  C313  1  0.09560000  0.43550000  0.04100000  1.0 -0.0690406151
C  C314  1  0.90440000  0.93550000  0.95900000  1.0 -0.0690406151
C  C315  1  0.90440000  0.56450000  0.95900000  1.0 -0.0690406151
C  C316  1  0.09560000  0.06450000  0.04100000  1.0 -0.0690406151
N  N1  1  0.34250000  0.40079000  0.80856000  1.0 -0.2982234644
N  N2  1  0.65750000  0.90079000  0.19144000  1.0 -0.2982234644
N  N3  1  0.65750000  0.59921000  0.19144000  1.0 -0.2982234644
N  N4  1  0.34250000  0.09921000  0.80856000  1.0 -0.2982234644
N  N5  1  0.36700000  0.36810000  0.84012000  1.0 0.0705434022
N  N6  1  0.63300000  0.86810000  0.15988000  1.0 0.0705434022
N  N7  1  0.63300000  0.63190000  0.15988000  1.0 0.0705434022
N  N8  1  0.36700000  0.13190000  0.84012000  1.0 0.0705434022
N  N9  1  0.18880000  0.41332000  0.88498000  1.0 -0.2887913895
N  N10  1  0.81120000  0.91332000  0.11502000  1.0 -0.2887913895
N  N11  1  0.81120000  0.58668000  0.11502000  1.0 -0.2887913895
N  N12  1  0.18880000  0.08668000  0.88498000  1.0 -0.2887913895
N  N13  1  0.24520000  0.37980000  0.90272000  1.0 0.0705434022
N  N14  1  0.75480000  0.87980000  0.09728000  1.0 0.0705434022
N  N15  1  0.75480000  0.62020000  0.09728000  1.0 0.0705434022
N  N16  1  0.24520000  0.12020000  0.90272000  1.0 0.0705434022
N  N17  1  0.62890000  0.70552000  0.87610000  1.0 -0.2887913895
N  N18  1  0.37110000  0.20552000  0.12390000  1.0 -0.2887913895
N  N19  1  0.37110000  0.29448000  0.12390000  1.0 -0.2887913895
N  N20  1  0.62890000  0.79448000  0.87610000  1.0 -0.2887913895
N  N21  1  0.56700000  0.71402000  0.91407000  1.0 0.0629629713
N  N22  1  0.43300000  0.21402000  0.08593000  1.0 0.0629629713
N  N23  1  0.43300000  0.28598000  0.08593000  1.0 0.0629629713
N  N24  1  0.56700000  0.78598000  0.91407000  1.0 0.0629629713
N  N25  1  0.37100000  0.29504000  0.61650000  1.0 -0.2982234644
N  N26  1  0.62900000  0.79504000  0.38350000  1.0 -0.2982234644
N  N27  1  0.62900000  0.70496000  0.38350000  1.0 -0.2982234644
N  N28  1  0.37100000  0.20496000  0.61650000  1.0 -0.2982234644
N  N29  1  0.44010000  0.28573000  0.58109000  1.0 0.0629629713
N  N30  1  0.55990000  0.78573000  0.41891000  1.0 0.0629629713
N  N31  1  0.55990000  0.71427000  0.41891000  1.0 0.0629629713
N  N32  1  0.44010000  0.21427000  0.58109000  1.0 0.0629629713
N  N33  1  0.78640000  0.58875000  0.61258000  1.0 -0.3082215053
N  N34  1  0.21360000  0.08875000  0.38742000  1.0 -0.3082215053
N  N35  1  0.21360000  0.41125000  0.38742000  1.0 -0.3082215053
N  N36  1  0.78640000  0.91125000  0.61258000  1.0 -0.3082215053
N  N37  1  0.73470000  0.62270000  0.59251000  1.0 0.0819290613
N  N38  1  0.26530000  0.12270000  0.40749000  1.0 0.0819290613
N  N39  1  0.26530000  0.37730000  0.40749000  1.0 0.0819290613
N  N40  1  0.73470000  0.87730000  0.59251000  1.0 0.0819290613
N  N41  1  0.62090000  0.60305000  0.68358000  1.0 -0.2982234644
N  N42  1  0.37910000  0.10305000  0.31642000  1.0 -0.2982234644
N  N43  1  0.37910000  0.39695000  0.31642000  1.0 -0.2982234644
N  N44  1  0.62090000  0.89695000  0.68358000  1.0 -0.2982234644
N  N45  1  0.60150000  0.63506000  0.65049000  1.0 0.0819290613
N  N46  1  0.39850000  0.13506000  0.34951000  1.0 0.0819290613
N  N47  1  0.39850000  0.36494000  0.34951000  1.0 0.0819290613
N  N48  1  0.60150000  0.86494000  0.65049000  1.0 0.0819290613
Cl  Cl1  1  0.13188000  0.25000000  0.54176000  1.0 -0.5224577007
Cl  Cl2  1  0.86812000  0.75000000  0.45824000  1.0 -0.5224577007
Cl  Cl3  1  0.90534000  0.30907000  0.58735000  1.0 -0.5967673746
Cl  Cl4  1  0.09466000  0.80907000  0.41265000  1.0 -0.5967673746
Cl  Cl5  1  0.09466000  0.69093000  0.41265000  1.0 -0.5967673746
Cl  Cl6  1  0.90534000  0.19093000  0.58735000  1.0 -0.5967673746
Cl  Cl7  1  0.82310000  0.25000000  0.45949000  1.0 -0.6250162957
Cl  Cl8  1  0.17690000  0.75000000  0.54051000  1.0 -0.6250162957
Cl  Cl9  1  0.70040000  0.75000000  0.75890000  1.0 -0.5879762528
Cl  Cl10  1  0.29960000  0.25000000  0.24110000  1.0 -0.5879762528
O  O1  1  0.04190000  0.38253000  0.79163000  1.0 -0.5403169033
O  O2  1  0.95810000  0.88253000  0.20837000  1.0 -0.5403169033
O  O3  1  0.95810000  0.61747000  0.20837000  1.0 -0.5403169033
O  O4  1  0.04190000  0.11747000  0.79163000  1.0 -0.5403169033
O  O5  1  0.01160000  0.44762000  0.79495000  1.0 -0.5879762528
O  O6  1  0.98840000  0.94762000  0.20505000  1.0 -0.5879762528
O  O7  1  0.98840000  0.55238000  0.20505000  1.0 -0.5879762528
O  O8  1  0.01160000  0.05238000  0.79495000  1.0 -0.5879762528
O  O9  1  0.21590000  0.42357000  0.22215000  1.0 -0.5224577007
O  O10  1  0.78410000  0.92357000  0.77785000  1.0 -0.5224577007
O  O11  1  0.78410000  0.57643000  0.77785000  1.0 -0.5224577007
O  O12  1  0.21590000  0.07643000  0.22215000  1.0 -0.5224577007
O  O13  1  0.10870000  0.47457000  0.19842000  1.0 -0.5348937822
O  O14  1  0.89130000  0.97457000  0.80158000  1.0 -0.5348937822
O  O15  1  0.89130000  0.52543000  0.80158000  1.0 -0.5348937822
O  O16  1  0.10870000  0.02543000  0.19842000  1.0 -0.5348937822
O  O17  1  0.25720000  0.48861000  0.82149000  1.0 -0.5495723796
O  O18  1  0.74280000  0.98861000  0.17851000  1.0 -0.5495723796
O  O19  1  0.74280000  0.51139000  0.17851000  1.0 -0.5495723796
O  O20  1  0.25720000  0.01139000  0.82149000  1.0 -0.5495723796
O  O21  1  0.12540000  0.53143000  0.79229000  1.0 -0.5348937822
O  O22  1  0.87460000  0.03143000  0.20771000  1.0 -0.5348937822
O  O23  1  0.87460000  0.46857000  0.20771000  1.0 -0.5348937822
O  O24  1  0.12540000  0.96857000  0.79229000  1.0 -0.5348937822
O  O25  1  0.86010000  0.47606000  0.69939000  1.0 -0.5495723796
O  O26  1  0.13990000  0.97606000  0.30061000  1.0 -0.5495723796
O  O27  1  0.13990000  0.52394000  0.30061000  1.0 -0.5495723796
O  O28  1  0.86010000  0.02394000  0.69939000  1.0 -0.5495723796
O  O29  1  0.71460000  0.51514000  0.67918000  1.0 -0.5495723796
O  O30  1  0.28540000  0.01514000  0.32082000  1.0 -0.5495723796
O  O31  1  0.28540000  0.48486000  0.32082000  1.0 -0.5495723796
O  O32  1  0.71460000  0.98486000  0.67918000  1.0 -0.5495723796
O  O33  1  0.82410000  0.57487000  0.28037000  1.0 -0.5403169033
O  O34  1  0.17590000  0.07487000  0.71963000  1.0 -0.5403169033
O  O35  1  0.17590000  0.42513000  0.71963000  1.0 -0.5403169033
O  O36  1  0.82410000  0.92513000  0.28037000  1.0 -0.5403169033
O  O37  1  0.90680000  0.51797000  0.30785000  1.0 -0.5495723796
O  O38  1  0.09320000  0.01797000  0.69215000  1.0 -0.5495723796
O  O39  1  0.09320000  0.48203000  0.69215000  1.0 -0.5495723796
O  O40  1  0.90680000  0.98203000  0.30785000  1.0 -0.5495723796
O  O41  1  0.92460000  0.62705000  0.70522000  1.0 -0.5579073665
O  O42  1  0.07540000  0.12705000  0.29478000  1.0 -0.5579073665
O  O43  1  0.07540000  0.37295000  0.29478000  1.0 -0.5579073665
O  O44  1  0.92460000  0.87295000  0.70522000  1.0 -0.5579073665
O  O45  1  0.95640000  0.56160000  0.70188000  1.0 -0.5879762528
O  O46  1  0.04360000  0.06160000  0.29812000  1.0 -0.5879762528
O  O47  1  0.04360000  0.43840000  0.29812000  1.0 -0.5879762528
O  O48  1  0.95640000  0.93840000  0.70188000  1.0 -0.5879762528
