# DDEC6 charges by PACMAN v1.1 (https://github.com/mtap-research/PACMAN-charge/)
data_WOZGOH_ASR_pacman
_symmetry_space_group_name_H-M   'P 1'
_cell_length_a   11.41000000
_cell_length_b   17.95880000
_cell_length_c   22.83820000
_cell_angle_alpha   67.41350000
_cell_angle_beta   75.53430000
_cell_angle_gamma   71.47780000
_symmetry_Int_Tables_number   1
_chemical_formula_structural   KCu6H36C25S3N7O6
_chemical_formula_sum   'K4 Cu24 H144 C100 S12 N28 O24'
_cell_volume   4053.14085394
_cell_formula_units_Z   4
loop_
 _symmetry_equiv_pos_site_id
 _symmetry_equiv_pos_as_xyz
  1  'x, y, z'
loop_
 _atom_site_type_symbol
 _atom_site_label
 _atom_site_symmetry_multiplicity
 _atom_site_fract_x
 _atom_site_fract_y
 _atom_site_fract_z
 _atom_site_occupancy
 _atom_site_charge
K  K1  1  0.39643000  0.70411000  0.54485000  1.0 0.7754821765
K  K2  1  0.60357000  0.29589000  0.45515000  1.0 0.7754821765
K  K3  1  0.64539000  0.79589000  0.95515000  1.0 0.7754821765
K  K4  1  0.35461000  0.20411000  0.04485000  1.0 0.7754821765
Cu  Cu1  1  0.91355000  0.74578000  0.56741000  1.0 0.2563678908
Cu  Cu2  1  0.08645000  0.25422000  0.43259000  1.0 0.2563678908
Cu  Cu3  1  0.22674000  0.75422000  0.93259000  1.0 0.2563678908
Cu  Cu4  1  0.77326000  0.24578000  0.06741000  1.0 0.2563678908
Cu  Cu5  1  0.80178000  0.84904000  0.47877000  1.0 0.2806605163
Cu  Cu6  1  0.19822000  0.15096000  0.52123000  1.0 0.2806605163
Cu  Cu7  1  0.12959000  0.65096000  0.02123000  1.0 0.2806605163
Cu  Cu8  1  0.87041000  0.34904000  0.97877000  1.0 0.2806605163
Cu  Cu9  1  0.92987000  0.04772000  0.27009000  1.0 0.1474373402
Cu  Cu10  1  0.07013000  0.95228000  0.72991000  1.0 0.1474373402
Cu  Cu11  1  0.24768000  0.45228000  0.22991000  1.0 0.1474373402
Cu  Cu12  1  0.75232000  0.54772000  0.77009000  1.0 0.1474373402
Cu  Cu13  1  0.68612000  0.94040000  0.67247000  1.0 0.3990084338
Cu  Cu14  1  0.31388000  0.05960000  0.32753000  1.0 0.3990084338
Cu  Cu15  1  0.29898000  0.55960000  0.82753000  1.0 0.3990084338
Cu  Cu16  1  0.70102000  0.44040000  0.17247000  1.0 0.3990084338
Cu  Cu17  1  0.00776000  0.59818000  0.42190000  1.0 0.2204334016
Cu  Cu18  1  0.99224000  0.40182000  0.57810000  1.0 0.2204334016
Cu  Cu19  1  0.02784000  0.90182000  0.07810000  1.0 0.2204334016
Cu  Cu20  1  0.97216000  0.09818000  0.92190000  1.0 0.2204334016
Cu  Cu21  1  0.76950000  0.99330000  0.25797000  1.0 0.3990084338
Cu  Cu22  1  0.23050000  0.00670000  0.74203000  1.0 0.4059797811
Cu  Cu23  1  0.02077000  0.50670000  0.24203000  1.0 0.4059797811
Cu  Cu24  1  0.97923000  0.49330000  0.75797000  1.0 0.4059797811
H  H1  1  0.01626000  0.91201000  0.55043000  1.0 0.1273206063
H  H2  1  0.98374000  0.08799000  0.44957000  1.0 0.1273206063
H  H3  1  0.47869000  0.58799000  0.94957000  1.0 0.1273206063
H  H4  1  0.52131000  0.41201000  0.05043000  1.0 0.1273206063
H  H5  1  0.18266000  0.87837000  0.55309000  1.0 0.1193588637
H  H6  1  0.81734000  0.12163000  0.44691000  1.0 0.1193588637
H  H7  1  0.61413000  0.62163000  0.94691000  1.0 0.1193588637
H  H8  1  0.38587000  0.37837000  0.05309000  1.0 0.1193588637
H  H9  1  0.04941000  0.87494000  0.45149000  1.0 0.0500886126
H  H10  1  0.95059000  0.12506000  0.54851000  1.0 0.0500886126
H  H11  1  0.37583000  0.62506000  0.04851000  1.0 0.0500886126
H  H12  1  0.62417000  0.37494000  0.95149000  1.0 0.0500886126
H  H13  1  0.13896000  0.94792000  0.43997000  1.0 0.0701984023
H  H14  1  0.86104000  0.05208000  0.56003000  1.0 0.0701984023
H  H15  1  0.52685000  0.55208000  0.06003000  1.0 0.0701984023
H  H16  1  0.47315000  0.44792000  0.93997000  1.0 0.0701984023
H  H17  1  0.52529000  0.94850000  0.42638000  1.0 0.1273206063
H  H18  1  0.47471000  0.05150000  0.57362000  1.0 0.1273206063
H  H19  1  0.90016000  0.55150000  0.07362000  1.0 0.1273206063
H  H20  1  0.09984000  0.44850000  0.92638000  1.0 0.1273206063
H  H21  1  0.42036000  0.88200000  0.44982000  1.0 0.1117773528
H  H22  1  0.57964000  0.11800000  0.55018000  1.0 0.1117773528
H  H23  1  0.75219000  0.61800000  0.05018000  1.0 0.1117773528
H  H24  1  0.24781000  0.38200000  0.94982000  1.0 0.1117773528
H  H25  1  0.53293000  0.91954000  0.54248000  1.0 0.0599561811
H  H26  1  0.46707000  0.08046000  0.45752000  1.0 0.0599561811
H  H27  1  0.99495000  0.58046000  0.95752000  1.0 0.0599561811
H  H28  1  0.00505000  0.41954000  0.04248000  1.0 0.0599561811
H  H29  1  0.37314000  0.96170000  0.52570000  1.0 0.0701984023
H  H30  1  0.62686000  0.03830000  0.47430000  1.0 0.0701984023
H  H31  1  0.86054000  0.53830000  0.97430000  1.0 0.0701984023
H  H32  1  0.13946000  0.46170000  0.02570000  1.0 0.0701984023
H  H33  1  0.32499000  0.88624000  0.64524000  1.0 0.0599561811
H  H34  1  0.67501000  0.11376000  0.35476000  1.0 0.0599561811
H  H35  1  0.85647000  0.61376000  0.85476000  1.0 0.0599561811
H  H36  1  0.14353000  0.38624000  0.14524000  1.0 0.0599561811
H  H37  1  0.48854000  0.84202000  0.65008000  1.0 0.07938142
H  H38  1  0.51146000  0.15798000  0.34992000  1.0 0.07938142
H  H39  1  0.98064000  0.65798000  0.84992000  1.0 0.07938142
H  H40  1  0.01936000  0.34202000  0.15008000  1.0 0.07938142
H  H41  1  0.46699000  0.69893000  0.68203000  1.0 0.07938142
H  H42  1  0.53301000  0.30107000  0.31797000  1.0 0.07938142
H  H43  1  0.84795000  0.80107000  0.81797000  1.0 0.07938142
H  H44  1  0.15205000  0.19893000  0.18203000  1.0 0.07938142
H  H45  1  0.35795000  0.75058000  0.73429000  1.0 0.0701984023
H  H46  1  0.64205000  0.24942000  0.26571000  1.0 0.0701984023
H  H47  1  0.84283000  0.74942000  0.76571000  1.0 0.0701984023
H  H48  1  0.15717000  0.25058000  0.23429000  1.0 0.0701984023
H  H49  1  0.15839000  0.84318000  0.66440000  1.0 0.0301957232
H  H50  1  0.84161000  0.15682000  0.33560000  1.0 0.0301957232
H  H51  1  0.66597000  0.65682000  0.83560000  1.0 0.0301957232
H  H52  1  0.33403000  0.34318000  0.16440000  1.0 0.0301957232
H  H53  1  0.14378000  0.76084000  0.73891000  1.0 0.0599561811
H  H54  1  0.85622000  0.23916000  0.26109000  1.0 0.0599561811
H  H55  1  0.64353000  0.73916000  0.76109000  1.0 0.0599561811
H  H56  1  0.35647000  0.26084000  0.23891000  1.0 0.0599561811
H  H57  1  0.97299000  0.79809000  0.67424000  1.0 0.1193588637
H  H58  1  0.02701000  0.20191000  0.32576000  1.0 0.1193588637
H  H59  1  0.44532000  0.70191000  0.82576000  1.0 0.1193588637
H  H60  1  0.55468000  0.29809000  0.17424000  1.0 0.1193588637
H  H61  1  0.05748000  0.69029000  0.69149000  1.0 0.1374163019
H  H62  1  0.94252000  0.30971000  0.30851000  1.0 0.1374163019
H  H63  1  0.43926000  0.80971000  0.80851000  1.0 0.1374163019
H  H64  1  0.56074000  0.19029000  0.19149000  1.0 0.1374163019
H  H65  1  0.30051000  0.36259000  0.46760000  1.0 0.1014206509
H  H66  1  0.69949000  0.63741000  0.53240000  1.0 0.1014206509
H  H67  1  0.13069000  0.13741000  0.03240000  1.0 0.1014206509
H  H68  1  0.86931000  0.86259000  0.96760000  1.0 0.1014206509
H  H69  1  0.17679000  0.40386000  0.42085000  1.0 0.1374163019
H  H70  1  0.82321000  0.59614000  0.57915000  1.0 0.1374163019
H  H71  1  0.00149000  0.09614000  0.07915000  1.0 0.1374163019
H  H72  1  0.99851000  0.90386000  0.92085000  1.0 0.1374163019
H  H73  1  0.35340000  0.42653000  0.34253000  1.0 0.0599561811
H  H74  1  0.64660000  0.57347000  0.65747000  1.0 0.0599561811
H  H75  1  0.12246000  0.07347000  0.15747000  1.0 0.0599561811
H  H76  1  0.87754000  0.92653000  0.84253000  1.0 0.0500886126
H  H77  1  0.28562000  0.52654000  0.35284000  1.0 0.0500886126
H  H78  1  0.71438000  0.47346000  0.64716000  1.0 0.0500886126
H  H79  1  0.16501000  0.97346000  0.14716000  1.0 0.0500886126
H  H80  1  0.83499000  0.02654000  0.85284000  1.0 0.0500886126
H  H81  1  0.48798000  0.54534000  0.30799000  1.0 0.0599561811
H  H82  1  0.51202000  0.45466000  0.69201000  1.0 0.0599561811
H  H83  1  0.34130000  0.95466000  0.19201000  1.0 0.0599561811
H  H84  1  0.65870000  0.04534000  0.80799000  1.0 0.0599561811
H  H85  1  0.58649000  0.44202000  0.31892000  1.0 0.0701984023
H  H86  1  0.41351000  0.55798000  0.68108000  1.0 0.0701984023
H  H87  1  0.34744000  0.05798000  0.18108000  1.0 0.0701984023
H  H88  1  0.65256000  0.94202000  0.81892000  1.0 0.0701984023
H  H89  1  0.69827000  0.53343000  0.32902000  1.0 0.07938142
H  H90  1  0.30173000  0.46657000  0.67098000  1.0 0.07938142
H  H91  1  0.56071000  0.96657000  0.17098000  1.0 0.07938142
H  H92  1  0.43929000  0.03343000  0.82902000  1.0 0.07938142
H  H93  1  0.57458000  0.56154000  0.38986000  1.0 0.0599561811
H  H94  1  0.42542000  0.43846000  0.61014000  1.0 0.0599561811
H  H95  1  0.52599000  0.93846000  0.11014000  1.0 0.0599561811
H  H96  1  0.47401000  0.06154000  0.88986000  1.0 0.0599561811
H  H97  1  0.83880000  0.48628000  0.39992000  1.0 0.0701984023
H  H98  1  0.16120000  0.51372000  0.60008000  1.0 0.0599561811
H  H99  1  0.72500000  0.01372000  0.10008000  1.0 0.0701984023
H  H100  1  0.27500000  0.98628000  0.89992000  1.0 0.0599561811
H  H101  1  0.83889000  0.38820000  0.46238000  1.0 0.0701984023
H  H102  1  0.16111000  0.61180000  0.53762000  1.0 0.0701984023
H  H103  1  0.68947000  0.11180000  0.03762000  1.0 0.0701984023
H  H104  1  0.31053000  0.88820000  0.96238000  1.0 0.0701984023
H  H105  1  0.66939000  0.45768000  0.53216000  1.0 0.1117773528
H  H106  1  0.33061000  0.54232000  0.46784000  1.0 0.1117773528
H  H107  1  0.65923000  0.04232000  0.96784000  1.0 0.1117773528
H  H108  1  0.34077000  0.95768000  0.03216000  1.0 0.1117773528
H  H109  1  0.65960000  0.55628000  0.46970000  1.0 0.1117773528
H  H110  1  0.34040000  0.44372000  0.53030000  1.0 0.1117773528
H  H111  1  0.68557000  0.94372000  0.03030000  1.0 0.1117773528
H  H112  1  0.31443000  0.05628000  0.96970000  1.0 0.1117773528
H  H113  1  0.28924000  0.89006000  0.35636000  1.0 0.0500886126
H  H114  1  0.71076000  0.10994000  0.64364000  1.0 0.0500886126
H  H115  1  0.53566000  0.60994000  0.14364000  1.0 0.0500886126
H  H116  1  0.46434000  0.39006000  0.85636000  1.0 0.0500886126
H  H117  1  0.18756000  0.82504000  0.37151000  1.0 0.07938142
H  H118  1  0.81244000  0.17496000  0.62849000  1.0 0.07938142
H  H119  1  0.38411000  0.67496000  0.12849000  1.0 0.07938142
H  H120  1  0.61589000  0.32504000  0.87151000  1.0 0.07938142
H  H121  1  0.39922000  0.76274000  0.32841000  1.0 0.0599561811
H  H122  1  0.60078000  0.23726000  0.67159000  1.0 0.0599561811
H  H123  1  0.49037000  0.73726000  0.17159000  1.0 0.0599561811
H  H124  1  0.50963000  0.26274000  0.82841000  1.0 0.0599561811
H  H125  1  0.34339000  0.69536000  0.40497000  1.0 0.0701984023
H  H126  1  0.65661000  0.30464000  0.59503000  1.0 0.0701984023
H  H127  1  0.44372000  0.80464000  0.09503000  1.0 0.0701984023
H  H128  1  0.55628000  0.19536000  0.90497000  1.0 0.0701984023
H  H129  1  0.70218000  0.85372000  0.35814000  1.0 0.1193588637
H  H130  1  0.29782000  0.14628000  0.64186000  1.0 0.1193588637
H  H131  1  0.91403000  0.64628000  0.14186000  1.0 0.1193588637
H  H132  1  0.08597000  0.35372000  0.85814000  1.0 0.1193588637
H  H133  1  0.74062000  0.74121000  0.39460000  1.0 0.1273206063
H  H134  1  0.25938000  0.25879000  0.60540000  1.0 0.1273206063
H  H135  1  0.87643000  0.75879000  0.10540000  1.0 0.1273206063
H  H136  1  0.12357000  0.24121000  0.89460000  1.0 0.1273206063
H  H137  1  0.59546000  0.78522000  0.31822000  1.0 0.0599561811
H  H138  1  0.40454000  0.21478000  0.68178000  1.0 0.0599561811
H  H139  1  0.69890000  0.71478000  0.18178000  1.0 0.0599561811
H  H140  1  0.30110000  0.28522000  0.81822000  1.0 0.0599561811
H  H141  1  0.49454000  0.86473000  0.34985000  1.0 0.0599561811
H  H142  1  0.50546000  0.13527000  0.65015000  1.0 0.0599561811
H  H143  1  0.70912000  0.63527000  0.15015000  1.0 0.0599561811
H  H144  1  0.29088000  0.36473000  0.84985000  1.0 0.0599561811
C  C1  1  0.10470000  0.86920000  0.53826000  1.0 -0.2211014716
C  C2  1  0.89530000  0.13080000  0.46174000  1.0 -0.2211014716
C  C3  1  0.51217000  0.63080000  0.96174000  1.0 -0.2211014716
C  C4  1  0.48783000  0.36920000  0.03826000  1.0 -0.2211014716
C  C5  1  0.12861000  0.88327000  0.46686000  1.0 0.0500886126
C  C6  1  0.87139000  0.11673000  0.53314000  1.0 0.0500886126
C  C7  1  0.47873000  0.61673000  0.03314000  1.0 0.0500886126
C  C8  1  0.52127000  0.38327000  0.96686000  1.0 0.0500886126
C  C9  1  0.26914000  0.82879000  0.38773000  1.0 0.0017637595
C  C10  1  0.73086000  0.17121000  0.61227000  1.0 0.0017637595
C  C11  1  0.48567000  0.67121000  0.11227000  1.0 0.0017637595
C  C12  1  0.51433000  0.32879000  0.88773000  1.0 0.0017637595
C  C13  1  0.37414000  0.75429000  0.38037000  1.0 -0.0022619346
C  C14  1  0.62586000  0.24571000  0.61963000  1.0 -0.0022619346
C  C15  1  0.50880000  0.74571000  0.11963000  1.0 -0.0022619346
C  C16  1  0.49120000  0.25429000  0.88037000  1.0 -0.0022619346
C  C17  1  0.55639000  0.80070000  0.36323000  1.0 0.0500886126
C  C18  1  0.44361000  0.19930000  0.63677000  1.0 0.0500886126
C  C19  1  0.72032000  0.69930000  0.13677000  1.0 0.0500886126
C  C20  1  0.27968000  0.30070000  0.86323000  1.0 0.0500886126
C  C21  1  0.66535000  0.79926000  0.39078000  1.0 -0.2109461206
C  C22  1  0.33465000  0.20074000  0.60922000  1.0 -0.2109461206
C  C23  1  0.85539000  0.70074000  0.10922000  1.0 -0.2109461206
C  C24  1  0.14461000  0.29926000  0.89078000  1.0 -0.2109461206
C  C25  1  0.49647000  0.89426000  0.46403000  1.0 -0.2211014716
C  C26  1  0.50353000  0.10574000  0.53597000  1.0 -0.2211014716
C  C27  1  0.85476000  0.60574000  0.03597000  1.0 -0.2211014716
C  C28  1  0.14524000  0.39426000  0.96403000  1.0 -0.2211014716
C  C29  1  0.45589000  0.90772000  0.52823000  1.0 0.0380038517
C  C30  1  0.54411000  0.09228000  0.47177000  1.0 0.0380038517
C  C31  1  0.89185000  0.59228000  0.97177000  1.0 0.0380038517
C  C32  1  0.10815000  0.40772000  0.02823000  1.0 0.0380038517
C  C33  1  0.40476000  0.83313000  0.63938000  1.0 0.0017637595
C  C34  1  0.59524000  0.16687000  0.36062000  1.0 0.0017637595
C  C35  1  0.87727000  0.66687000  0.86062000  1.0 0.0017637595
C  C36  1  0.12273000  0.33313000  0.13938000  1.0 0.0017637595
C  C37  1  0.38203000  0.74958000  0.68433000  1.0 -0.0097863398
C  C38  1  0.61797000  0.25042000  0.31567000  1.0 -0.0097863398
C  C39  1  0.81594000  0.75042000  0.81567000  1.0 -0.0097863398
C  C40  1  0.18406000  0.24958000  0.18433000  1.0 -0.0097863398
C  C41  1  0.16369000  0.77533000  0.68609000  1.0 0.0500886126
C  C42  1  0.83631000  0.22467000  0.31391000  1.0 0.0500886126
C  C43  1  0.62511000  0.72467000  0.81391000  1.0 0.0500886126
C  C44  1  0.37489000  0.27533000  0.18609000  1.0 0.0500886126
C  C45  1  0.06447000  0.75543000  0.66533000  1.0 -0.2109461206
C  C46  1  0.93553000  0.24457000  0.33467000  1.0 -0.2109461206
C  C47  1  0.48524000  0.74457000  0.83467000  1.0 -0.2109461206
C  C48  1  0.51476000  0.25543000  0.16533000  1.0 -0.2109461206
C  C49  1  0.24697000  0.42076000  0.43564000  1.0 -0.2109461206
C  C50  1  0.75303000  0.57924000  0.56436000  1.0 -0.2109461206
C  C51  1  0.10337000  0.07924000  0.06436000  1.0 -0.2109461206
C  C52  1  0.89663000  0.92076000  0.93564000  1.0 -0.2109461206
C  C53  1  0.33223000  0.46043000  0.37720000  1.0 0.0500886126
C  C54  1  0.66777000  0.53957000  0.62280000  1.0 0.0500886126
C  C55  1  0.16987000  0.03957000  0.12280000  1.0 0.0500886126
C  C56  1  0.83013000  0.96043000  0.87720000  1.0 0.0500886126
C  C57  1  0.53595000  0.48829000  0.34393000  1.0 0.0017637595
C  C58  1  0.46405000  0.51171000  0.65607000  1.0 0.0017637595
C  C59  1  0.36817000  0.01171000  0.15607000  1.0 0.0017637595
C  C60  1  0.63183000  0.98829000  0.84393000  1.0 0.0017637595
C  C61  1  0.62572000  0.51102000  0.36916000  1.0 0.0086182216
C  C62  1  0.37428000  0.48898000  0.63084000  1.0 0.0086182216
C  C63  1  0.50591000  0.98898000  0.13084000  1.0 0.0086182216
C  C64  1  0.49409000  0.01102000  0.86916000  1.0 0.0086182216
C  C65  1  0.78005000  0.45072000  0.44051000  1.0 0.0380038517
C  C66  1  0.21995000  0.54928000  0.55949000  1.0 0.0380038517
C  C67  1  0.67128000  0.04928000  0.05949000  1.0 0.0380038517
C  C68  1  0.32872000  0.95072000  0.94051000  1.0 0.0380038517
C  C69  1  0.72304000  0.49481000  0.49004000  1.0 -0.2109461206
C  C70  1  0.27696000  0.50519000  0.50996000  1.0 -0.2109461206
C  C71  1  0.70788000  0.00519000  0.00996000  1.0 -0.2109461206
C  C72  1  0.29212000  0.99481000  0.99004000  1.0 -0.2109461206
C  C73  1  0.77286000  0.88033000  0.55323000  1.0 -0.1163540942
C  C74  1  0.22714000  0.11967000  0.44677000  1.0 -0.1163540942
C  C75  1  0.20642000  0.61967000  0.94677000  1.0 -0.1163540942
C  C76  1  0.79358000  0.38033000  0.05323000  1.0 -0.1163540942
C  C77  1  0.92479000  0.73320000  0.48471000  1.0 -0.1163540942
C  C78  1  0.07521000  0.26680000  0.51529000  1.0 -0.1163540942
C  C79  1  0.14270000  0.76680000  0.01529000  1.0 -0.1163540942
C  C80  1  0.85730000  0.23320000  0.98471000  1.0 -0.1163540942
C  C81  1  0.00276000  0.57765000  0.34837000  1.0 -0.1018374333
C  C82  1  0.99724000  0.42235000  0.65163000  1.0 -0.1018374333
C  C83  1  0.92878000  0.92235000  0.15163000  1.0 -0.1018374333
C  C84  1  0.07122000  0.07765000  0.84837000  1.0 -0.1018374333
C  C85  1  0.84711000  0.96511000  0.33820000  1.0 -0.1018374333
C  C86  1  0.15289000  0.03489000  0.66180000  1.0 -0.1018374333
C  C87  1  0.15042000  0.53489000  0.16180000  1.0 -0.1018374333
C  C88  1  0.84958000  0.46511000  0.83820000  1.0 -0.1018374333
C  C89  1  0.07873000  0.04923000  0.28998000  1.0 -0.0243596531
C  C90  1  0.92127000  0.95077000  0.71002000  1.0 -0.0243596531
C  C91  1  0.41795000  0.45077000  0.21002000  1.0 -0.0243596531
C  C92  1  0.58205000  0.54923000  0.78998000  1.0 -0.0243596531
C  C93  1  0.85921000  0.12465000  0.19589000  1.0 -0.0791748644
C  C94  1  0.14079000  0.87535000  0.80411000  1.0 -0.0791748644
C  C95  1  0.17975000  0.37535000  0.30411000  1.0 -0.0791748644
C  C96  1  0.82025000  0.62465000  0.69589000  1.0 -0.0791748644
C  C97  1  0.51694000  0.96240000  0.70477000  1.0 -0.1598766869
C  C98  1  0.48306000  0.03760000  0.29523000  1.0 -0.1598766869
C  C99  1  0.18411000  0.53760000  0.79523000  1.0 -0.1598766869
C  C100  1  0.81589000  0.46240000  0.20477000  1.0 -0.1598766869
S  S1  1  0.09343000  0.76222000  0.58177000  1.0 0.0231297
S  S2  1  0.90657000  0.23778000  0.41823000  1.0 0.0231297
S  S3  1  0.43741000  0.73778000  0.91823000  1.0 0.0231297
S  S4  1  0.56259000  0.26222000  0.08177000  1.0 0.0231297
S  S5  1  0.62882000  0.80371000  0.47124000  1.0 0.0301957232
S  S6  1  0.37118000  0.19629000  0.52876000  1.0 0.0301957232
S  S7  1  0.90376000  0.69629000  0.02876000  1.0 0.0231297
S  S8  1  0.09624000  0.30371000  0.97124000  1.0 0.0301957232
S  S9  1  0.15492000  0.48509000  0.48376000  1.0 0.0380038517
S  S10  1  0.84508000  0.51491000  0.51624000  1.0 0.0380038517
S  S11  1  0.12377000  0.01491000  0.01624000  1.0 0.0380038517
S  S12  1  0.87623000  0.98509000  0.98376000  1.0 0.0380038517
N  N1  1  0.74544000  0.90560000  0.59707000  1.0 -0.3224474502
N  N2  1  0.25456000  0.09440000  0.40293000  1.0 -0.3224474502
N  N3  1  0.24811000  0.59440000  0.90293000  1.0 -0.3224474502
N  N4  1  0.75189000  0.40560000  0.09707000  1.0 -0.3224474502
N  N5  1  0.96573000  0.68524000  0.45600000  1.0 -0.2884476607
N  N6  1  0.03427000  0.31476000  0.54400000  1.0 -0.2884476607
N  N7  1  0.10697000  0.81476000  0.04400000  1.0 -0.2884476607
N  N8  1  0.89303000  0.18524000  0.95600000  1.0 -0.2884476607
N  N9  1  0.86468000  0.94172000  0.19532000  1.0 -0.3101528635
N  N10  1  0.13532000  0.05828000  0.80468000  1.0 -0.3101528635
N  N11  1  0.00172000  0.55828000  0.30468000  1.0 -0.3101528635
N  N12  1  0.99828000  0.44172000  0.69532000  1.0 -0.3101528635
N  N13  1  0.83182000  0.92246000  0.39283000  1.0 -0.2884476607
N  N14  1  0.16818000  0.07754000  0.60717000  1.0 -0.2884476607
N  N15  1  0.14712000  0.57754000  0.10717000  1.0 -0.2884476607
N  N16  1  0.85288000  0.42246000  0.89283000  1.0 -0.2884476607
N  N17  1  0.17107000  0.05348000  0.30204000  1.0 -0.327852053
N  N18  1  0.82893000  0.94652000  0.69796000  1.0 -0.327852053
N  N19  1  0.52658000  0.44652000  0.19796000  1.0 -0.327852053
N  N20  1  0.47342000  0.55348000  0.80204000  1.0 -0.327852053
N  N21  1  0.82911000  0.17352000  0.14661000  1.0 -0.3101528635
N  N22  1  0.17089000  0.82648000  0.85339000  1.0 -0.3101528635
N  N23  1  0.14924000  0.32648000  0.35339000  1.0 -0.3101528635
N  N24  1  0.85076000  0.67352000  0.64661000  1.0 -0.3101528635
N  N25  1  0.59198000  0.02400000  0.27741000  1.0 -0.327852053
N  N26  1  0.40802000  0.97600000  0.72259000  1.0 -0.327852053
N  N27  1  0.89340000  0.47600000  0.22259000  1.0 -0.327852053
N  N28  1  0.10660000  0.52400000  0.77741000  1.0 -0.327852053
O  O1  1  0.24242000  0.82391000  0.45361000  1.0 -0.2795689908
O  O2  1  0.75758000  0.17609000  0.54639000  1.0 -0.2795689908
O  O3  1  0.51994000  0.67609000  0.04639000  1.0 -0.2795689908
O  O4  1  0.48006000  0.32391000  0.95361000  1.0 -0.2795689908
O  O5  1  0.48506000  0.74184000  0.40653000  1.0 -0.2795689908
O  O6  1  0.51494000  0.25816000  0.59347000  1.0 -0.2795689908
O  O7  1  0.63342000  0.75816000  0.09347000  1.0 -0.2795689908
O  O8  1  0.36658000  0.24184000  0.90653000  1.0 -0.2795689908
O  O9  1  0.42528000  0.83270000  0.57461000  1.0 -0.2795689908
O  O10  1  0.57472000  0.16730000  0.42539000  1.0 -0.2795689908
O  O11  1  0.83260000  0.66730000  0.92539000  1.0 -0.2795689908
O  O12  1  0.16740000  0.33270000  0.07461000  1.0 -0.2795689908
O  O13  1  0.28570000  0.72730000  0.66863000  1.0 -0.2654510153
O  O14  1  0.71430000  0.27270000  0.33137000  1.0 -0.2654510153
O  O15  1  0.68163000  0.77270000  0.83137000  1.0 -0.2654510153
O  O16  1  0.31837000  0.22730000  0.16863000  1.0 -0.2654510153
O  O17  1  0.44586000  0.45555000  0.39714000  1.0 -0.2795689908
O  O18  1  0.55414000  0.54445000  0.60286000  1.0 -0.2795689908
O  O19  1  0.29855000  0.04445000  0.10286000  1.0 -0.2795689908
O  O20  1  0.70145000  0.95555000  0.89714000  1.0 -0.2795689908
O  O21  1  0.68408000  0.43778000  0.41733000  1.0 -0.2795689908
O  O22  1  0.31592000  0.56222000  0.58267000  1.0 -0.2795689908
O  O23  1  0.53918000  0.06222000  0.08267000  1.0 -0.2795689908
O  O24  1  0.46082000  0.93778000  0.91733000  1.0 -0.2795689908
