# DDEC6 charges by PACMAN v1.1 (https://github.com/mtap-research/PACMAN-charge/)
data_WOZSOT_ion_pacman
_symmetry_space_group_name_H-M   'P 1'
_cell_length_a   20.81500000
_cell_length_b   20.81500000
_cell_length_c   18.58460000
_cell_angle_alpha   90.00000000
_cell_angle_beta   90.00000000
_cell_angle_gamma   90.00000000
_symmetry_Int_Tables_number   1
_chemical_formula_structural   Cd13P8H112C56(N3O22)4
_chemical_formula_sum   'Cd26 P16 H224 C112 N24 O176'
_cell_volume   8052.04231594
_cell_formula_units_Z   2
loop_
 _symmetry_equiv_pos_site_id
 _symmetry_equiv_pos_as_xyz
  1  'x, y, z'
loop_
 _atom_site_type_symbol
 _atom_site_label
 _atom_site_symmetry_multiplicity
 _atom_site_fract_x
 _atom_site_fract_y
 _atom_site_fract_z
 _atom_site_occupancy
 _atom_site_charge
Cd  Cd1  1  0.11140000  0.06455000  0.13743000  1.0 1.4211918524
Cd  Cd2  1  0.56455000  0.38860000  0.63743000  1.0 1.4211918524
Cd  Cd3  1  0.43545000  0.61140000  0.63743000  1.0 1.4211918524
Cd  Cd4  1  0.61140000  0.56455000  0.36257000  1.0 1.4211918524
Cd  Cd5  1  0.38860000  0.43545000  0.36257000  1.0 1.4211918524
Cd  Cd6  1  0.93545000  0.11140000  0.86257000  1.0 1.4211918524
Cd  Cd7  1  0.06455000  0.88860000  0.86257000  1.0 1.4211918524
Cd  Cd8  1  0.88860000  0.93545000  0.13743000  1.0 1.4211918524
Cd  Cd9  1  0.00000000  0.00000000  0.00000000  1.0 1.1170938423
Cd  Cd10  1  0.50000000  0.50000000  0.50000000  1.0 1.1170938423
Cd  Cd11  1  0.15661000  0.25473000  0.95594000  1.0 0.8862557596
Cd  Cd12  1  0.75473000  0.34339000  0.45594000  1.0 0.8862557596
Cd  Cd13  1  0.24527000  0.65661000  0.45594000  1.0 0.8862557596
Cd  Cd14  1  0.65661000  0.75473000  0.54406000  1.0 0.8862557596
Cd  Cd15  1  0.34339000  0.24527000  0.54406000  1.0 0.8862557596
Cd  Cd16  1  0.74527000  0.15661000  0.04406000  1.0 0.8862557596
Cd  Cd17  1  0.25473000  0.84339000  0.04406000  1.0 0.8862557596
Cd  Cd18  1  0.84339000  0.74527000  0.95594000  1.0 0.8862557596
Cd  Cd19  1  0.19030000  0.26724000  0.30455000  1.0 1.1047058514
Cd  Cd20  1  0.76724000  0.30970000  0.80455000  1.0 1.1064410618
Cd  Cd21  1  0.23276000  0.69030000  0.80455000  1.0 1.1064410618
Cd  Cd22  1  0.69030000  0.76724000  0.19545000  1.0 1.1064410618
Cd  Cd23  1  0.30970000  0.23276000  0.19545000  1.0 1.1047058514
Cd  Cd24  1  0.73276000  0.19030000  0.69545000  1.0 1.1064410618
Cd  Cd25  1  0.26724000  0.80970000  0.69545000  1.0 1.1064410618
Cd  Cd26  1  0.80970000  0.73276000  0.30455000  1.0 1.1064410618
P  P1  1  0.07870000  0.11638000  0.95527000  1.0 1.2815371564
P  P2  1  0.61638000  0.42130000  0.45527000  1.0 1.2815371564
P  P3  1  0.38362000  0.57870000  0.45527000  1.0 1.2815371564
P  P4  1  0.57870000  0.61638000  0.54473000  1.0 1.2815371564
P  P5  1  0.42130000  0.38362000  0.54473000  1.0 1.2815371564
P  P6  1  0.88362000  0.07870000  0.04473000  1.0 1.2815371564
P  P7  1  0.11638000  0.92130000  0.04473000  1.0 1.2815371564
P  P8  1  0.92130000  0.88362000  0.95527000  1.0 1.2815371564
P  P9  1  0.16541000  0.22100000  0.13124000  1.0 1.2815371564
P  P10  1  0.72100000  0.33459000  0.63124000  1.0 1.2815371564
P  P11  1  0.27900000  0.66541000  0.63124000  1.0 1.2815371564
P  P12  1  0.66541000  0.72100000  0.36876000  1.0 1.2815371564
P  P13  1  0.33459000  0.27900000  0.36876000  1.0 1.2815371564
P  P14  1  0.77900000  0.16541000  0.86876000  1.0 1.2815371564
P  P15  1  0.22100000  0.83459000  0.86876000  1.0 1.2815371564
P  P16  1  0.83459000  0.77900000  0.13124000  1.0 1.2815371564
H  H1  1  0.27660000  0.13750000  0.94230000  1.0 0.1286165067
H  H2  1  0.63750000  0.22340000  0.44230000  1.0 0.1286165067
H  H3  1  0.36250000  0.77660000  0.44230000  1.0 0.1286165067
H  H4  1  0.77660000  0.63750000  0.55770000  1.0 0.1286165067
H  H5  1  0.22340000  0.36250000  0.55770000  1.0 0.1286165067
H  H6  1  0.86250000  0.27660000  0.05770000  1.0 0.1286165067
H  H7  1  0.13750000  0.72340000  0.05770000  1.0 0.1286165067
H  H8  1  0.72340000  0.86250000  0.94230000  1.0 0.1286165067
H  H9  1  0.27820000  0.12070000  0.86010000  1.0 0.1183119911
H  H10  1  0.62070000  0.22180000  0.36010000  1.0 0.1183119911
H  H11  1  0.37930000  0.77820000  0.36010000  1.0 0.1183119911
H  H12  1  0.77820000  0.62070000  0.63990000  1.0 0.1183119911
H  H13  1  0.22180000  0.37930000  0.63990000  1.0 0.1183119911
H  H14  1  0.87930000  0.27820000  0.13990000  1.0 0.1183119911
H  H15  1  0.12070000  0.72180000  0.13990000  1.0 0.1183119911
H  H16  1  0.72180000  0.87930000  0.86010000  1.0 0.1183119911
H  H17  1  0.28440000  0.23050000  0.83100000  1.0 0.1007172214
H  H18  1  0.73050000  0.21560000  0.33100000  1.0 0.1007172214
H  H19  1  0.26950000  0.78440000  0.33100000  1.0 0.1007172214
H  H20  1  0.78440000  0.73050000  0.66900000  1.0 0.1007172214
H  H21  1  0.21560000  0.26950000  0.66900000  1.0 0.1007172214
H  H22  1  0.76950000  0.28440000  0.16900000  1.0 0.1007172214
H  H23  1  0.23050000  0.71560000  0.16900000  1.0 0.1007172214
H  H24  1  0.71560000  0.76950000  0.83100000  1.0 0.1007172214
H  H25  1  0.34160000  0.21240000  0.88270000  1.0 0.1107321243
H  H26  1  0.71240000  0.15840000  0.38270000  1.0 0.1107321243
H  H27  1  0.28760000  0.84160000  0.38270000  1.0 0.1107321243
H  H28  1  0.84160000  0.71240000  0.61730000  1.0 0.1107321243
H  H29  1  0.15840000  0.28760000  0.61730000  1.0 0.1107321243
H  H30  1  0.78760000  0.34160000  0.11730000  1.0 0.1107321243
H  H31  1  0.21240000  0.65840000  0.11730000  1.0 0.1107321243
H  H32  1  0.65840000  0.78760000  0.88270000  1.0 0.1107321243
H  H33  1  0.34420000  0.32280000  0.92960000  1.0 0.1183119911
H  H34  1  0.82280000  0.15580000  0.42960000  1.0 0.1183119911
H  H35  1  0.17720000  0.84420000  0.42960000  1.0 0.1183119911
H  H36  1  0.84420000  0.82280000  0.57040000  1.0 0.1183119911
H  H37  1  0.15580000  0.17720000  0.57040000  1.0 0.1183119911
H  H38  1  0.67720000  0.34420000  0.07040000  1.0 0.1183119911
H  H39  1  0.32280000  0.65580000  0.07040000  1.0 0.1183119911
H  H40  1  0.65580000  0.67720000  0.92960000  1.0 0.1183119911
H  H41  1  0.28880000  0.34050000  0.87570000  1.0 0.1107321243
H  H42  1  0.84050000  0.21120000  0.37570000  1.0 0.1107321243
H  H43  1  0.15950000  0.78880000  0.37570000  1.0 0.1107321243
H  H44  1  0.78880000  0.84050000  0.62430000  1.0 0.1107321243
H  H45  1  0.21120000  0.15950000  0.62430000  1.0 0.1107321243
H  H46  1  0.65950000  0.28880000  0.12430000  1.0 0.1107321243
H  H47  1  0.34050000  0.71120000  0.12430000  1.0 0.1107321243
H  H48  1  0.71120000  0.65950000  0.87570000  1.0 0.1107321243
H  H49  1  0.28420000  0.40780000  0.97220000  1.0 0.1107321243
H  H50  1  0.90780000  0.21580000  0.47220000  1.0 0.1107321243
H  H51  1  0.09220000  0.78420000  0.47220000  1.0 0.1107321243
H  H52  1  0.78420000  0.90780000  0.52780000  1.0 0.1107321243
H  H53  1  0.21580000  0.09220000  0.52780000  1.0 0.1107321243
H  H54  1  0.59220000  0.28420000  0.02780000  1.0 0.1107321243
H  H55  1  0.40780000  0.71580000  0.02780000  1.0 0.1107321243
H  H56  1  0.71580000  0.59220000  0.97220000  1.0 0.1107321243
H  H57  1  0.28010000  0.34880000  0.02500000  1.0 0.1286165067
H  H58  1  0.84880000  0.21990000  0.52500000  1.0 0.1286165067
H  H59  1  0.15120000  0.78010000  0.52500000  1.0 0.1286165067
H  H60  1  0.78010000  0.84880000  0.47500000  1.0 0.1286165067
H  H61  1  0.21990000  0.15120000  0.47500000  1.0 0.1286165067
H  H62  1  0.65120000  0.28010000  0.97500000  1.0 0.1286165067
H  H63  1  0.34880000  0.71990000  0.97500000  1.0 0.1286165067
H  H64  1  0.71990000  0.65120000  0.02500000  1.0 0.1286165067
H  H65  1  0.18860000  0.43920000  0.03010000  1.0 0.1007172214
H  H66  1  0.93920000  0.31140000  0.53010000  1.0 0.1007172214
H  H67  1  0.06080000  0.68860000  0.53010000  1.0 0.1007172214
H  H68  1  0.68860000  0.93920000  0.46990000  1.0 0.1007172214
H  H69  1  0.31140000  0.06080000  0.46990000  1.0 0.1007172214
H  H70  1  0.56080000  0.18860000  0.96990000  1.0 0.1007172214
H  H71  1  0.43920000  0.81140000  0.96990000  1.0 0.1007172214
H  H72  1  0.81140000  0.56080000  0.03010000  1.0 0.1007172214
H  H73  1  0.12800000  0.42350000  0.98280000  1.0 0.1007172214
H  H74  1  0.92350000  0.37200000  0.48280000  1.0 0.1007172214
H  H75  1  0.07650000  0.62800000  0.48280000  1.0 0.1007172214
H  H76  1  0.62800000  0.92350000  0.51720000  1.0 0.1007172214
H  H77  1  0.37200000  0.07650000  0.51720000  1.0 0.1007172214
H  H78  1  0.57650000  0.12800000  0.01720000  1.0 0.1007172214
H  H79  1  0.42350000  0.87200000  0.01720000  1.0 0.1007172214
H  H80  1  0.87200000  0.57650000  0.98280000  1.0 0.1007172214
H  H81  1  0.16750000  0.35530000  0.10520000  1.0 0.1404898476
H  H82  1  0.85530000  0.33250000  0.60520000  1.0 0.1404898476
H  H83  1  0.14470000  0.66750000  0.60520000  1.0 0.1404898476
H  H84  1  0.66750000  0.85530000  0.39480000  1.0 0.1404898476
H  H85  1  0.33250000  0.14470000  0.39480000  1.0 0.1404898476
H  H86  1  0.64470000  0.16750000  0.89480000  1.0 0.1404898476
H  H87  1  0.35530000  0.83250000  0.89480000  1.0 0.1404898476
H  H88  1  0.83250000  0.64470000  0.10520000  1.0 0.1404898476
H  H89  1  0.10480000  0.39660000  0.09930000  1.0 0.1286165067
H  H90  1  0.89660000  0.39520000  0.59930000  1.0 0.1286165067
H  H91  1  0.10340000  0.60480000  0.59930000  1.0 0.1286165067
H  H92  1  0.60480000  0.89660000  0.40070000  1.0 0.1286165067
H  H93  1  0.39520000  0.10340000  0.40070000  1.0 0.1286165067
H  H94  1  0.60340000  0.10480000  0.90070000  1.0 0.1286165067
H  H95  1  0.39660000  0.89520000  0.90070000  1.0 0.1286165067
H  H96  1  0.89520000  0.60340000  0.09930000  1.0 0.1286165067
H  H97  1  0.00600000  0.28450000  0.02220000  1.0 0.1404898476
H  H98  1  0.78450000  0.49400000  0.52220000  1.0 0.1404898476
H  H99  1  0.21550000  0.50600000  0.52220000  1.0 0.1404898476
H  H100  1  0.50600000  0.78450000  0.47780000  1.0 0.1404898476
H  H101  1  0.49400000  0.21550000  0.47780000  1.0 0.1404898476
H  H102  1  0.71550000  0.00600000  0.97780000  1.0 0.1404898476
H  H103  1  0.28450000  0.99400000  0.97780000  1.0 0.1404898476
H  H104  1  0.99400000  0.71550000  0.02220000  1.0 0.1404898476
H  H105  1  0.00920000  0.35110000  0.06140000  1.0 0.1183119911
H  H106  1  0.85110000  0.49080000  0.56140000  1.0 0.1183119911
H  H107  1  0.14890000  0.50920000  0.56140000  1.0 0.1183119911
H  H108  1  0.50920000  0.85110000  0.43860000  1.0 0.1183119911
H  H109  1  0.49080000  0.14890000  0.43860000  1.0 0.1183119911
H  H110  1  0.64890000  0.00920000  0.93860000  1.0 0.1183119911
H  H111  1  0.35110000  0.99080000  0.93860000  1.0 0.1183119911
H  H112  1  0.99080000  0.64890000  0.06140000  1.0 0.1183119911
H  H113  1  0.03800000  0.40330000  0.95920000  1.0 0.1007172214
H  H114  1  0.90330000  0.46200000  0.45920000  1.0 0.1007172214
H  H115  1  0.09670000  0.53800000  0.45920000  1.0 0.1007172214
H  H116  1  0.53800000  0.90330000  0.54080000  1.0 0.1007172214
H  H117  1  0.46200000  0.09670000  0.54080000  1.0 0.1007172214
H  H118  1  0.59670000  0.03800000  0.04080000  1.0 0.1007172214
H  H119  1  0.40330000  0.96200000  0.04080000  1.0 0.1007172214
H  H120  1  0.96200000  0.59670000  0.95920000  1.0 0.1007172214
H  H121  1  0.98400000  0.35550000  0.93370000  1.0 0.1107321243
H  H122  1  0.85550000  0.51600000  0.43370000  1.0 0.1107321243
H  H123  1  0.14450000  0.48400000  0.43370000  1.0 0.1107321243
H  H124  1  0.48400000  0.85550000  0.56630000  1.0 0.1107321243
H  H125  1  0.51600000  0.14450000  0.56630000  1.0 0.1107321243
H  H126  1  0.64450000  0.98400000  0.06630000  1.0 0.1107321243
H  H127  1  0.35550000  0.01600000  0.06630000  1.0 0.1107321243
H  H128  1  0.01600000  0.64450000  0.93370000  1.0 0.1107321243
H  H129  1  0.03290000  0.31510000  0.81210000  1.0 0.1183119911
H  H130  1  0.81510000  0.46710000  0.31210000  1.0 0.1183119911
H  H131  1  0.18490000  0.53290000  0.31210000  1.0 0.1183119911
H  H132  1  0.53290000  0.81510000  0.68790000  1.0 0.1183119911
H  H133  1  0.46710000  0.18490000  0.68790000  1.0 0.1183119911
H  H134  1  0.68490000  0.03290000  0.18790000  1.0 0.1183119911
H  H135  1  0.31510000  0.96710000  0.18790000  1.0 0.1183119911
H  H136  1  0.96710000  0.68490000  0.81210000  1.0 0.1183119911
H  H137  1  0.05410000  0.38630000  0.82760000  1.0 0.1107321243
H  H138  1  0.88630000  0.44590000  0.32760000  1.0 0.1107321243
H  H139  1  0.11370000  0.55410000  0.32760000  1.0 0.1107321243
H  H140  1  0.55410000  0.88630000  0.67240000  1.0 0.1107321243
H  H141  1  0.44590000  0.11370000  0.67240000  1.0 0.1107321243
H  H142  1  0.61370000  0.05410000  0.17240000  1.0 0.1107321243
H  H143  1  0.38630000  0.94590000  0.17240000  1.0 0.1107321243
H  H144  1  0.94590000  0.61370000  0.82760000  1.0 0.1107321243
H  H145  1  0.15700000  0.36450000  0.80860000  1.0 0.1183119911
H  H146  1  0.86450000  0.34300000  0.30860000  1.0 0.1183119911
H  H147  1  0.13550000  0.65700000  0.30860000  1.0 0.1183119911
H  H148  1  0.65700000  0.86450000  0.69140000  1.0 0.1183119911
H  H149  1  0.34300000  0.13550000  0.69140000  1.0 0.1183119911
H  H150  1  0.63550000  0.15700000  0.19140000  1.0 0.1183119911
H  H151  1  0.36450000  0.84300000  0.19140000  1.0 0.1183119911
H  H152  1  0.84300000  0.63550000  0.80860000  1.0 0.1183119911
H  H153  1  0.12140000  0.32810000  0.74650000  1.0 0.1007172214
H  H154  1  0.82810000  0.37860000  0.24650000  1.0 0.1007172214
H  H155  1  0.17190000  0.62140000  0.24650000  1.0 0.1007172214
H  H156  1  0.62140000  0.82810000  0.75350000  1.0 0.1007172214
H  H157  1  0.37860000  0.17190000  0.75350000  1.0 0.1007172214
H  H158  1  0.67190000  0.12140000  0.25350000  1.0 0.1007172214
H  H159  1  0.32810000  0.87860000  0.25350000  1.0 0.1007172214
H  H160  1  0.87860000  0.67190000  0.74650000  1.0 0.1007172214
H  H161  1  0.08510000  0.20780000  0.82060000  1.0 0.1183119911
H  H162  1  0.70780000  0.41490000  0.32060000  1.0 0.1183119911
H  H163  1  0.29220000  0.58510000  0.32060000  1.0 0.1183119911
H  H164  1  0.58510000  0.70780000  0.67940000  1.0 0.1183119911
H  H165  1  0.41490000  0.29220000  0.67940000  1.0 0.1183119911
H  H166  1  0.79220000  0.08510000  0.17940000  1.0 0.1183119911
H  H167  1  0.20780000  0.91490000  0.17940000  1.0 0.1183119911
H  H168  1  0.91490000  0.79220000  0.82060000  1.0 0.1183119911
H  H169  1  0.11930000  0.21390000  0.74540000  1.0 0.0938896498
H  H170  1  0.71390000  0.38070000  0.24540000  1.0 0.0938896498
H  H171  1  0.28610000  0.61930000  0.24540000  1.0 0.0938896498
H  H172  1  0.61930000  0.71390000  0.75460000  1.0 0.0938896498
H  H173  1  0.38070000  0.28610000  0.75460000  1.0 0.0938896498
H  H174  1  0.78610000  0.11930000  0.25460000  1.0 0.0938896498
H  H175  1  0.21390000  0.88070000  0.25460000  1.0 0.0938896498
H  H176  1  0.88070000  0.78610000  0.74540000  1.0 0.0938896498
H  H177  1  0.20700000  0.15800000  0.78480000  1.0 0.1107321243
H  H178  1  0.65800000  0.29300000  0.28480000  1.0 0.1107321243
H  H179  1  0.34200000  0.70700000  0.28480000  1.0 0.1107321243
H  H180  1  0.70700000  0.65800000  0.71520000  1.0 0.1107321243
H  H181  1  0.29300000  0.34200000  0.71520000  1.0 0.1107321243
H  H182  1  0.84200000  0.20700000  0.21520000  1.0 0.1107321243
H  H183  1  0.15800000  0.79300000  0.21520000  1.0 0.1107321243
H  H184  1  0.79300000  0.84200000  0.78480000  1.0 0.1107321243
H  H185  1  0.14700000  0.11710000  0.80650000  1.0 0.1404898476
H  H186  1  0.61710000  0.35300000  0.30650000  1.0 0.1404898476
H  H187  1  0.38290000  0.64700000  0.30650000  1.0 0.1404898476
H  H188  1  0.64700000  0.61710000  0.69350000  1.0 0.1404898476
H  H189  1  0.35300000  0.38290000  0.69350000  1.0 0.1404898476
H  H190  1  0.88290000  0.14700000  0.19350000  1.0 0.1404898476
H  H191  1  0.11710000  0.85300000  0.19350000  1.0 0.1404898476
H  H192  1  0.85300000  0.88290000  0.80650000  1.0 0.1404898476
H  H193  1  0.16770000  0.06370000  0.90750000  1.0 0.1679685785
H  H194  1  0.56370000  0.33230000  0.40750000  1.0 0.1679685785
H  H195  1  0.43630000  0.66770000  0.40750000  1.0 0.1679685785
H  H196  1  0.66770000  0.56370000  0.59250000  1.0 0.1679685785
H  H197  1  0.33230000  0.43630000  0.59250000  1.0 0.1679685785
H  H198  1  0.93630000  0.16770000  0.09250000  1.0 0.1679685785
H  H199  1  0.06370000  0.83230000  0.09250000  1.0 0.1679685785
H  H200  1  0.83230000  0.93630000  0.90750000  1.0 0.1679685785
H  H201  1  0.18710000  0.09870000  0.97890000  1.0 0.1679685785
H  H202  1  0.59870000  0.31290000  0.47890000  1.0 0.1679685785
H  H203  1  0.40130000  0.68710000  0.47890000  1.0 0.1679685785
H  H204  1  0.68710000  0.59870000  0.52110000  1.0 0.1679685785
H  H205  1  0.31290000  0.40130000  0.52110000  1.0 0.1679685785
H  H206  1  0.90130000  0.18710000  0.02110000  1.0 0.1679685785
H  H207  1  0.09870000  0.81290000  0.02110000  1.0 0.1679685785
H  H208  1  0.81290000  0.90130000  0.97890000  1.0 0.1679685785
H  H209  1  0.07910000  0.28750000  0.15400000  1.0 0.1559681947
H  H210  1  0.78750000  0.42090000  0.65400000  1.0 0.1559681947
H  H211  1  0.21250000  0.57910000  0.65400000  1.0 0.1559681947
H  H212  1  0.57910000  0.78750000  0.34600000  1.0 0.1559681947
H  H213  1  0.42090000  0.21250000  0.34600000  1.0 0.1559681947
H  H214  1  0.71250000  0.07910000  0.84600000  1.0 0.1559681947
H  H215  1  0.28750000  0.92090000  0.84600000  1.0 0.1559681947
H  H216  1  0.92090000  0.71250000  0.15400000  1.0 0.1559681947
H  H217  1  0.05860000  0.23280000  0.10090000  1.0 0.1679685785
H  H218  1  0.73280000  0.44140000  0.60090000  1.0 0.1679685785
H  H219  1  0.26720000  0.55860000  0.60090000  1.0 0.1679685785
H  H220  1  0.55860000  0.73280000  0.39910000  1.0 0.1679685785
H  H221  1  0.44140000  0.26720000  0.39910000  1.0 0.1679685785
H  H222  1  0.76720000  0.05860000  0.89910000  1.0 0.1679685785
H  H223  1  0.23280000  0.94140000  0.89910000  1.0 0.1679685785
H  H224  1  0.94140000  0.76720000  0.10090000  1.0 0.1679685785
C  C1  1  0.26360000  0.15210000  0.89490000  1.0 -0.1529164707
C  C2  1  0.65210000  0.23640000  0.39490000  1.0 -0.1529164707
C  C3  1  0.34790000  0.76360000  0.39490000  1.0 -0.1529164707
C  C4  1  0.76360000  0.65210000  0.60510000  1.0 -0.1529164707
C  C5  1  0.23640000  0.34790000  0.60510000  1.0 -0.1529164707
C  C6  1  0.84790000  0.26360000  0.10510000  1.0 -0.1529164707
C  C7  1  0.15210000  0.73640000  0.10510000  1.0 -0.1529164707
C  C8  1  0.73640000  0.84790000  0.89490000  1.0 -0.1529164707
C  C9  1  0.29520000  0.21630000  0.87920000  1.0 -0.0305141212
C  C10  1  0.71630000  0.20480000  0.37920000  1.0 -0.0305141212
C  C11  1  0.28370000  0.79520000  0.37920000  1.0 -0.0305141212
C  C12  1  0.79520000  0.71630000  0.62080000  1.0 -0.0305141212
C  C13  1  0.20480000  0.28370000  0.62080000  1.0 -0.0305141212
C  C14  1  0.78370000  0.29520000  0.12080000  1.0 -0.0305141212
C  C15  1  0.21630000  0.70480000  0.12080000  1.0 -0.0305141212
C  C16  1  0.70480000  0.78370000  0.87920000  1.0 -0.0305141212
C  C17  1  0.29800000  0.32360000  0.92320000  1.0 -0.0670782553
C  C18  1  0.82360000  0.20200000  0.42320000  1.0 -0.0670782553
C  C19  1  0.17640000  0.79800000  0.42320000  1.0 -0.0670782553
C  C20  1  0.79800000  0.82360000  0.57680000  1.0 -0.0670782553
C  C21  1  0.20200000  0.17640000  0.57680000  1.0 -0.0670782553
C  C22  1  0.67640000  0.29800000  0.07680000  1.0 -0.0670782553
C  C23  1  0.32360000  0.70200000  0.07680000  1.0 -0.0670782553
C  C24  1  0.70200000  0.67640000  0.92320000  1.0 -0.0670782553
C  C25  1  0.26900000  0.36400000  0.97720000  1.0 -0.0502129618
C  C26  1  0.86400000  0.23100000  0.47720000  1.0 -0.0502129618
C  C27  1  0.13600000  0.76900000  0.47720000  1.0 -0.0502129618
C  C28  1  0.76900000  0.86400000  0.52280000  1.0 -0.0502129618
C  C29  1  0.23100000  0.13600000  0.52280000  1.0 -0.0502129618
C  C30  1  0.63600000  0.26900000  0.02280000  1.0 -0.0502129618
C  C31  1  0.36400000  0.73100000  0.02280000  1.0 -0.0502129618
C  C32  1  0.73100000  0.63600000  0.97720000  1.0 -0.0502129618
C  C33  1  0.16200000  0.40470000  0.01170000  1.0 -0.0435514386
C  C34  1  0.90470000  0.33800000  0.51170000  1.0 -0.0435514386
C  C35  1  0.09530000  0.66200000  0.51170000  1.0 -0.0435514386
C  C36  1  0.66200000  0.90470000  0.48830000  1.0 -0.0435514386
C  C37  1  0.33800000  0.09530000  0.48830000  1.0 -0.0435514386
C  C38  1  0.59530000  0.16200000  0.98830000  1.0 -0.0435514386
C  C39  1  0.40470000  0.83800000  0.98830000  1.0 -0.0435514386
C  C40  1  0.83800000  0.59530000  0.01170000  1.0 -0.0435514386
C  C41  1  0.13340000  0.36830000  0.07280000  1.0 -0.1697858611
C  C42  1  0.86830000  0.36660000  0.57280000  1.0 -0.1697858611
C  C43  1  0.13170000  0.63340000  0.57280000  1.0 -0.1697858611
C  C44  1  0.63340000  0.86830000  0.42720000  1.0 -0.1697858611
C  C45  1  0.36660000  0.13170000  0.42720000  1.0 -0.1697858611
C  C46  1  0.63170000  0.13340000  0.92720000  1.0 -0.1697858611
C  C47  1  0.36830000  0.86660000  0.92720000  1.0 -0.1697858611
C  C48  1  0.86660000  0.63170000  0.07280000  1.0 -0.1697858611
C  C49  1  0.03000000  0.32440000  0.02550000  1.0 -0.1439954044
C  C50  1  0.82440000  0.47000000  0.52550000  1.0 -0.1439954044
C  C51  1  0.17560000  0.53000000  0.52550000  1.0 -0.1439954044
C  C52  1  0.53000000  0.82440000  0.47450000  1.0 -0.1439954044
C  C53  1  0.47000000  0.17560000  0.47450000  1.0 -0.1439954044
C  C54  1  0.67560000  0.03000000  0.97450000  1.0 -0.1439954044
C  C55  1  0.32440000  0.97000000  0.97450000  1.0 -0.1439954044
C  C56  1  0.97000000  0.67560000  0.02550000  1.0 -0.1439954044
C  C57  1  0.02690000  0.35830000  0.95370000  1.0 -0.0239314338
C  C58  1  0.85830000  0.47310000  0.45370000  1.0 -0.0239314338
C  C59  1  0.14170000  0.52690000  0.45370000  1.0 -0.0239314338
C  C60  1  0.52690000  0.85830000  0.54630000  1.0 -0.0239314338
C  C61  1  0.47310000  0.14170000  0.54630000  1.0 -0.0239314338
C  C62  1  0.64170000  0.02690000  0.04630000  1.0 -0.0239314338
C  C63  1  0.35830000  0.97310000  0.04630000  1.0 -0.0239314338
C  C64  1  0.97310000  0.64170000  0.95370000  1.0 -0.0239314338
C  C65  1  0.06610000  0.34160000  0.83360000  1.0 -0.0502129618
C  C66  1  0.84160000  0.43390000  0.33360000  1.0 -0.0502129618
C  C67  1  0.15840000  0.56610000  0.33360000  1.0 -0.0502129618
C  C68  1  0.56610000  0.84160000  0.66640000  1.0 -0.0502129618
C  C69  1  0.43390000  0.15840000  0.66640000  1.0 -0.0502129618
C  C70  1  0.65840000  0.06610000  0.16640000  1.0 -0.0502129618
C  C71  1  0.34160000  0.93390000  0.16640000  1.0 -0.0502129618
C  C72  1  0.93390000  0.65840000  0.83360000  1.0 -0.0502129618
C  C73  1  0.12800000  0.32930000  0.79810000  1.0 -0.0900324734
C  C74  1  0.82930000  0.37200000  0.29810000  1.0 -0.0900324734
C  C75  1  0.17070000  0.62800000  0.29810000  1.0 -0.0900324734
C  C76  1  0.62800000  0.82930000  0.70190000  1.0 -0.0900324734
C  C77  1  0.37200000  0.17070000  0.70190000  1.0 -0.0900324734
C  C78  1  0.67070000  0.12800000  0.20190000  1.0 -0.0900324734
C  C79  1  0.32930000  0.87200000  0.20190000  1.0 -0.0900324734
C  C80  1  0.87200000  0.67070000  0.79810000  1.0 -0.0900324734
C  C81  1  0.12630000  0.21250000  0.79690000  1.0 -0.0435514386
C  C82  1  0.71250000  0.37370000  0.29690000  1.0 -0.0435514386
C  C83  1  0.28750000  0.62630000  0.29690000  1.0 -0.0435514386
C  C84  1  0.62630000  0.71250000  0.70310000  1.0 -0.0435514386
C  C85  1  0.37370000  0.28750000  0.70310000  1.0 -0.0435514386
C  C86  1  0.78750000  0.12630000  0.20310000  1.0 -0.0435514386
C  C87  1  0.21250000  0.87370000  0.20310000  1.0 -0.0435514386
C  C88  1  0.87370000  0.78750000  0.79690000  1.0 -0.0435514386
C  C89  1  0.16970000  0.15690000  0.81610000  1.0 -0.1589422954
C  C90  1  0.65690000  0.33030000  0.31610000  1.0 -0.1589422954
C  C91  1  0.34310000  0.66970000  0.31610000  1.0 -0.1589422954
C  C92  1  0.66970000  0.65690000  0.68390000  1.0 -0.1589422954
C  C93  1  0.33030000  0.34310000  0.68390000  1.0 -0.1589422954
C  C94  1  0.84310000  0.16970000  0.18390000  1.0 -0.1589422954
C  C95  1  0.15690000  0.83030000  0.18390000  1.0 -0.1589422954
C  C96  1  0.83030000  0.84310000  0.81610000  1.0 -0.1589422954
C  C97  1  0.16340000  0.10350000  0.93430000  1.0 -0.4531511852
C  C98  1  0.60350000  0.33660000  0.43430000  1.0 -0.4531511852
C  C99  1  0.39650000  0.66340000  0.43430000  1.0 -0.4531511852
C  C100  1  0.66340000  0.60350000  0.56570000  1.0 -0.4531511852
C  C101  1  0.33660000  0.39650000  0.56570000  1.0 -0.4531511852
C  C102  1  0.89650000  0.16340000  0.06570000  1.0 -0.4531511852
C  C103  1  0.10350000  0.83660000  0.06570000  1.0 -0.4531511852
C  C104  1  0.83660000  0.89650000  0.93430000  1.0 -0.4531511852
C  C105  1  0.09210000  0.26390000  0.11140000  1.0 -0.4641194717
C  C106  1  0.76390000  0.40790000  0.61140000  1.0 -0.4641194717
C  C107  1  0.23610000  0.59210000  0.61140000  1.0 -0.4641194717
C  C108  1  0.59210000  0.76390000  0.38860000  1.0 -0.4641194717
C  C109  1  0.40790000  0.23610000  0.38860000  1.0 -0.4641194717
C  C110  1  0.73610000  0.09210000  0.88860000  1.0 -0.4641194717
C  C111  1  0.26390000  0.90790000  0.88860000  1.0 -0.4641194717
C  C112  1  0.90790000  0.73610000  0.11140000  1.0 -0.4641194717
N  N1  1  0.19210000  0.15630000  0.89210000  1.0 -0.0502129618
N  N2  1  0.65630000  0.30790000  0.39210000  1.0 -0.0502129618
N  N3  1  0.34370000  0.69210000  0.39210000  1.0 -0.0502129618
N  N4  1  0.69210000  0.65630000  0.60790000  1.0 -0.0502129618
N  N5  1  0.30790000  0.34370000  0.60790000  1.0 -0.0502129618
N  N6  1  0.84370000  0.19210000  0.10790000  1.0 -0.0502129618
N  N7  1  0.15630000  0.80790000  0.10790000  1.0 -0.0502129618
N  N8  1  0.80790000  0.84370000  0.89210000  1.0 -0.0502129618
N  N9  1  0.09660000  0.30970000  0.05000000  1.0 -0.0502129618
N  N10  1  0.80970000  0.40340000  0.55000000  1.0 -0.0502129618
N  N11  1  0.19030000  0.59660000  0.55000000  1.0 -0.0502129618
N  N12  1  0.59660000  0.80970000  0.45000000  1.0 -0.0502129618
N  N13  1  0.40340000  0.19030000  0.45000000  1.0 -0.0502129618
N  N14  1  0.69030000  0.09660000  0.95000000  1.0 -0.0502129618
N  N15  1  0.30970000  0.90340000  0.95000000  1.0 -0.0502129618
N  N16  1  0.90340000  0.69030000  0.05000000  1.0 -0.0502129618
N  N17  1  0.22110000  0.49100000  0.17430000  1.0 0.6292052081
N  N18  1  0.50900000  0.22110000  0.82570000  1.0 0.6292052081
N  N19  1  0.49100000  0.77890000  0.82570000  1.0 0.6292052081
N  N20  1  0.72110000  0.99100000  0.32570000  1.0 0.6292052081
N  N21  1  0.27890000  0.00900000  0.32570000  1.0 0.6292052081
N  N22  1  0.99100000  0.27890000  0.67430000  1.0 0.6292052081
N  N23  1  0.00900000  0.72110000  0.67430000  1.0 0.6292052081
N  N24  1  0.77890000  0.50900000  0.17430000  1.0 0.6292052081
O  O1  1  0.27280000  0.26000000  0.92950000  1.0 -0.1697858611
O  O2  1  0.76000000  0.22720000  0.42950000  1.0 -0.1697858611
O  O3  1  0.24000000  0.77280000  0.42950000  1.0 -0.1697858611
O  O4  1  0.77280000  0.76000000  0.57050000  1.0 -0.1697858611
O  O5  1  0.22720000  0.24000000  0.57050000  1.0 -0.1697858611
O  O6  1  0.74000000  0.27280000  0.07050000  1.0 -0.1697858611
O  O7  1  0.26000000  0.72720000  0.07050000  1.0 -0.1697858611
O  O8  1  0.72720000  0.74000000  0.92950000  1.0 -0.1697858611
O  O9  1  0.20100000  0.36160000  0.96700000  1.0 -0.2127984428
O  O10  1  0.86160000  0.29900000  0.46700000  1.0 -0.2127984428
O  O11  1  0.13840000  0.70100000  0.46700000  1.0 -0.2127984428
O  O12  1  0.70100000  0.86160000  0.53300000  1.0 -0.2127984428
O  O13  1  0.29900000  0.13840000  0.53300000  1.0 -0.2127984428
O  O14  1  0.63840000  0.20100000  0.03300000  1.0 -0.2127984428
O  O15  1  0.36160000  0.79900000  0.03300000  1.0 -0.2127984428
O  O16  1  0.79900000  0.63840000  0.96700000  1.0 -0.2127984428
O  O17  1  0.07200000  0.32700000  0.90750000  1.0 -0.1787175277
O  O18  1  0.82700000  0.42800000  0.40750000  1.0 -0.1787175277
O  O19  1  0.17300000  0.57200000  0.40750000  1.0 -0.1787175277
O  O20  1  0.57200000  0.82700000  0.59250000  1.0 -0.1787175277
O  O21  1  0.42800000  0.17300000  0.59250000  1.0 -0.1787175277
O  O22  1  0.67300000  0.07200000  0.09250000  1.0 -0.1787175277
O  O23  1  0.32700000  0.92800000  0.09250000  1.0 -0.1787175277
O  O24  1  0.92800000  0.67300000  0.90750000  1.0 -0.1787175277
O  O25  1  0.15760000  0.26970000  0.82050000  1.0 -0.2425435783
O  O26  1  0.76970000  0.34240000  0.32050000  1.0 -0.2425435783
O  O27  1  0.23030000  0.65760000  0.32050000  1.0 -0.2425435783
O  O28  1  0.65760000  0.76970000  0.67950000  1.0 -0.2425435783
O  O29  1  0.34240000  0.23030000  0.67950000  1.0 -0.2425435783
O  O30  1  0.73030000  0.15760000  0.17950000  1.0 -0.2425435783
O  O31  1  0.26970000  0.84240000  0.17950000  1.0 -0.2425435783
O  O32  1  0.84240000  0.73030000  0.82050000  1.0 -0.2425435783
O  O33  1  0.06800000  0.18820000  0.95700000  1.0 -0.6874771902
O  O34  1  0.68820000  0.43200000  0.45700000  1.0 -0.6874771902
O  O35  1  0.31180000  0.56800000  0.45700000  1.0 -0.6874771902
O  O36  1  0.56800000  0.68820000  0.54300000  1.0 -0.6874771902
O  O37  1  0.43200000  0.31180000  0.54300000  1.0 -0.6874771902
O  O38  1  0.81180000  0.06800000  0.04300000  1.0 -0.6874771902
O  O39  1  0.18820000  0.93200000  0.04300000  1.0 -0.6874771902
O  O40  1  0.93200000  0.81180000  0.95700000  1.0 -0.6874771902
O  O41  1  0.06590000  0.08360000  0.02810000  1.0 -0.758946974
O  O42  1  0.58360000  0.43410000  0.52810000  1.0 -0.758946974
O  O43  1  0.41640000  0.56590000  0.52810000  1.0 -0.758946974
O  O44  1  0.56590000  0.58360000  0.47190000  1.0 -0.758946974
O  O45  1  0.43410000  0.41640000  0.47190000  1.0 -0.758946974
O  O46  1  0.91640000  0.06590000  0.97190000  1.0 -0.758946974
O  O47  1  0.08360000  0.93410000  0.97190000  1.0 -0.758946974
O  O48  1  0.93410000  0.91640000  0.02810000  1.0 -0.758946974
O  O49  1  0.03790000  0.08260000  0.89800000  1.0 -0.6754698345
O  O50  1  0.58260000  0.46210000  0.39800000  1.0 -0.6754698345
O  O51  1  0.41740000  0.53790000  0.39800000  1.0 -0.6754698345
O  O52  1  0.53790000  0.58260000  0.60200000  1.0 -0.6754698345
O  O53  1  0.46210000  0.41740000  0.60200000  1.0 -0.6754698345
O  O54  1  0.91740000  0.03790000  0.10200000  1.0 -0.6754698345
O  O55  1  0.08260000  0.96210000  0.10200000  1.0 -0.6754698345
O  O56  1  0.96210000  0.91740000  0.89800000  1.0 -0.6754698345
O  O57  1  0.14450000  0.16070000  0.17080000  1.0 -0.6455631529
O  O58  1  0.66070000  0.35550000  0.67080000  1.0 -0.6455631529
O  O59  1  0.33930000  0.64450000  0.67080000  1.0 -0.6455631529
O  O60  1  0.64450000  0.66070000  0.32920000  1.0 -0.6455631529
O  O61  1  0.35550000  0.33930000  0.32920000  1.0 -0.6455631529
O  O62  1  0.83930000  0.14450000  0.82920000  1.0 -0.6444338152
O  O63  1  0.16070000  0.85550000  0.82920000  1.0 -0.6455631529
O  O64  1  0.85550000  0.83930000  0.17080000  1.0 -0.6455631529
O  O65  1  0.19750000  0.20840000  0.05930000  1.0 -0.7170910129
O  O66  1  0.70840000  0.30250000  0.55930000  1.0 -0.7170910129
O  O67  1  0.29160000  0.69750000  0.55930000  1.0 -0.7170910129
O  O68  1  0.69750000  0.70840000  0.44070000  1.0 -0.7170910129
O  O69  1  0.30250000  0.29160000  0.44070000  1.0 -0.7170910129
O  O70  1  0.79160000  0.19750000  0.94070000  1.0 -0.7170910129
O  O71  1  0.20840000  0.80250000  0.94070000  1.0 -0.7170910129
O  O72  1  0.80250000  0.79160000  0.05930000  1.0 -0.7170910129
O  O73  1  0.20760000  0.26200000  0.18020000  1.0 -0.7135716864
O  O74  1  0.76200000  0.29240000  0.68020000  1.0 -0.7135716864
O  O75  1  0.23800000  0.70760000  0.68020000  1.0 -0.7135716864
O  O76  1  0.70760000  0.76200000  0.31980000  1.0 -0.7135716864
O  O77  1  0.29240000  0.23800000  0.31980000  1.0 -0.7135716864
O  O78  1  0.73800000  0.20760000  0.81980000  1.0 -0.7135716864
O  O79  1  0.26200000  0.79240000  0.81980000  1.0 -0.7135716864
O  O80  1  0.79240000  0.73800000  0.18020000  1.0 -0.7135716864
O  O81  1  0.13430000  0.02130000  0.24990000  1.0 -0.3798239531
O  O82  1  0.52130000  0.36570000  0.74990000  1.0 -0.3798239531
O  O83  1  0.47870000  0.63430000  0.74990000  1.0 -0.3798239531
O  O84  1  0.63430000  0.52130000  0.25010000  1.0 -0.3798239531
O  O85  1  0.36570000  0.47870000  0.25010000  1.0 -0.3798239531
O  O86  1  0.97870000  0.13430000  0.75010000  1.0 -0.3798239531
O  O87  1  0.02130000  0.86570000  0.75010000  1.0 -0.3798239531
O  O88  1  0.86570000  0.97870000  0.24990000  1.0 -0.3798239531
O  O89  1  0.21590000  0.04220000  0.10710000  1.0 -0.5928279498
O  O90  1  0.54220000  0.28410000  0.60710000  1.0 -0.5928279498
O  O91  1  0.45780000  0.71590000  0.60710000  1.0 -0.5928279498
O  O92  1  0.71590000  0.54220000  0.39290000  1.0 -0.5928279498
O  O93  1  0.28410000  0.45780000  0.39290000  1.0 -0.5928279498
O  O94  1  0.95780000  0.21590000  0.89290000  1.0 -0.5928279498
O  O95  1  0.04220000  0.78410000  0.89290000  1.0 -0.5928279498
O  O96  1  0.78410000  0.95780000  0.10710000  1.0 -0.5928279498
O  O97  1  0.01230000  0.08180000  0.18740000  1.0 -0.4888272324
O  O98  1  0.58180000  0.48770000  0.68740000  1.0 -0.4888272324
O  O99  1  0.41820000  0.51230000  0.68740000  1.0 -0.4888272324
O  O100  1  0.51230000  0.58180000  0.31260000  1.0 -0.4888272324
O  O101  1  0.48770000  0.41820000  0.31260000  1.0 -0.4888272324
O  O102  1  0.91820000  0.01230000  0.81260000  1.0 -0.4888272324
O  O103  1  0.08180000  0.98770000  0.81260000  1.0 -0.4888272324
O  O104  1  0.98770000  0.91820000  0.18740000  1.0 -0.4888272324
O  O105  1  0.16590000  0.16990000  0.31590000  1.0 -0.4059790337
O  O106  1  0.66990000  0.33410000  0.81590000  1.0 -0.4059790337
O  O107  1  0.33010000  0.66590000  0.81590000  1.0 -0.4059790337
O  O108  1  0.66590000  0.66990000  0.18410000  1.0 -0.4059790337
O  O109  1  0.33410000  0.33010000  0.18410000  1.0 -0.4059790337
O  O110  1  0.83010000  0.16590000  0.68410000  1.0 -0.4059790337
O  O111  1  0.16990000  0.83410000  0.68410000  1.0 -0.4059790337
O  O112  1  0.83410000  0.83010000  0.31590000  1.0 -0.4059790337
O  O113  1  0.17770000  0.28200000  0.42530000  1.0 -0.3704634366
O  O114  1  0.78200000  0.32230000  0.92530000  1.0 -0.3704634366
O  O115  1  0.21800000  0.67770000  0.92530000  1.0 -0.3704634366
O  O116  1  0.67770000  0.78200000  0.07470000  1.0 -0.3704634366
O  O117  1  0.32230000  0.21800000  0.07470000  1.0 -0.3704634366
O  O118  1  0.71800000  0.17770000  0.57470000  1.0 -0.3704634366
O  O119  1  0.28200000  0.82230000  0.57470000  1.0 -0.3704634366
O  O120  1  0.82230000  0.71800000  0.42530000  1.0 -0.3704634366
O  O121  1  0.15960000  0.36210000  0.26640000  1.0 0.023191612
O  O122  1  0.86210000  0.34040000  0.76640000  1.0 0.023191612
O  O123  1  0.13790000  0.65960000  0.76640000  1.0 0.023191612
O  O124  1  0.65960000  0.86210000  0.23360000  1.0 0.023191612
O  O125  1  0.34040000  0.13790000  0.23360000  1.0 0.023191612
O  O126  1  0.63790000  0.15960000  0.73360000  1.0 0.023191612
O  O127  1  0.36210000  0.84040000  0.73360000  1.0 0.023191612
O  O128  1  0.84040000  0.63790000  0.26640000  1.0 0.023191612
O  O129  1  0.06630000  0.27900000  0.30570000  1.0 -0.5103178212
O  O130  1  0.77900000  0.43370000  0.80570000  1.0 -0.5103178212
O  O131  1  0.22100000  0.56630000  0.80570000  1.0 -0.5103178212
O  O132  1  0.56630000  0.77900000  0.19430000  1.0 -0.5103178212
O  O133  1  0.43370000  0.22100000  0.19430000  1.0 -0.5103178212
O  O134  1  0.72100000  0.06630000  0.69430000  1.0 -0.5103178212
O  O135  1  0.27900000  0.93370000  0.69430000  1.0 -0.5103178212
O  O136  1  0.93370000  0.72100000  0.30570000  1.0 -0.5103178212
O  O137  1  0.19870000  0.36350000  0.40990000  1.0 0.5488094351
O  O138  1  0.86350000  0.30130000  0.90990000  1.0 0.5488094351
O  O139  1  0.13650000  0.69870000  0.90990000  1.0 0.5488094351
O  O140  1  0.69870000  0.86350000  0.09010000  1.0 0.5488094351
O  O141  1  0.30130000  0.13650000  0.09010000  1.0 0.5488094351
O  O142  1  0.63650000  0.19870000  0.59010000  1.0 0.5488094351
O  O143  1  0.36350000  0.80130000  0.59010000  1.0 0.5488094351
O  O144  1  0.80130000  0.63650000  0.40990000  1.0 0.5488094351
O  O145  1  0.20410000  0.38040000  0.29650000  1.0 -0.1320046896
O  O146  1  0.88040000  0.29590000  0.79650000  1.0 -0.1320046896
O  O147  1  0.11960000  0.70410000  0.79650000  1.0 -0.1320046896
O  O148  1  0.70410000  0.88040000  0.20350000  1.0 -0.1320046896
O  O149  1  0.29590000  0.11960000  0.20350000  1.0 -0.1320046896
O  O150  1  0.61960000  0.20410000  0.70350000  1.0 -0.1320046896
O  O151  1  0.38040000  0.79590000  0.70350000  1.0 -0.1320046896
O  O152  1  0.79590000  0.61960000  0.29650000  1.0 -0.1320046896
O  O153  1  0.23650000  0.53120000  0.13100000  1.0 -0.3704634366
O  O154  1  0.16220000  0.48610000  0.18950000  1.0 -0.3881905565
O  O155  1  0.25320000  0.44670000  0.18500000  1.0 -0.2127984428
O  O156  1  0.46880000  0.23650000  0.86900000  1.0 -0.3704634366
O  O157  1  0.51390000  0.16220000  0.81050000  1.0 -0.3881905565
O  O158  1  0.55330000  0.25320000  0.81500000  1.0 -0.2127984428
O  O159  1  0.53120000  0.76350000  0.86900000  1.0 -0.3704634366
O  O160  1  0.48610000  0.83780000  0.81050000  1.0 -0.3881905565
O  O161  1  0.44670000  0.74680000  0.81500000  1.0 -0.2127984428
O  O162  1  0.73650000  0.03120000  0.36900000  1.0 -0.3704634366
O  O163  1  0.66220000  0.98610000  0.31050000  1.0 -0.3881905565
O  O164  1  0.75320000  0.94670000  0.31500000  1.0 -0.2127984428
O  O165  1  0.26350000  0.96880000  0.36900000  1.0 -0.3704634366
O  O166  1  0.33780000  0.01390000  0.31050000  1.0 -0.3881905565
O  O167  1  0.24680000  0.05330000  0.31500000  1.0 -0.2127984428
O  O168  1  0.03120000  0.26350000  0.63100000  1.0 -0.3704634366
O  O169  1  0.98610000  0.33780000  0.68950000  1.0 -0.3881905565
O  O170  1  0.94670000  0.24680000  0.68500000  1.0 -0.2127984428
O  O171  1  0.96880000  0.73650000  0.63100000  1.0 -0.3704634366
O  O172  1  0.01390000  0.66220000  0.68950000  1.0 -0.3881905565
O  O173  1  0.05330000  0.75320000  0.68500000  1.0 -0.2127984428
O  O174  1  0.76350000  0.46880000  0.13100000  1.0 -0.3704634366
O  O175  1  0.83780000  0.51390000  0.18950000  1.0 -0.3881905565
O  O176  1  0.74680000  0.55330000  0.18500000  1.0 -0.2127984428
