# DDEC6 charges by PACMAN v1.1 (https://github.com/mtap-research/PACMAN-charge/)
data_WUCJUC_FSR_pacman
_symmetry_space_group_name_H-M   'P 1'
_cell_length_a   17.21200000
_cell_length_b   22.81200000
_cell_length_c   32.76100000
_cell_angle_alpha   92.65000000
_cell_angle_beta   90.42000000
_cell_angle_gamma   102.29000000
_symmetry_Int_Tables_number   1
_chemical_formula_structural   Zn12H87C122N11O70
_chemical_formula_sum   'Zn24 H174 C244 N22 O140'
_cell_volume   12553.10861106
_cell_formula_units_Z   2
loop_
 _symmetry_equiv_pos_site_id
 _symmetry_equiv_pos_as_xyz
  1  'x, y, z'
loop_
 _atom_site_type_symbol
 _atom_site_label
 _atom_site_symmetry_multiplicity
 _atom_site_fract_x
 _atom_site_fract_y
 _atom_site_fract_z
 _atom_site_occupancy
 _atom_site_charge
Zn  Zn1  1  0.73603000  0.81678000  0.67119000  1.0 1.0305758957
Zn  Zn2  1  0.55728000  0.79943000  0.62729000  1.0 0.9379969481
Zn  Zn3  1  0.59689000  0.68394000  0.67580000  1.0 0.9961909298
Zn  Zn4  1  0.68359000  0.57325000  0.69477000  1.0 0.9798256699
Zn  Zn5  1  0.73465000  0.46847000  0.74156000  1.0 0.9215674046
Zn  Zn6  1  0.55382000  0.44794000  0.74366000  1.0 0.9925788684
Zn  Zn7  1  0.38928000  0.49196000  0.77269000  1.0 0.9925788684
Zn  Zn8  1  0.20572000  0.46555000  0.75734000  1.0 0.9215674046
Zn  Zn9  1  0.24908000  0.36028000  0.80602000  1.0 0.9798256699
Zn  Zn10  1  0.33938000  0.25466000  0.83025000  1.0 0.9925788684
Zn  Zn11  1  0.37623000  0.13653000  0.87220000  1.0 0.9379969481
Zn  Zn12  1  0.21391000  0.11812000  0.81253000  1.0 1.044228578
Zn  Zn13  1  0.26397000  0.18322000  0.32881000  1.0 1.0305758957
Zn  Zn14  1  0.44272000  0.20057000  0.37271000  1.0 0.9379969481
Zn  Zn15  1  0.40311000  0.31606000  0.32420000  1.0 0.9961909298
Zn  Zn16  1  0.31641000  0.42675000  0.30523000  1.0 0.9798256699
Zn  Zn17  1  0.26535000  0.53153000  0.25844000  1.0 0.9215674046
Zn  Zn18  1  0.44618000  0.55206000  0.25634000  1.0 0.9925788684
Zn  Zn19  1  0.61072000  0.50804000  0.22731000  1.0 0.9925788684
Zn  Zn20  1  0.79428000  0.53445000  0.24266000  1.0 0.9215674046
Zn  Zn21  1  0.75092000  0.63972000  0.19398000  1.0 0.9798256699
Zn  Zn22  1  0.66062000  0.74534000  0.16975000  1.0 0.9925788684
Zn  Zn23  1  0.62377000  0.86347000  0.12780000  1.0 0.9379969481
Zn  Zn24  1  0.78609000  0.88188000  0.18747000  1.0 1.044228578
H  H1  1  0.06837000  0.04967000  0.77690000  1.0 0.3985492122
H  H2  1  0.13021000  0.03324000  0.75381000  1.0 0.4076333958
H  H3  1  0.46927000  0.49980000  0.83962000  1.0 0.3704303708
H  H4  1  0.40110000  0.52337000  0.84836000  1.0 0.3704303708
H  H5  1  0.50744000  0.41730000  0.66995000  1.0 0.3508697593
H  H6  1  0.43916000  0.42259000  0.69148000  1.0 0.3704303708
H  H7  1  0.09742000  0.05835000  0.85779000  1.0 0.2934840862
H  H8  1  0.12050000  0.10940000  0.87906000  1.0 0.3291658852
H  H9  1  0.84399000  0.84630000  0.61343000  1.0 0.3985492122
H  H10  1  0.78118000  0.87691000  0.60452000  1.0 0.3985492122
H  H11  1  0.86228000  0.88037000  0.72051000  1.0 0.4159564022
H  H12  1  0.87184000  0.90904000  0.68095000  1.0 0.3985492122
H  H13  1  0.47218000  0.60022000  0.72782000  1.0 0.1030530277
H  H14  1  0.46897000  0.34417000  0.79027000  1.0 0.1287414256
H  H15  1  0.52544000  0.97711000  0.64687000  1.0 0.1383451028
H  H16  1  0.52887000  0.07877000  0.66249000  1.0 0.1202807559
H  H17  1  0.74044000  0.99405000  0.70281000  1.0 0.1287414256
H  H18  1  0.11062000  0.25029000  0.79505000  1.0 0.0892889164
H  H19  1  0.67358000  0.64000000  0.78192000  1.0 0.1108199724
H  H20  1  0.13234000  0.32090000  0.63956000  1.0 0.1202807559
H  H21  1  0.10967000  0.29638000  0.68386000  1.0 0.1383451028
H  H22  1  0.13976000  0.36692000  0.67848000  1.0 0.1383451028
H  H23  1  0.48605000  0.79232000  0.49786000  1.0 0.1464085076
H  H24  1  0.72337000  0.81208000  0.42589000  1.0 0.1202807559
H  H25  1  0.72350000  0.80023000  0.49646000  1.0 0.1202807559
H  H26  1  0.82208000  0.67645000  0.69263000  1.0 0.1108199724
H  H27  1  0.34674000  0.60078000  0.66628000  1.0 0.1202807559
H  H28  1  0.21074000  0.56726000  0.67748000  1.0 0.1202807559
H  H29  1  0.31838000  0.77281000  0.66966000  1.0 0.1383451028
H  H30  1  0.87302000  0.63913000  0.84332000  1.0 0.1383451028
H  H31  1  0.83642000  0.57797000  0.81765000  1.0 0.1383451028
H  H32  1  0.88001000  0.63598000  0.79462000  1.0 0.1464085076
H  H33  1  0.55355000  0.62867000  0.54903000  1.0 0.1383451028
H  H34  1  0.70443000  0.49156000  0.50277000  1.0 0.1202807559
H  H35  1  0.69069000  0.50984000  0.57294000  1.0 0.1287414256
H  H36  1  0.97794000  0.52889000  0.73760000  1.0 0.1202807559
H  H37  1  0.11229000  0.57406000  0.73065000  1.0 0.1202807559
H  H38  1  0.05480000  0.66820000  0.63722000  1.0 0.1202807559
H  H39  1  0.92045000  0.62303000  0.64417000  1.0 0.1202807559
H  H40  1  0.54558000  0.72680000  0.80221000  1.0 0.1108199724
H  H41  1  0.55030000  0.74925000  0.87272000  1.0 0.1030530277
H  H42  1  0.75600000  0.87182000  0.86034000  1.0 0.1202807559
H  H43  1  0.75128000  0.84937000  0.78983000  1.0 0.1108199724
H  H44  1  0.79881000  0.54862000  0.37640000  1.0 0.1202807559
H  H45  1  0.77274000  0.55455000  0.44570000  1.0 0.1202807559
H  H46  1  0.53789000  0.51507000  0.41862000  1.0 0.1202807559
H  H47  1  0.56434000  0.50404000  0.35241000  1.0 0.1202807559
H  H48  1  0.53535000  0.25148000  0.74712000  1.0 0.1202807559
H  H49  1  0.53062000  0.14997000  0.73024000  1.0 0.1287414256
H  H50  1  0.75273000  0.29578000  0.69633000  1.0 0.1383451028
H  H51  1  0.80497000  0.68858000  0.86494000  1.0 0.1383451028
H  H52  1  0.76185000  0.72194000  0.83253000  1.0 0.1287414256
H  H53  1  0.71059000  0.66971000  0.85819000  1.0 0.1287414256
H  H54  1  0.42157000  0.45386000  0.14233000  1.0 0.1108199724
H  H55  1  0.41195000  0.41302000  0.07517000  1.0 0.1108199724
H  H56  1  0.21696000  0.51116000  0.12517000  1.0 0.1383451028
H  H57  1  0.17506000  0.64229000  0.79508000  1.0 0.1383451028
H  H58  1  0.41530000  0.77742000  0.79029000  1.0 0.1202807559
H  H59  1  0.40800000  0.68084000  0.77330000  1.0 0.1287414256
H  H60  1  0.95280000  0.41558000  0.76351000  1.0 0.1287414256
H  H61  1  0.81806000  0.37486000  0.77370000  1.0 0.1202807559
H  H62  1  0.87834000  0.25839000  0.85170000  1.0 0.1108199724
H  H63  1  0.01308000  0.29911000  0.84151000  1.0 0.1202807559
H  H64  1  0.22406000  0.29707000  0.61593000  1.0 0.1383451028
H  H65  1  0.31206000  0.31872000  0.63483000  1.0 0.1383451028
H  H66  1  0.26042000  0.25383000  0.64420000  1.0 0.1287414256
H  H67  1  0.72140000  0.89958000  0.30939000  1.0 0.1108199724
H  H68  1  0.69006000  0.89680000  0.37875000  1.0 0.1202807559
H  H69  1  0.53859000  0.73589000  0.35718000  1.0 0.1202807559
H  H70  1  0.56993000  0.73868000  0.28781000  1.0 0.1108199724
H  H71  1  0.61526000  0.16687000  0.83216000  1.0 0.1383451028
H  H72  1  0.72277000  0.37325000  0.83068000  1.0 0.1287414256
H  H73  1  0.58795000  0.33891000  0.84444000  1.0 0.1202807559
H  H74  1  0.31984000  0.29333000  0.96145000  1.0 0.1202807559
H  H75  1  0.32709000  0.33210000  0.02909000  1.0 0.1108199724
H  H76  1  0.27112000  0.44821000  0.92303000  1.0 0.1287414256
H  H77  1  0.55505000  0.84433000  0.99984000  1.0 0.1383451028
H  H78  1  0.77221000  0.81342000  0.92300000  1.0 0.1202807559
H  H79  1  0.78075000  0.81878000  0.99444000  1.0 0.1287414256
H  H80  1  0.21554000  0.94502000  0.78625000  1.0 0.1287414256
H  H81  1  0.20649000  0.84161000  0.77577000  1.0 0.1287414256
H  H82  1  0.40173000  0.95489000  0.86460000  1.0 0.1287414256
H  H83  1  0.30356000  0.31670000  0.71924000  1.0 0.1202807559
H  H84  1  0.26816000  0.18236000  0.88031000  1.0 0.3792114997
H  H85  1  0.65742000  0.74396000  0.61562000  1.0 0.3792114997
H  H86  1  0.64126000  0.46835000  0.68403000  1.0 0.3792114997
H  H87  1  0.27966000  0.46945000  0.81816000  1.0 0.3704303708
H  H88  1  0.93163000  0.95033000  0.22310000  1.0 0.3985492122
H  H89  1  0.86979000  0.96676000  0.24619000  1.0 0.4076333958
H  H90  1  0.53073000  0.50020000  0.16038000  1.0 0.3704303708
H  H91  1  0.59890000  0.47663000  0.15164000  1.0 0.3704303708
H  H92  1  0.49256000  0.58270000  0.33005000  1.0 0.3508697593
H  H93  1  0.56084000  0.57741000  0.30852000  1.0 0.3704303708
H  H94  1  0.90258000  0.94165000  0.14221000  1.0 0.2934840862
H  H95  1  0.87950000  0.89060000  0.12094000  1.0 0.3291658852
H  H96  1  0.15601000  0.15370000  0.38657000  1.0 0.3985492122
H  H97  1  0.21882000  0.12309000  0.39548000  1.0 0.3985492122
H  H98  1  0.13772000  0.11963000  0.27949000  1.0 0.4159564022
H  H99  1  0.12816000  0.09096000  0.31905000  1.0 0.3985492122
H  H100  1  0.52782000  0.39978000  0.27218000  1.0 0.1030530277
H  H101  1  0.53103000  0.65583000  0.20973000  1.0 0.1287414256
H  H102  1  0.47456000  0.02289000  0.35313000  1.0 0.1383451028
H  H103  1  0.47113000  0.92123000  0.33751000  1.0 0.1202807559
H  H104  1  0.25956000  0.00595000  0.29719000  1.0 0.1287414256
H  H105  1  0.88938000  0.74971000  0.20495000  1.0 0.0892889164
H  H106  1  0.32642000  0.36000000  0.21808000  1.0 0.1108199724
H  H107  1  0.86766000  0.67910000  0.36044000  1.0 0.1202807559
H  H108  1  0.89033000  0.70362000  0.31614000  1.0 0.1383451028
H  H109  1  0.86024000  0.63308000  0.32152000  1.0 0.1383451028
H  H110  1  0.51395000  0.20768000  0.50214000  1.0 0.1464085076
H  H111  1  0.27663000  0.18792000  0.57411000  1.0 0.1202807559
H  H112  1  0.27650000  0.19977000  0.50354000  1.0 0.1202807559
H  H113  1  0.17792000  0.32355000  0.30737000  1.0 0.1108199724
H  H114  1  0.65326000  0.39922000  0.33372000  1.0 0.1108199724
H  H115  1  0.78926000  0.43274000  0.32252000  1.0 0.1202807559
H  H116  1  0.68162000  0.22719000  0.33034000  1.0 0.1383451028
H  H117  1  0.12698000  0.36087000  0.15668000  1.0 0.1383451028
H  H118  1  0.16358000  0.42203000  0.18235000  1.0 0.1383451028
H  H119  1  0.11999000  0.36402000  0.20538000  1.0 0.1464085076
H  H120  1  0.44645000  0.37133000  0.45097000  1.0 0.1383451028
H  H121  1  0.29557000  0.50844000  0.49723000  1.0 0.1202807559
H  H122  1  0.30931000  0.49016000  0.42706000  1.0 0.1287414256
H  H123  1  0.02206000  0.47111000  0.26240000  1.0 0.1202807559
H  H124  1  0.88771000  0.42594000  0.26935000  1.0 0.1202807559
H  H125  1  0.94520000  0.33180000  0.36278000  1.0 0.1202807559
H  H126  1  0.07955000  0.37697000  0.35583000  1.0 0.1202807559
H  H127  1  0.45442000  0.27320000  0.19779000  1.0 0.1108199724
H  H128  1  0.44970000  0.25075000  0.12728000  1.0 0.1030530277
H  H129  1  0.24400000  0.12818000  0.13966000  1.0 0.1202807559
H  H130  1  0.24872000  0.15063000  0.21017000  1.0 0.1108199724
H  H131  1  0.20119000  0.45138000  0.62360000  1.0 0.1202807559
H  H132  1  0.22726000  0.44545000  0.55430000  1.0 0.1202807559
H  H133  1  0.46211000  0.48493000  0.58138000  1.0 0.1202807559
H  H134  1  0.43566000  0.49596000  0.64759000  1.0 0.1202807559
H  H135  1  0.46465000  0.74852000  0.25288000  1.0 0.1202807559
H  H136  1  0.46938000  0.85003000  0.26976000  1.0 0.1287414256
H  H137  1  0.24727000  0.70422000  0.30367000  1.0 0.1383451028
H  H138  1  0.19503000  0.31142000  0.13506000  1.0 0.1383451028
H  H139  1  0.23815000  0.27806000  0.16747000  1.0 0.1287414256
H  H140  1  0.28941000  0.33029000  0.14181000  1.0 0.1287414256
H  H141  1  0.57843000  0.54614000  0.85767000  1.0 0.1108199724
H  H142  1  0.58805000  0.58698000  0.92483000  1.0 0.1108199724
H  H143  1  0.78304000  0.48884000  0.87483000  1.0 0.1383451028
H  H144  1  0.82494000  0.35771000  0.20492000  1.0 0.1383451028
H  H145  1  0.58470000  0.22258000  0.20971000  1.0 0.1202807559
H  H146  1  0.59200000  0.31916000  0.22670000  1.0 0.1287414256
H  H147  1  0.04720000  0.58442000  0.23649000  1.0 0.1287414256
H  H148  1  0.18194000  0.62514000  0.22630000  1.0 0.1202807559
H  H149  1  0.12166000  0.74161000  0.14830000  1.0 0.1108199724
H  H150  1  0.98692000  0.70089000  0.15849000  1.0 0.1202807559
H  H151  1  0.77594000  0.70293000  0.38407000  1.0 0.1383451028
H  H152  1  0.68794000  0.68128000  0.36517000  1.0 0.1383451028
H  H153  1  0.73958000  0.74617000  0.35580000  1.0 0.1287414256
H  H154  1  0.27860000  0.10042000  0.69061000  1.0 0.1108199724
H  H155  1  0.30994000  0.10320000  0.62125000  1.0 0.1202807559
H  H156  1  0.46141000  0.26411000  0.64282000  1.0 0.1202807559
H  H157  1  0.43007000  0.26132000  0.71219000  1.0 0.1108199724
H  H158  1  0.38474000  0.83313000  0.16784000  1.0 0.1383451028
H  H159  1  0.27723000  0.62675000  0.16932000  1.0 0.1287414256
H  H160  1  0.41205000  0.66109000  0.15556000  1.0 0.1202807559
H  H161  1  0.68016000  0.70667000  0.03855000  1.0 0.1202807559
H  H162  1  0.67291000  0.66790000  0.97091000  1.0 0.1108199724
H  H163  1  0.72888000  0.55179000  0.07697000  1.0 0.1287414256
H  H164  1  0.44495000  0.15567000  0.00016000  1.0 0.1383451028
H  H165  1  0.22779000  0.18658000  0.07700000  1.0 0.1202807559
H  H166  1  0.21925000  0.18122000  0.00556000  1.0 0.1287414256
H  H167  1  0.78446000  0.05498000  0.21375000  1.0 0.1287414256
H  H168  1  0.79351000  0.15839000  0.22423000  1.0 0.1287414256
H  H169  1  0.59827000  0.04511000  0.13540000  1.0 0.1287414256
H  H170  1  0.69644000  0.68330000  0.28076000  1.0 0.1202807559
H  H171  1  0.73184000  0.81764000  0.11969000  1.0 0.3792114997
H  H172  1  0.34258000  0.25604000  0.38438000  1.0 0.3792114997
H  H173  1  0.35874000  0.53165000  0.31597000  1.0 0.3792114997
H  H174  1  0.72034000  0.53055000  0.18184000  1.0 0.3704303708
C  C1  1  0.63050000  0.91180000  0.66110000  1.0 0.5808020118
C  C2  1  0.51270000  0.57770000  0.72740000  1.0 0.5184133195
C  C3  1  0.42800000  0.36620000  0.78960000  1.0 0.5099649274
C  C4  1  0.63260000  0.97600000  0.67340000  1.0 -0.0208908646
C  C5  1  0.56980000  0.00120000  0.66140000  1.0 -0.0923524623
C  C6  1  0.57180000  0.06160000  0.67070000  1.0 -0.1104257349
C  C7  1  0.63670000  0.09680000  0.69190000  1.0 0.0378512863
C  C8  1  0.69950000  0.07160000  0.70390000  1.0 -0.0208908646
C  C9  1  0.69750000  0.01120000  0.69460000  1.0 -0.1311675076
C  C10  1  0.15370000  0.23270000  0.80230000  1.0 0.4994600433
C  C11  1  0.72070000  0.62460000  0.78230000  1.0 0.2775829676
C  C12  1  0.14560000  0.32680000  0.66880000  1.0 -0.3043432292
C  C13  1  0.60740000  0.78760000  0.54880000  1.0 0.5713622812
C  C14  1  0.60480000  0.79520000  0.50380000  1.0 -0.0291735307
C  C15  1  0.53420000  0.79630000  0.48320000  1.0 -0.1311675076
C  C16  1  0.53410000  0.80340000  0.44130000  1.0 0.0218159978
C  C17  1  0.60460000  0.80920000  0.42000000  1.0 0.0378512863
C  C18  1  0.67520000  0.80810000  0.44050000  1.0 -0.1418640688
C  C19  1  0.67530000  0.80100000  0.48240000  1.0 -0.0795183164
C  C20  1  0.78110000  0.69570000  0.68440000  1.0 0.4994600433
C  C21  1  0.43320000  0.71210000  0.66270000  1.0 0.6010633651
C  C22  1  0.34540000  0.68990000  0.66690000  1.0 -0.0208908646
C  C23  1  0.31340000  0.62890000  0.66920000  1.0 -0.099261042
C  C24  1  0.23260000  0.60900000  0.67590000  1.0 -0.1418640688
C  C25  1  0.18380000  0.65010000  0.68020000  1.0 0.0500158307
C  C26  1  0.21570000  0.71120000  0.67790000  1.0 0.0099380793
C  C27  1  0.29650000  0.73110000  0.67120000  1.0 -0.1578900631
C  C28  1  0.84620000  0.62190000  0.81770000  1.0 -0.3296996187
C  C29  1  0.61760000  0.58760000  0.61100000  1.0 0.5808020118
C  C30  1  0.62080000  0.57100000  0.56760000  1.0 -0.0507425238
C  C31  1  0.58420000  0.60080000  0.53960000  1.0 -0.1311675076
C  C32  1  0.59230000  0.59000000  0.49800000  1.0 0.0218159978
C  C33  1  0.63710000  0.54930000  0.48420000  1.0 0.0304886054
C  C34  1  0.67380000  0.51940000  0.51220000  1.0 -0.1418640688
C  C35  1  0.66560000  0.53030000  0.55380000  1.0 -0.0725983628
C  C36  1  0.84990000  0.54380000  0.69930000  1.0 0.5808020118
C  C37  1  0.93660000  0.57170000  0.69150000  1.0 -0.0291735307
C  C38  1  0.99350000  0.55720000  0.71720000  1.0 -0.0923524623
C  C39  1  0.07330000  0.58400000  0.71310000  1.0 -0.1311675076
C  C40  1  0.09620000  0.62540000  0.68330000  1.0 0.0892889164
C  C41  1  0.03920000  0.63990000  0.65760000  1.0 -0.1418640688
C  C42  1  0.95940000  0.61310000  0.66170000  1.0 -0.099261042
C  C43  1  0.65080000  0.77070000  0.74640000  1.0 0.5887039695
C  C44  1  0.64800000  0.78600000  0.78940000  1.0 -0.0725983628
C  C45  1  0.58830000  0.75620000  0.81400000  1.0 -0.099261042
C  C46  1  0.59110000  0.76960000  0.85590000  1.0 -0.1838959475
C  C47  1  0.65360000  0.81260000  0.87320000  1.0 0.0735708121
C  C48  1  0.71330000  0.84240000  0.84850000  1.0 -0.1499671952
C  C49  1  0.71050000  0.82900000  0.80670000  1.0 -0.099261042
C  C50  1  0.70290000  0.53300000  0.31280000  1.0 0.5713622812
C  C51  1  0.68570000  0.53140000  0.35700000  1.0 -0.0426883803
C  C52  1  0.74530000  0.54300000  0.38510000  1.0 -0.0923524623
C  C53  1  0.72970000  0.54660000  0.42650000  1.0 -0.1418640688
C  C54  1  0.65480000  0.53930000  0.44010000  1.0 0.0804059599
C  C55  1  0.59160000  0.52250000  0.41010000  1.0 -0.1230917713
C  C56  1  0.60710000  0.51750000  0.37140000  1.0 -0.1104257349
C  C57  1  0.64920000  0.34970000  0.73320000  1.0 0.5887039695
C  C58  1  0.64450000  0.28320000  0.72330000  1.0 -0.0208908646
C  C59  1  0.57850000  0.23990000  0.73340000  1.0 -0.099261042
C  C60  1  0.57570000  0.17960000  0.72340000  1.0 -0.1311675076
C  C61  1  0.63890000  0.16260000  0.70330000  1.0 0.0561736319
C  C62  1  0.70480000  0.20590000  0.69320000  1.0 0.0099380793
C  C63  1  0.70760000  0.26620000  0.70320000  1.0 -0.1418640688
C  C64  1  0.76150000  0.68350000  0.84470000  1.0 -0.3296996187
C  C65  1  0.32820000  0.51180000  0.18390000  1.0 0.5641254429
C  C66  1  0.32020000  0.48640000  0.14010000  1.0 -0.0076433894
C  C67  1  0.37810000  0.45720000  0.12520000  1.0 -0.1418640688
C  C68  1  0.37240000  0.43290000  0.08530000  1.0 -0.1418640688
C  C69  1  0.30870000  0.43780000  0.06030000  1.0 0.0500158307
C  C70  1  0.25080000  0.46700000  0.07510000  1.0 -0.0725983628
C  C71  1  0.25650000  0.49120000  0.11500000  1.0 -0.1311675076
C  C72  1  0.28250000  0.58460000  0.77260000  1.0 0.5808020118
C  C73  1  0.28870000  0.65070000  0.78220000  1.0 0.0099380793
C  C74  1  0.22420000  0.67050000  0.79380000  1.0 -0.1578900631
C  C75  1  0.22570000  0.73040000  0.80390000  1.0 0.0378512863
C  C76  1  0.29440000  0.77080000  0.80220000  1.0 0.0218159978
C  C77  1  0.36550000  0.74980000  0.79080000  1.0 -0.1311675076
C  C78  1  0.36110000  0.69370000  0.78120000  1.0 -0.0795183164
C  C79  1  0.08160000  0.38460000  0.79370000  1.0 0.5808020118
C  C80  1  0.99560000  0.36120000  0.80150000  1.0 -0.0426883803
C  C81  1  0.93770000  0.38370000  0.78140000  1.0 -0.0795183164
C  C82  1  0.85760000  0.35950000  0.78750000  1.0 -0.1230917713
C  C83  1  0.83550000  0.31280000  0.81370000  1.0 0.0892889164
C  C84  1  0.89350000  0.29030000  0.83380000  1.0 -0.1499671952
C  C85  1  0.97350000  0.31450000  0.82770000  1.0 -0.0923524623
C  C86  1  0.25800000  0.29570000  0.63970000  1.0 -0.3394997275
C  C87  1  0.67000000  0.81800000  0.24930000  1.0 0.5887039695
C  C88  1  0.64860000  0.81940000  0.29210000  1.0 -0.0725983628
C  C89  1  0.68430000  0.86640000  0.31910000  1.0 -0.0923524623
C  C90  1  0.66570000  0.86470000  0.36030000  1.0 -0.1499671952
C  C91  1  0.61140000  0.81610000  0.37450000  1.0 0.0892889164
C  C92  1  0.57570000  0.76910000  0.34750000  1.0 -0.1311675076
C  C93  1  0.59430000  0.77080000  0.30630000  1.0 -0.099261042
C  C94  1  0.50460000  0.22740000  0.84730000  1.0 0.5887039695
C  C95  1  0.58890000  0.24970000  0.83960000  1.0 -0.0426883803
C  C96  1  0.63710000  0.20880000  0.83190000  1.0 -0.1499671952
C  C97  1  0.71720000  0.22920000  0.82370000  1.0 0.0099380793
C  C98  1  0.74910000  0.29050000  0.82320000  1.0 0.0378512863
C  C99  1  0.70090000  0.33140000  0.83100000  1.0 -0.1311675076
C  C100  1  0.62090000  0.31100000  0.83920000  1.0 -0.0795183164
C  C101  1  0.29460000  0.34310000  0.89310000  1.0 0.6010633651
C  C102  1  0.29480000  0.36710000  0.93590000  1.0 -0.0291735307
C  C103  1  0.31140000  0.33260000  0.96740000  1.0 -0.099261042
C  C104  1  0.31570000  0.35570000  0.00760000  1.0 -0.1578900631
C  C105  1  0.30340000  0.41320000  0.01620000  1.0 0.0500158307
C  C106  1  0.28680000  0.44770000  0.98470000  1.0 0.0378512863
C  C107  1  0.28250000  0.42460000  0.94460000  1.0 -0.1698404718
C  C108  1  0.67700000  0.84260000  0.04980000  1.0 0.5641254429
C  C109  1  0.66870000  0.83210000  0.00390000  1.0 -0.0076433894
C  C110  1  0.59910000  0.83810000  0.98420000  1.0 -0.1499671952
C  C111  1  0.59410000  0.83490000  0.94180000  1.0 0.0378512863
C  C112  1  0.65860000  0.82570000  0.91900000  1.0 0.0304886054
C  C113  1  0.72810000  0.81970000  0.93860000  1.0 -0.1499671952
C  C114  1  0.73320000  0.82290000  0.98100000  1.0 -0.0923524623
C  C115  1  0.31130000  0.02330000  0.83700000  1.0 0.5713622812
C  C116  1  0.30950000  0.95970000  0.82640000  1.0 -0.0291735307
C  C117  1  0.25150000  0.92600000  0.80000000  1.0 -0.0795183164
C  C118  1  0.24610000  0.86460000  0.79380000  1.0 -0.1230917713
C  C119  1  0.29870000  0.83680000  0.81400000  1.0 0.0561736319
C  C120  1  0.35670000  0.87050000  0.84030000  1.0 0.0304886054
C  C121  1  0.36210000  0.93190000  0.84660000  1.0 -0.1499671952
C  C122  1  0.25460000  0.32810000  0.71410000  1.0 0.2679191176
C  C123  1  0.36950000  0.08820000  0.33890000  1.0 0.5808020118
C  C124  1  0.48730000  0.42230000  0.27260000  1.0 0.5184133195
C  C125  1  0.57200000  0.63380000  0.21040000  1.0 0.5099649274
C  C126  1  0.36740000  0.02400000  0.32660000  1.0 -0.0208908646
C  C127  1  0.43020000  0.99880000  0.33860000  1.0 -0.0923524623
C  C128  1  0.42820000  0.93840000  0.32930000  1.0 -0.1104257349
C  C129  1  0.36330000  0.90320000  0.30810000  1.0 0.0378512863
C  C130  1  0.30050000  0.92840000  0.29610000  1.0 -0.0208908646
C  C131  1  0.30250000  0.98880000  0.30540000  1.0 -0.1311675076
C  C132  1  0.84630000  0.76730000  0.19770000  1.0 0.4994600433
C  C133  1  0.27930000  0.37540000  0.21770000  1.0 0.2775829676
C  C134  1  0.85440000  0.67320000  0.33120000  1.0 -0.3043432292
C  C135  1  0.39260000  0.21240000  0.45120000  1.0 0.5713622812
C  C136  1  0.39520000  0.20480000  0.49620000  1.0 -0.0291735307
C  C137  1  0.46580000  0.20370000  0.51680000  1.0 -0.1311675076
C  C138  1  0.46590000  0.19660000  0.55870000  1.0 0.0218159978
C  C139  1  0.39540000  0.19080000  0.58000000  1.0 0.0378512863
C  C140  1  0.32480000  0.19190000  0.55950000  1.0 -0.1418640688
C  C141  1  0.32470000  0.19900000  0.51760000  1.0 -0.0795183164
C  C142  1  0.21890000  0.30430000  0.31560000  1.0 0.4994600433
C  C143  1  0.56680000  0.28790000  0.33730000  1.0 0.6010633651
C  C144  1  0.65460000  0.31010000  0.33310000  1.0 -0.0208908646
C  C145  1  0.68660000  0.37110000  0.33080000  1.0 -0.099261042
C  C146  1  0.76740000  0.39100000  0.32410000  1.0 -0.1418640688
C  C147  1  0.81620000  0.34990000  0.31980000  1.0 0.0500158307
C  C148  1  0.78430000  0.28880000  0.32210000  1.0 0.0099380793
C  C149  1  0.70350000  0.26890000  0.32880000  1.0 -0.1578900631
C  C150  1  0.15380000  0.37810000  0.18230000  1.0 -0.3296996187
C  C151  1  0.38240000  0.41240000  0.38900000  1.0 0.5808020118
C  C152  1  0.37920000  0.42900000  0.43240000  1.0 -0.0507425238
C  C153  1  0.41580000  0.39920000  0.46040000  1.0 -0.1311675076
C  C154  1  0.40770000  0.41000000  0.50200000  1.0 0.0218159978
C  C155  1  0.36290000  0.45070000  0.51580000  1.0 0.0378512863
C  C156  1  0.32620000  0.48060000  0.48780000  1.0 -0.1418640688
C  C157  1  0.33440000  0.46970000  0.44620000  1.0 -0.0725983628
C  C158  1  0.15010000  0.45620000  0.30070000  1.0 0.5808020118
C  C159  1  0.06340000  0.42830000  0.30850000  1.0 -0.0291735307
C  C160  1  0.00650000  0.44280000  0.28280000  1.0 -0.0923524623
C  C161  1  0.92670000  0.41600000  0.28690000  1.0 -0.1311675076
C  C162  1  0.90380000  0.37460000  0.31670000  1.0 0.0892889164
C  C163  1  0.96080000  0.36010000  0.34240000  1.0 -0.1418640688
C  C164  1  0.04060000  0.38690000  0.33830000  1.0 -0.099261042
C  C165  1  0.34920000  0.22930000  0.25360000  1.0 0.5887039695
C  C166  1  0.35200000  0.21400000  0.21060000  1.0 -0.0725983628
C  C167  1  0.41170000  0.24380000  0.18600000  1.0 -0.099261042
C  C168  1  0.40890000  0.23040000  0.14410000  1.0 -0.1838959475
C  C169  1  0.34640000  0.18740000  0.12680000  1.0 0.0735708121
C  C170  1  0.28670000  0.15760000  0.15150000  1.0 -0.1499671952
C  C171  1  0.28950000  0.17100000  0.19330000  1.0 -0.099261042
C  C172  1  0.29710000  0.46700000  0.68720000  1.0 0.5713622812
C  C173  1  0.31430000  0.46860000  0.64300000  1.0 -0.0426883803
C  C174  1  0.25470000  0.45700000  0.61490000  1.0 -0.0923524623
C  C175  1  0.27030000  0.45340000  0.57350000  1.0 -0.1418640688
C  C176  1  0.34520000  0.46070000  0.55990000  1.0 0.0804059599
C  C177  1  0.40840000  0.47750000  0.58990000  1.0 -0.1230917713
C  C178  1  0.39290000  0.48250000  0.62860000  1.0 -0.1104257349
C  C179  1  0.35080000  0.65030000  0.26680000  1.0 0.5887039695
C  C180  1  0.35550000  0.71680000  0.27670000  1.0 -0.0208908646
C  C181  1  0.42150000  0.76010000  0.26660000  1.0 -0.099261042
C  C182  1  0.42430000  0.82040000  0.27660000  1.0 -0.1311675076
C  C183  1  0.36110000  0.83740000  0.29670000  1.0 0.0561736319
C  C184  1  0.29520000  0.79410000  0.30680000  1.0 0.0049112304
C  C185  1  0.29240000  0.73380000  0.29680000  1.0 -0.1418640688
C  C186  1  0.23850000  0.31650000  0.15530000  1.0 -0.3296996187
C  C187  1  0.67180000  0.48820000  0.81610000  1.0 0.5641254429
C  C188  1  0.67980000  0.51360000  0.85990000  1.0 -0.0076433894
C  C189  1  0.62190000  0.54280000  0.87480000  1.0 -0.1418640688
C  C190  1  0.62760000  0.56710000  0.91470000  1.0 -0.1418640688
C  C191  1  0.69130000  0.56220000  0.93970000  1.0 0.0500158307
C  C192  1  0.74920000  0.53300000  0.92490000  1.0 -0.0725983628
C  C193  1  0.74350000  0.50880000  0.88500000  1.0 -0.1311675076
C  C194  1  0.71750000  0.41540000  0.22740000  1.0 0.5808020118
C  C195  1  0.71130000  0.34930000  0.21780000  1.0 0.0099380793
C  C196  1  0.77580000  0.32950000  0.20620000  1.0 -0.1499671952
C  C197  1  0.77430000  0.26960000  0.19610000  1.0 0.0378512863
C  C198  1  0.70560000  0.22920000  0.19780000  1.0 0.0218159978
C  C199  1  0.63450000  0.25020000  0.20920000  1.0 -0.1311675076
C  C200  1  0.63890000  0.30630000  0.21880000  1.0 -0.0795183164
C  C201  1  0.91840000  0.61540000  0.20630000  1.0 0.5808020118
C  C202  1  0.00440000  0.63880000  0.19850000  1.0 -0.0426883803
C  C203  1  0.06230000  0.61630000  0.21860000  1.0 -0.0795183164
C  C204  1  0.14240000  0.64050000  0.21250000  1.0 -0.1230917713
C  C205  1  0.16450000  0.68720000  0.18630000  1.0 0.0892889164
C  C206  1  0.10650000  0.70970000  0.16620000  1.0 -0.1499671952
C  C207  1  0.02650000  0.68550000  0.17230000  1.0 -0.0923524623
C  C208  1  0.74200000  0.70430000  0.36030000  1.0 -0.3394997275
C  C209  1  0.33000000  0.18200000  0.75070000  1.0 0.5887039695
C  C210  1  0.35140000  0.18060000  0.70790000  1.0 -0.0725983628
C  C211  1  0.31570000  0.13360000  0.68090000  1.0 -0.0923524623
C  C212  1  0.33430000  0.13530000  0.63970000  1.0 -0.1499671952
C  C213  1  0.38860000  0.18390000  0.62550000  1.0 0.0892889164
C  C214  1  0.42430000  0.23090000  0.65250000  1.0 -0.1311675076
C  C215  1  0.40570000  0.22920000  0.69370000  1.0 -0.099261042
C  C216  1  0.49540000  0.77260000  0.15270000  1.0 0.5887039695
C  C217  1  0.41110000  0.75030000  0.16040000  1.0 -0.0426883803
C  C218  1  0.36290000  0.79120000  0.16810000  1.0 -0.1499671952
C  C219  1  0.28280000  0.77080000  0.17630000  1.0 0.0099380793
C  C220  1  0.25090000  0.70950000  0.17680000  1.0 0.0378512863
C  C221  1  0.29910000  0.66860000  0.16900000  1.0 -0.1311675076
C  C222  1  0.37910000  0.68900000  0.16080000  1.0 -0.0795183164
C  C223  1  0.70540000  0.65690000  0.10690000  1.0 0.6010633651
C  C224  1  0.70520000  0.63290000  0.06410000  1.0 -0.0291735307
C  C225  1  0.68860000  0.66740000  0.03260000  1.0 -0.099261042
C  C226  1  0.68430000  0.64430000  0.99240000  1.0 -0.1578900631
C  C227  1  0.69660000  0.58680000  0.98380000  1.0 0.0500158307
C  C228  1  0.71320000  0.55230000  0.01530000  1.0 0.0378512863
C  C229  1  0.71750000  0.57540000  0.05540000  1.0 -0.1698404718
C  C230  1  0.32300000  0.15740000  0.95020000  1.0 0.5641254429
C  C231  1  0.33130000  0.16790000  0.99610000  1.0 -0.0076433894
C  C232  1  0.40090000  0.16190000  0.01580000  1.0 -0.1499671952
C  C233  1  0.40590000  0.16510000  0.05820000  1.0 0.0378512863
C  C234  1  0.34140000  0.17430000  0.08100000  1.0 0.0304886054
C  C235  1  0.27190000  0.18030000  0.06140000  1.0 -0.1499671952
C  C236  1  0.26680000  0.17710000  0.01900000  1.0 -0.0923524623
C  C237  1  0.68870000  0.97670000  0.16300000  1.0 0.5713622812
C  C238  1  0.69050000  0.04030000  0.17360000  1.0 -0.0291735307
C  C239  1  0.74850000  0.07400000  0.20000000  1.0 -0.0725983628
C  C240  1  0.75390000  0.13540000  0.20620000  1.0 -0.1230917713
C  C241  1  0.70130000  0.16320000  0.18600000  1.0 0.0561736319
C  C242  1  0.64330000  0.12950000  0.15970000  1.0 0.0304886054
C  C243  1  0.63790000  0.06810000  0.15340000  1.0 -0.1499671952
C  C244  1  0.74540000  0.67190000  0.28590000  1.0 0.2679191176
N  N1  1  0.77150000  0.64040000  0.81380000  1.0 0.0378512863
N  N2  1  0.55620000  0.62690000  0.47110000  1.0 0.4856016878
N  N3  1  0.75890000  0.18550000  0.80640000  1.0 0.4700326863
N  N4  1  0.22650000  0.32130000  0.67550000  1.0 0.0218159978
N  N5  1  0.16880000  0.75760000  0.68410000  1.0 0.5184133195
N  N6  1  0.76000000  0.19110000  0.66380000  1.0 0.5184133195
N  N7  1  0.45900000  0.80000000  0.42000000  1.0 0.5099649274
N  N8  1  0.27830000  0.51030000  0.98860000  1.0 0.548656011
N  N9  1  0.52096000  0.83569000  0.91824000  1.0 0.3508697593
N  N10  1  0.15110000  0.73910000  0.82160000  1.0 0.5099649274
N  N11  1  0.41610000  0.84540000  0.86150000  1.0 0.4076333958
N  N12  1  0.22850000  0.35960000  0.18620000  1.0 0.0378512863
N  N13  1  0.44380000  0.37310000  0.52890000  1.0 0.4856016878
N  N14  1  0.24110000  0.81450000  0.19360000  1.0 0.4700326863
N  N15  1  0.77350000  0.67870000  0.32450000  1.0 0.0218159978
N  N16  1  0.83120000  0.24240000  0.31590000  1.0 0.5184133195
N  N17  1  0.24000000  0.80890000  0.33620000  1.0 0.5184133195
N  N18  1  0.54100000  0.20000000  0.58000000  1.0 0.5099649274
N  N19  1  0.72170000  0.48970000  0.01140000  1.0 0.548656011
N  N20  1  0.47904000  0.16431000  0.08176000  1.0 0.3430207316
N  N21  1  0.84890000  0.26090000  0.17840000  1.0 0.5099649274
N  N22  1  0.58390000  0.15460000  0.13850000  1.0 0.4076333958
O  O1  1  0.57030000  0.88400000  0.64620000  1.0 -0.4703124321
O  O2  1  0.69250000  0.89420000  0.66500000  1.0 -0.5600468423
O  O3  1  0.12350000  0.05810000  0.77720000  1.0 -0.6957131382
O  O4  1  0.57560000  0.59930000  0.71040000  1.0 -0.5102424856
O  O5  1  0.44780000  0.41810000  0.77430000  1.0 -0.5501029547
O  O6  1  0.49820000  0.52690000  0.74450000  1.0 -0.5501029547
O  O7  1  0.36620000  0.34170000  0.80300000  1.0 -0.4703124321
O  O8  1  0.22570000  0.26730000  0.80870000  1.0 -0.5708976742
O  O9  1  0.73250000  0.59050000  0.75340000  1.0 -0.4703124321
O  O10  1  0.55090000  0.79350000  0.57040000  1.0 -0.528443809
O  O11  1  0.65210000  0.75260000  0.56170000  1.0 -0.5501029547
O  O12  1  0.29150000  0.17370000  0.85320000  1.0 -0.9005527999
O  O13  1  0.43940000  0.52440000  0.82940000  1.0 -0.6706096884
O  O14  1  0.22340000  0.34730000  0.74230000  1.0 -0.4225426074
O  O15  1  0.47660000  0.67580000  0.67030000  1.0 -0.5708976742
O  O16  1  0.45910000  0.76390000  0.65050000  1.0 -0.528443809
O  O17  1  0.59030000  0.63150000  0.62200000  1.0 -0.5102424856
O  O18  1  0.65050000  0.55540000  0.63620000  1.0 -0.596775746
O  O19  1  0.71200000  0.66590000  0.68580000  1.0 -0.5102424856
O  O20  1  0.48260000  0.40710000  0.69370000  1.0 -0.6875104066
O  O21  1  0.79930000  0.56410000  0.67950000  1.0 -0.5708976742
O  O22  1  0.83930000  0.50300000  0.72380000  1.0 -0.5178669846
O  O23  1  0.14630000  0.08270000  0.86610000  1.0 -0.6380959507
O  O24  1  0.78710000  0.83680000  0.61060000  1.0 -0.6875104066
O  O25  1  0.70940000  0.80170000  0.72760000  1.0 -0.5778000113
O  O26  1  0.59750000  0.72690000  0.73130000  1.0 -0.5600468423
O  O27  1  0.80280000  0.74900000  0.67310000  1.0 -0.4942824002
O  O28  1  0.64560000  0.53780000  0.28910000  1.0 -0.5876552817
O  O29  1  0.77190000  0.53220000  0.29970000  1.0 -0.5422085133
O  O30  1  0.14220000  0.17760000  0.80580000  1.0 -0.5102424856
O  O31  1  0.71750000  0.38290000  0.72700000  1.0 -0.5501029547
O  O32  1  0.58970000  0.36660000  0.74650000  1.0 -0.5778000113
O  O33  1  0.26700000  0.52310000  0.20060000  1.0 -0.5422085133
O  O34  1  0.39310000  0.51600000  0.20050000  1.0 -0.5422085133
O  O35  1  0.34980000  0.57050000  0.76600000  1.0 -0.6060306486
O  O36  1  0.21660000  0.55260000  0.77160000  1.0 -0.4970178139
O  O37  1  0.09560000  0.42760000  0.76790000  1.0 -0.5422085133
O  O38  1  0.12870000  0.36230000  0.81180000  1.0 -0.528443809
O  O39  1  0.63390000  0.77710000  0.22560000  1.0 -0.5501029547
O  O40  1  0.72320000  0.86340000  0.23730000  1.0 -0.5876552817
O  O41  1  0.45880000  0.26390000  0.84740000  1.0 -0.5708976742
O  O42  1  0.47950000  0.17220000  0.84850000  1.0 -0.5178669846
O  O43  1  0.63940000  0.75840000  0.64320000  1.0 -0.9005527999
O  O44  1  0.26200000  0.37220000  0.86610000  1.0 -0.5778000113
O  O45  1  0.31920000  0.29780000  0.88480000  1.0 -0.5102424856
O  O46  1  0.61640000  0.85020000  0.07030000  1.0 -0.5501029547
O  O47  1  0.73920000  0.83980000  0.06620000  1.0 -0.5178669846
O  O48  1  0.26370000  0.04420000  0.81890000  1.0 -0.4970178139
O  O49  1  0.36220000  0.05060000  0.85890000  1.0 -0.4596616086
O  O50  1  0.84100000  0.88080000  0.69350000  1.0 -0.7213636395
O  O51  1  0.64650000  0.48670000  0.70880000  1.0 -0.8691976723
O  O52  1  0.28380000  0.44760000  0.79620000  1.0 -0.8691976723
O  O53  1  0.48700000  0.63410000  0.47970000  1.0 -0.359206846
O  O54  1  0.59820000  0.64740000  0.44230000  1.0 -0.3394997275
O  O55  1  0.80360000  0.18760000  0.77780000  1.0 -0.2588076349
O  O56  1  0.74460000  0.13400000  0.82090000  1.0 -0.2829325553
O  O57  1  0.20190000  0.80800000  0.67130000  1.0 -0.359206846
O  O58  1  0.13080000  0.74610000  0.71650000  1.0 -0.3929046225
O  O59  1  0.73490000  0.16800000  0.62920000  1.0 -0.3394997275
O  O60  1  0.83090000  0.20810000  0.67670000  1.0 -0.3777094614
O  O61  1  0.40240000  0.76000000  0.43200000  1.0 -0.3492221193
O  O62  1  0.46040000  0.83270000  0.38990000  1.0 -0.3777094614
O  O63  1  0.27270000  0.53310000  0.95460000  1.0 -0.3929046225
O  O64  1  0.27600000  0.53400000  0.02410000  1.0 -0.3671549615
O  O65  1  0.46140000  0.80700000  0.93640000  1.0 -0.1698404718
O  O66  1  0.52250000  0.86770000  0.88770000  1.0 -0.0601840802
O  O67  1  0.15600000  0.77400000  0.85240000  1.0 -0.3492221193
O  O68  1  0.08490000  0.71400000  0.80710000  1.0 -0.3394997275
O  O69  1  0.48670000  0.86400000  0.85010000  1.0 -0.1230917713
O  O70  1  0.39000000  0.80800000  0.88830000  1.0 -0.1838959475
O  O71  1  0.42970000  0.11600000  0.35380000  1.0 -0.4703124321
O  O72  1  0.30750000  0.10580000  0.33500000  1.0 -0.5600468423
O  O73  1  0.87650000  0.94190000  0.22280000  1.0 -0.6957131382
O  O74  1  0.42440000  0.40070000  0.28960000  1.0 -0.5102424856
O  O75  1  0.55220000  0.58190000  0.22570000  1.0 -0.5501029547
O  O76  1  0.50180000  0.47310000  0.25550000  1.0 -0.5501029547
O  O77  1  0.63380000  0.65830000  0.19700000  1.0 -0.4703124321
O  O78  1  0.77430000  0.73270000  0.19130000  1.0 -0.5708976742
O  O79  1  0.26750000  0.40950000  0.24660000  1.0 -0.4703124321
O  O80  1  0.44910000  0.20650000  0.42960000  1.0 -0.528443809
O  O81  1  0.34790000  0.24740000  0.43830000  1.0 -0.5501029547
O  O82  1  0.70850000  0.82630000  0.14680000  1.0 -0.9005527999
O  O83  1  0.56060000  0.47560000  0.17060000  1.0 -0.6706096884
O  O84  1  0.77660000  0.65270000  0.25770000  1.0 -0.4225426074
O  O85  1  0.52340000  0.32420000  0.32970000  1.0 -0.5708976742
O  O86  1  0.54090000  0.23610000  0.34950000  1.0 -0.528443809
O  O87  1  0.40970000  0.36850000  0.37800000  1.0 -0.5102424856
O  O88  1  0.34950000  0.44460000  0.36380000  1.0 -0.596775746
O  O89  1  0.28800000  0.33410000  0.31420000  1.0 -0.5102424856
O  O90  1  0.51740000  0.59290000  0.30630000  1.0 -0.6875104066
O  O91  1  0.20070000  0.43590000  0.32050000  1.0 -0.5708976742
O  O92  1  0.16070000  0.49700000  0.27620000  1.0 -0.5178669846
O  O93  1  0.85370000  0.91730000  0.13390000  1.0 -0.6380959507
O  O94  1  0.21290000  0.16320000  0.38940000  1.0 -0.6875104066
O  O95  1  0.29060000  0.19830000  0.27240000  1.0 -0.5778000113
O  O96  1  0.40250000  0.27310000  0.26870000  1.0 -0.5600468423
O  O97  1  0.19720000  0.25100000  0.32690000  1.0 -0.4942824002
O  O98  1  0.35440000  0.46220000  0.71090000  1.0 -0.5876552817
O  O99  1  0.22810000  0.46780000  0.70030000  1.0 -0.5422085133
O  O100  1  0.85780000  0.82240000  0.19420000  1.0 -0.5102424856
O  O101  1  0.28250000  0.61710000  0.27300000  1.0 -0.5501029547
O  O102  1  0.41030000  0.63340000  0.25350000  1.0 -0.5778000113
O  O103  1  0.73300000  0.47690000  0.79940000  1.0 -0.5422085133
O  O104  1  0.60690000  0.48400000  0.79950000  1.0 -0.5422085133
O  O105  1  0.65020000  0.42950000  0.23400000  1.0 -0.6060306486
O  O106  1  0.78340000  0.44740000  0.22840000  1.0 -0.4970178139
O  O107  1  0.90440000  0.57240000  0.23210000  1.0 -0.5422085133
O  O108  1  0.87130000  0.63770000  0.18820000  1.0 -0.528443809
O  O109  1  0.36610000  0.22290000  0.77440000  1.0 -0.5501029547
O  O110  1  0.27680000  0.13660000  0.76270000  1.0 -0.5876552817
O  O111  1  0.54120000  0.73610000  0.15260000  1.0 -0.5708976742
O  O112  1  0.52050000  0.82780000  0.15150000  1.0 -0.5178669846
O  O113  1  0.36060000  0.24160000  0.35680000  1.0 -0.9005527999
O  O114  1  0.73800000  0.62780000  0.13390000  1.0 -0.5778000113
O  O115  1  0.68080000  0.70220000  0.11520000  1.0 -0.5102424856
O  O116  1  0.38360000  0.14980000  0.92970000  1.0 -0.5501029547
O  O117  1  0.26080000  0.16020000  0.93380000  1.0 -0.5178669846
O  O118  1  0.73630000  0.95580000  0.18110000  1.0 -0.4970178139
O  O119  1  0.63780000  0.94940000  0.14110000  1.0 -0.4596616086
O  O120  1  0.15900000  0.11920000  0.30650000  1.0 -0.7213636395
O  O121  1  0.35350000  0.51330000  0.29120000  1.0 -0.8691976723
O  O122  1  0.71620000  0.55240000  0.20380000  1.0 -0.8691976723
O  O123  1  0.51300000  0.36590000  0.52030000  1.0 -0.359206846
O  O124  1  0.40180000  0.35260000  0.55770000  1.0 -0.3394997275
O  O125  1  0.19640000  0.81240000  0.22220000  1.0 -0.2588076349
O  O126  1  0.25540000  0.86600000  0.17910000  1.0 -0.2829325553
O  O127  1  0.79810000  0.19200000  0.32870000  1.0 -0.359206846
O  O128  1  0.86920000  0.25390000  0.28350000  1.0 -0.3929046225
O  O129  1  0.26510000  0.83200000  0.37080000  1.0 -0.3394997275
O  O130  1  0.16910000  0.79190000  0.32330000  1.0 -0.3777094614
O  O131  1  0.59760000  0.24000000  0.56800000  1.0 -0.3394997275
O  O132  1  0.53960000  0.16730000  0.61010000  1.0 -0.3777094614
O  O133  1  0.72730000  0.46690000  0.04540000  1.0 -0.3929046225
O  O134  1  0.72400000  0.46600000  0.97590000  1.0 -0.3671549615
O  O135  1  0.53860000  0.19300000  0.06360000  1.0 -0.1698404718
O  O136  1  0.47750000  0.13230000  0.11230000  1.0 -0.0601840802
O  O137  1  0.84400000  0.22600000  0.14760000  1.0 -0.3492221193
O  O138  1  0.91510000  0.28600000  0.19290000  1.0 -0.3394997275
O  O139  1  0.51330000  0.13600000  0.14990000  1.0 -0.1230917713
O  O140  1  0.61000000  0.19200000  0.11170000  1.0 -0.1838959475
