# DDEC6 charges by PACMAN v1.1 (https://github.com/mtap-research/PACMAN-charge/)
data_WUCJOW_ASR_pacman
_symmetry_space_group_name_H-M   'P 1'
_cell_length_a   17.18960000
_cell_length_b   17.18960000
_cell_length_c   17.21410000
_cell_angle_alpha   88.96690000
_cell_angle_beta   91.03310000
_cell_angle_gamma   90.24160000
_symmetry_Int_Tables_number   1
_chemical_formula_structural   Zn4H24C47N4O21
_chemical_formula_sum   'Zn8 H48 C94 N8 O42'
_cell_volume   5084.77064483
_cell_formula_units_Z   2
loop_
 _symmetry_equiv_pos_site_id
 _symmetry_equiv_pos_as_xyz
  1  'x, y, z'
loop_
 _atom_site_type_symbol
 _atom_site_label
 _atom_site_symmetry_multiplicity
 _atom_site_fract_x
 _atom_site_fract_y
 _atom_site_fract_z
 _atom_site_occupancy
 _atom_site_charge
Zn  Zn1  1  0.29318000  0.57596000  0.18760000  1.0 0.9569120736
Zn  Zn2  1  0.42404000  0.70682000  0.18760000  1.0 0.9569120736
Zn  Zn3  1  0.42360000  0.57640000  0.31890000  1.0 0.8984063001
Zn  Zn4  1  0.29270000  0.70730000  0.31720000  1.0 0.9703122707
Zn  Zn5  1  0.57596000  0.29318000  0.81240000  1.0 0.9569120736
Zn  Zn6  1  0.70682000  0.42404000  0.81240000  1.0 0.9569120736
Zn  Zn7  1  0.57640000  0.42360000  0.68110000  1.0 0.8984063001
Zn  Zn8  1  0.70730000  0.29270000  0.68280000  1.0 0.9703122707
H  H1  1  0.43056000  0.72964000  0.80742000  1.0 0.1140018285
H  H2  1  0.42949000  0.72913000  0.94039000  1.0 0.1283114309
H  H3  1  0.05077000  0.72313000  0.32264000  1.0 0.1375659884
H  H4  1  0.91311000  0.55009000  0.16803000  1.0 0.1375659884
H  H5  1  0.04803000  0.55227000  0.16632000  1.0 0.1283114309
H  H6  1  0.80607000  0.56389000  0.34351000  1.0 0.1240903916
H  H7  1  0.67115000  0.55915000  0.34186000  1.0 0.1031245223
H  H8  1  0.66584000  0.69832000  0.15177000  1.0 0.1240903916
H  H9  1  0.80076000  0.70306000  0.15342000  1.0 0.1240903916
H  H10  1  0.46207000  0.57793000  0.57316000  1.0 0.1031245223
H  H11  1  0.44726000  0.57572000  0.70688000  1.0 0.1283114309
H  H12  1  0.26133000  0.69527000  0.54719000  1.0 0.1031245223
H  H13  1  0.27036000  0.56944000  0.80742000  1.0 0.1140018285
H  H14  1  0.27087000  0.57051000  0.94039000  1.0 0.1283114309
H  H15  1  0.27687000  0.94923000  0.32264000  1.0 0.1375659884
H  H16  1  0.44991000  0.08689000  0.16803000  1.0 0.1375659884
H  H17  1  0.44773000  0.95197000  0.16632000  1.0 0.1283114309
H  H18  1  0.43611000  0.19393000  0.34351000  1.0 0.1240903916
H  H19  1  0.44085000  0.32885000  0.34186000  1.0 0.1031245223
H  H20  1  0.30168000  0.33416000  0.15177000  1.0 0.1283114309
H  H21  1  0.29694000  0.19924000  0.15342000  1.0 0.1240903916
H  H22  1  0.42207000  0.53793000  0.57316000  1.0 0.1031245223
H  H23  1  0.42428000  0.55274000  0.70688000  1.0 0.1283114309
H  H24  1  0.30473000  0.73867000  0.54719000  1.0 0.1031245223
H  H25  1  0.72964000  0.43056000  0.19258000  1.0 0.1140018285
H  H26  1  0.72913000  0.42949000  0.05961000  1.0 0.1283114309
H  H27  1  0.72313000  0.05077000  0.67736000  1.0 0.1375659884
H  H28  1  0.55009000  0.91311000  0.83197000  1.0 0.1375659884
H  H29  1  0.55227000  0.04803000  0.83368000  1.0 0.1283114309
H  H30  1  0.56389000  0.80607000  0.65649000  1.0 0.1240903916
H  H31  1  0.55915000  0.67115000  0.65814000  1.0 0.1031245223
H  H32  1  0.69832000  0.66584000  0.84823000  1.0 0.1240903916
H  H33  1  0.70306000  0.80076000  0.84658000  1.0 0.1240903916
H  H34  1  0.57793000  0.46207000  0.42684000  1.0 0.1031245223
H  H35  1  0.57572000  0.44726000  0.29312000  1.0 0.1283114309
H  H36  1  0.69527000  0.26133000  0.45281000  1.0 0.1031245223
H  H37  1  0.56944000  0.27036000  0.19258000  1.0 0.1140018285
H  H38  1  0.57051000  0.27087000  0.05961000  1.0 0.1283114309
H  H39  1  0.94923000  0.27687000  0.67736000  1.0 0.1375659884
H  H40  1  0.08689000  0.44991000  0.83197000  1.0 0.1375659884
H  H41  1  0.95197000  0.44773000  0.83368000  1.0 0.1283114309
H  H42  1  0.19393000  0.43611000  0.65649000  1.0 0.1240903916
H  H43  1  0.32885000  0.44085000  0.65814000  1.0 0.1031245223
H  H44  1  0.33416000  0.30168000  0.84823000  1.0 0.1240903916
H  H45  1  0.19924000  0.29694000  0.84658000  1.0 0.1240903916
H  H46  1  0.53793000  0.42207000  0.42684000  1.0 0.1031245223
H  H47  1  0.55274000  0.42428000  0.29312000  1.0 0.1283114309
H  H48  1  0.73867000  0.30473000  0.45281000  1.0 0.1031245223
C  C1  1  0.29860000  0.67140000  0.57920000  1.0 -0.0587263057
C  C2  1  0.28990000  0.67010000  0.65900000  1.0 0.040618601
C  C3  1  0.34560000  0.63440000  0.70710000  1.0 0.0686479913
C  C4  1  0.41020000  0.59980000  0.67490000  1.0 -0.1433643165
C  C5  1  0.41890000  0.60110000  0.59480000  1.0 -0.0224854227
C  C6  1  0.39830000  0.69490000  0.83370000  1.0 -0.1794451444
C  C7  1  0.39820000  0.69360000  0.91410000  1.0 -0.0821750952
C  C8  1  0.15070000  0.64270000  0.23900000  1.0 0.6113396815
C  C9  1  0.02320000  0.68840000  0.29160000  1.0 -0.1433643165
C  C10  1  0.94230000  0.68710000  0.29270000  1.0 0.0450791264
C  C11  1  0.90110000  0.63530000  0.24640000  1.0 0.0221175061
C  C12  1  0.94070000  0.58470000  0.19900000  1.0 -0.1287731842
C  C13  1  0.02150000  0.58610000  0.19800000  1.0 -0.0879659407
C  C14  1  0.06270000  0.63790000  0.24400000  1.0 -0.0224854227
C  C15  1  0.81680000  0.63400000  0.24860000  1.0 0.0686479913
C  C16  1  0.77800000  0.59080000  0.30510000  1.0 -0.1171102548
C  C17  1  0.69720000  0.58800000  0.30410000  1.0 -0.1067859201
C  C18  1  0.65510000  0.62830000  0.24670000  1.0 -0.0224854227
C  C19  1  0.69400000  0.67140000  0.19020000  1.0 -0.0879659407
C  C20  1  0.77480000  0.67420000  0.19120000  1.0 -0.1287731842
C  C21  1  0.56650000  0.62950000  0.25300000  1.0 0.5761504503
C  C22  1  0.32860000  0.70140000  0.57920000  1.0 -0.0587263057
C  C23  1  0.32990000  0.71010000  0.65900000  1.0 0.040618601
C  C24  1  0.36560000  0.65440000  0.70710000  1.0 0.0686479913
C  C25  1  0.40020000  0.58980000  0.67490000  1.0 -0.1433643165
C  C26  1  0.39890000  0.58110000  0.59480000  1.0 -0.0224854227
C  C27  1  0.30510000  0.60170000  0.83370000  1.0 -0.1794451444
C  C28  1  0.30640000  0.60180000  0.91410000  1.0 -0.0821750952
C  C29  1  0.35730000  0.84930000  0.23900000  1.0 0.6113396815
C  C30  1  0.31160000  0.97680000  0.29160000  1.0 -0.1433643165
C  C31  1  0.31290000  0.05770000  0.29270000  1.0 0.040618601
C  C32  1  0.36470000  0.09890000  0.24640000  1.0 0.0221175061
C  C33  1  0.41530000  0.05930000  0.19900000  1.0 -0.1287731842
C  C34  1  0.41390000  0.97850000  0.19800000  1.0 -0.0879659407
C  C35  1  0.36210000  0.93730000  0.24400000  1.0 -0.0224854227
C  C36  1  0.36600000  0.18320000  0.24860000  1.0 0.0686479913
C  C37  1  0.40920000  0.22200000  0.30510000  1.0 -0.1171102548
C  C38  1  0.41200000  0.30280000  0.30410000  1.0 -0.1067859201
C  C39  1  0.37170000  0.34490000  0.24670000  1.0 -0.0224854227
C  C40  1  0.32860000  0.30600000  0.19020000  1.0 -0.0879659407
C  C41  1  0.32580000  0.22520000  0.19120000  1.0 -0.1287731842
C  C42  1  0.37050000  0.43350000  0.25300000  1.0 0.5761504503
C  C43  1  0.36700000  0.63300000  0.45700000  1.0 0.5366898508
C  C44  1  0.36320000  0.63680000  0.54690000  1.0 0.0030599114
C  C45  1  0.35300000  0.64700000  0.79400000  1.0 0.0337495761
C  C46  1  0.35600000  0.64400000  0.95500000  1.0 -0.011111922
C  C47  1  0.35500000  0.64500000  0.04400000  1.0 0.6113396815
C  C48  1  0.67140000  0.29860000  0.42080000  1.0 -0.0587263057
C  C49  1  0.67010000  0.28990000  0.34100000  1.0 0.040618601
C  C50  1  0.63440000  0.34560000  0.29290000  1.0 0.0686479913
C  C51  1  0.59980000  0.41020000  0.32510000  1.0 -0.1433643165
C  C52  1  0.60110000  0.41890000  0.40520000  1.0 -0.0224854227
C  C53  1  0.69490000  0.39830000  0.16630000  1.0 -0.1794451444
C  C54  1  0.69360000  0.39820000  0.08590000  1.0 -0.0821750952
C  C55  1  0.64270000  0.15070000  0.76100000  1.0 0.6113396815
C  C56  1  0.68840000  0.02320000  0.70840000  1.0 -0.1433643165
C  C57  1  0.68710000  0.94230000  0.70730000  1.0 0.040618601
C  C58  1  0.63530000  0.90110000  0.75360000  1.0 0.0221175061
C  C59  1  0.58470000  0.94070000  0.80100000  1.0 -0.1287731842
C  C60  1  0.58610000  0.02150000  0.80200000  1.0 -0.0879659407
C  C61  1  0.63790000  0.06270000  0.75600000  1.0 -0.0224854227
C  C62  1  0.63400000  0.81680000  0.75140000  1.0 0.0686479913
C  C63  1  0.59080000  0.77800000  0.69490000  1.0 -0.1171102548
C  C64  1  0.58800000  0.69720000  0.69590000  1.0 -0.1067859201
C  C65  1  0.62830000  0.65510000  0.75330000  1.0 -0.0224854227
C  C66  1  0.67140000  0.69400000  0.80980000  1.0 -0.0879659407
C  C67  1  0.67420000  0.77480000  0.80880000  1.0 -0.1287731842
C  C68  1  0.62950000  0.56650000  0.74700000  1.0 0.5761504503
C  C69  1  0.70140000  0.32860000  0.42080000  1.0 -0.0587263057
C  C70  1  0.71010000  0.32990000  0.34100000  1.0 0.040618601
C  C71  1  0.65440000  0.36560000  0.29290000  1.0 0.0686479913
C  C72  1  0.58980000  0.40020000  0.32510000  1.0 -0.1433643165
C  C73  1  0.58110000  0.39890000  0.40520000  1.0 -0.0224854227
C  C74  1  0.60170000  0.30510000  0.16630000  1.0 -0.1794451444
C  C75  1  0.60180000  0.30640000  0.08590000  1.0 -0.0821750952
C  C76  1  0.84930000  0.35730000  0.76100000  1.0 0.6113396815
C  C77  1  0.97680000  0.31160000  0.70840000  1.0 -0.1433643165
C  C78  1  0.05770000  0.31290000  0.70730000  1.0 0.040618601
C  C79  1  0.09890000  0.36470000  0.75360000  1.0 0.0221175061
C  C80  1  0.05930000  0.41530000  0.80100000  1.0 -0.1287731842
C  C81  1  0.97850000  0.41390000  0.80200000  1.0 -0.0879659407
C  C82  1  0.93730000  0.36210000  0.75600000  1.0 -0.0224854227
C  C83  1  0.18320000  0.36600000  0.75140000  1.0 0.0686479913
C  C84  1  0.22200000  0.40920000  0.69490000  1.0 -0.1171102548
C  C85  1  0.30280000  0.41200000  0.69590000  1.0 -0.1067859201
C  C86  1  0.34490000  0.37170000  0.75330000  1.0 -0.0224854227
C  C87  1  0.30600000  0.32860000  0.80980000  1.0 -0.0879659407
C  C88  1  0.22520000  0.32580000  0.80880000  1.0 -0.1287731842
C  C89  1  0.43350000  0.37050000  0.74700000  1.0 0.5761504503
C  C90  1  0.63300000  0.36700000  0.54300000  1.0 0.5366898508
C  C91  1  0.63680000  0.36320000  0.45310000  1.0 0.0030599114
C  C92  1  0.64700000  0.35300000  0.20600000  1.0 0.0337495761
C  C93  1  0.64400000  0.35600000  0.04500000  1.0 -0.011111922
C  C94  1  0.64500000  0.35500000  0.95600000  1.0 0.6113396815
N  N1  1  0.90000000  0.74400000  0.34300000  1.0 0.5074880899
N  N2  1  0.21900000  0.69500000  0.69400000  1.0 -0.0224854227
N  N3  1  0.25600000  0.10000000  0.34300000  1.0 0.5074880899
N  N4  1  0.30500000  0.78100000  0.69400000  1.0 -0.0224854227
N  N5  1  0.74400000  0.90000000  0.65700000  1.0 0.5074880899
N  N6  1  0.69500000  0.21900000  0.30600000  1.0 -0.0224854227
N  N7  1  0.10000000  0.25600000  0.65700000  1.0 0.5074880899
N  N8  1  0.78100000  0.30500000  0.30600000  1.0 -0.0224854227
O  O1  1  0.40270000  0.68850000  0.07600000  1.0 -0.5225395827
O  O2  1  0.18560000  0.68500000  0.28640000  1.0 -0.5325446992
O  O3  1  0.18670000  0.59330000  0.20070000  1.0 -0.5384322076
O  O4  1  0.53410000  0.59230000  0.30230000  1.0 -0.5101543634
O  O5  1  0.53260000  0.67700000  0.20330000  1.0 -0.564196196
O  O6  1  0.92100000  0.80900000  0.34700000  1.0 -0.295023766
O  O7  1  0.84000000  0.72000000  0.38400000  1.0 -0.3858281045
O  O8  1  0.16300000  0.64700000  0.71600000  1.0 -0.3807213275
O  O9  1  0.21300000  0.76300000  0.70200000  1.0 0.2311490805
O  O10  1  0.31150000  0.59730000  0.07600000  1.0 -0.5225395827
O  O11  1  0.31500000  0.81440000  0.28640000  1.0 -0.5325446992
O  O12  1  0.40670000  0.81330000  0.20070000  1.0 -0.5384322076
O  O13  1  0.40770000  0.46590000  0.30230000  1.0 -0.5101543634
O  O14  1  0.32300000  0.46740000  0.20330000  1.0 -0.564196196
O  O15  1  0.19100000  0.07900000  0.34700000  1.0 -0.2939971356
O  O16  1  0.28000000  0.16000000  0.38400000  1.0 -0.3858281045
O  O17  1  0.35300000  0.83700000  0.71600000  1.0 -0.3807213275
O  O18  1  0.23700000  0.78700000  0.70200000  1.0 0.2311490805
O  O19  1  0.35830000  0.64170000  0.24910000  1.0 -1.0271442799
O  O20  1  0.41240000  0.58760000  0.43100000  1.0 -0.473892641
O  O21  1  0.31860000  0.68140000  0.42380000  1.0 -0.5384322076
O  O22  1  0.68850000  0.40270000  0.92400000  1.0 -0.5225395827
O  O23  1  0.68500000  0.18560000  0.71360000  1.0 -0.5325446992
O  O24  1  0.59330000  0.18670000  0.79930000  1.0 -0.5384322076
O  O25  1  0.59230000  0.53410000  0.69770000  1.0 -0.5101543634
O  O26  1  0.67700000  0.53260000  0.79670000  1.0 -0.564196196
O  O27  1  0.80900000  0.92100000  0.65300000  1.0 -0.2939971356
O  O28  1  0.72000000  0.84000000  0.61600000  1.0 -0.3858281045
O  O29  1  0.64700000  0.16300000  0.28400000  1.0 -0.3807213275
O  O30  1  0.76300000  0.21300000  0.29800000  1.0 0.2311490805
O  O31  1  0.59730000  0.31150000  0.92400000  1.0 -0.5225395827
O  O32  1  0.81440000  0.31500000  0.71360000  1.0 -0.5325446992
O  O33  1  0.81330000  0.40670000  0.79930000  1.0 -0.5384322076
O  O34  1  0.46590000  0.40770000  0.69770000  1.0 -0.5101543634
O  O35  1  0.46740000  0.32300000  0.79670000  1.0 -0.564196196
O  O36  1  0.07900000  0.19100000  0.65300000  1.0 -0.2939971356
O  O37  1  0.16000000  0.28000000  0.61600000  1.0 -0.3858281045
O  O38  1  0.83700000  0.35300000  0.28400000  1.0 -0.3807213275
O  O39  1  0.78700000  0.23700000  0.29800000  1.0 0.2311490805
O  O40  1  0.64170000  0.35830000  0.75090000  1.0 -1.0271442799
O  O41  1  0.58760000  0.41240000  0.56900000  1.0 -0.473892641
O  O42  1  0.68140000  0.31860000  0.57620000  1.0 -0.5384322076
