# DDEC6 charges by PACMAN v1.1 (https://github.com/mtap-research/PACMAN-charge/)
data_WUCJIQ_ASR_pacman
_symmetry_space_group_name_H-M   'P 1'
_cell_length_a   23.95160000
_cell_length_b   23.95160000
_cell_length_c   24.68200000
_cell_angle_alpha   71.28980000
_cell_angle_beta   108.71000000
_cell_angle_gamma   86.45570000
_symmetry_Int_Tables_number   1
_chemical_formula_structural   Zn5H46C69(NO4)8
_chemical_formula_sum   'Zn20 H184 C276 N32 O128'
_cell_volume   12486.57133480
_cell_formula_units_Z   4
loop_
 _symmetry_equiv_pos_site_id
 _symmetry_equiv_pos_as_xyz
  1  'x, y, z'
loop_
 _atom_site_type_symbol
 _atom_site_label
 _atom_site_symmetry_multiplicity
 _atom_site_fract_x
 _atom_site_fract_y
 _atom_site_fract_z
 _atom_site_occupancy
 _atom_site_charge
Zn  Zn1  1  0.91853000  0.04071000  0.77720000  1.0 0.9323608926
Zn  Zn2  1  0.42066000  0.23170000  0.24760000  1.0 0.87017261
Zn  Zn3  1  0.48076000  0.35786000  0.21740000  1.0 1.0184013447
Zn  Zn4  1  0.97840000  0.16660000  0.75390000  1.0 0.9667864145
Zn  Zn5  1  0.04071000  0.91853000  0.72280000  1.0 0.9323608926
Zn  Zn6  1  0.23170000  0.42066000  0.25240000  1.0 0.87017261
Zn  Zn7  1  0.35786000  0.48076000  0.28260000  1.0 1.0184013447
Zn  Zn8  1  0.16660000  0.97840000  0.74610000  1.0 0.9667864145
Zn  Zn9  1  0.35920000  0.35920000  0.25000000  1.0 0.9667864145
Zn  Zn10  1  0.04100000  0.04100000  0.75000000  1.0 1.0328739783
Zn  Zn11  1  0.08147000  0.95929000  0.22280000  1.0 0.9323608926
Zn  Zn12  1  0.57934000  0.76830000  0.75240000  1.0 0.87017261
Zn  Zn13  1  0.51924000  0.64214000  0.78260000  1.0 1.0184013447
Zn  Zn14  1  0.02160000  0.83340000  0.24610000  1.0 0.9667864145
Zn  Zn15  1  0.95929000  0.08147000  0.27720000  1.0 0.9323608926
Zn  Zn16  1  0.76830000  0.57934000  0.74760000  1.0 0.87017261
Zn  Zn17  1  0.64214000  0.51924000  0.71740000  1.0 1.0184013447
Zn  Zn18  1  0.83340000  0.02160000  0.25390000  1.0 0.9667864145
Zn  Zn19  1  0.64080000  0.64080000  0.75000000  1.0 0.9667864145
Zn  Zn20  1  0.95900000  0.95900000  0.25000000  1.0 1.0328739783
H  H1  1  0.01361000  0.06651000  0.83582000  1.0 0.3958708248
H  H2  1  0.82658000  0.96526000  0.80596000  1.0 0.0997674636
H  H3  1  0.68897000  0.93965000  0.71441000  1.0 0.0997674636
H  H4  1  0.73988000  0.90272000  0.77746000  1.0 0.0997674636
H  H5  1  0.70760000  0.96650000  0.76641000  1.0 0.0907789616
H  H6  1  0.71715000  0.98265000  0.63763000  1.0 0.0907789616
H  H7  1  0.75216000  0.03460000  0.64481000  1.0 0.0997674636
H  H8  1  0.78628000  0.97360000  0.65091000  1.0 0.1112192301
H  H9  1  0.65037000  0.26309000  0.33324000  1.0 0.1384398342
H  H10  1  0.57861000  0.11799000  0.38981000  1.0 0.1306478605
H  H11  1  0.66925000  0.07089000  0.46937000  1.0 0.1112192301
H  H12  1  0.78479000  0.17501000  0.52639000  1.0 0.1112192301
H  H13  1  0.87099000  0.12777000  0.61194000  1.0 0.1306478605
H  H14  1  0.86232000  0.97488000  0.57756000  1.0 0.1112192301
H  H15  1  0.77612000  0.02212000  0.49201000  1.0 0.1112192301
H  H16  1  0.81995000  0.28753000  0.61324000  1.0 0.1384398342
H  H17  1  0.72722000  0.33452000  0.53723000  1.0 0.1306478605
H  H18  1  0.75439000  0.13705000  0.66582000  1.0 0.1306478605
H  H19  1  0.61439000  0.22397000  0.46618000  1.0 0.1112192301
H  H20  1  0.52703000  0.27389000  0.38299000  1.0 0.1205807807
H  H21  1  0.53150000  0.41742000  0.43397000  1.0 0.1205807807
H  H22  1  0.61884000  0.36750000  0.51716000  1.0 0.1205807807
H  H23  1  0.09133000  0.11327000  0.99551000  1.0 0.1306478605
H  H24  1  0.02421000  0.27711000  0.86502000  1.0 0.1384398342
H  H25  1  0.27391000  0.27161000  0.14333000  1.0 0.1112192301
H  H26  1  0.22668000  0.22888000  0.07277000  1.0 0.1112192301
H  H27  1  0.06741000  0.32155000  0.04332000  1.0 0.1112192301
H  H28  1  0.11463000  0.36427000  0.11388000  1.0 0.1306478605
H  H29  1  0.13965000  0.08417000  0.90169000  1.0 0.1306478605
H  H30  1  0.19527000  0.12093000  0.97424000  1.0 0.0812906048
H  H31  1  0.33944000  0.09360000  0.92996000  1.0 0.1112192301
H  H32  1  0.28383000  0.05683000  0.85742000  1.0 0.1205807807
H  H33  1  0.38764000  0.32596000  0.16956000  1.0 0.3580230793
H  H34  1  0.28382000  0.21932000  0.94443000  1.0 0.1205807807
H  H35  1  0.32153000  0.26823000  0.01160000  1.0 0.0997674636
H  H36  1  0.36975000  0.11169000  0.15316000  1.0 0.0997674636
H  H37  1  0.88151000  0.92075000  0.77133000  1.0 0.0997674636
H  H38  1  0.75928000  0.85754000  0.71330000  1.0 0.1112192301
H  H39  1  0.82704000  0.84874000  0.72055000  1.0 0.0812906048
H  H40  1  0.80933000  0.84303000  0.77773000  1.0 0.0997674636
H  H41  1  0.71055000  0.94549000  0.66924000  1.0 0.0907789616
H  H42  1  0.72814000  0.98972000  0.70429000  1.0 0.1306478605
H  H43  1  0.74566000  0.99578000  0.64694000  1.0 0.0586977043
H  H44  1  0.31678000  0.12536000  0.13743000  1.0 0.0907789616
H  H45  1  0.35018000  0.18908000  0.95391000  1.0 0.1205807807
H  H46  1  0.39995000  0.22215000  0.03196000  1.0 0.0997674636
H  H47  1  0.06651000  0.01361000  0.66418000  1.0 0.3958708248
H  H48  1  0.96526000  0.82658000  0.69404000  1.0 0.0997674636
H  H49  1  0.93965000  0.68897000  0.78559000  1.0 0.0997674636
H  H50  1  0.90272000  0.73988000  0.72254000  1.0 0.0997674636
H  H51  1  0.96650000  0.70760000  0.73359000  1.0 0.0907789616
H  H52  1  0.98265000  0.71715000  0.86237000  1.0 0.0907789616
H  H53  1  0.03460000  0.75216000  0.85519000  1.0 0.0997674636
H  H54  1  0.97360000  0.78628000  0.84909000  1.0 0.1112192301
H  H55  1  0.26309000  0.65037000  0.16676000  1.0 0.1384398342
H  H56  1  0.11799000  0.57861000  0.11019000  1.0 0.1306478605
H  H57  1  0.07089000  0.66925000  0.03063000  1.0 0.1205807807
H  H58  1  0.17501000  0.78479000  0.97361000  1.0 0.1112192301
H  H59  1  0.12777000  0.87099000  0.88806000  1.0 0.1306478605
H  H60  1  0.97488000  0.86232000  0.92244000  1.0 0.1112192301
H  H61  1  0.02212000  0.77612000  0.00799000  1.0 0.1112192301
H  H62  1  0.28753000  0.81995000  0.88676000  1.0 0.1384398342
H  H63  1  0.33452000  0.72722000  0.96277000  1.0 0.1306478605
H  H64  1  0.13705000  0.75439000  0.83418000  1.0 0.1306478605
H  H65  1  0.22397000  0.61439000  0.03382000  1.0 0.1112192301
H  H66  1  0.27389000  0.52703000  0.11701000  1.0 0.1205807807
H  H67  1  0.41742000  0.53150000  0.06603000  1.0 0.1205807807
H  H68  1  0.36750000  0.61884000  0.98284000  1.0 0.1205807807
H  H69  1  0.11327000  0.09133000  0.50449000  1.0 0.1306478605
H  H70  1  0.27711000  0.02421000  0.63498000  1.0 0.1384398342
H  H71  1  0.27161000  0.27391000  0.35667000  1.0 0.1112192301
H  H72  1  0.22888000  0.22668000  0.42723000  1.0 0.1112192301
H  H73  1  0.32155000  0.06741000  0.45668000  1.0 0.1112192301
H  H74  1  0.36427000  0.11463000  0.38612000  1.0 0.1306478605
H  H75  1  0.08417000  0.13965000  0.59831000  1.0 0.1306478605
H  H76  1  0.12093000  0.19527000  0.52576000  1.0 0.0812906048
H  H77  1  0.09360000  0.33944000  0.57004000  1.0 0.1112192301
H  H78  1  0.05683000  0.28383000  0.64258000  1.0 0.1205807807
H  H79  1  0.32596000  0.38764000  0.33044000  1.0 0.3580230793
H  H80  1  0.21932000  0.28382000  0.55557000  1.0 0.1205807807
H  H81  1  0.26823000  0.32153000  0.48840000  1.0 0.0997674636
H  H82  1  0.11169000  0.36975000  0.34684000  1.0 0.0997674636
H  H83  1  0.92075000  0.88151000  0.72867000  1.0 0.0997674636
H  H84  1  0.85754000  0.75928000  0.78670000  1.0 0.1112192301
H  H85  1  0.84874000  0.82704000  0.77945000  1.0 0.0812906048
H  H86  1  0.84303000  0.80933000  0.72227000  1.0 0.0997674636
H  H87  1  0.94549000  0.71055000  0.83076000  1.0 0.0907789616
H  H88  1  0.98972000  0.72814000  0.79571000  1.0 0.1306478605
H  H89  1  0.99578000  0.74566000  0.85306000  1.0 0.0586977043
H  H90  1  0.12536000  0.31678000  0.36257000  1.0 0.0907789616
H  H91  1  0.18908000  0.35018000  0.54609000  1.0 0.1205807807
H  H92  1  0.22215000  0.39995000  0.46804000  1.0 0.0997674636
H  H93  1  0.98639000  0.93349000  0.16418000  1.0 0.3958708248
H  H94  1  0.17342000  0.03474000  0.19404000  1.0 0.0997674636
H  H95  1  0.31103000  0.06035000  0.28559000  1.0 0.0997674636
H  H96  1  0.26012000  0.09728000  0.22254000  1.0 0.0997674636
H  H97  1  0.29240000  0.03350000  0.23359000  1.0 0.0907789616
H  H98  1  0.28285000  0.01735000  0.36237000  1.0 0.0907789616
H  H99  1  0.24784000  0.96540000  0.35519000  1.0 0.0997674636
H  H100  1  0.21372000  0.02640000  0.34909000  1.0 0.1112192301
H  H101  1  0.34963000  0.73691000  0.66676000  1.0 0.1384398342
H  H102  1  0.42139000  0.88201000  0.61019000  1.0 0.1306478605
H  H103  1  0.33075000  0.92911000  0.53063000  1.0 0.1112192301
H  H104  1  0.21521000  0.82499000  0.47361000  1.0 0.1112192301
H  H105  1  0.12901000  0.87223000  0.38806000  1.0 0.1306478605
H  H106  1  0.13768000  0.02512000  0.42244000  1.0 0.1112192301
H  H107  1  0.22388000  0.97788000  0.50799000  1.0 0.1112192301
H  H108  1  0.18005000  0.71247000  0.38676000  1.0 0.1384398342
H  H109  1  0.27278000  0.66548000  0.46277000  1.0 0.1306478605
H  H110  1  0.24561000  0.86295000  0.33418000  1.0 0.1306478605
H  H111  1  0.38561000  0.77603000  0.53382000  1.0 0.1112192301
H  H112  1  0.47297000  0.72611000  0.61701000  1.0 0.1205807807
H  H113  1  0.46850000  0.58258000  0.56603000  1.0 0.1205807807
H  H114  1  0.38116000  0.63250000  0.48284000  1.0 0.1205807807
H  H115  1  0.90867000  0.88673000  0.00449000  1.0 0.1306478605
H  H116  1  0.97579000  0.72289000  0.13498000  1.0 0.1384398342
H  H117  1  0.72609000  0.72839000  0.85667000  1.0 0.1112192301
H  H118  1  0.77332000  0.77112000  0.92723000  1.0 0.1112192301
H  H119  1  0.93259000  0.67845000  0.95668000  1.0 0.1112192301
H  H120  1  0.88537000  0.63573000  0.88612000  1.0 0.1205807807
H  H121  1  0.86035000  0.91583000  0.09831000  1.0 0.1306478605
H  H122  1  0.80473000  0.87907000  0.02576000  1.0 0.0812906048
H  H123  1  0.66056000  0.90640000  0.07004000  1.0 0.1112192301
H  H124  1  0.71617000  0.94317000  0.14258000  1.0 0.1205807807
H  H125  1  0.61236000  0.67404000  0.83044000  1.0 0.3580230793
H  H126  1  0.71618000  0.78068000  0.05557000  1.0 0.1205807807
H  H127  1  0.67847000  0.73177000  0.98840000  1.0 0.0997674636
H  H128  1  0.63025000  0.88831000  0.84684000  1.0 0.0997674636
H  H129  1  0.11849000  0.07925000  0.22867000  1.0 0.0997674636
H  H130  1  0.24072000  0.14246000  0.28670000  1.0 0.1112192301
H  H131  1  0.17296000  0.15126000  0.27945000  1.0 0.0812906048
H  H132  1  0.19067000  0.15697000  0.22227000  1.0 0.0997674636
H  H133  1  0.28945000  0.05451000  0.33076000  1.0 0.0907789616
H  H134  1  0.27186000  0.01028000  0.29571000  1.0 0.1306478605
H  H135  1  0.25434000  0.00422000  0.35306000  1.0 0.0586977043
H  H136  1  0.68322000  0.87464000  0.86257000  1.0 0.0907789616
H  H137  1  0.64982000  0.81092000  0.04609000  1.0 0.1205807807
H  H138  1  0.60005000  0.77785000  0.96804000  1.0 0.0997674636
H  H139  1  0.93349000  0.98639000  0.33582000  1.0 0.3958708248
H  H140  1  0.03474000  0.17342000  0.30596000  1.0 0.0997674636
H  H141  1  0.06035000  0.31103000  0.21441000  1.0 0.0907789616
H  H142  1  0.09728000  0.26012000  0.27746000  1.0 0.0997674636
H  H143  1  0.03350000  0.29240000  0.26641000  1.0 0.0907789616
H  H144  1  0.01735000  0.28285000  0.13763000  1.0 0.0907789616
H  H145  1  0.96540000  0.24784000  0.14481000  1.0 0.0997674636
H  H146  1  0.02640000  0.21372000  0.15091000  1.0 0.1112192301
H  H147  1  0.73691000  0.34963000  0.83324000  1.0 0.1384398342
H  H148  1  0.88201000  0.42139000  0.88981000  1.0 0.1306478605
H  H149  1  0.92911000  0.33075000  0.96937000  1.0 0.1205807807
H  H150  1  0.82499000  0.21521000  0.02639000  1.0 0.1112192301
H  H151  1  0.87223000  0.12901000  0.11194000  1.0 0.1306478605
H  H152  1  0.02512000  0.13768000  0.07756000  1.0 0.1112192301
H  H153  1  0.97788000  0.22388000  0.99201000  1.0 0.1112192301
H  H154  1  0.71247000  0.18005000  0.11324000  1.0 0.1384398342
H  H155  1  0.66548000  0.27278000  0.03723000  1.0 0.1306478605
H  H156  1  0.86295000  0.24561000  0.16582000  1.0 0.1306478605
H  H157  1  0.77603000  0.38561000  0.96618000  1.0 0.1112192301
H  H158  1  0.72611000  0.47297000  0.88299000  1.0 0.1205807807
H  H159  1  0.58258000  0.46850000  0.93397000  1.0 0.1205807807
H  H160  1  0.63250000  0.38116000  0.01716000  1.0 0.1205807807
H  H161  1  0.88673000  0.90867000  0.49551000  1.0 0.1306478605
H  H162  1  0.72289000  0.97579000  0.36502000  1.0 0.1384398342
H  H163  1  0.72839000  0.72609000  0.64333000  1.0 0.1112192301
H  H164  1  0.77112000  0.77332000  0.57277000  1.0 0.1112192301
H  H165  1  0.67845000  0.93259000  0.54332000  1.0 0.1112192301
H  H166  1  0.63573000  0.88537000  0.61388000  1.0 0.1306478605
H  H167  1  0.91583000  0.86035000  0.40169000  1.0 0.1306478605
H  H168  1  0.87907000  0.80473000  0.47424000  1.0 0.0812906048
H  H169  1  0.90640000  0.66056000  0.42996000  1.0 0.1112192301
H  H170  1  0.94317000  0.71617000  0.35742000  1.0 0.1205807807
H  H171  1  0.67404000  0.61236000  0.66956000  1.0 0.3580230793
H  H172  1  0.78068000  0.71618000  0.44443000  1.0 0.1205807807
H  H173  1  0.73177000  0.67847000  0.51160000  1.0 0.0997674636
H  H174  1  0.88831000  0.63025000  0.65316000  1.0 0.0997674636
H  H175  1  0.07925000  0.11849000  0.27133000  1.0 0.0997674636
H  H176  1  0.14246000  0.24072000  0.21330000  1.0 0.1112192301
H  H177  1  0.15126000  0.17296000  0.22055000  1.0 0.0812906048
H  H178  1  0.15697000  0.19067000  0.27773000  1.0 0.0997674636
H  H179  1  0.05451000  0.28945000  0.16924000  1.0 0.0907789616
H  H180  1  0.01028000  0.27186000  0.20429000  1.0 0.1306478605
H  H181  1  0.00422000  0.25434000  0.14694000  1.0 0.0586977043
H  H182  1  0.87464000  0.68322000  0.63743000  1.0 0.0907789616
H  H183  1  0.81092000  0.64982000  0.45391000  1.0 0.1205807807
H  H184  1  0.77785000  0.60005000  0.53196000  1.0 0.0997674636
C  C1  1  0.81740000  0.97720000  0.76400000  1.0 0.0713863349
C  C2  1  0.72200000  0.94200000  0.74800000  1.0 -0.3200180405
C  C3  1  0.75400000  0.99200000  0.65900000  1.0 -0.1208855633
C  C4  1  0.54331000  0.22305000  0.30466000  1.0 0.5922572291
C  C5  1  0.71410000  0.13870000  0.44900000  1.0 0.0310815996
C  C6  1  0.70840000  0.19640000  0.40820000  1.0 0.0310815996
C  C7  1  0.65420000  0.22460000  0.36050000  1.0 -0.1291952399
C  C8  1  0.60550000  0.19530000  0.35360000  1.0 -0.0080144175
C  C9  1  0.61120000  0.13760000  0.39440000  1.0 -0.0799081546
C  C10  1  0.66540000  0.10940000  0.44210000  1.0 -0.1500026737
C  C11  1  0.77190000  0.10330000  0.50070000  1.0 0.0812906048
C  C12  1  0.80030000  0.13490000  0.53660000  1.0 -0.1291952399
C  C13  1  0.85200000  0.10660000  0.58790000  1.0 -0.0799081546
C  C14  1  0.87520000  0.04660000  0.60320000  1.0 -0.0191929811
C  C15  1  0.84680000  0.01500000  0.56730000  1.0 -0.1208855633
C  C16  1  0.79510000  0.04330000  0.51600000  1.0 -0.1500026737
C  C17  1  0.93330000  0.01410000  0.66000000  1.0 0.5731660476
C  C18  1  0.85780000  0.17960000  0.69650000  1.0 0.5922572291
C  C19  1  0.79640000  0.20760000  0.64710000  1.0 -0.0191929811
C  C20  1  0.78820000  0.26680000  0.60850000  1.0 -0.0799081546
C  C21  1  0.73270000  0.29490000  0.56300000  1.0 -0.1500026737
C  C22  1  0.68530000  0.26390000  0.55600000  1.0 0.0403127634
C  C23  1  0.69340000  0.20480000  0.59450000  1.0 0.0174066745
C  C24  1  0.74900000  0.17660000  0.64000000  1.0 -0.1500026737
C  C25  1  0.62520000  0.29080000  0.49990000  1.0 0.0812906048
C  C26  1  0.59780000  0.26280000  0.45970000  1.0 -0.1396922785
C  C27  1  0.54540000  0.29260000  0.40990000  1.0 -0.0799081546
C  C28  1  0.52060000  0.35060000  0.40020000  1.0 -0.0304013626
C  C29  1  0.54810000  0.37870000  0.44040000  1.0 -0.0701435413
C  C30  1  0.60050000  0.34870000  0.49030000  1.0 -0.1396922785
C  C31  1  0.46500000  0.37780000  0.34400000  1.0 0.6007824442
C  C32  1  0.02750000  0.16150000  0.87700000  1.0 0.5731660476
C  C33  1  0.05310000  0.19090000  0.92330000  1.0 0.0069099435
C  C34  1  0.08720000  0.15480000  0.98350000  1.0 -0.1603281671
C  C35  1  0.11500000  0.18060000  0.02570000  1.0 0.0069099435
C  C36  1  0.10880000  0.24260000  0.00770000  1.0 -0.0018588512
C  C37  1  0.07480000  0.27880000  0.94750000  1.0 0.0036872864
C  C38  1  0.04700000  0.25300000  0.90530000  1.0 -0.1603281671
C  C39  1  0.19900000  0.32220000  0.13560000  1.0 -0.0080144175
C  C40  1  0.23260000  0.28160000  0.12330000  1.0 -0.1396922785
C  C41  1  0.20420000  0.25600000  0.08100000  1.0 -0.2511059554
C  C42  1  0.14240000  0.27100000  0.05100000  1.0 0.0586977043
C  C43  1  0.10880000  0.31160000  0.06340000  1.0 -0.1500026737
C  C44  1  0.13710000  0.33710000  0.10560000  1.0 -0.1001597547
C  C45  1  0.23260000  0.35260000  0.17900000  1.0 0.5498237512
C  C46  1  0.39443000  0.20705000  0.13784000  1.0 0.2283125906
C  C47  1  0.20620000  0.06680000  0.87240000  1.0 -0.0018588512
C  C48  1  0.17970000  0.08610000  0.90740000  1.0 -0.08880592
C  C49  1  0.21310000  0.10810000  0.95080000  1.0 -0.217469171
C  C50  1  0.27290000  0.11090000  0.95930000  1.0 0.0586977043
C  C51  1  0.29940000  0.09180000  0.92430000  1.0 -0.1603281671
C  C52  1  0.26610000  0.06970000  0.88080000  1.0 -0.11011749
C  C53  1  0.17580000  0.04120000  0.82400000  1.0 0.5809167525
C  C54  1  0.30130000  0.19730000  0.98630000  1.0 -0.0485632257
C  C55  1  0.32320000  0.22720000  0.02670000  1.0 -0.08880592
C  C56  1  0.34880000  0.19500000  0.08960000  1.0 0.0485448767
C  C57  1  0.35230000  0.13350000  0.11100000  1.0 -0.0799081546
C  C58  1  0.33000000  0.10400000  0.07100000  1.0 0.0310815996
C  C59  1  0.30400000  0.13600000  0.00900000  1.0 -0.0393875586
C  C60  1  0.84650000  0.94870000  0.74600000  1.0 -0.0485632257
C  C61  1  0.79800000  0.86400000  0.73400000  1.0 -0.366166255
C  C62  1  0.74030000  0.96830000  0.68200000  1.0 -0.0191929811
C  C63  1  0.37350000  0.22730000  0.13310000  1.0 0.2602608031
C  C64  1  0.36330000  0.17710000  0.09200000  1.0 0.0403127634
C  C65  1  0.32370000  0.13830000  0.10100000  1.0 -0.08880592
C  C66  1  0.29400000  0.11800000  0.05400000  1.0 0.0403127634
C  C67  1  0.30410000  0.13790000  0.99900000  1.0 -0.0304013626
C  C68  1  0.34400000  0.17600000  0.99100000  1.0 -0.0304013626
C  C69  1  0.37370000  0.19570000  0.03700000  1.0 -0.0799081546
C  C70  1  0.97720000  0.81740000  0.73600000  1.0 0.0713863349
C  C71  1  0.94200000  0.72200000  0.75200000  1.0 -0.3200180405
C  C72  1  0.99200000  0.75400000  0.84100000  1.0 -0.11011749
C  C73  1  0.22305000  0.54331000  0.19534000  1.0 0.5922572291
C  C74  1  0.13870000  0.71410000  0.05100000  1.0 0.0310815996
C  C75  1  0.19640000  0.70840000  0.09180000  1.0 0.0310815996
C  C76  1  0.22460000  0.65420000  0.13950000  1.0 -0.1291952399
C  C77  1  0.19530000  0.60550000  0.14640000  1.0 -0.0080144175
C  C78  1  0.13760000  0.61120000  0.10560000  1.0 -0.0799081546
C  C79  1  0.10940000  0.66540000  0.05790000  1.0 -0.1396922785
C  C80  1  0.10330000  0.77190000  0.99930000  1.0 0.0812906048
C  C81  1  0.13490000  0.80030000  0.96340000  1.0 -0.1291952399
C  C82  1  0.10660000  0.85200000  0.91210000  1.0 -0.0799081546
C  C83  1  0.04660000  0.87520000  0.89680000  1.0 -0.0191929811
C  C84  1  0.01500000  0.84680000  0.93270000  1.0 -0.1208855633
C  C85  1  0.04330000  0.79510000  0.98400000  1.0 -0.1500026737
C  C86  1  0.01410000  0.93330000  0.84000000  1.0 0.5731660476
C  C87  1  0.17960000  0.85780000  0.80350000  1.0 0.5922572291
C  C88  1  0.20760000  0.79640000  0.85290000  1.0 -0.0191929811
C  C89  1  0.26680000  0.78820000  0.89150000  1.0 -0.0799081546
C  C90  1  0.29490000  0.73270000  0.93700000  1.0 -0.1500026737
C  C91  1  0.26390000  0.68530000  0.94400000  1.0 0.0403127634
C  C92  1  0.20480000  0.69340000  0.90550000  1.0 0.0174066745
C  C93  1  0.17660000  0.74900000  0.86000000  1.0 -0.1500026737
C  C94  1  0.29080000  0.62520000  0.00010000  1.0 0.0812906048
C  C95  1  0.26280000  0.59780000  0.04030000  1.0 -0.1396922785
C  C96  1  0.29260000  0.54540000  0.09010000  1.0 -0.0799081546
C  C97  1  0.35060000  0.52060000  0.09980000  1.0 -0.0304013626
C  C98  1  0.37870000  0.54810000  0.05960000  1.0 -0.0701435413
C  C99  1  0.34870000  0.60050000  0.00970000  1.0 -0.1396922785
C  C100  1  0.37780000  0.46500000  0.15600000  1.0 0.6007824442
C  C101  1  0.16150000  0.02750000  0.62300000  1.0 0.5731660476
C  C102  1  0.19090000  0.05310000  0.57670000  1.0 0.0069099435
C  C103  1  0.15480000  0.08720000  0.51650000  1.0 -0.1603281671
C  C104  1  0.18060000  0.11500000  0.47430000  1.0 0.0069099435
C  C105  1  0.24260000  0.10880000  0.49230000  1.0 -0.0018588512
C  C106  1  0.27880000  0.07480000  0.55250000  1.0 0.0036872864
C  C107  1  0.25300000  0.04700000  0.59470000  1.0 -0.1603281671
C  C108  1  0.32220000  0.19900000  0.36440000  1.0 -0.0080144175
C  C109  1  0.28160000  0.23260000  0.37670000  1.0 -0.1396922785
C  C110  1  0.25600000  0.20420000  0.41900000  1.0 -0.2511059554
C  C111  1  0.27100000  0.14240000  0.44900000  1.0 0.0586977043
C  C112  1  0.31160000  0.10880000  0.43660000  1.0 -0.1500026737
C  C113  1  0.33710000  0.13710000  0.39440000  1.0 -0.1001597547
C  C114  1  0.35260000  0.23260000  0.32100000  1.0 0.5498237512
C  C115  1  0.20705000  0.39443000  0.36216000  1.0 0.2283125906
C  C116  1  0.06680000  0.20620000  0.62760000  1.0 -0.0018588512
C  C117  1  0.08610000  0.17970000  0.59260000  1.0 -0.08880592
C  C118  1  0.10810000  0.21310000  0.54920000  1.0 -0.217469171
C  C119  1  0.11090000  0.27290000  0.54070000  1.0 0.0586977043
C  C120  1  0.09180000  0.29940000  0.57570000  1.0 -0.1603281671
C  C121  1  0.06970000  0.26610000  0.61920000  1.0 -0.11011749
C  C122  1  0.04120000  0.17580000  0.67600000  1.0 0.5809167525
C  C123  1  0.19730000  0.30130000  0.51370000  1.0 -0.0393875586
C  C124  1  0.22720000  0.32320000  0.47330000  1.0 -0.08880592
C  C125  1  0.19500000  0.34880000  0.41040000  1.0 0.0485448767
C  C126  1  0.13350000  0.35230000  0.38900000  1.0 -0.0799081546
C  C127  1  0.10400000  0.33000000  0.42900000  1.0 0.0310815996
C  C128  1  0.13600000  0.30400000  0.49100000  1.0 -0.0393875586
C  C129  1  0.94870000  0.84650000  0.75400000  1.0 -0.0485632257
C  C130  1  0.86400000  0.79800000  0.76600000  1.0 -0.366166255
C  C131  1  0.96830000  0.74030000  0.81800000  1.0 -0.0191929811
C  C132  1  0.22730000  0.37350000  0.36690000  1.0 0.2602608031
C  C133  1  0.17710000  0.36330000  0.40800000  1.0 0.0403127634
C  C134  1  0.13830000  0.32370000  0.39900000  1.0 -0.08880592
C  C135  1  0.11800000  0.29400000  0.44600000  1.0 0.0403127634
C  C136  1  0.13790000  0.30410000  0.50100000  1.0 -0.0304013626
C  C137  1  0.17600000  0.34400000  0.50900000  1.0 -0.0304013626
C  C138  1  0.19570000  0.37370000  0.46300000  1.0 -0.0799081546
C  C139  1  0.18260000  0.02280000  0.23600000  1.0 0.0713863349
C  C140  1  0.27800000  0.05800000  0.25200000  1.0 -0.3200180405
C  C141  1  0.24600000  0.00800000  0.34100000  1.0 -0.11011749
C  C142  1  0.45669000  0.77695000  0.69534000  1.0 0.5922572291
C  C143  1  0.28590000  0.86130000  0.55100000  1.0 0.0310815996
C  C144  1  0.29160000  0.80360000  0.59180000  1.0 0.0310815996
C  C145  1  0.34580000  0.77540000  0.63950000  1.0 -0.1291952399
C  C146  1  0.39450000  0.80470000  0.64640000  1.0 -0.0080144175
C  C147  1  0.38880000  0.86240000  0.60560000  1.0 -0.0799081546
C  C148  1  0.33460000  0.89060000  0.55790000  1.0 -0.1500026737
C  C149  1  0.22810000  0.89670000  0.49930000  1.0 0.0812906048
C  C150  1  0.19970000  0.86510000  0.46340000  1.0 -0.1291952399
C  C151  1  0.14800000  0.89340000  0.41210000  1.0 -0.0799081546
C  C152  1  0.12480000  0.95340000  0.39680000  1.0 -0.0191929811
C  C153  1  0.15320000  0.98500000  0.43270000  1.0 -0.1208855633
C  C154  1  0.20490000  0.95670000  0.48400000  1.0 -0.1500026737
C  C155  1  0.06670000  0.98590000  0.34000000  1.0 0.5731660476
C  C156  1  0.14220000  0.82040000  0.30350000  1.0 0.5922572291
C  C157  1  0.20360000  0.79240000  0.35290000  1.0 -0.0191929811
C  C158  1  0.21180000  0.73320000  0.39150000  1.0 -0.0799081546
C  C159  1  0.26730000  0.70510000  0.43700000  1.0 -0.1500026737
C  C160  1  0.31470000  0.73610000  0.44400000  1.0 0.0403127634
C  C161  1  0.30660000  0.79520000  0.40550000  1.0 0.0174066745
C  C162  1  0.25100000  0.82340000  0.36000000  1.0 -0.1500026737
C  C163  1  0.37480000  0.70920000  0.50010000  1.0 0.0812906048
C  C164  1  0.40220000  0.73720000  0.54030000  1.0 -0.1396922785
C  C165  1  0.45460000  0.70740000  0.59010000  1.0 -0.0799081546
C  C166  1  0.47940000  0.64940000  0.59980000  1.0 -0.0304013626
C  C167  1  0.45190000  0.62130000  0.55960000  1.0 -0.0701435413
C  C168  1  0.39950000  0.65130000  0.50970000  1.0 -0.1396922785
C  C169  1  0.53500000  0.62220000  0.65600000  1.0 0.6007824442
C  C170  1  0.97250000  0.83850000  0.12300000  1.0 0.5731660476
C  C171  1  0.94690000  0.80910000  0.07670000  1.0 0.0069099435
C  C172  1  0.91280000  0.84520000  0.01650000  1.0 -0.1603281671
C  C173  1  0.88500000  0.81940000  0.97430000  1.0 0.0069099435
C  C174  1  0.89120000  0.75740000  0.99230000  1.0 0.0036872864
C  C175  1  0.92520000  0.72120000  0.05250000  1.0 0.0036872864
C  C176  1  0.95300000  0.74700000  0.09470000  1.0 -0.1603281671
C  C177  1  0.80100000  0.67780000  0.86440000  1.0 -0.0080144175
C  C178  1  0.76740000  0.71840000  0.87670000  1.0 -0.1396922785
C  C179  1  0.79580000  0.74400000  0.91900000  1.0 -0.2511059554
C  C180  1  0.85760000  0.72900000  0.94900000  1.0 0.0586977043
C  C181  1  0.89120000  0.68840000  0.93660000  1.0 -0.1500026737
C  C182  1  0.86290000  0.66290000  0.89440000  1.0 -0.1001597547
C  C183  1  0.76740000  0.64740000  0.82100000  1.0 0.5498237512
C  C184  1  0.60557000  0.79295000  0.86216000  1.0 0.2283125906
C  C185  1  0.79380000  0.93320000  0.12760000  1.0 -0.0018588512
C  C186  1  0.82030000  0.91390000  0.09260000  1.0 -0.08880592
C  C187  1  0.78690000  0.89190000  0.04920000  1.0 -0.217469171
C  C188  1  0.72710000  0.88910000  0.04070000  1.0 0.0586977043
C  C189  1  0.70060000  0.90820000  0.07570000  1.0 -0.1603281671
C  C190  1  0.73390000  0.93030000  0.11920000  1.0 -0.1001597547
C  C191  1  0.82420000  0.95880000  0.17600000  1.0 0.5809167525
C  C192  1  0.69870000  0.80270000  0.01370000  1.0 -0.0393875586
C  C193  1  0.67680000  0.77280000  0.97330000  1.0 -0.08880592
C  C194  1  0.65120000  0.80500000  0.91040000  1.0 0.0485448767
C  C195  1  0.64770000  0.86650000  0.88900000  1.0 -0.0799081546
C  C196  1  0.67000000  0.89600000  0.92900000  1.0 0.0310815996
C  C197  1  0.69600000  0.86400000  0.99100000  1.0 -0.0393875586
C  C198  1  0.15350000  0.05130000  0.25400000  1.0 -0.0485632257
C  C199  1  0.20200000  0.13600000  0.26600000  1.0 -0.366166255
C  C200  1  0.25970000  0.03170000  0.31800000  1.0 -0.0191929811
C  C201  1  0.62650000  0.77270000  0.86690000  1.0 0.2602608031
C  C202  1  0.63670000  0.82290000  0.90800000  1.0 0.0403127634
C  C203  1  0.67630000  0.86170000  0.89900000  1.0 -0.08880592
C  C204  1  0.70600000  0.88200000  0.94600000  1.0 0.0403127634
C  C205  1  0.69590000  0.86210000  0.00100000  1.0 -0.0304013626
C  C206  1  0.65600000  0.82400000  0.00900000  1.0 -0.0304013626
C  C207  1  0.62630000  0.80430000  0.96300000  1.0 -0.0799081546
C  C208  1  0.02280000  0.18260000  0.26400000  1.0 0.0713863349
C  C209  1  0.05800000  0.27800000  0.24800000  1.0 -0.3200180405
C  C210  1  0.00800000  0.24600000  0.15900000  1.0 -0.1208855633
C  C211  1  0.77695000  0.45669000  0.80466000  1.0 0.5922572291
C  C212  1  0.86130000  0.28590000  0.94900000  1.0 0.0310815996
C  C213  1  0.80360000  0.29160000  0.90820000  1.0 0.0310815996
C  C214  1  0.77540000  0.34580000  0.86050000  1.0 -0.1291952399
C  C215  1  0.80470000  0.39450000  0.85360000  1.0 -0.0080144175
C  C216  1  0.86240000  0.38880000  0.89440000  1.0 -0.0799081546
C  C217  1  0.89060000  0.33460000  0.94210000  1.0 -0.1500026737
C  C218  1  0.89670000  0.22810000  0.00070000  1.0 0.0812906048
C  C219  1  0.86510000  0.19970000  0.03660000  1.0 -0.1291952399
C  C220  1  0.89340000  0.14800000  0.08790000  1.0 -0.0799081546
C  C221  1  0.95340000  0.12480000  0.10320000  1.0 -0.0191929811
C  C222  1  0.98500000  0.15320000  0.06730000  1.0 -0.1208855633
C  C223  1  0.95670000  0.20490000  0.01600000  1.0 -0.1500026737
C  C224  1  0.98590000  0.06670000  0.16000000  1.0 0.5731660476
C  C225  1  0.82040000  0.14220000  0.19650000  1.0 0.5922572291
C  C226  1  0.79240000  0.20360000  0.14710000  1.0 -0.0191929811
C  C227  1  0.73320000  0.21180000  0.10850000  1.0 -0.0799081546
C  C228  1  0.70510000  0.26730000  0.06300000  1.0 -0.1500026737
C  C229  1  0.73610000  0.31470000  0.05600000  1.0 0.0403127634
C  C230  1  0.79520000  0.30660000  0.09450000  1.0 0.0174066745
C  C231  1  0.82340000  0.25100000  0.14000000  1.0 -0.1500026737
C  C232  1  0.70920000  0.37480000  0.99990000  1.0 0.0812906048
C  C233  1  0.73720000  0.40220000  0.95970000  1.0 -0.1396922785
C  C234  1  0.70740000  0.45460000  0.90990000  1.0 -0.0799081546
C  C235  1  0.64940000  0.47940000  0.90020000  1.0 -0.0304013626
C  C236  1  0.62130000  0.45190000  0.94040000  1.0 -0.0701435413
C  C237  1  0.65130000  0.39950000  0.99030000  1.0 -0.1396922785
C  C238  1  0.62220000  0.53500000  0.84400000  1.0 0.6007824442
C  C239  1  0.83850000  0.97250000  0.37700000  1.0 0.5731660476
C  C240  1  0.80910000  0.94690000  0.42330000  1.0 0.0069099435
C  C241  1  0.84520000  0.91280000  0.48350000  1.0 -0.1603281671
C  C242  1  0.81940000  0.88500000  0.52570000  1.0 0.0069099435
C  C243  1  0.75740000  0.89120000  0.50770000  1.0 -0.0018588512
C  C244  1  0.72120000  0.92520000  0.44750000  1.0 0.0036872864
C  C245  1  0.74700000  0.95300000  0.40530000  1.0 -0.1603281671
C  C246  1  0.67780000  0.80100000  0.63560000  1.0 -0.0080144175
C  C247  1  0.71840000  0.76740000  0.62330000  1.0 -0.1396922785
C  C248  1  0.74400000  0.79580000  0.58100000  1.0 -0.2511059554
C  C249  1  0.72900000  0.85760000  0.55100000  1.0 0.0586977043
C  C250  1  0.68840000  0.89120000  0.56340000  1.0 -0.1500026737
C  C251  1  0.66290000  0.86290000  0.60560000  1.0 -0.1001597547
C  C252  1  0.64740000  0.76740000  0.67900000  1.0 0.5498237512
C  C253  1  0.79295000  0.60557000  0.63784000  1.0 0.2283125906
C  C254  1  0.93320000  0.79380000  0.37240000  1.0 -0.0018588512
C  C255  1  0.91390000  0.82030000  0.40740000  1.0 -0.08880592
C  C256  1  0.89190000  0.78690000  0.45080000  1.0 -0.217469171
C  C257  1  0.88910000  0.72710000  0.45930000  1.0 0.0586977043
C  C258  1  0.90820000  0.70060000  0.42430000  1.0 -0.1603281671
C  C259  1  0.93030000  0.73390000  0.38080000  1.0 -0.1001597547
C  C260  1  0.95880000  0.82420000  0.32400000  1.0 0.5809167525
C  C261  1  0.80270000  0.69870000  0.48630000  1.0 -0.0485632257
C  C262  1  0.77280000  0.67680000  0.52670000  1.0 -0.08880592
C  C263  1  0.80500000  0.65120000  0.58960000  1.0 0.0485448767
C  C264  1  0.86650000  0.64770000  0.61100000  1.0 -0.0799081546
C  C265  1  0.89600000  0.67000000  0.57100000  1.0 0.0310815996
C  C266  1  0.86400000  0.69600000  0.50900000  1.0 -0.0304013626
C  C267  1  0.05130000  0.15350000  0.24600000  1.0 -0.0485632257
C  C268  1  0.13600000  0.20200000  0.23400000  1.0 -0.366166255
C  C269  1  0.03170000  0.25970000  0.18200000  1.0 -0.0191929811
C  C270  1  0.77270000  0.62650000  0.63310000  1.0 0.2602608031
C  C271  1  0.82290000  0.63670000  0.59200000  1.0 0.0403127634
C  C272  1  0.86170000  0.67630000  0.60100000  1.0 -0.08880592
C  C273  1  0.88200000  0.70600000  0.55400000  1.0 0.0403127634
C  C274  1  0.86210000  0.69590000  0.49900000  1.0 -0.0304013626
C  C275  1  0.82400000  0.65600000  0.49100000  1.0 -0.0304013626
C  C276  1  0.80430000  0.62630000  0.53700000  1.0 -0.0799081546
N  N1  1  0.76630000  0.96910000  0.72400000  1.0 0.162897726
N  N2  1  0.14400000  0.14080000  0.08640000  1.0 0.1112192301
N  N3  1  0.76110000  0.22990000  0.41200000  1.0 0.5121115347
N  N4  1  0.64230000  0.17170000  0.59500000  1.0 0.4429128369
N  N5  1  0.32455000  0.03979000  0.09796000  1.0 0.3507574102
N  N6  1  0.79720000  0.92720000  0.72200000  1.0 0.0997674636
N  N7  1  0.06154000  0.34620000  0.92247000  1.0 0.4709940231
N  N8  1  0.25677000  0.07103000  0.07427000  1.0 0.0812906048
N  N9  1  0.96910000  0.76630000  0.77600000  1.0 0.162897726
N  N10  1  0.14080000  0.14400000  0.41360000  1.0 0.1112192301
N  N11  1  0.22990000  0.76110000  0.08800000  1.0 0.5121115347
N  N12  1  0.17170000  0.64230000  0.90500000  1.0 0.4429128369
N  N13  1  0.03979000  0.32455000  0.40204000  1.0 0.3507574102
N  N14  1  0.92720000  0.79720000  0.77800000  1.0 0.0997674636
N  N15  1  0.34620000  0.06154000  0.57753000  1.0 0.4709940231
N  N16  1  0.07103000  0.25677000  0.42573000  1.0 0.0812906048
N  N17  1  0.23370000  0.03090000  0.27600000  1.0 0.162897726
N  N18  1  0.85600000  0.85920000  0.91360000  1.0 0.1112192301
N  N19  1  0.23890000  0.77010000  0.58800000  1.0 0.5121115347
N  N20  1  0.35770000  0.82830000  0.40500000  1.0 0.4429128369
N  N21  1  0.67545000  0.96021000  0.90204000  1.0 0.3507574102
N  N22  1  0.20280000  0.07280000  0.27800000  1.0 0.0997674636
N  N23  1  0.93846000  0.65380000  0.07753000  1.0 0.4709940231
N  N24  1  0.74323000  0.92897000  0.92573000  1.0 0.0812906048
N  N25  1  0.03090000  0.23370000  0.22400000  1.0 0.162897726
N  N26  1  0.85920000  0.85600000  0.58640000  1.0 0.1112192301
N  N27  1  0.77010000  0.23890000  0.91200000  1.0 0.5121115347
N  N28  1  0.82830000  0.35770000  0.09500000  1.0 0.4429128369
N  N29  1  0.96021000  0.67545000  0.59796000  1.0 0.3580230793
N  N30  1  0.07280000  0.20280000  0.22200000  1.0 0.0997674636
N  N31  1  0.65380000  0.93846000  0.42247000  1.0 0.4709940231
N  N32  1  0.92897000  0.74323000  0.57427000  1.0 0.0812906048
O  O1  1  0.84920000  0.00160000  0.73780000  1.0 -0.217469171
O  O2  1  0.54280000  0.27980000  0.27760000  1.0 -0.6047168771
O  O3  1  0.50210000  0.19270000  0.30180000  1.0 -0.5268166387
O  O4  1  0.95060000  0.04380000  0.69530000  1.0 -0.5775038997
O  O5  1  0.95970000  0.96970000  0.66340000  1.0 -0.4964294153
O  O6  1  0.85750000  0.12130000  0.72570000  1.0 -0.6323660114
O  O7  1  0.89950000  0.20730000  0.69680000  1.0 -0.5268166387
O  O8  1  0.44030000  0.42730000  0.34190000  1.0 -0.5697327951
O  O9  1  0.44700000  0.35420000  0.30690000  1.0 -0.544341872
O  O10  1  0.03460000  0.10720000  0.89250000  1.0 -0.5142800509
O  O11  1  0.00350000  0.19850000  0.81900000  1.0 -0.5697327951
O  O12  1  0.13780000  0.15160000  0.13100000  1.0 -0.2615568736
O  O13  1  0.17460000  0.09580000  0.08700000  1.0 -0.0485632257
O  O14  1  0.20420000  0.38260000  0.19920000  1.0 -0.4964294153
O  O15  1  0.28110000  0.35350000  0.18490000  1.0 -0.4064867297
O  O16  1  0.43650000  0.23450000  0.13600000  1.0 -0.2100139303
O  O17  1  0.38970000  0.19630000  0.18910000  1.0 -0.3395972313
O  O18  1  0.12040000  0.04440000  0.81910000  1.0 -0.5697327951
O  O19  1  0.19970000  0.02250000  0.79560000  1.0 -0.4964294153
O  O20  1  0.99350000  0.07970000  0.79100000  1.0 -0.8919964382
O  O21  1  0.40480000  0.31540000  0.21110000  1.0 -0.8465845982
O  O22  1  0.75160000  0.28160000  0.41400000  1.0 -0.3944242397
O  O23  1  0.80880000  0.20160000  0.41500000  1.0 -0.366166255
O  O24  1  0.64600000  0.12420000  0.58400000  1.0 -0.3944242397
O  O25  1  0.59580000  0.20620000  0.58700000  1.0 -0.3395972313
O  O26  1  0.31325000  0.03001000  0.14620000  1.0 -0.2444150397
O  O27  1  0.34098000  0.00240000  0.07763000  1.0 -0.2615568736
O  O28  1  0.10184000  0.37090000  0.92967000  1.0 -0.217469171
O  O29  1  0.01114000  0.37880000  0.89397000  1.0 -0.2984142327
O  O30  1  0.37510000  0.28110000  0.11180000  1.0 -0.2100139303
O  O31  1  0.22460000  0.08320000  0.10200000  1.0 -0.1001597547
O  O32  1  0.26880000  0.02220000  0.06800000  1.0 -0.0701435413
O  O33  1  0.00160000  0.84920000  0.76220000  1.0 -0.217469171
O  O34  1  0.27980000  0.54280000  0.22240000  1.0 -0.6047168771
O  O35  1  0.19270000  0.50210000  0.19820000  1.0 -0.5268166387
O  O36  1  0.04380000  0.95060000  0.80470000  1.0 -0.5775038997
O  O37  1  0.96970000  0.95970000  0.83660000  1.0 -0.4964294153
O  O38  1  0.12130000  0.85750000  0.77430000  1.0 -0.6323660114
O  O39  1  0.20730000  0.89950000  0.80320000  1.0 -0.5268166387
O  O40  1  0.42730000  0.44030000  0.15810000  1.0 -0.5697327951
O  O41  1  0.35420000  0.44700000  0.19310000  1.0 -0.544341872
O  O42  1  0.10720000  0.03460000  0.60750000  1.0 -0.5142800509
O  O43  1  0.19850000  0.00350000  0.68100000  1.0 -0.5697327951
O  O44  1  0.15160000  0.13780000  0.36900000  1.0 -0.2615568736
O  O45  1  0.09580000  0.17460000  0.41300000  1.0 -0.0485632257
O  O46  1  0.38260000  0.20420000  0.30080000  1.0 -0.4964294153
O  O47  1  0.35350000  0.28110000  0.31510000  1.0 -0.4064867297
O  O48  1  0.23450000  0.43650000  0.36400000  1.0 -0.2100139303
O  O49  1  0.19630000  0.38970000  0.31090000  1.0 -0.3395972313
O  O50  1  0.04440000  0.12040000  0.68090000  1.0 -0.5697327951
O  O51  1  0.02250000  0.19970000  0.70440000  1.0 -0.4964294153
O  O52  1  0.07970000  0.99350000  0.70900000  1.0 -0.8919964382
O  O53  1  0.31540000  0.40480000  0.28890000  1.0 -0.8465845982
O  O54  1  0.28160000  0.75160000  0.08600000  1.0 -0.3944242397
O  O55  1  0.20160000  0.80880000  0.08500000  1.0 -0.366166255
O  O56  1  0.12420000  0.64600000  0.91600000  1.0 -0.3950815299
O  O57  1  0.20620000  0.59580000  0.91300000  1.0 -0.3395972313
O  O58  1  0.03001000  0.31325000  0.35380000  1.0 -0.2444150397
O  O59  1  0.00240000  0.34098000  0.42237000  1.0 -0.2615568736
O  O60  1  0.37090000  0.10184000  0.57033000  1.0 -0.217469171
O  O61  1  0.37880000  0.01114000  0.60603000  1.0 -0.2984142327
O  O62  1  0.28110000  0.37510000  0.38820000  1.0 -0.2100139303
O  O63  1  0.08320000  0.22460000  0.39800000  1.0 -0.1001597547
O  O64  1  0.02220000  0.26880000  0.43200000  1.0 -0.0701435413
O  O65  1  0.15080000  0.99840000  0.26220000  1.0 -0.217469171
O  O66  1  0.45720000  0.72020000  0.72240000  1.0 -0.6047168771
O  O67  1  0.49790000  0.80730000  0.69820000  1.0 -0.5268166387
O  O68  1  0.04940000  0.95620000  0.30470000  1.0 -0.5775038997
O  O69  1  0.04030000  0.03030000  0.33660000  1.0 -0.4964294153
O  O70  1  0.14250000  0.87870000  0.27430000  1.0 -0.6323660114
O  O71  1  0.10050000  0.79270000  0.30320000  1.0 -0.5268166387
O  O72  1  0.55970000  0.57270000  0.65810000  1.0 -0.5697327951
O  O73  1  0.55300000  0.64580000  0.69310000  1.0 -0.544341872
O  O74  1  0.96540000  0.89280000  0.10750000  1.0 -0.5160082677
O  O75  1  0.99650000  0.80150000  0.18100000  1.0 -0.5697327951
O  O76  1  0.86220000  0.84840000  0.86900000  1.0 -0.2615568736
O  O77  1  0.82540000  0.90420000  0.91300000  1.0 -0.0485632257
O  O78  1  0.79580000  0.61740000  0.80080000  1.0 -0.4964294153
O  O79  1  0.71890000  0.64650000  0.81510000  1.0 -0.4064867297
O  O80  1  0.56350000  0.76550000  0.86400000  1.0 -0.2100139303
O  O81  1  0.61030000  0.80370000  0.81090000  1.0 -0.3395972313
O  O82  1  0.87960000  0.95560000  0.18090000  1.0 -0.5697327951
O  O83  1  0.80030000  0.97750000  0.20440000  1.0 -0.4964294153
O  O84  1  0.00650000  0.92030000  0.20900000  1.0 -0.8919964382
O  O85  1  0.59520000  0.68460000  0.78890000  1.0 -0.8465845982
O  O86  1  0.24840000  0.71840000  0.58600000  1.0 -0.3944242397
O  O87  1  0.19120000  0.79840000  0.58500000  1.0 -0.366166255
O  O88  1  0.35400000  0.87580000  0.41600000  1.0 -0.3950815299
O  O89  1  0.40420000  0.79380000  0.41300000  1.0 -0.3395972313
O  O90  1  0.68675000  0.96999000  0.85380000  1.0 -0.2444150397
O  O91  1  0.65902000  0.99760000  0.92237000  1.0 -0.2615568736
O  O92  1  0.89816000  0.62910000  0.07033000  1.0 -0.2268173346
O  O93  1  0.98886000  0.62120000  0.10603000  1.0 -0.2984142327
O  O94  1  0.62490000  0.71890000  0.88820000  1.0 -0.2100139303
O  O95  1  0.77540000  0.91680000  0.89800000  1.0 -0.1001597547
O  O96  1  0.73120000  0.97780000  0.93200000  1.0 -0.0701435413
O  O97  1  0.99840000  0.15080000  0.23780000  1.0 -0.217469171
O  O98  1  0.72020000  0.45720000  0.77760000  1.0 -0.6047168771
O  O99  1  0.80730000  0.49790000  0.80180000  1.0 -0.5268166387
O  O100  1  0.95620000  0.04940000  0.19530000  1.0 -0.5775038997
O  O101  1  0.03030000  0.04030000  0.16340000  1.0 -0.4945405224
O  O102  1  0.87870000  0.14250000  0.22570000  1.0 -0.6323660114
O  O103  1  0.79270000  0.10050000  0.19680000  1.0 -0.5268166387
O  O104  1  0.57270000  0.55970000  0.84190000  1.0 -0.5697327951
O  O105  1  0.64580000  0.55300000  0.80690000  1.0 -0.544341872
O  O106  1  0.89280000  0.96540000  0.39250000  1.0 -0.5142800509
O  O107  1  0.80150000  0.99650000  0.31900000  1.0 -0.5697327951
O  O108  1  0.84840000  0.86220000  0.63100000  1.0 -0.2615568736
O  O109  1  0.90420000  0.82540000  0.58700000  1.0 -0.0485632257
O  O110  1  0.61740000  0.79580000  0.69920000  1.0 -0.4964294153
O  O111  1  0.64650000  0.71890000  0.68490000  1.0 -0.4064867297
O  O112  1  0.76550000  0.56350000  0.63600000  1.0 -0.2100139303
O  O113  1  0.80370000  0.61030000  0.68910000  1.0 -0.3395972313
O  O114  1  0.95560000  0.87960000  0.31910000  1.0 -0.5697327951
O  O115  1  0.97750000  0.80030000  0.29560000  1.0 -0.4964294153
O  O116  1  0.92030000  0.00650000  0.29100000  1.0 -0.8919964382
O  O117  1  0.68460000  0.59520000  0.71110000  1.0 -0.8465845982
O  O118  1  0.71840000  0.24840000  0.91400000  1.0 -0.3944242397
O  O119  1  0.79840000  0.19120000  0.91500000  1.0 -0.366166255
O  O120  1  0.87580000  0.35400000  0.08400000  1.0 -0.3950815299
O  O121  1  0.79380000  0.40420000  0.08700000  1.0 -0.3395972313
O  O122  1  0.96999000  0.68675000  0.64620000  1.0 -0.2444150397
O  O123  1  0.99760000  0.65902000  0.57763000  1.0 -0.2615568736
O  O124  1  0.62910000  0.89816000  0.42967000  1.0 -0.217469171
O  O125  1  0.62120000  0.98886000  0.39397000  1.0 -0.2984142327
O  O126  1  0.71890000  0.62490000  0.61180000  1.0 -0.2100139303
O  O127  1  0.91680000  0.77540000  0.60200000  1.0 -0.1001597547
O  O128  1  0.97780000  0.73120000  0.56800000  1.0 -0.0799081546
