# DDEC6 charges by PACMAN v1.1 (https://github.com/mtap-research/PACMAN-charge/)
data_WUDTUM_ASR_pacman
_symmetry_space_group_name_H-M   'P 1'
_cell_length_a   5.73210000
_cell_length_b   32.80770000
_cell_length_c   35.03060000
_cell_angle_alpha   90.00000000
_cell_angle_beta   90.00000000
_cell_angle_gamma   90.00000000
_symmetry_Int_Tables_number   1
_chemical_formula_structural   EuH31C33O7
_chemical_formula_sum   'Eu8 H248 C264 O56'
_cell_volume   6587.75014568
_cell_formula_units_Z   8
loop_
 _symmetry_equiv_pos_site_id
 _symmetry_equiv_pos_as_xyz
  1  'x, y, z'
loop_
 _atom_site_type_symbol
 _atom_site_label
 _atom_site_symmetry_multiplicity
 _atom_site_fract_x
 _atom_site_fract_y
 _atom_site_fract_z
 _atom_site_occupancy
 _atom_site_charge
Eu  Eu1  1  0.19830000  0.81795000  0.75000000  1.0 1.8386982318
Eu  Eu2  1  0.69830000  0.68205000  0.25000000  1.0 1.8386982318
Eu  Eu3  1  0.80170000  0.31795000  0.75000000  1.0 1.8386982318
Eu  Eu4  1  0.30170000  0.18205000  0.25000000  1.0 1.8386982318
Eu  Eu5  1  0.37740000  0.54366000  0.25000000  1.0 2.0995894309
Eu  Eu6  1  0.87740000  0.95634000  0.75000000  1.0 2.0995894309
Eu  Eu7  1  0.62260000  0.04366000  0.25000000  1.0 2.0995894309
Eu  Eu8  1  0.12260000  0.45634000  0.75000000  1.0 2.0995894309
H  H1  1  0.23670000  0.71690000  0.64560000  1.0 0.1296797559
H  H2  1  0.73670000  0.78310000  0.35440000  1.0 0.1296797559
H  H3  1  0.76330000  0.21690000  0.85440000  1.0 0.1296797559
H  H4  1  0.26330000  0.28310000  0.14560000  1.0 0.1296797559
H  H5  1  0.26330000  0.28310000  0.35440000  1.0 0.1296797559
H  H6  1  0.76330000  0.21690000  0.64560000  1.0 0.1296797559
H  H7  1  0.73670000  0.78310000  0.14560000  1.0 0.1296797559
H  H8  1  0.23670000  0.71690000  0.85440000  1.0 0.1296797559
H  H9  1  0.77170000  0.79350000  0.65190000  1.0 0.1219664871
H  H10  1  0.27170000  0.70650000  0.34810000  1.0 0.1219664871
H  H11  1  0.22830000  0.29350000  0.84810000  1.0 0.1219664871
H  H12  1  0.72830000  0.20650000  0.15190000  1.0 0.1219664871
H  H13  1  0.72830000  0.20650000  0.34810000  1.0 0.1219664871
H  H14  1  0.22830000  0.29350000  0.65190000  1.0 0.1219664871
H  H15  1  0.27170000  0.70650000  0.15190000  1.0 0.1219664871
H  H16  1  0.77170000  0.79350000  0.84810000  1.0 0.1219664871
H  H17  1  0.40500000  0.68590000  0.59330000  1.0 0.1396041471
H  H18  1  0.90500000  0.81410000  0.40670000  1.0 0.1396041471
H  H19  1  0.59500000  0.18590000  0.90670000  1.0 0.1396041471
H  H20  1  0.09500000  0.31410000  0.09330000  1.0 0.1396041471
H  H21  1  0.09500000  0.31410000  0.40670000  1.0 0.1396041471
H  H22  1  0.59500000  0.18590000  0.59330000  1.0 0.1396041471
H  H23  1  0.90500000  0.81410000  0.09330000  1.0 0.1396041471
H  H24  1  0.40500000  0.68590000  0.90670000  1.0 0.1396041471
H  H25  1  0.92850000  0.76420000  0.59610000  1.0 0.1219664871
H  H26  1  0.42850000  0.73580000  0.40390000  1.0 0.1219664871
H  H27  1  0.07150000  0.26420000  0.90390000  1.0 0.1219664871
H  H28  1  0.57150000  0.23580000  0.09610000  1.0 0.1219664871
H  H29  1  0.57150000  0.23580000  0.40390000  1.0 0.1219664871
H  H30  1  0.07150000  0.26420000  0.59610000  1.0 0.1219664871
H  H31  1  0.42850000  0.73580000  0.09610000  1.0 0.1219664871
H  H32  1  0.92850000  0.76420000  0.90390000  1.0 0.1219664871
H  H33  1  0.94730000  0.70160000  0.55740000  1.0 0.1219664871
H  H34  1  0.44730000  0.79840000  0.44260000  1.0 0.1219664871
H  H35  1  0.05270000  0.20160000  0.94260000  1.0 0.1219664871
H  H36  1  0.55270000  0.29840000  0.05740000  1.0 0.1219664871
H  H37  1  0.55270000  0.29840000  0.44260000  1.0 0.1219664871
H  H38  1  0.05270000  0.20160000  0.55740000  1.0 0.1219664871
H  H39  1  0.44730000  0.79840000  0.05740000  1.0 0.1219664871
H  H40  1  0.94730000  0.70160000  0.94260000  1.0 0.1219664871
H  H41  1  0.76050000  0.72390000  0.53250000  1.0 0.1219664871
H  H42  1  0.26050000  0.77610000  0.46750000  1.0 0.1219664871
H  H43  1  0.23950000  0.22390000  0.96750000  1.0 0.1219664871
H  H44  1  0.73950000  0.27610000  0.03250000  1.0 0.1219664871
H  H45  1  0.73950000  0.27610000  0.46750000  1.0 0.1219664871
H  H46  1  0.23950000  0.22390000  0.53250000  1.0 0.1219664871
H  H47  1  0.26050000  0.77610000  0.03250000  1.0 0.1219664871
H  H48  1  0.76050000  0.72390000  0.96750000  1.0 0.1219664871
H  H49  1  0.39480000  0.72120000  0.52140000  1.0 0.1296797559
H  H50  1  0.89480000  0.77880000  0.47860000  1.0 0.1296797559
H  H51  1  0.60520000  0.22120000  0.97860000  1.0 0.1296797559
H  H52  1  0.10520000  0.27880000  0.02140000  1.0 0.1296797559
H  H53  1  0.10520000  0.27880000  0.47860000  1.0 0.1296797559
H  H54  1  0.60520000  0.22120000  0.52140000  1.0 0.1296797559
H  H55  1  0.89480000  0.77880000  0.02140000  1.0 0.1296797559
H  H56  1  0.39480000  0.72120000  0.97860000  1.0 0.1296797559
H  H57  1  0.23400000  0.69670000  0.49340000  1.0 0.1296797559
H  H58  1  0.73400000  0.80330000  0.50660000  1.0 0.1296797559
H  H59  1  0.76600000  0.19670000  0.00660000  1.0 0.1296797559
H  H60  1  0.26600000  0.30330000  0.99340000  1.0 0.1296797559
H  H61  1  0.26600000  0.30330000  0.50660000  1.0 0.1296797559
H  H62  1  0.76600000  0.19670000  0.49340000  1.0 0.1296797559
H  H63  1  0.73400000  0.80330000  0.99340000  1.0 0.1296797559
H  H64  1  0.23400000  0.69670000  0.00660000  1.0 0.1296797559
H  H65  1  0.48000000  0.71170000  0.47980000  1.0 0.1396041471
H  H66  1  0.98000000  0.78830000  0.52020000  1.0 0.1396041471
H  H67  1  0.52000000  0.21170000  0.02020000  1.0 0.1396041471
H  H68  1  0.02000000  0.28830000  0.97980000  1.0 0.1396041471
H  H69  1  0.02000000  0.28830000  0.52020000  1.0 0.1396041471
H  H70  1  0.52000000  0.21170000  0.47980000  1.0 0.1396041471
H  H71  1  0.98000000  0.78830000  0.97980000  1.0 0.1396041471
H  H72  1  0.48000000  0.71170000  0.02020000  1.0 0.1396041471
H  H73  1  0.01230000  0.65730000  0.59010000  1.0 0.1219664871
H  H74  1  0.51230000  0.84270000  0.40990000  1.0 0.1219664871
H  H75  1  0.98770000  0.15730000  0.90990000  1.0 0.1219664871
H  H76  1  0.48770000  0.34270000  0.09010000  1.0 0.1219664871
H  H77  1  0.48770000  0.34270000  0.40990000  1.0 0.1219664871
H  H78  1  0.98770000  0.15730000  0.59010000  1.0 0.1219664871
H  H79  1  0.51230000  0.84270000  0.09010000  1.0 0.1219664871
H  H80  1  0.01230000  0.65730000  0.90990000  1.0 0.1219664871
H  H81  1  0.12500000  0.61840000  0.57190000  1.0 0.1296797559
H  H82  1  0.62500000  0.88160000  0.42810000  1.0 0.1296797559
H  H83  1  0.87500000  0.11840000  0.92810000  1.0 0.1296797559
H  H84  1  0.37500000  0.38160000  0.07190000  1.0 0.1296797559
H  H85  1  0.37500000  0.38160000  0.42810000  1.0 0.1296797559
H  H86  1  0.87500000  0.11840000  0.57190000  1.0 0.1296797559
H  H87  1  0.62500000  0.88160000  0.07190000  1.0 0.1296797559
H  H88  1  0.12500000  0.61840000  0.92810000  1.0 0.1296797559
H  H89  1  0.94110000  0.61390000  0.60470000  1.0 0.1396041471
H  H90  1  0.44110000  0.88610000  0.39530000  1.0 0.1396041471
H  H91  1  0.05890000  0.11390000  0.89530000  1.0 0.1396041471
H  H92  1  0.55890000  0.38610000  0.10470000  1.0 0.1396041471
H  H93  1  0.55890000  0.38610000  0.39530000  1.0 0.1396041471
H  H94  1  0.05890000  0.11390000  0.60470000  1.0 0.1396041471
H  H95  1  0.44110000  0.88610000  0.10470000  1.0 0.1396041471
H  H96  1  0.94110000  0.61390000  0.89530000  1.0 0.1396041471
H  H97  1  0.11200000  0.64410000  0.47900000  1.0 0.1219664871
H  H98  1  0.61200000  0.85590000  0.52100000  1.0 0.1296797559
H  H99  1  0.88800000  0.14410000  0.02100000  1.0 0.1296797559
H  H100  1  0.38800000  0.35590000  0.97900000  1.0 0.1296797559
H  H101  1  0.38800000  0.35590000  0.52100000  1.0 0.1296797559
H  H102  1  0.88800000  0.14410000  0.47900000  1.0 0.1296797559
H  H103  1  0.61200000  0.85590000  0.97900000  1.0 0.1296797559
H  H104  1  0.11200000  0.64410000  0.02100000  1.0 0.1296797559
H  H105  1  0.12540000  0.59650000  0.48120000  1.0 0.1219664871
H  H106  1  0.62540000  0.90350000  0.51880000  1.0 0.1219664871
H  H107  1  0.87460000  0.09650000  0.01880000  1.0 0.1219664871
H  H108  1  0.37460000  0.40350000  0.98120000  1.0 0.1219664871
H  H109  1  0.37460000  0.40350000  0.51880000  1.0 0.1219664871
H  H110  1  0.87460000  0.09650000  0.48120000  1.0 0.1219664871
H  H111  1  0.62540000  0.90350000  0.98120000  1.0 0.1219664871
H  H112  1  0.12540000  0.59650000  0.01880000  1.0 0.1219664871
H  H113  1  0.85350000  0.53310000  0.52980000  1.0 0.1219664871
H  H114  1  0.35350000  0.96690000  0.47020000  1.0 0.1219664871
H  H115  1  0.14650000  0.03310000  0.97020000  1.0 0.1219664871
H  H116  1  0.64650000  0.46690000  0.02980000  1.0 0.1219664871
H  H117  1  0.64650000  0.46690000  0.47020000  1.0 0.1219664871
H  H118  1  0.14650000  0.03310000  0.52980000  1.0 0.1219664871
H  H119  1  0.35350000  0.96690000  0.02980000  1.0 0.1219664871
H  H120  1  0.85350000  0.53310000  0.97020000  1.0 0.1219664871
H  H121  1  0.02270000  0.56130000  0.55290000  1.0 0.1219664871
H  H122  1  0.52270000  0.93870000  0.44710000  1.0 0.1219664871
H  H123  1  0.97730000  0.06130000  0.94710000  1.0 0.1219664871
H  H124  1  0.47730000  0.43870000  0.05290000  1.0 0.1219664871
H  H125  1  0.47730000  0.43870000  0.44710000  1.0 0.1219664871
H  H126  1  0.97730000  0.06130000  0.55290000  1.0 0.1219664871
H  H127  1  0.52270000  0.93870000  0.05290000  1.0 0.1219664871
H  H128  1  0.02270000  0.56130000  0.94710000  1.0 0.1219664871
H  H129  1  0.55510000  0.54150000  0.47420000  1.0 0.1396041471
H  H130  1  0.05510000  0.95850000  0.52580000  1.0 0.1396041471
H  H131  1  0.44490000  0.04150000  0.02580000  1.0 0.1396041471
H  H132  1  0.94490000  0.45850000  0.97420000  1.0 0.1396041471
H  H133  1  0.94490000  0.45850000  0.52580000  1.0 0.1396041471
H  H134  1  0.44490000  0.04150000  0.47420000  1.0 0.1396041471
H  H135  1  0.05510000  0.95850000  0.97420000  1.0 0.1396041471
H  H136  1  0.55510000  0.54150000  0.02580000  1.0 0.1396041471
H  H137  1  0.30260000  0.54700000  0.49060000  1.0 0.1296797559
H  H138  1  0.80260000  0.95300000  0.50940000  1.0 0.1296797559
H  H139  1  0.69740000  0.04700000  0.00940000  1.0 0.1296797559
H  H140  1  0.19740000  0.45300000  0.99060000  1.0 0.1296797559
H  H141  1  0.19740000  0.45300000  0.50940000  1.0 0.1296797559
H  H142  1  0.69740000  0.04700000  0.49060000  1.0 0.1296797559
H  H143  1  0.80260000  0.95300000  0.99060000  1.0 0.1296797559
H  H144  1  0.30260000  0.54700000  0.00940000  1.0 0.1296797559
H  H145  1  0.49590000  0.52610000  0.51550000  1.0 0.1296797559
H  H146  1  0.99590000  0.97390000  0.48450000  1.0 0.1296797559
H  H147  1  0.50410000  0.02610000  0.98450000  1.0 0.1296797559
H  H148  1  0.00410000  0.47390000  0.01550000  1.0 0.1296797559
H  H149  1  0.00410000  0.47390000  0.48450000  1.0 0.1296797559
H  H150  1  0.50410000  0.02610000  0.51550000  1.0 0.1296797559
H  H151  1  0.99590000  0.97390000  0.01550000  1.0 0.1296797559
H  H152  1  0.49590000  0.52610000  0.98450000  1.0 0.1296797559
H  H153  1  0.58220000  0.64790000  0.43420000  1.0 0.1296797559
H  H154  1  0.08220000  0.85210000  0.56580000  1.0 0.1296797559
H  H155  1  0.41780000  0.14790000  0.06580000  1.0 0.1296797559
H  H156  1  0.91780000  0.35210000  0.93420000  1.0 0.1296797559
H  H157  1  0.91780000  0.35210000  0.56580000  1.0 0.1296797559
H  H158  1  0.41780000  0.14790000  0.43420000  1.0 0.1296797559
H  H159  1  0.08220000  0.85210000  0.93420000  1.0 0.1296797559
H  H160  1  0.58220000  0.64790000  0.06580000  1.0 0.1296797559
H  H161  1  0.98570000  0.58820000  0.41590000  1.0 0.1219664871
H  H162  1  0.48570000  0.91180000  0.58410000  1.0 0.1219664871
H  H163  1  0.01430000  0.08820000  0.08410000  1.0 0.1219664871
H  H164  1  0.51430000  0.41180000  0.91590000  1.0 0.1219664871
H  H165  1  0.51430000  0.41180000  0.58410000  1.0 0.1219664871
H  H166  1  0.01430000  0.08820000  0.41590000  1.0 0.1219664871
H  H167  1  0.48570000  0.91180000  0.91590000  1.0 0.1219664871
H  H168  1  0.98570000  0.58820000  0.08410000  1.0 0.1219664871
H  H169  1  0.48060000  0.56290000  0.59510000  1.0 0.1296797559
H  H170  1  0.98060000  0.93710000  0.40490000  1.0 0.1296797559
H  H171  1  0.51940000  0.06290000  0.90490000  1.0 0.1296797559
H  H172  1  0.01940000  0.43710000  0.09510000  1.0 0.1296797559
H  H173  1  0.01940000  0.43710000  0.40490000  1.0 0.1296797559
H  H174  1  0.51940000  0.06290000  0.59510000  1.0 0.1296797559
H  H175  1  0.98060000  0.93710000  0.09510000  1.0 0.1296797559
H  H176  1  0.48060000  0.56290000  0.90490000  1.0 0.1296797559
H  H177  1  0.06990000  0.49680000  0.58990000  1.0 0.1296797559
H  H178  1  0.56990000  0.00320000  0.41010000  1.0 0.1296797559
H  H179  1  0.93010000  0.99680000  0.91010000  1.0 0.1296797559
H  H180  1  0.43010000  0.50320000  0.08990000  1.0 0.1296797559
H  H181  1  0.43010000  0.50320000  0.41010000  1.0 0.1296797559
H  H182  1  0.93010000  0.99680000  0.58990000  1.0 0.1296797559
H  H183  1  0.56990000  0.00320000  0.08990000  1.0 0.1296797559
H  H184  1  0.06990000  0.49680000  0.91010000  1.0 0.1296797559
H  H185  1  0.65540000  0.64880000  0.36970000  1.0 0.1219664871
H  H186  1  0.15540000  0.85120000  0.63030000  1.0 0.1219664871
H  H187  1  0.34460000  0.14880000  0.13030000  1.0 0.1219664871
H  H188  1  0.84460000  0.35120000  0.86970000  1.0 0.1219664871
H  H189  1  0.84460000  0.35120000  0.63030000  1.0 0.1219664871
H  H190  1  0.34460000  0.14880000  0.36970000  1.0 0.1219664871
H  H191  1  0.15540000  0.85120000  0.86970000  1.0 0.1219664871
H  H192  1  0.65540000  0.64880000  0.13030000  1.0 0.1219664871
H  H193  1  0.06200000  0.58940000  0.35110000  1.0 0.1296797559
H  H194  1  0.56200000  0.91060000  0.64890000  1.0 0.1296797559
H  H195  1  0.93800000  0.08940000  0.14890000  1.0 0.1296797559
H  H196  1  0.43800000  0.41060000  0.85110000  1.0 0.1296797559
H  H197  1  0.43800000  0.41060000  0.64890000  1.0 0.1296797559
H  H198  1  0.93800000  0.08940000  0.35110000  1.0 0.1296797559
H  H199  1  0.56200000  0.91060000  0.85110000  1.0 0.1296797559
H  H200  1  0.06200000  0.58940000  0.14890000  1.0 0.1296797559
H  H201  1  0.38600000  0.53200000  0.65260000  1.0 0.1219664871
H  H202  1  0.88600000  0.96800000  0.34740000  1.0 0.1219664871
H  H203  1  0.61400000  0.03200000  0.84740000  1.0 0.1219664871
H  H204  1  0.11400000  0.46800000  0.15260000  1.0 0.1219664871
H  H205  1  0.11400000  0.46800000  0.34740000  1.0 0.1219664871
H  H206  1  0.61400000  0.03200000  0.65260000  1.0 0.1219664871
H  H207  1  0.88600000  0.96800000  0.15260000  1.0 0.1219664871
H  H208  1  0.38600000  0.53200000  0.84740000  1.0 0.1219664871
H  H209  1  0.97530000  0.46590000  0.64730000  1.0 0.1117600139
H  H210  1  0.47530000  0.03410000  0.35270000  1.0 0.1117600139
H  H211  1  0.02470000  0.96590000  0.85270000  1.0 0.1117600139
H  H212  1  0.52470000  0.53410000  0.14730000  1.0 0.1117600139
H  H213  1  0.52470000  0.53410000  0.35270000  1.0 0.1117600139
H  H214  1  0.02470000  0.96590000  0.64730000  1.0 0.1117600139
H  H215  1  0.47530000  0.03410000  0.14730000  1.0 0.1117600139
H  H216  1  0.97530000  0.46590000  0.85270000  1.0 0.1117600139
H  H217  1  0.47100000  0.90010000  0.74410000  1.0 0.225628012
H  H218  1  0.97100000  0.59990000  0.25590000  1.0 0.225628012
H  H219  1  0.52900000  0.40010000  0.75590000  1.0 0.225628012
H  H220  1  0.02900000  0.09990000  0.24410000  1.0 0.225628012
H  H221  1  0.02900000  0.09990000  0.25590000  1.0 0.225628012
H  H222  1  0.52900000  0.40010000  0.74410000  1.0 0.225628012
H  H223  1  0.97100000  0.59990000  0.24410000  1.0 0.225628012
H  H224  1  0.47100000  0.90010000  0.75590000  1.0 0.225628012
H  H225  1  0.37860000  0.87490000  0.77380000  1.0 0.1618408013
H  H226  1  0.87860000  0.62510000  0.22620000  1.0 0.1618408013
H  H227  1  0.62140000  0.37490000  0.72620000  1.0 0.1618408013
H  H228  1  0.12140000  0.12510000  0.27380000  1.0 0.1618408013
H  H229  1  0.12140000  0.12510000  0.22620000  1.0 0.1618408013
H  H230  1  0.62140000  0.37490000  0.77380000  1.0 0.1618408013
H  H231  1  0.87860000  0.62510000  0.27380000  1.0 0.1618408013
H  H232  1  0.37860000  0.87490000  0.72620000  1.0 0.1618408013
H  H233  1  0.82020000  0.78100000  0.77270000  1.0 0.2130851459
H  H234  1  0.32020000  0.71900000  0.22730000  1.0 0.2130851459
H  H235  1  0.17980000  0.28100000  0.72730000  1.0 0.2130851459
H  H236  1  0.67980000  0.21900000  0.27270000  1.0 0.2130851459
H  H237  1  0.67980000  0.21900000  0.22730000  1.0 0.2130851459
H  H238  1  0.17980000  0.28100000  0.77270000  1.0 0.2130851459
H  H239  1  0.32020000  0.71900000  0.27270000  1.0 0.2130851459
H  H240  1  0.82020000  0.78100000  0.72730000  1.0 0.2130851459
H  H241  1  0.71510000  0.80100000  0.73980000  1.0 0.1498845026
H  H242  1  0.21510000  0.69900000  0.26020000  1.0 0.1498845026
H  H243  1  0.28490000  0.30100000  0.76020000  1.0 0.1498845026
H  H244  1  0.78490000  0.19900000  0.23980000  1.0 0.1498845026
H  H245  1  0.78490000  0.19900000  0.26020000  1.0 0.1498845026
H  H246  1  0.28490000  0.30100000  0.73980000  1.0 0.1498845026
H  H247  1  0.21510000  0.69900000  0.23980000  1.0 0.1498845026
H  H248  1  0.71510000  0.80100000  0.76020000  1.0 0.1498845026
C  C1  1  0.39000000  0.77700000  0.68880000  1.0 0.541633838
C  C2  1  0.89000000  0.72300000  0.31120000  1.0 0.541633838
C  C3  1  0.61000000  0.27700000  0.81120000  1.0 0.541633838
C  C4  1  0.11000000  0.22300000  0.18880000  1.0 0.541633838
C  C5  1  0.11000000  0.22300000  0.31120000  1.0 0.541633838
C  C6  1  0.61000000  0.27700000  0.68880000  1.0 0.541633838
C  C7  1  0.89000000  0.72300000  0.18880000  1.0 0.541633838
C  C8  1  0.39000000  0.77700000  0.81120000  1.0 0.541633838
C  C9  1  0.49000000  0.75870000  0.65350000  1.0 -0.0256105085
C  C10  1  0.99000000  0.74130000  0.34650000  1.0 -0.0256105085
C  C11  1  0.51000000  0.25870000  0.84650000  1.0 -0.0256105085
C  C12  1  0.01000000  0.24130000  0.15350000  1.0 -0.0256105085
C  C13  1  0.01000000  0.24130000  0.34650000  1.0 -0.0256105085
C  C14  1  0.51000000  0.25870000  0.65350000  1.0 -0.0256105085
C  C15  1  0.99000000  0.74130000  0.15350000  1.0 -0.0256105085
C  C16  1  0.49000000  0.75870000  0.84650000  1.0 -0.0256105085
C  C17  1  0.37800000  0.72640000  0.63600000  1.0 -0.1121325929
C  C18  1  0.87800000  0.77360000  0.36400000  1.0 -0.1121325929
C  C19  1  0.62200000  0.22640000  0.86400000  1.0 -0.1121325929
C  C20  1  0.12200000  0.27360000  0.13600000  1.0 -0.1121325929
C  C21  1  0.12200000  0.27360000  0.36400000  1.0 -0.1121325929
C  C22  1  0.62200000  0.22640000  0.63600000  1.0 -0.1121325929
C  C23  1  0.87800000  0.77360000  0.13600000  1.0 -0.1121325929
C  C24  1  0.37800000  0.72640000  0.86400000  1.0 -0.1121325929
C  C25  1  0.69350000  0.77240000  0.63970000  1.0 -0.0920548098
C  C26  1  0.19350000  0.72760000  0.36030000  1.0 -0.0920548098
C  C27  1  0.30650000  0.27240000  0.86030000  1.0 -0.0920548098
C  C28  1  0.80650000  0.22760000  0.13970000  1.0 -0.0920548098
C  C29  1  0.80650000  0.22760000  0.36030000  1.0 -0.0920548098
C  C30  1  0.30650000  0.27240000  0.63970000  1.0 -0.0920548098
C  C31  1  0.19350000  0.72760000  0.13970000  1.0 -0.0920548098
C  C32  1  0.69350000  0.77240000  0.86030000  1.0 -0.0920548098
C  C33  1  0.47800000  0.70850000  0.60420000  1.0 -0.1484438542
C  C34  1  0.97800000  0.79150000  0.39580000  1.0 -0.1484438542
C  C35  1  0.52200000  0.20850000  0.89580000  1.0 -0.1484438542
C  C36  1  0.02200000  0.29150000  0.10420000  1.0 -0.1484438542
C  C37  1  0.02200000  0.29150000  0.39580000  1.0 -0.1484438542
C  C38  1  0.52200000  0.20850000  0.60420000  1.0 -0.1484438542
C  C39  1  0.97800000  0.79150000  0.10420000  1.0 -0.1484438542
C  C40  1  0.47800000  0.70850000  0.89580000  1.0 -0.1484438542
C  C41  1  0.78920000  0.75450000  0.60620000  1.0 -0.1714639398
C  C42  1  0.28920000  0.74550000  0.39380000  1.0 -0.1714639398
C  C43  1  0.21080000  0.25450000  0.89380000  1.0 -0.1714639398
C  C44  1  0.71080000  0.24550000  0.10620000  1.0 -0.1714639398
C  C45  1  0.71080000  0.24550000  0.39380000  1.0 -0.1714639398
C  C46  1  0.21080000  0.25450000  0.60620000  1.0 -0.1714639398
C  C47  1  0.28920000  0.74550000  0.10620000  1.0 -0.1714639398
C  C48  1  0.78920000  0.75450000  0.89380000  1.0 -0.1714639398
C  C49  1  0.67400000  0.72240000  0.58870000  1.0 0.1296797559
C  C50  1  0.17400000  0.77760000  0.41130000  1.0 0.1296797559
C  C51  1  0.32600000  0.22240000  0.91130000  1.0 0.1296797559
C  C52  1  0.82600000  0.27760000  0.08870000  1.0 0.1296797559
C  C53  1  0.82600000  0.27760000  0.41130000  1.0 0.1296797559
C  C54  1  0.32600000  0.22240000  0.58870000  1.0 0.1296797559
C  C55  1  0.17400000  0.77760000  0.08870000  1.0 0.1296797559
C  C56  1  0.67400000  0.72240000  0.91130000  1.0 0.1296797559
C  C57  1  0.78100000  0.70450000  0.55310000  1.0 -0.2994754974
C  C58  1  0.28100000  0.79550000  0.44690000  1.0 -0.2994754974
C  C59  1  0.21900000  0.20450000  0.94690000  1.0 -0.2994754974
C  C60  1  0.71900000  0.29550000  0.05310000  1.0 -0.2994754974
C  C61  1  0.71900000  0.29550000  0.44690000  1.0 -0.2994754974
C  C62  1  0.21900000  0.20450000  0.55310000  1.0 -0.2994754974
C  C63  1  0.28100000  0.79550000  0.05310000  1.0 -0.2994754974
C  C64  1  0.78100000  0.70450000  0.94690000  1.0 -0.2994754974
C  C65  1  0.68500000  0.66340000  0.54000000  1.0 -0.0073183567
C  C66  1  0.18500000  0.83660000  0.46000000  1.0 -0.0073183567
C  C67  1  0.31500000  0.16340000  0.96000000  1.0 -0.0073183567
C  C68  1  0.81500000  0.33660000  0.04000000  1.0 -0.0073183567
C  C69  1  0.81500000  0.33660000  0.46000000  1.0 -0.0073183567
C  C70  1  0.31500000  0.16340000  0.54000000  1.0 -0.0073183567
C  C71  1  0.18500000  0.83660000  0.04000000  1.0 -0.0073183567
C  C72  1  0.68500000  0.66340000  0.96000000  1.0 -0.0073183567
C  C73  1  0.50000000  0.66200000  0.51490000  1.0 0.0383646667
C  C74  1  0.00000000  0.83800000  0.48510000  1.0 0.0383646667
C  C75  1  0.50000000  0.16200000  0.98510000  1.0 0.0383646667
C  C76  1  0.00000000  0.33800000  0.01490000  1.0 0.0383646667
C  C77  1  0.00000000  0.33800000  0.48510000  1.0 0.0383646667
C  C78  1  0.50000000  0.16200000  0.51490000  1.0 0.0383646667
C  C79  1  0.00000000  0.83800000  0.01490000  1.0 0.0383646667
C  C80  1  0.50000000  0.66200000  0.98510000  1.0 0.0383646667
C  C81  1  0.79200000  0.62800000  0.55350000  1.0 0.0559127593
C  C82  1  0.29200000  0.87200000  0.44650000  1.0 0.0559127593
C  C83  1  0.20800000  0.12800000  0.94650000  1.0 0.0559127593
C  C84  1  0.70800000  0.37200000  0.05350000  1.0 0.0559127593
C  C85  1  0.70800000  0.37200000  0.44650000  1.0 0.0559127593
C  C86  1  0.20800000  0.12800000  0.55350000  1.0 0.0559127593
C  C87  1  0.29200000  0.87200000  0.05350000  1.0 0.0559127593
C  C88  1  0.79200000  0.62800000  0.94650000  1.0 0.0559127593
C  C89  1  0.39200000  0.70150000  0.50110000  1.0 -0.455099142
C  C90  1  0.89200000  0.79850000  0.49890000  1.0 -0.4508594108
C  C91  1  0.60800000  0.20150000  0.99890000  1.0 -0.4508594108
C  C92  1  0.10800000  0.29850000  0.00110000  1.0 -0.4508594108
C  C93  1  0.10800000  0.29850000  0.49890000  1.0 -0.4508594108
C  C94  1  0.60800000  0.20150000  0.50110000  1.0 -0.4508594108
C  C95  1  0.89200000  0.79850000  0.00110000  1.0 -0.4508594108
C  C96  1  0.39200000  0.70150000  0.99890000  1.0 -0.455099142
C  C97  1  0.41900000  0.62400000  0.50090000  1.0 0.002941449
C  C98  1  0.91900000  0.87600000  0.49910000  1.0 0.002941449
C  C99  1  0.58100000  0.12400000  0.99910000  1.0 0.002941449
C  C100  1  0.08100000  0.37600000  0.00090000  1.0 0.002941449
C  C101  1  0.08100000  0.37600000  0.49910000  1.0 0.002941449
C  C102  1  0.58100000  0.12400000  0.50090000  1.0 0.002941449
C  C103  1  0.91900000  0.87600000  0.00090000  1.0 0.002941449
C  C104  1  0.41900000  0.62400000  0.99910000  1.0 0.002941449
C  C105  1  0.71900000  0.59040000  0.53810000  1.0 -0.0073183567
C  C106  1  0.21900000  0.90960000  0.46190000  1.0 -0.0073183567
C  C107  1  0.28100000  0.09040000  0.96190000  1.0 -0.0073183567
C  C108  1  0.78100000  0.40960000  0.03810000  1.0 -0.0073183567
C  C109  1  0.78100000  0.40960000  0.46190000  1.0 -0.0073183567
C  C110  1  0.28100000  0.09040000  0.53810000  1.0 -0.0073183567
C  C111  1  0.21900000  0.90960000  0.03810000  1.0 -0.0073183567
C  C112  1  0.71900000  0.59040000  0.96190000  1.0 -0.0073183567
C  C113  1  0.98500000  0.62950000  0.58270000  1.0 -0.4508594108
C  C114  1  0.48500000  0.87050000  0.41730000  1.0 -0.4508594108
C  C115  1  0.01500000  0.12950000  0.91730000  1.0 -0.4508594108
C  C116  1  0.51500000  0.37050000  0.08270000  1.0 -0.4508594108
C  C117  1  0.51500000  0.37050000  0.41730000  1.0 -0.4508594108
C  C118  1  0.01500000  0.12950000  0.58270000  1.0 -0.4508594108
C  C119  1  0.48500000  0.87050000  0.08270000  1.0 -0.4508594108
C  C120  1  0.98500000  0.62950000  0.91730000  1.0 -0.4508594108
C  C121  1  0.53400000  0.58820000  0.51300000  1.0 0.0383646667
C  C122  1  0.03400000  0.91180000  0.48700000  1.0 0.0383646667
C  C123  1  0.46600000  0.08820000  0.98700000  1.0 0.0383646667
C  C124  1  0.96600000  0.41180000  0.01300000  1.0 0.0383646667
C  C125  1  0.96600000  0.41180000  0.48700000  1.0 0.0383646667
C  C126  1  0.46600000  0.08820000  0.51300000  1.0 0.0383646667
C  C127  1  0.03400000  0.91180000  0.01300000  1.0 0.0383646667
C  C128  1  0.53400000  0.58820000  0.98700000  1.0 0.0383646667
C  C129  1  0.21300000  0.62090000  0.47470000  1.0 -0.2994754974
C  C130  1  0.71300000  0.87910000  0.52530000  1.0 -0.3076205536
C  C131  1  0.78700000  0.12090000  0.02530000  1.0 -0.3076205536
C  C132  1  0.28700000  0.37910000  0.97470000  1.0 -0.3076205536
C  C133  1  0.28700000  0.37910000  0.52530000  1.0 -0.3076205536
C  C134  1  0.78700000  0.12090000  0.47470000  1.0 -0.3076205536
C  C135  1  0.71300000  0.87910000  0.97470000  1.0 -0.3076205536
C  C136  1  0.21300000  0.62090000  0.02530000  1.0 -0.3076205536
C  C137  1  0.86100000  0.55310000  0.55020000  1.0 -0.3076205536
C  C138  1  0.36100000  0.94690000  0.44980000  1.0 -0.3076205536
C  C139  1  0.13900000  0.05310000  0.94980000  1.0 -0.3076205536
C  C140  1  0.63900000  0.44690000  0.05020000  1.0 -0.3076205536
C  C141  1  0.63900000  0.44690000  0.44980000  1.0 -0.3076205536
C  C142  1  0.13900000  0.05310000  0.55020000  1.0 -0.3076205536
C  C143  1  0.36100000  0.94690000  0.05020000  1.0 -0.3076205536
C  C144  1  0.86100000  0.55310000  0.94980000  1.0 -0.3076205536
C  C145  1  0.46600000  0.54690000  0.49680000  1.0 -0.4508594108
C  C146  1  0.96600000  0.95310000  0.50320000  1.0 -0.4508594108
C  C147  1  0.53400000  0.04690000  0.00320000  1.0 -0.4508594108
C  C148  1  0.03400000  0.45310000  0.99680000  1.0 -0.4508594108
C  C149  1  0.03400000  0.45310000  0.50320000  1.0 -0.4508594108
C  C150  1  0.53400000  0.04690000  0.49680000  1.0 -0.4508594108
C  C151  1  0.96600000  0.95310000  0.99680000  1.0 -0.4508594108
C  C152  1  0.46600000  0.54690000  0.00320000  1.0 -0.4508594108
C  C153  1  0.27800000  0.61920000  0.43210000  1.0 0.1498845026
C  C154  1  0.77800000  0.88080000  0.56790000  1.0 0.1498845026
C  C155  1  0.72200000  0.11920000  0.06790000  1.0 0.1498845026
C  C156  1  0.22200000  0.38080000  0.93210000  1.0 0.1498845026
C  C157  1  0.22200000  0.38080000  0.56790000  1.0 0.1498845026
C  C158  1  0.72200000  0.11920000  0.43210000  1.0 0.1498845026
C  C159  1  0.77800000  0.88080000  0.93210000  1.0 0.1498845026
C  C160  1  0.27800000  0.61920000  0.06790000  1.0 0.1498845026
C  C161  1  0.78470000  0.53300000  0.58680000  1.0 0.1396041471
C  C162  1  0.28470000  0.96700000  0.41320000  1.0 0.1396041471
C  C163  1  0.21530000  0.03300000  0.91320000  1.0 0.1396041471
C  C164  1  0.71530000  0.46700000  0.08680000  1.0 0.1396041471
C  C165  1  0.71530000  0.46700000  0.41320000  1.0 0.1396041471
C  C166  1  0.21530000  0.03300000  0.58680000  1.0 0.1396041471
C  C167  1  0.28470000  0.96700000  0.08680000  1.0 0.1396041471
C  C168  1  0.78470000  0.53300000  0.91320000  1.0 0.1396041471
C  C169  1  0.47500000  0.63630000  0.41760000  1.0 -0.1610348959
C  C170  1  0.97500000  0.86370000  0.58240000  1.0 -0.1610348959
C  C171  1  0.52500000  0.13630000  0.08240000  1.0 -0.1610348959
C  C172  1  0.02500000  0.36370000  0.91760000  1.0 -0.1610348959
C  C173  1  0.02500000  0.36370000  0.58240000  1.0 -0.1610348959
C  C174  1  0.52500000  0.13630000  0.41760000  1.0 -0.1610348959
C  C175  1  0.97500000  0.86370000  0.91760000  1.0 -0.1610348959
C  C176  1  0.47500000  0.63630000  0.08240000  1.0 -0.1610348959
C  C177  1  0.12000000  0.60070000  0.40670000  1.0 -0.1755009655
C  C178  1  0.62000000  0.89930000  0.59330000  1.0 -0.1755009655
C  C179  1  0.88000000  0.10070000  0.09330000  1.0 -0.1755009655
C  C180  1  0.38000000  0.39930000  0.90670000  1.0 -0.1755009655
C  C181  1  0.38000000  0.39930000  0.59330000  1.0 -0.1755009655
C  C182  1  0.88000000  0.10070000  0.40670000  1.0 -0.1755009655
C  C183  1  0.62000000  0.89930000  0.90670000  1.0 -0.1755009655
C  C184  1  0.12000000  0.60070000  0.09330000  1.0 -0.1755009655
C  C185  1  0.57980000  0.54350000  0.60560000  1.0 -0.1714639398
C  C186  1  0.07980000  0.95650000  0.39440000  1.0 -0.1714639398
C  C187  1  0.42020000  0.04350000  0.89440000  1.0 -0.1714639398
C  C188  1  0.92020000  0.45650000  0.10560000  1.0 -0.1714639398
C  C189  1  0.92020000  0.45650000  0.39440000  1.0 -0.1714639398
C  C190  1  0.42020000  0.04350000  0.60560000  1.0 -0.1714639398
C  C191  1  0.07980000  0.95650000  0.10560000  1.0 -0.1714639398
C  C192  1  0.57980000  0.54350000  0.89440000  1.0 -0.1714639398
C  C193  1  0.93300000  0.50390000  0.60240000  1.0 -0.1714639398
C  C194  1  0.43300000  0.99610000  0.39760000  1.0 -0.1714639398
C  C195  1  0.06700000  0.00390000  0.89760000  1.0 -0.1714639398
C  C196  1  0.56700000  0.49610000  0.10240000  1.0 -0.1714639398
C  C197  1  0.56700000  0.49610000  0.39760000  1.0 -0.1714639398
C  C198  1  0.06700000  0.00390000  0.60240000  1.0 -0.1714639398
C  C199  1  0.43300000  0.99610000  0.10240000  1.0 -0.1714639398
C  C200  1  0.93300000  0.50390000  0.89760000  1.0 -0.1714639398
C  C201  1  0.52000000  0.63670000  0.37880000  1.0 -0.0986075657
C  C202  1  0.02000000  0.86330000  0.62120000  1.0 -0.0986075657
C  C203  1  0.48000000  0.13670000  0.12120000  1.0 -0.0986075657
C  C204  1  0.98000000  0.36330000  0.87880000  1.0 -0.0986075657
C  C205  1  0.98000000  0.36330000  0.62120000  1.0 -0.0986075657
C  C206  1  0.48000000  0.13670000  0.37880000  1.0 -0.0986075657
C  C207  1  0.02000000  0.86330000  0.87880000  1.0 -0.0986075657
C  C208  1  0.52000000  0.63670000  0.12120000  1.0 -0.0986075657
C  C209  1  0.16700000  0.60140000  0.36790000  1.0 -0.0986075657
C  C210  1  0.66700000  0.89860000  0.63210000  1.0 -0.0986075657
C  C211  1  0.83300000  0.10140000  0.13210000  1.0 -0.0986075657
C  C212  1  0.33300000  0.39860000  0.86790000  1.0 -0.0986075657
C  C213  1  0.33300000  0.39860000  0.63210000  1.0 -0.0986075657
C  C214  1  0.83300000  0.10140000  0.36790000  1.0 -0.0986075657
C  C215  1  0.66700000  0.89860000  0.86790000  1.0 -0.0986075657
C  C216  1  0.16700000  0.60140000  0.13210000  1.0 -0.0986075657
C  C217  1  0.52300000  0.52490000  0.64000000  1.0 -0.0920548098
C  C218  1  0.02300000  0.97510000  0.36000000  1.0 -0.0920548098
C  C219  1  0.47700000  0.02490000  0.86000000  1.0 -0.0920548098
C  C220  1  0.97700000  0.47510000  0.14000000  1.0 -0.0920548098
C  C221  1  0.97700000  0.47510000  0.36000000  1.0 -0.0920548098
C  C222  1  0.47700000  0.02490000  0.64000000  1.0 -0.0920548098
C  C223  1  0.02300000  0.97510000  0.14000000  1.0 -0.0920548098
C  C224  1  0.52300000  0.52490000  0.86000000  1.0 -0.0920548098
C  C225  1  0.87600000  0.48530000  0.63690000  1.0 -0.0986075657
C  C226  1  0.37600000  0.01470000  0.36310000  1.0 -0.0986075657
C  C227  1  0.12400000  0.98530000  0.86310000  1.0 -0.0986075657
C  C228  1  0.62400000  0.51470000  0.13690000  1.0 -0.0986075657
C  C229  1  0.62400000  0.51470000  0.36310000  1.0 -0.0986075657
C  C230  1  0.12400000  0.98530000  0.63690000  1.0 -0.0986075657
C  C231  1  0.37600000  0.01470000  0.13690000  1.0 -0.0986075657
C  C232  1  0.87600000  0.48530000  0.86310000  1.0 -0.0986075657
C  C233  1  0.36600000  0.61960000  0.35370000  1.0 -0.0418680634
C  C234  1  0.86600000  0.88040000  0.64630000  1.0 -0.0418680634
C  C235  1  0.63400000  0.11960000  0.14630000  1.0 -0.0418680634
C  C236  1  0.13400000  0.38040000  0.85370000  1.0 -0.0418680634
C  C237  1  0.13400000  0.38040000  0.64630000  1.0 -0.0418680634
C  C238  1  0.63400000  0.11960000  0.35370000  1.0 -0.0418680634
C  C239  1  0.86600000  0.88040000  0.85370000  1.0 -0.0418680634
C  C240  1  0.36600000  0.61960000  0.14630000  1.0 -0.0418680634
C  C241  1  0.67100000  0.49590000  0.65570000  1.0 -0.0608485684
C  C242  1  0.17100000  0.00410000  0.34430000  1.0 -0.0608485684
C  C243  1  0.32900000  0.99590000  0.84430000  1.0 -0.0608485684
C  C244  1  0.82900000  0.50410000  0.15570000  1.0 -0.0608485684
C  C245  1  0.82900000  0.50410000  0.34430000  1.0 -0.0608485684
C  C246  1  0.32900000  0.99590000  0.65570000  1.0 -0.0608485684
C  C247  1  0.17100000  0.00410000  0.15570000  1.0 -0.0608485684
C  C248  1  0.67100000  0.49590000  0.84430000  1.0 -0.0608485684
C  C249  1  0.40960000  0.61930000  0.31140000  1.0 0.6515271451
C  C250  1  0.90960000  0.88070000  0.68860000  1.0 0.6515271451
C  C251  1  0.59040000  0.11930000  0.18860000  1.0 0.6515271451
C  C252  1  0.09040000  0.38070000  0.81140000  1.0 0.6515271451
C  C253  1  0.09040000  0.38070000  0.68860000  1.0 0.6515271451
C  C254  1  0.59040000  0.11930000  0.31140000  1.0 0.6515271451
C  C255  1  0.90960000  0.88070000  0.81140000  1.0 0.6515271451
C  C256  1  0.40960000  0.61930000  0.18860000  1.0 0.6515271451
C  C257  1  0.62280000  0.47610000  0.69280000  1.0 0.6269445803
C  C258  1  0.12280000  0.02390000  0.30720000  1.0 0.6269445803
C  C259  1  0.37720000  0.97610000  0.80720000  1.0 0.6269445803
C  C260  1  0.87720000  0.52390000  0.19280000  1.0 0.6269445803
C  C261  1  0.87720000  0.52390000  0.30720000  1.0 0.6269445803
C  C262  1  0.37720000  0.97610000  0.69280000  1.0 0.6269445803
C  C263  1  0.12280000  0.02390000  0.19280000  1.0 0.6269445803
C  C264  1  0.62280000  0.47610000  0.80720000  1.0 0.6269445803
O  O1  1  0.48700000  0.80720000  0.70340000  1.0 -0.5877616171
O  O2  1  0.98700000  0.69280000  0.29660000  1.0 -0.5877616171
O  O3  1  0.51300000  0.30720000  0.79660000  1.0 -0.5877616171
O  O4  1  0.01300000  0.19280000  0.20340000  1.0 -0.5877616171
O  O5  1  0.01300000  0.19280000  0.29660000  1.0 -0.5877616171
O  O6  1  0.51300000  0.30720000  0.70340000  1.0 -0.5877616171
O  O7  1  0.98700000  0.69280000  0.20340000  1.0 -0.5877616171
O  O8  1  0.48700000  0.80720000  0.79660000  1.0 -0.5877616171
O  O9  1  0.20800000  0.76330000  0.70380000  1.0 -0.5824205045
O  O10  1  0.70800000  0.73670000  0.29620000  1.0 -0.5824205045
O  O11  1  0.79200000  0.26330000  0.79620000  1.0 -0.5824205045
O  O12  1  0.29200000  0.23670000  0.20380000  1.0 -0.5824205045
O  O13  1  0.29200000  0.23670000  0.29620000  1.0 -0.5824205045
O  O14  1  0.79200000  0.26330000  0.70380000  1.0 -0.5824205045
O  O15  1  0.70800000  0.73670000  0.20380000  1.0 -0.5824205045
O  O16  1  0.20800000  0.76330000  0.79620000  1.0 -0.5824205045
O  O17  1  0.39900000  0.87840000  0.75000000  1.0 -0.5979039286
O  O18  1  0.89900000  0.62160000  0.25000000  1.0 -0.5979039286
O  O19  1  0.60100000  0.37840000  0.75000000  1.0 -0.5979039286
O  O20  1  0.10100000  0.12160000  0.25000000  1.0 -0.5979039286
O  O21  1  0.83350000  0.78980000  0.75000000  1.0 -0.5824205045
O  O22  1  0.33350000  0.71020000  0.25000000  1.0 -0.5824205045
O  O23  1  0.16650000  0.28980000  0.75000000  1.0 -0.5824205045
O  O24  1  0.66650000  0.21020000  0.25000000  1.0 -0.5824205045
O  O25  1  0.54200000  0.64770000  0.30000000  1.0 -0.6739196245
O  O26  1  0.04200000  0.85230000  0.70000000  1.0 -0.6739196245
O  O27  1  0.45800000  0.14770000  0.20000000  1.0 -0.6739196245
O  O28  1  0.95800000  0.35230000  0.80000000  1.0 -0.6739196245
O  O29  1  0.95800000  0.35230000  0.70000000  1.0 -0.6739196245
O  O30  1  0.45800000  0.14770000  0.30000000  1.0 -0.6739196245
O  O31  1  0.04200000  0.85230000  0.80000000  1.0 -0.6739196245
O  O32  1  0.54200000  0.64770000  0.20000000  1.0 -0.6739196245
O  O33  1  0.31700000  0.59440000  0.29100000  1.0 -0.6507615213
O  O34  1  0.81700000  0.90560000  0.70900000  1.0 -0.6507615213
O  O35  1  0.68300000  0.09440000  0.20900000  1.0 -0.6507615213
O  O36  1  0.18300000  0.40560000  0.79100000  1.0 -0.6507615213
O  O37  1  0.18300000  0.40560000  0.70900000  1.0 -0.6507615213
O  O38  1  0.68300000  0.09440000  0.29100000  1.0 -0.6507615213
O  O39  1  0.81700000  0.90560000  0.79100000  1.0 -0.6507615213
O  O40  1  0.31700000  0.59440000  0.20900000  1.0 -0.6507615213
O  O41  1  0.40080000  0.48260000  0.70790000  1.0 -0.8170193646
O  O42  1  0.90080000  0.01740000  0.29210000  1.0 -0.8170193646
O  O43  1  0.59920000  0.98260000  0.79210000  1.0 -0.8170193646
O  O44  1  0.09920000  0.51740000  0.20790000  1.0 -0.8170193646
O  O45  1  0.09920000  0.51740000  0.29210000  1.0 -0.8170193646
O  O46  1  0.59920000  0.98260000  0.70790000  1.0 -0.8170193646
O  O47  1  0.90080000  0.01740000  0.20790000  1.0 -0.8170193646
O  O48  1  0.40080000  0.48260000  0.79210000  1.0 -0.8170193646
O  O49  1  0.76230000  0.45300000  0.70830000  1.0 -0.6279791359
O  O50  1  0.26230000  0.04700000  0.29170000  1.0 -0.6279791359
O  O51  1  0.23770000  0.95300000  0.79170000  1.0 -0.6279791359
O  O52  1  0.73770000  0.54700000  0.20830000  1.0 -0.6279791359
O  O53  1  0.73770000  0.54700000  0.29170000  1.0 -0.6279791359
O  O54  1  0.23770000  0.95300000  0.70830000  1.0 -0.6279791359
O  O55  1  0.26230000  0.04700000  0.20830000  1.0 -0.6279791359
O  O56  1  0.76230000  0.45300000  0.79170000  1.0 -0.6279791359
