# DDEC6 charges by PACMAN v1.1 (https://github.com/mtap-research/PACMAN-charge/)
data_WUDYUR_FSR_pacman
_symmetry_space_group_name_H-M   'P 1'
_cell_length_a   19.09540000
_cell_length_b   19.09540000
_cell_length_c   31.60370000
_cell_angle_alpha   78.90250000
_cell_angle_beta   101.09800000
_cell_angle_gamma   134.91000000
_symmetry_Int_Tables_number   1
_chemical_formula_structural   Zn9H144C142(I3N4)8
_chemical_formula_sum   'Zn18 H288 C284 I48 N64'
_cell_volume   7982.13070637
_cell_formula_units_Z   2
loop_
 _symmetry_equiv_pos_site_id
 _symmetry_equiv_pos_as_xyz
  1  'x, y, z'
loop_
 _atom_site_type_symbol
 _atom_site_label
 _atom_site_symmetry_multiplicity
 _atom_site_fract_x
 _atom_site_fract_y
 _atom_site_fract_z
 _atom_site_occupancy
 _atom_site_charge
Zn  Zn1  1  0.19697000  0.53641000  0.47890000  1.0 0.3999825314
Zn  Zn2  1  0.53641000  0.19697000  0.52110000  1.0 0.3999825314
Zn  Zn3  1  0.73480000  0.49204000  0.31820000  1.0 0.2438523367
Zn  Zn4  1  0.49204000  0.73480000  0.68180000  1.0 0.2492464081
Zn  Zn5  1  0.79522000  0.96048000  0.15834000  1.0 0.2492464081
Zn  Zn6  1  0.96048000  0.79522000  0.84166000  1.0 0.2593467032
Zn  Zn7  1  0.05580000  0.21960000  0.65830000  1.0 0.1674509838
Zn  Zn8  1  0.21960000  0.05580000  0.34170000  1.0 0.1674509838
Zn  Zn9  1  0.46950000  0.82970000  0.96620000  1.0 0.1997047149
Zn  Zn10  1  0.82970000  0.46950000  0.03380000  1.0 0.1997047149
Zn  Zn11  1  0.53670000  0.28970000  0.81590000  1.0 0.2593467032
Zn  Zn12  1  0.28970000  0.53670000  0.18410000  1.0 0.2593467032
Zn  Zn13  1  0.03140000  0.21660000  0.65730000  1.0 0.2736470297
Zn  Zn14  1  0.21660000  0.03140000  0.34270000  1.0 0.2792006031
Zn  Zn15  1  0.47650000  0.81310000  0.97790000  1.0 0.1791473374
Zn  Zn16  1  0.81310000  0.47650000  0.02210000  1.0 0.1791473374
Zn  Zn17  1  0.51090000  0.26070000  0.81660000  1.0 0.1997047149
Zn  Zn18  1  0.26070000  0.51090000  0.18340000  1.0 0.1997047149
H  H1  1  0.10320000  0.45480000  0.38840000  1.0 0.11006795
H  H2  1  0.45480000  0.10320000  0.61160000  1.0 0.11006795
H  H3  1  0.11110000  0.38910000  0.34010000  1.0 0.1375631983
H  H4  1  0.38910000  0.11110000  0.65990000  1.0 0.1375631983
H  H5  1  0.34150000  0.45130000  0.41150000  1.0 0.1205067225
H  H6  1  0.45130000  0.34150000  0.58850000  1.0 0.1205067225
H  H7  1  0.33160000  0.52900000  0.45620000  1.0 0.11006795
H  H8  1  0.52900000  0.33160000  0.54380000  1.0 0.11006795
H  H9  1  0.55270000  0.40290000  0.25560000  1.0 0.0807545867
H  H10  1  0.40290000  0.55270000  0.74440000  1.0 0.0807545867
H  H11  1  0.39890000  0.35470000  0.25100000  1.0 0.0999046216
H  H12  1  0.35470000  0.39890000  0.74900000  1.0 0.0999046216
H  H13  1  0.46830000  0.42250000  0.37290000  1.0 0.1494725671
H  H14  1  0.42250000  0.46830000  0.62710000  1.0 0.1494725671
H  H15  1  0.62480000  0.49860000  0.36480000  1.0 0.0999046216
H  H16  1  0.49860000  0.62480000  0.63520000  1.0 0.0999046216
H  H17  1  0.85740000  0.09760000  0.22070000  1.0 0.0896050792
H  H18  1  0.09760000  0.85740000  0.77930000  1.0 0.0807545867
H  H19  1  0.99390000  0.22090000  0.26380000  1.0 0.1494725671
H  H20  1  0.22090000  0.99390000  0.73620000  1.0 0.1494725671
H  H21  1  0.13940000  0.15840000  0.23320000  1.0 0.1205067225
H  H22  1  0.15840000  0.13940000  0.76680000  1.0 0.1205067225
H  H23  1  0.00410000  0.04110000  0.18970000  1.0 0.0896050792
H  H24  1  0.04110000  0.00410000  0.81030000  1.0 0.0896050792
H  H25  1  0.83000000  0.47380000  0.40390000  1.0 0.0999046216
H  H26  1  0.47380000  0.83000000  0.59610000  1.0 0.0999046216
H  H27  1  0.80920000  0.35560000  0.44770000  1.0 0.1314775004
H  H28  1  0.35560000  0.80920000  0.55230000  1.0 0.1314775004
H  H29  1  0.56690000  0.14650000  0.37460000  1.0 0.1205067225
H  H30  1  0.14650000  0.56690000  0.62540000  1.0 0.1205067225
H  H31  1  0.59030000  0.26710000  0.33010000  1.0 0.0697158144
H  H32  1  0.26710000  0.59030000  0.66990000  1.0 0.0697158144
H  H33  1  0.01480000  0.32780000  0.58640000  1.0 0.0807545867
H  H34  1  0.32780000  0.01480000  0.41360000  1.0 0.0807545867
H  H35  1  0.90180000  0.29560000  0.53120000  1.0 0.1314775004
H  H36  1  0.29560000  0.90180000  0.46880000  1.0 0.1314775004
H  H37  1  0.72800000  0.00540000  0.56980000  1.0 0.1205067225
H  H38  1  0.00540000  0.72800000  0.43020000  1.0 0.1205067225
H  H39  1  0.84140000  0.04480000  0.62160000  1.0 0.0807545867
H  H40  1  0.04480000  0.84140000  0.37840000  1.0 0.0807545867
H  H41  1  0.26830000  0.73410000  0.42870000  1.0 0.1205067225
H  H42  1  0.73410000  0.26830000  0.57130000  1.0 0.1205067225
H  H43  1  0.40410000  0.89930000  0.42920000  1.0 0.1494725671
H  H44  1  0.89930000  0.40410000  0.57080000  1.0 0.1494725671
H  H45  1  0.55270000  0.84170000  0.50820000  1.0 0.1314775004
H  H46  1  0.84170000  0.55270000  0.49180000  1.0 0.1314775004
H  H47  1  0.40640000  0.67120000  0.51090000  1.0 0.0896050792
H  H48  1  0.67120000  0.40640000  0.48910000  1.0 0.0896050792
H  H49  1  0.94080000  0.16480000  0.73170000  1.0 0.0896050792
H  H50  1  0.16480000  0.94080000  0.26830000  1.0 0.0896050792
H  H51  1  0.80290000  0.02130000  0.76870000  1.0 0.1314775004
H  H52  1  0.02130000  0.80290000  0.23130000  1.0 0.1314775004
H  H53  1  0.84620000  0.87140000  0.72730000  1.0 0.1314775004
H  H54  1  0.87140000  0.84620000  0.27270000  1.0 0.1314775004
H  H55  1  0.96600000  0.01480000  0.68570000  1.0 0.0896050792
H  H56  1  0.01480000  0.96600000  0.31430000  1.0 0.0896050792
H  H57  1  0.46450000  0.67090000  0.94760000  1.0 0.0896050792
H  H58  1  0.67090000  0.46450000  0.05240000  1.0 0.0896050792
H  H59  1  0.51620000  0.65080000  0.89580000  1.0 0.1314775004
H  H60  1  0.65080000  0.51620000  0.10420000  1.0 0.1314775004
H  H61  1  0.64390000  0.92010000  0.84070000  1.0 0.1314775004
H  H62  1  0.92010000  0.64390000  0.15930000  1.0 0.1314775004
H  H63  1  0.58140000  0.92740000  0.89690000  1.0 0.0807545867
H  H64  1  0.92740000  0.58140000  0.10310000  1.0 0.0807545867
H  H65  1  0.60940000  0.46000000  0.74980000  1.0 0.0999046216
H  H66  1  0.46000000  0.60940000  0.25020000  1.0 0.0999046216
H  H67  1  0.65040000  0.60580000  0.74670000  1.0 0.1375631983
H  H68  1  0.60580000  0.65040000  0.25330000  1.0 0.1375631983
H  H69  1  0.58760000  0.55060000  0.86910000  1.0 0.1314775004
H  H70  1  0.55060000  0.58760000  0.13090000  1.0 0.1314775004
H  H71  1  0.55390000  0.40430000  0.87170000  1.0 0.0807545867
H  H72  1  0.40430000  0.55390000  0.12830000  1.0 0.0807545867
H  H73  1  0.28800000  0.75200000  0.93270000  1.0 0.0807545867
H  H74  1  0.75200000  0.28800000  0.06730000  1.0 0.0807545867
H  H75  1  0.11430000  0.60530000  0.92600000  1.0 0.1375631983
H  H76  1  0.60530000  0.11430000  0.07400000  1.0 0.1375631983
H  H77  1  0.17110000  0.46210000  0.01300000  1.0 0.1314775004
H  H78  1  0.46210000  0.17110000  0.98700000  1.0 0.1314775004
H  H79  1  0.33680000  0.60520000  0.01020000  1.0 0.0807545867
H  H80  1  0.60520000  0.33680000  0.98980000  1.0 0.0807545867
H  H81  1  0.96360000  0.15800000  0.12360000  1.0 0.0999046216
H  H82  1  0.15800000  0.96360000  0.87640000  1.0 0.0999046216
H  H83  1  0.00960000  0.27500000  0.06410000  1.0 0.1314775004
H  H84  1  0.27500000  0.00960000  0.93590000  1.0 0.1314775004
H  H85  1  0.71790000  0.10830000  0.03040000  1.0 0.1314775004
H  H86  1  0.10830000  0.71790000  0.96960000  1.0 0.1314775004
H  H87  1  0.68150000  0.99230000  0.08670000  1.0 0.0896050792
H  H88  1  0.99230000  0.68150000  0.91330000  1.0 0.0896050792
H  H89  1  0.54420000  0.18100000  0.89860000  1.0 0.0807545867
H  H90  1  0.18100000  0.54420000  0.10140000  1.0 0.0807545867
H  H91  1  0.66160000  0.19920000  0.94810000  1.0 0.11006795
H  H92  1  0.19920000  0.66160000  0.05190000  1.0 0.11006795
H  H93  1  0.87000000  0.46460000  0.88250000  1.0 0.1314775004
H  H94  1  0.46460000  0.87000000  0.11750000  1.0 0.1314775004
H  H95  1  0.74030000  0.43070000  0.83550000  1.0 0.0697158144
H  H96  1  0.43070000  0.74030000  0.16450000  1.0 0.0697158144
H  H97  1  0.19460000  0.83740000  0.84840000  1.0 0.0604997903
H  H98  1  0.83740000  0.19460000  0.15160000  1.0 0.050744632
H  H99  1  0.35260000  0.97000000  0.83680000  1.0 0.0604997903
H  H100  1  0.97000000  0.35260000  0.16320000  1.0 0.0604997903
H  H101  1  0.46400000  0.96880000  0.81530000  1.0 0.0697158144
H  H102  1  0.96880000  0.46400000  0.18470000  1.0 0.0697158144
H  H103  1  0.39590000  0.80050000  0.81820000  1.0 0.11006795
H  H104  1  0.80050000  0.39590000  0.18180000  1.0 0.11006795
H  H105  1  0.93840000  0.23740000  0.91020000  1.0 0.0807545867
H  H106  1  0.23740000  0.93840000  0.08980000  1.0 0.0807545867
H  H107  1  0.77140000  0.09180000  0.89770000  1.0 0.1314775004
H  H108  1  0.09180000  0.77140000  0.10230000  1.0 0.1314775004
H  H109  1  0.66750000  0.09610000  0.84690000  1.0 0.0999046216
H  H110  1  0.09610000  0.66750000  0.15310000  1.0 0.0999046216
H  H111  1  0.73070000  0.24610000  0.80840000  1.0 0.1205067225
H  H112  1  0.24610000  0.73070000  0.19160000  1.0 0.1205067225
H  H113  1  0.29590000  0.61890000  0.81960000  1.0 0.0807545867
H  H114  1  0.61890000  0.29590000  0.18040000  1.0 0.0807545867
H  H115  1  0.18880000  0.51320000  0.83120000  1.0 0.0999046216
H  H116  1  0.51320000  0.18880000  0.16880000  1.0 0.0999046216
H  H117  1  0.21160000  0.53140000  0.75700000  1.0 0.0896050792
H  H118  1  0.53140000  0.21160000  0.24300000  1.0 0.0896050792
H  H119  1  0.22870000  0.62770000  0.74950000  1.0 0.11006795
H  H120  1  0.62770000  0.22870000  0.25050000  1.0 0.11006795
H  H121  1  0.05350000  0.43470000  0.75850000  1.0 0.11006795
H  H122  1  0.43470000  0.05350000  0.24150000  1.0 0.11006795
H  H123  1  0.07500000  0.60100000  0.72980000  1.0 0.0999046216
H  H124  1  0.60100000  0.07500000  0.27020000  1.0 0.0999046216
H  H125  1  0.90520000  0.48820000  0.72150000  1.0 0.1205067225
H  H126  1  0.48820000  0.90520000  0.27850000  1.0 0.1205067225
H  H127  1  0.89750000  0.40010000  0.74270000  1.0 0.1314775004
H  H128  1  0.40010000  0.89750000  0.25730000  1.0 0.1314775004
H  H129  1  0.83740000  0.43540000  0.78570000  1.0 0.0896050792
H  H130  1  0.43540000  0.83740000  0.21430000  1.0 0.0896050792
H  H131  1  0.94790000  0.54210000  0.79200000  1.0 0.0697158144
H  H132  1  0.54210000  0.94790000  0.20800000  1.0 0.0697158144
H  H133  1  0.93520000  0.97100000  0.00410000  1.0 0.0604997903
H  H134  1  0.97100000  0.93520000  0.99590000  1.0 0.0604997903
H  H135  1  0.98280000  0.06120000  0.03100000  1.0 0.0999046216
H  H136  1  0.06120000  0.98280000  0.96900000  1.0 0.0999046216
H  H137  1  0.85300000  0.05540000  0.99660000  1.0 0.0697158144
H  H138  1  0.05540000  0.85300000  0.00340000  1.0 0.0697158144
H  H139  1  0.80740000  0.95380000  0.02530000  1.0 0.050744632
H  H140  1  0.95380000  0.80740000  0.97470000  1.0 0.050744632
H  H141  1  0.77800000  0.88200000  0.96160000  1.0 0.0604997903
H  H142  1  0.88200000  0.77800000  0.03840000  1.0 0.0604997903
H  H143  1  0.71880000  0.91480000  0.95550000  1.0 0.0604997903
H  H144  1  0.91480000  0.71880000  0.04450000  1.0 0.0604997903
H  H145  1  0.84320000  0.06260000  0.91530000  1.0 0.0697158144
H  H146  1  0.06260000  0.84320000  0.08470000  1.0 0.0697158144
H  H147  1  0.80690000  0.97170000  0.89330000  1.0 0.0604997903
H  H148  1  0.97170000  0.80690000  0.10670000  1.0 0.0604997903
H  H149  1  0.98420000  0.10960000  0.89820000  1.0 0.0697158144
H  H150  1  0.10960000  0.98420000  0.10180000  1.0 0.0697158144
H  H151  1  0.94960000  0.00700000  0.91950000  1.0 0.0807545867
H  H152  1  0.00700000  0.94960000  0.08050000  1.0 0.0807545867
H  H153  1  0.07060000  0.12420000  0.96790000  1.0 0.1205067225
H  H154  1  0.12420000  0.07060000  0.03210000  1.0 0.1205067225
H  H155  1  0.01910000  0.16430000  0.96530000  1.0 0.2200328604
H  H156  1  0.16430000  0.01910000  0.03470000  1.0 0.2200328604
H  H157  1  0.21310000  0.12270000  0.23290000  1.0 0.0807545867
H  H158  1  0.12270000  0.21310000  0.76710000  1.0 0.0807545867
H  H159  1  0.29030000  0.12690000  0.21590000  1.0 0.0807545867
H  H160  1  0.12690000  0.29030000  0.78410000  1.0 0.0807545867
H  H161  1  0.29450000  0.28470000  0.19590000  1.0 0.0896050792
H  H162  1  0.28470000  0.29450000  0.80410000  1.0 0.0896050792
H  H163  1  0.37380000  0.29220000  0.22970000  1.0 0.050744632
H  H164  1  0.29220000  0.37380000  0.77030000  1.0 0.050744632
H  H165  1  0.40400000  0.25220000  0.16660000  1.0 0.11006795
H  H166  1  0.25220000  0.40400000  0.83340000  1.0 0.11006795
H  H167  1  0.45340000  0.36420000  0.16510000  1.0 0.0999046216
H  H168  1  0.36420000  0.45340000  0.83490000  1.0 0.0999046216
H  H169  1  0.34020000  0.33840000  0.11260000  1.0 0.0807545867
H  H170  1  0.33840000  0.34020000  0.88740000  1.0 0.0807545867
H  H171  1  0.32470000  0.24870000  0.10260000  1.0 0.11006795
H  H172  1  0.24870000  0.32470000  0.89740000  1.0 0.11006795
H  H173  1  0.20690000  0.23290000  0.15600000  1.0 0.0807545867
H  H174  1  0.23290000  0.20690000  0.84400000  1.0 0.0807545867
H  H175  1  0.16660000  0.17760000  0.11280000  1.0 0.0807545867
H  H176  1  0.17760000  0.16660000  0.88720000  1.0 0.0807545867
H  H177  1  0.20740000  0.08380000  0.15080000  1.0 0.0395026751
H  H178  1  0.08380000  0.20740000  0.84920000  1.0 0.0395026751
H  H179  1  0.11980000  0.05800000  0.17120000  1.0 0.0697158144
H  H180  1  0.05800000  0.11980000  0.82880000  1.0 0.0697158144
H  H181  1  0.67960000  0.20560000  0.70170000  1.0 0.0807545867
H  H182  1  0.20560000  0.67960000  0.29830000  1.0 0.0807545867
H  H183  1  0.56190000  0.12570000  0.69050000  1.0 0.0604997903
H  H184  1  0.12570000  0.56190000  0.30950000  1.0 0.0604997903
H  H185  1  0.59080000  0.14360000  0.62380000  1.0 0.050744632
H  H186  1  0.14360000  0.59080000  0.37620000  1.0 0.050744632
H  H187  1  0.70580000  0.20720000  0.63720000  1.0 0.050744632
H  H188  1  0.20720000  0.70580000  0.36280000  1.0 0.050744632
H  H189  1  0.63600000  0.06260000  0.60510000  1.0 0.0697158144
H  H190  1  0.06260000  0.63600000  0.39490000  1.0 0.0697158144
H  H191  1  0.55370000  0.99130000  0.63970000  1.0 0.0300515611
H  H192  1  0.99130000  0.55370000  0.36030000  1.0 0.0300515611
H  H193  1  0.76270000  0.11350000  0.65620000  1.0 0.0604997903
H  H194  1  0.11350000  0.76270000  0.34380000  1.0 0.0604997903
H  H195  1  0.67770000  0.99730000  0.66900000  1.0 0.0604997903
H  H196  1  0.99730000  0.67770000  0.33100000  1.0 0.0604997903
H  H197  1  0.71110000  0.03950000  0.73470000  1.0 0.0896050792
H  H198  1  0.03950000  0.71110000  0.26530000  1.0 0.0896050792
H  H199  1  0.76720000  0.15220000  0.71830000  1.0 0.0110318292
H  H200  1  0.15220000  0.76720000  0.28170000  1.0 0.0110318292
H  H201  1  0.55240000  0.99240000  0.71120000  1.0 0.050744632
H  H202  1  0.99240000  0.55240000  0.28880000  1.0 0.050744632
H  H203  1  0.61260000  0.06340000  0.75050000  1.0 0.050744632
H  H204  1  0.06340000  0.61260000  0.24950000  1.0 0.050744632
H  H205  1  0.66060000  0.14960000  0.86150000  1.0 0.0896050792
H  H206  1  0.14960000  0.66060000  0.13850000  1.0 0.0896050792
H  H207  1  0.61080000  0.12420000  0.78790000  1.0 0.0999046216
H  H208  1  0.12420000  0.61080000  0.21210000  1.0 0.0999046216
H  H209  1  0.70100000  0.12860000  0.74490000  1.0 0.0395026751
H  H210  1  0.12860000  0.70100000  0.25510000  1.0 0.0395026751
H  H211  1  0.84100000  0.15840000  0.77540000  1.0 0.11006795
H  H212  1  0.15840000  0.84100000  0.22460000  1.0 0.11006795
H  H213  1  0.25440000  0.39680000  0.98420000  1.0 0.1205067225
H  H214  1  0.39680000  0.25440000  0.01580000  1.0 0.1205067225
H  H215  1  0.29850000  0.36130000  0.05340000  1.0 0.0896050792
H  H216  1  0.36130000  0.29850000  0.94660000  1.0 0.0896050792
H  H217  1  0.17550000  0.22170000  0.09650000  1.0 0.0604997903
H  H218  1  0.22170000  0.17550000  0.90350000  1.0 0.0604997903
H  H219  1  0.00840000  0.11740000  0.07040000  1.0 0.1205067225
H  H220  1  0.11740000  0.00840000  0.92960000  1.0 0.1205067225
H  H221  1  0.04830000  0.22810000  0.87690000  1.0 0.0999046216
H  H222  1  0.22810000  0.04830000  0.12310000  1.0 0.0999046216
H  H223  1  0.01290000  0.22310000  0.82630000  1.0 0.11006795
H  H224  1  0.22310000  0.01290000  0.17370000  1.0 0.11006795
H  H225  1  0.98600000  0.08880000  0.84750000  1.0 0.0604997903
H  H226  1  0.08880000  0.98600000  0.15250000  1.0 0.0604997903
H  H227  1  0.87990000  0.05330000  0.83960000  1.0 0.11006795
H  H228  1  0.05330000  0.87990000  0.16040000  1.0 0.11006795
H  H229  1  0.98320000  0.06680000  0.90880000  1.0 0.0807545867
H  H230  1  0.06680000  0.98320000  0.09120000  1.0 0.0807545867
H  H231  1  0.82390000  0.94030000  0.91740000  1.0 0.0697158144
H  H232  1  0.94030000  0.82390000  0.08260000  1.0 0.0697158144
H  H233  1  0.84720000  0.94740000  0.99590000  1.0 0.0604997903
H  H234  1  0.94740000  0.84720000  0.00410000  1.0 0.0604997903
H  H235  1  0.74860000  0.91380000  0.96950000  1.0 0.0604997903
H  H236  1  0.91380000  0.74860000  0.03050000  1.0 0.0604997903
H  H237  1  0.84310000  0.03990000  0.02440000  1.0 0.0604997903
H  H238  1  0.03990000  0.84310000  0.97560000  1.0 0.0604997903
H  H239  1  0.78470000  0.04550000  0.98230000  1.0 0.050744632
H  H240  1  0.04550000  0.78470000  0.01770000  1.0 0.050744632
H  H241  1  0.39520000  0.95300000  0.80720000  1.0 0.0697158144
H  H242  1  0.95300000  0.39520000  0.19280000  1.0 0.0697158144
H  H243  1  0.35320000  0.99360000  0.82090000  1.0 0.0604997903
H  H244  1  0.99360000  0.35320000  0.17910000  1.0 0.0604997903
H  H245  1  0.47320000  0.02660000  0.87650000  1.0 0.0807545867
H  H246  1  0.02660000  0.47320000  0.12350000  1.0 0.0807545867
H  H247  1  0.42310000  0.91450000  0.88020000  1.0 0.0896050792
H  H248  1  0.91450000  0.42310000  0.11980000  1.0 0.0896050792
H  H249  1  0.31120000  0.86180000  0.92390000  1.0 0.0999046216
H  H250  1  0.86180000  0.31120000  0.07610000  1.0 0.0999046216
H  H251  1  0.38270000  0.97750000  0.93070000  1.0 0.11006795
H  H252  1  0.97750000  0.38270000  0.06930000  1.0 0.11006795
H  H253  1  0.29760000  0.98620000  0.86120000  1.0 0.0604997903
H  H254  1  0.98620000  0.29760000  0.13880000  1.0 0.0604997903
H  H255  1  0.22870000  0.92530000  0.90110000  1.0 0.0395026751
H  H256  1  0.92530000  0.22870000  0.09890000  1.0 0.0395026751
H  H257  1  0.13820000  0.82320000  0.84090000  1.0 0.0697158144
H  H258  1  0.82320000  0.13820000  0.15910000  1.0 0.0697158144
H  H259  1  0.16350000  0.77190000  0.87810000  1.0 0.0807545867
H  H260  1  0.77190000  0.16350000  0.12190000  1.0 0.0807545867
H  H261  1  0.21970000  0.83030000  0.79630000  1.0 0.0999046216
H  H262  1  0.83030000  0.21970000  0.20370000  1.0 0.0999046216
H  H263  1  0.25330000  0.78810000  0.83470000  1.0 0.050744632
H  H264  1  0.78810000  0.25330000  0.16530000  1.0 0.050744632
H  H265  1  0.59210000  0.10270000  0.71690000  1.0 0.0300515611
H  H266  1  0.10270000  0.59210000  0.28310000  1.0 0.0300515611
H  H267  1  0.52600000  0.08960000  0.67390000  1.0 0.0697158144
H  H268  1  0.08960000  0.52600000  0.32610000  1.0 0.0697158144
H  H269  1  0.65600000  0.22700000  0.63940000  1.0 0.0395026751
H  H270  1  0.22700000  0.65600000  0.36060000  1.0 0.0395026751
H  H271  1  0.68990000  0.25830000  0.68810000  1.0 0.0807545867
H  H272  1  0.25830000  0.68990000  0.31190000  1.0 0.0807545867
H  H273  1  0.79860000  0.23760000  0.69780000  1.0 0.0604997903
H  H274  1  0.23760000  0.79860000  0.30220000  1.0 0.0604997903
H  H275  1  0.81740000  0.29600000  0.65080000  1.0 0.0896050792
H  H276  1  0.29600000  0.81740000  0.34920000  1.0 0.0896050792
H  H277  1  0.77580000  0.18000000  0.62270000  1.0 0.050744632
H  H278  1  0.18000000  0.77580000  0.37730000  1.0 0.050744632
H  H279  1  0.76390000  0.12570000  0.66920000  1.0 0.0697158144
H  H280  1  0.12570000  0.76390000  0.33080000  1.0 0.0697158144
H  H281  1  0.60480000  0.06860000  0.60680000  1.0 0.0697158144
H  H282  1  0.06860000  0.60480000  0.39320000  1.0 0.0697158144
H  H283  1  0.62950000  0.00330000  0.62820000  1.0 0.0395026751
H  H284  1  0.00330000  0.62950000  0.37180000  1.0 0.0395026751
H  H285  1  0.60320000  0.00640000  0.69860000  1.0 0.0604997903
H  H286  1  0.00640000  0.60320000  0.30140000  1.0 0.0604997903
H  H287  1  0.50550000  0.96430000  0.66790000  1.0 0.050744632
H  H288  1  0.96430000  0.50550000  0.33210000  1.0 0.050744632
C  C1  1  0.15210000  0.45190000  0.39430000  1.0 0.0110318292
C  C2  1  0.45190000  0.15210000  0.60570000  1.0 0.0110318292
C  C3  1  0.15660000  0.41400000  0.36510000  1.0 -0.1502865544
C  C4  1  0.41400000  0.15660000  0.63490000  1.0 -0.1502865544
C  C5  1  0.22500000  0.41200000  0.37100000  1.0 0.0604997903
C  C6  1  0.41200000  0.22500000  0.62900000  1.0 0.0604997903
C  C7  1  0.29080000  0.45120000  0.40600000  1.0 -0.139559914
C  C8  1  0.45120000  0.29080000  0.59400000  1.0 -0.139559914
C  C9  1  0.27990000  0.49210000  0.43390000  1.0 0.0896050792
C  C10  1  0.49210000  0.27990000  0.56610000  1.0 0.0896050792
C  C11  1  0.53650000  0.41130000  0.27960000  1.0 0.0604997903
C  C12  1  0.41130000  0.53650000  0.72040000  1.0 0.0604997903
C  C13  1  0.44300000  0.38160000  0.27640000  1.0 -0.1502865544
C  C14  1  0.38160000  0.44300000  0.72360000  1.0 -0.1502865544
C  C15  1  0.41990000  0.39230000  0.30910000  1.0 0.0604997903
C  C16  1  0.39230000  0.41990000  0.69090000  1.0 0.0604997903
C  C17  1  0.48640000  0.42560000  0.34610000  1.0 -0.1502865544
C  C18  1  0.42560000  0.48640000  0.65390000  1.0 -0.1502865544
C  C19  1  0.57520000  0.46080000  0.34240000  1.0 0.0896050792
C  C20  1  0.46080000  0.57520000  0.65760000  1.0 0.0896050792
C  C21  1  0.91610000  0.11070000  0.22310000  1.0 0.050744632
C  C22  1  0.11070000  0.91610000  0.77690000  1.0 0.050744632
C  C23  1  0.99670000  0.18310000  0.24980000  1.0 -0.1631721959
C  C24  1  0.18310000  0.99670000  0.75020000  1.0 -0.1631721959
C  C25  1  0.07860000  0.19900000  0.25570000  1.0 0.0604997903
C  C26  1  0.19900000  0.07860000  0.74430000  1.0 0.0604997903
C  C27  1  0.08110000  0.14570000  0.23120000  1.0 -0.1819660842
C  C28  1  0.14570000  0.08110000  0.76880000  1.0 -0.1819660842
C  C29  1  0.00100000  0.07700000  0.20500000  1.0 0.0395026751
C  C30  1  0.07700000  0.00100000  0.79500000  1.0 0.0395026751
C  C31  1  0.23390000  0.37150000  0.33700000  1.0 0.368599166
C  C32  1  0.37150000  0.23390000  0.66300000  1.0 0.368599166
C  C33  1  0.32760000  0.36840000  0.30670000  1.0 0.3261550262
C  C34  1  0.36840000  0.32760000  0.69330000  1.0 0.3261550262
C  C35  1  0.16900000  0.27880000  0.28290000  1.0 0.341870521
C  C36  1  0.27880000  0.16900000  0.71710000  1.0 0.341870521
C  C37  1  0.77510000  0.40650000  0.39790000  1.0 0.0604997903
C  C38  1  0.40650000  0.77510000  0.60210000  1.0 0.0604997903
C  C39  1  0.76230000  0.33650000  0.42350000  1.0 -0.1502865544
C  C40  1  0.33650000  0.76230000  0.57650000  1.0 -0.1502865544
C  C41  1  0.68400000  0.23520000  0.41780000  1.0 0.0604997903
C  C42  1  0.23520000  0.68400000  0.58220000  1.0 0.0604997903
C  C43  1  0.62100000  0.21360000  0.38110000  1.0 -0.139559914
C  C44  1  0.21360000  0.62100000  0.61890000  1.0 -0.139559914
C  C45  1  0.63480000  0.28480000  0.35520000  1.0 0.0395026751
C  C46  1  0.28480000  0.63480000  0.64480000  1.0 0.0395026751
C  C47  1  0.95480000  0.26060000  0.58270000  1.0 0.0604997903
C  C48  1  0.26060000  0.95480000  0.41730000  1.0 0.0604997903
C  C49  1  0.88930000  0.24230000  0.54910000  1.0 -0.139559914
C  C50  1  0.24230000  0.88930000  0.45090000  1.0 -0.139559914
C  C51  1  0.80140000  0.14200000  0.54100000  1.0 0.0604997903
C  C52  1  0.14200000  0.80140000  0.45900000  1.0 0.0604997903
C  C53  1  0.78800000  0.07320000  0.57160000  1.0 -0.1502865544
C  C54  1  0.07320000  0.78800000  0.42840000  1.0 -0.1631721959
C  C55  1  0.85390000  0.09710000  0.60260000  1.0 -0.0015391579
C  C56  1  0.09710000  0.85390000  0.39740000  1.0 -0.0015391579
C  C57  1  0.32610000  0.75630000  0.44630000  1.0 0.0604997903
C  C58  1  0.75630000  0.32610000  0.55370000  1.0 0.0604997903
C  C59  1  0.40730000  0.85390000  0.44510000  1.0 -0.1631721959
C  C60  1  0.85390000  0.40730000  0.55490000  1.0 -0.1631721959
C  C61  1  0.49330000  0.88770000  0.46640000  1.0 0.0604997903
C  C62  1  0.88770000  0.49330000  0.53360000  1.0 0.0604997903
C  C63  1  0.49340000  0.81920000  0.49200000  1.0 -0.139559914
C  C64  1  0.81920000  0.49340000  0.50800000  1.0 -0.139559914
C  C65  1  0.40700000  0.71840000  0.49400000  1.0 0.0697158144
C  C66  1  0.71840000  0.40700000  0.50600000  1.0 0.0697158144
C  C67  1  0.67130000  0.15850000  0.44660000  1.0 0.3603972837
C  C68  1  0.15850000  0.67130000  0.55340000  1.0 0.3603972837
C  C69  1  0.72800000  0.11400000  0.50490000  1.0 0.3484256536
C  C70  1  0.11400000  0.72800000  0.49510000  1.0 0.3484256536
C  C71  1  0.58550000  0.99870000  0.46870000  1.0 0.3603972837
C  C72  1  0.99870000  0.58550000  0.53130000  1.0 0.3603972837
C  C73  1  0.91600000  0.10200000  0.72840000  1.0 0.050744632
C  C74  1  0.10200000  0.91600000  0.27160000  1.0 0.050744632
C  C75  1  0.83790000  0.01810000  0.75280000  1.0 -0.2200552131
C  C76  1  0.01810000  0.83790000  0.24720000  1.0 -0.2200552131
C  C77  1  0.81450000  0.93150000  0.75280000  1.0 0.0604997903
C  C78  1  0.93150000  0.81450000  0.24720000  1.0 0.0604997903
C  C79  1  0.86090000  0.93010000  0.72820000  1.0 -0.139559914
C  C80  1  0.93010000  0.86090000  0.27180000  1.0 -0.139559914
C  C81  1  0.93120000  0.01520000  0.70340000  1.0 0.050744632
C  C82  1  0.01520000  0.93120000  0.29660000  1.0 0.050744632
C  C83  1  0.50250000  0.72350000  0.92580000  1.0 0.0697158144
C  C84  1  0.72350000  0.50250000  0.07420000  1.0 0.0697158144
C  C85  1  0.53550000  0.71250000  0.89530000  1.0 -0.1502865544
C  C86  1  0.71250000  0.53550000  0.10470000  1.0 -0.1502865544
C  C87  1  0.59320000  0.78320000  0.86530000  1.0 0.0604997903
C  C88  1  0.78320000  0.59320000  0.13470000  1.0 0.0604997903
C  C89  1  0.60930000  0.86790000  0.86300000  1.0 -0.2461554363
C  C90  1  0.86790000  0.60930000  0.13700000  1.0 -0.2461554363
C  C91  1  0.56960000  0.87000000  0.89670000  1.0 -0.0887206082
C  C92  1  0.87000000  0.56960000  0.10330000  1.0 -0.0887206082
C  C93  1  0.60340000  0.47700000  0.77430000  1.0 0.050744632
C  C94  1  0.47700000  0.60340000  0.22570000  1.0 0.050744632
C  C95  1  0.62680000  0.56280000  0.77250000  1.0 -0.1502865544
C  C96  1  0.56280000  0.62680000  0.22750000  1.0 -0.1502865544
C  C97  1  0.61730000  0.59010000  0.80680000  1.0 0.0604997903
C  C98  1  0.59010000  0.61730000  0.19320000  1.0 0.0604997903
C  C99  1  0.59140000  0.53280000  0.84410000  1.0 -0.1502865544
C  C100  1  0.53280000  0.59140000  0.15590000  1.0 -0.1502865544
C  C101  1  0.57000000  0.44420000  0.84520000  1.0 0.0604997903
C  C102  1  0.44420000  0.57000000  0.15480000  1.0 0.0604997903
C  C103  1  0.73840000  0.84460000  0.78240000  1.0 0.3484256536
C  C104  1  0.84460000  0.73840000  0.21760000  1.0 0.3484256536
C  C105  1  0.63540000  0.77640000  0.83550000  1.0 0.3149708107
C  C106  1  0.77640000  0.63540000  0.16450000  1.0 0.3149708107
C  C107  1  0.64698000  0.68638000  0.80630000  1.0 0.3484256536
C  C108  1  0.68638000  0.64698000  0.19370000  1.0 0.3484256536
C  C109  1  0.26370000  0.69210000  0.94880000  1.0 0.0604997903
C  C110  1  0.69210000  0.26370000  0.05120000  1.0 0.0604997903
C  C111  1  0.15850000  0.60450000  0.94550000  1.0 -0.139559914
C  C112  1  0.60450000  0.15850000  0.05450000  1.0 -0.139559914
C  C113  1  0.12340000  0.51940000  0.97140000  1.0 0.0604997903
C  C114  1  0.51940000  0.12340000  0.02860000  1.0 0.0604997903
C  C115  1  0.19140000  0.51960000  0.99580000  1.0 -0.139559914
C  C116  1  0.51960000  0.19140000  0.00420000  1.0 -0.139559914
C  C117  1  0.29020000  0.60660000  0.99440000  1.0 0.0604997903
C  C118  1  0.60660000  0.29020000  0.00560000  1.0 0.0604997903
C  C119  1  0.91320000  0.14760000  0.10390000  1.0 -0.0179084998
C  C120  1  0.14760000  0.91320000  0.89610000  1.0 -0.0179084998
C  C121  1  0.94190000  0.21950000  0.06920000  1.0 -0.1819660842
C  C122  1  0.21950000  0.94190000  0.93080000  1.0 -0.1819660842
C  C123  1  0.86600000  0.20540000  0.04270000  1.0 0.0604997903
C  C124  1  0.20540000  0.86600000  0.95730000  1.0 0.0604997903
C  C125  1  0.77020000  0.12040000  0.04920000  1.0 -0.2754680768
C  C126  1  0.12040000  0.77020000  0.95080000  1.0 -0.2754680768
C  C127  1  0.74880000  0.05200000  0.08290000  1.0 -0.0583790142
C  C128  1  0.05200000  0.74880000  0.91710000  1.0 -0.0583790142
C  C129  1  0.61230000  0.23910000  0.89540000  1.0 -0.0094463564
C  C130  1  0.23910000  0.61230000  0.10460000  1.0 -0.0094463564
C  C131  1  0.68130000  0.24870000  0.92520000  1.0 -0.2012956438
C  C132  1  0.24870000  0.68130000  0.07480000  1.0 -0.2012956438
C  C133  1  0.77820000  0.33180000  0.92040000  1.0 0.0807545867
C  C134  1  0.33180000  0.77820000  0.07960000  1.0 0.0807545867
C  C135  1  0.80310000  0.40430000  0.88640000  1.0 -0.1880274028
C  C136  1  0.40430000  0.80310000  0.11360000  1.0 -0.1880274028
C  C137  1  0.72480000  0.38320000  0.85880000  1.0 0.0807545867
C  C138  1  0.38320000  0.72480000  0.14120000  1.0 0.0807545867
C  C139  1  0.01670000  0.42910000  0.97210000  1.0 0.3484256536
C  C140  1  0.42910000  0.01670000  0.02790000  1.0 0.3484256536
C  C141  1  0.89380000  0.28120000  0.00750000  1.0 0.3007567421
C  C142  1  0.28120000  0.89380000  0.99250000  1.0 0.3007567421
C  C143  1  0.85770000  0.34470000  0.95140000  1.0 0.341870521
C  C144  1  0.34470000  0.85770000  0.04860000  1.0 0.341870521
C  C145  1  0.10710000  0.58490000  0.83900000  1.0 0.191481781
C  C146  1  0.58490000  0.10710000  0.16100000  1.0 0.191481781
C  C147  1  0.26650000  0.73950000  0.82830000  1.0 0.0110318292
C  C148  1  0.73950000  0.26650000  0.17170000  1.0 0.0110318292
C  C149  1  0.19970000  0.74230000  0.83850000  1.0 0.0395026751
C  C150  1  0.74230000  0.19970000  0.16150000  1.0 0.0395026751
C  C151  1  0.23460000  0.82940000  0.84130000  1.0 -0.0583790142
C  C152  1  0.82940000  0.23460000  0.15870000  1.0 -0.0583790142
C  C153  1  0.32860000  0.90740000  0.83390000  1.0 -0.0261393045
C  C154  1  0.90740000  0.32860000  0.16610000  1.0 -0.0261393045
C  C155  1  0.39820000  0.90980000  0.82230000  1.0 -0.0887206082
C  C156  1  0.90980000  0.39820000  0.17770000  1.0 -0.0887206082
C  C157  1  0.35650000  0.81150000  0.82250000  1.0 -0.2264690801
C  C158  1  0.81150000  0.35650000  0.17750000  1.0 -0.2264690801
C  C159  1  0.02650000  0.47950000  0.84380000  1.0 0.1494725671
C  C160  1  0.47950000  0.02650000  0.15620000  1.0 0.1494725671
C  C161  1  0.87160000  0.33040000  0.83650000  1.0 -0.0531801813
C  C162  1  0.33040000  0.87160000  0.16350000  1.0 -0.0531801813
C  C163  1  0.93370000  0.32830000  0.86670000  1.0 0.0110318292
C  C164  1  0.32830000  0.93370000  0.13330000  1.0 0.0183597684
C  C165  1  0.89650000  0.23950000  0.88950000  1.0 0.0807545867
C  C166  1  0.23950000  0.89650000  0.11050000  1.0 0.0807545867
C  C167  1  0.79700000  0.15280000  0.88210000  1.0 0.050744632
C  C168  1  0.15280000  0.79700000  0.11790000  1.0 0.050744632
C  C169  1  0.73530000  0.15530000  0.85190000  1.0 0.0110318292
C  C170  1  0.15530000  0.73530000  0.14810000  1.0 0.0110318292
C  C171  1  0.77320000  0.24480000  0.82910000  1.0 -0.0531801813
C  C172  1  0.24480000  0.77320000  0.17090000  1.0 -0.0531801813
C  C173  1  0.22380000  0.57820000  0.81440000  1.0 -0.0831472363
C  C174  1  0.57820000  0.22380000  0.18560000  1.0 -0.0831472363
C  C175  1  0.19200000  0.56200000  0.76610000  1.0 -0.2102582298
C  C176  1  0.56200000  0.19200000  0.23390000  1.0 -0.2102582298
C  C177  1  0.09350000  0.50450000  0.75610000  1.0 -0.1003305389
C  C178  1  0.50450000  0.09350000  0.24390000  1.0 -0.1003305389
C  C179  1  0.03890000  0.53510000  0.74200000  1.0 -0.0261393045
C  C180  1  0.53510000  0.03890000  0.25800000  1.0 -0.0261393045
C  C181  1  0.93130000  0.46870000  0.74570000  1.0 -0.2264690801
C  C182  1  0.46870000  0.93130000  0.25430000  1.0 -0.2264690801
C  C183  1  0.90810000  0.47190000  0.78730000  1.0 0.0025731048
C  C184  1  0.47190000  0.90810000  0.21270000  1.0 0.0025731048
C  C185  1  0.94600000  0.03000000  0.00400000  1.0 -0.2200552131
C  C186  1  0.03000000  0.94600000  0.99600000  1.0 -0.2200552131
C  C187  1  0.84300000  0.99700000  0.99940000  1.0 -0.1003305389
C  C188  1  0.99700000  0.84300000  0.00060000  1.0 -0.1003305389
C  C189  1  0.78600000  0.94000000  0.95900000  1.0 -0.0887206082
C  C190  1  0.94000000  0.78600000  0.04100000  1.0 -0.0887206082
C  C191  1  0.84300000  0.00900000  0.91930000  1.0 -0.0531801813
C  C192  1  0.00900000  0.84300000  0.08070000  1.0 -0.0531801813
C  C193  1  0.95000000  0.05800000  0.92200000  1.0 -0.0831472363
C  C194  1  0.05800000  0.95000000  0.07800000  1.0 -0.0831472363
C  C195  1  0.00600000  0.10400000  0.96500000  1.0 -0.2754680768
C  C196  1  0.10400000  0.00600000  0.03500000  1.0 -0.2754680768
C  C197  1  0.25500000  0.14900000  0.20900000  1.0 -0.1880274028
C  C198  1  0.14900000  0.25500000  0.79100000  1.0 -0.1880274028
C  C199  1  0.32900000  0.26300000  0.20300000  1.0 -0.1191369151
C  C200  1  0.26300000  0.32900000  0.79700000  1.0 -0.1191369151
C  C201  1  0.39000000  0.29400000  0.16500000  1.0 -0.1502865544
C  C202  1  0.29400000  0.39000000  0.83500000  1.0 -0.1502865544
C  C203  1  0.32100000  0.27500000  0.12500000  1.0 -0.1502865544
C  C204  1  0.27500000  0.32100000  0.87500000  1.0 -0.1502865544
C  C205  1  0.21390000  0.20010000  0.13900000  1.0 -0.1502865544
C  C206  1  0.20010000  0.21390000  0.86100000  1.0 -0.1502865544
C  C207  1  0.19100000  0.11100000  0.16600000  1.0 -0.1335512554
C  C208  1  0.11100000  0.19100000  0.83400000  1.0 -0.139559914
C  C209  1  0.62230000  0.13970000  0.69000000  1.0 -0.0831472363
C  C210  1  0.13970000  0.62230000  0.31000000  1.0 -0.0831472363
C  C211  1  0.63790000  0.14410000  0.64380000  1.0 -0.0094463564
C  C212  1  0.14410000  0.63790000  0.35620000  1.0 -0.0094463564
C  C213  1  0.62250000  0.05550000  0.63510000  1.0 -0.0831472363
C  C214  1  0.05550000  0.62250000  0.36490000  1.0 -0.0887206082
C  C215  1  0.69670000  0.06130000  0.66760000  1.0 -0.1114983204
C  C216  1  0.06130000  0.69670000  0.33240000  1.0 -0.1114983204
C  C217  1  0.70630000  0.08170000  0.71360000  1.0 -0.2412178621
C  C218  1  0.08170000  0.70630000  0.28640000  1.0 -0.2412178621
C  C219  1  0.61410000  0.05990000  0.71990000  1.0 -0.1114983204
C  C220  1  0.05990000  0.61410000  0.28010000  1.0 -0.1114983204
C  C221  1  0.89810000  0.19790000  0.90600000  1.0 0.0697158144
C  C222  1  0.19790000  0.89810000  0.09400000  1.0 0.0697158144
C  C223  1  0.83420000  0.17180000  0.83660000  1.0 0.0395026751
C  C224  1  0.17180000  0.83420000  0.16340000  1.0 0.0395026751
C  C225  1  0.78070000  0.16930000  0.86210000  1.0 0.0604997903
C  C226  1  0.16930000  0.78070000  0.13790000  1.0 0.0604997903
C  C227  1  0.69690000  0.15110000  0.84400000  1.0 -0.0887206082
C  C228  1  0.15110000  0.69690000  0.15600000  1.0 -0.0887206082
C  C229  1  0.66770000  0.13630000  0.80000000  1.0 -0.0887206082
C  C230  1  0.13630000  0.66770000  0.20000000  1.0 -0.0887206082
C  C231  1  0.72110000  0.13890000  0.77470000  1.0 -0.2012956438
C  C232  1  0.13890000  0.72110000  0.22530000  1.0 -0.2012956438
C  C233  1  0.80390000  0.15610000  0.79290000  1.0 -0.2200552131
C  C234  1  0.15610000  0.80390000  0.20710000  1.0 -0.2200552131
C  C235  1  0.96760000  0.21240000  0.94100000  1.0 0.050744632
C  C236  1  0.21240000  0.96760000  0.05900000  1.0 0.050744632
C  C237  1  0.03250000  0.19550000  0.01180000  1.0 0.0183597684
C  C238  1  0.19550000  0.03250000  0.98820000  1.0 0.0183597684
C  C239  1  0.10550000  0.27850000  0.98620000  1.0 0.0999046216
C  C240  1  0.27850000  0.10550000  0.01380000  1.0 0.0999046216
C  C241  1  0.20420000  0.33980000  0.00170000  1.0 -0.1711489712
C  C242  1  0.33980000  0.20420000  0.99830000  1.0 -0.1711489712
C  C243  1  0.23080000  0.31920000  0.04280000  1.0 -0.0887206082
C  C244  1  0.31920000  0.23080000  0.95720000  1.0 -0.0887206082
C  C245  1  0.15780000  0.23620000  0.06840000  1.0 -0.1003305389
C  C246  1  0.23620000  0.15780000  0.93160000  1.0 -0.1003305389
C  C247  1  0.05810000  0.17390000  0.05290000  1.0 -0.2412178621
C  C248  1  0.17390000  0.05810000  0.94710000  1.0 -0.2412178621
C  C249  1  0.99010000  0.19190000  0.85600000  1.0 -0.2012956438
C  C250  1  0.19190000  0.99010000  0.14400000  1.0 -0.2012956438
C  C251  1  0.94300000  0.09100000  0.85800000  1.0 -0.2012956438
C  C252  1  0.09100000  0.94300000  0.14200000  1.0 -0.2012956438
C  C253  1  0.92400000  0.05200000  0.89700000  1.0 -0.0887206082
C  C254  1  0.05200000  0.92400000  0.10300000  1.0 -0.0887206082
C  C255  1  0.87000000  0.00400000  0.92800000  1.0 -0.0261393045
C  C256  1  0.00400000  0.87000000  0.07200000  1.0 -0.0261393045
C  C257  1  0.82100000  0.97100000  0.97400000  1.0 -0.0383606521
C  C258  1  0.97100000  0.82100000  0.02600000  1.0 -0.0383606521
C  C259  1  0.84000000  0.05000000  0.99200000  1.0 0.0110318292
C  C260  1  0.05000000  0.84000000  0.00800000  1.0 0.0110318292
C  C261  1  0.35700000  0.94300000  0.82850000  1.0 -0.0672726307
C  C262  1  0.94300000  0.35700000  0.17150000  1.0 -0.0672726307
C  C263  1  0.40930000  0.95670000  0.87460000  1.0 -0.1191369151
C  C264  1  0.95670000  0.40930000  0.12540000  1.0 -0.1191369151
C  C265  1  0.34400000  0.92800000  0.90900000  1.0 -0.2412178621
C  C266  1  0.92800000  0.34400000  0.09100000  1.0 -0.2412178621
C  C267  1  0.26500000  0.92700000  0.88200000  1.0 -0.1880274028
C  C268  1  0.92700000  0.26500000  0.11800000  1.0 -0.1880274028
C  C269  1  0.19300000  0.83100000  0.85700000  1.0 -0.0531801813
C  C270  1  0.83100000  0.19300000  0.14300000  1.0 -0.0531801813
C  C271  1  0.25100000  0.83900000  0.82600000  1.0 -0.0383606521
C  C272  1  0.83900000  0.25100000  0.17400000  1.0 -0.0383606521
C  C273  1  0.58800000  0.10600000  0.68500000  1.0 -0.0261393045
C  C274  1  0.10600000  0.58800000  0.31500000  1.0 -0.0261393045
C  C275  1  0.67490000  0.21310000  0.66890000  1.0 -0.1114983204
C  C276  1  0.21310000  0.67490000  0.33110000  1.0 -0.1114983204
C  C277  1  0.76770000  0.23230000  0.66800000  1.0 -0.2012956438
C  C278  1  0.23230000  0.76770000  0.33200000  1.0 -0.2012956438
C  C279  1  0.73700000  0.14900000  0.64840000  1.0 -0.0831472363
C  C280  1  0.14900000  0.73700000  0.35160000  1.0 -0.0887206082
C  C281  1  0.63160000  0.05440000  0.63320000  1.0 -0.0887206082
C  C282  1  0.05440000  0.63160000  0.36680000  1.0 -0.0887206082
C  C283  1  0.57640000  0.02360000  0.67350000  1.0 -0.0583790142
C  C284  1  0.02360000  0.57640000  0.32650000  1.0 -0.0583790142
I  I1  1  0.05640000  0.50880000  0.45940000  1.0 -0.3594581142
I  I2  1  0.50880000  0.05640000  0.54060000  1.0 -0.3594581142
I  I3  1  0.23101000  0.48059000  0.55480000  1.0 -0.4650981531
I  I4  1  0.48059000  0.23101000  0.44520000  1.0 -0.4650981531
I  I5  1  0.76644000  0.47596000  0.24952000  1.0 -0.0583790142
I  I6  1  0.47596000  0.76644000  0.75048000  1.0 -0.0583790142
I  I7  1  0.84208000  0.64638000  0.35812000  1.0 0.0395026751
I  I8  1  0.64638000  0.84208000  0.64188000  1.0 0.0395026751
I  I9  1  0.12793000  0.17987000  0.62191000  1.0 0.0300515611
I  I10  1  0.17987000  0.12793000  0.37809000  1.0 0.0300515611
I  I11  1  0.13149000  0.36691000  0.69370000  1.0 0.0395026751
I  I12  1  0.36691000  0.13149000  0.30630000  1.0 0.0395026751
I  I13  1  0.48800000  0.97300000  0.94110000  1.0 0.1205067225
I  I14  1  0.97300000  0.48800000  0.05890000  1.0 0.1205067225
I  I15  1  0.55590000  0.81890000  0.03650000  1.0 -0.0179084998
I  I16  1  0.81890000  0.55590000  0.96350000  1.0 -0.0094463564
I  I17  1  0.83380000  0.87200000  0.12610000  1.0 -0.0672726307
I  I18  1  0.87200000  0.83380000  0.87390000  1.0 -0.0672726307
I  I19  1  0.65086000  0.87614000  0.20020000  1.0 0.0183597684
I  I20  1  0.87614000  0.65086000  0.79980000  1.0 0.0183597684
I  I21  1  0.55980000  0.26320000  0.74970000  1.0 -0.2865744784
I  I22  1  0.26320000  0.55980000  0.25030000  1.0 -0.2865744784
I  I23  1  0.36635000  0.15705000  0.85360000  1.0 -0.1003305389
I  I24  1  0.15705000  0.36635000  0.14640000  1.0 -0.0887206082
I  I25  1  0.04148000  0.50312000  0.45640000  1.0 -0.3796793624
I  I26  1  0.50312000  0.04148000  0.54360000  1.0 -0.3796793624
I  I27  1  0.21930000  0.47190000  0.55030000  1.0 -0.4200141422
I  I28  1  0.47190000  0.21930000  0.44970000  1.0 -0.4200141422
I  I29  1  0.74290000  0.45450000  0.24570000  1.0 -0.0179084998
I  I30  1  0.45450000  0.74290000  0.75430000  1.0 -0.0179084998
I  I31  1  0.88080000  0.66120000  0.34150000  1.0 0.0025731048
I  I32  1  0.66120000  0.88080000  0.65850000  1.0 0.0025731048
I  I33  1  0.14700000  0.21340000  0.62960000  1.0 -0.0383606521
I  I34  1  0.21340000  0.14700000  0.37040000  1.0 -0.0383606521
I  I35  1  0.10600000  0.37200000  0.69340000  1.0 0.0807545867
I  I36  1  0.37200000  0.10600000  0.30660000  1.0 0.0807545867
I  I37  1  0.51103000  0.96877000  0.95621000  1.0 0.0395026751
I  I38  1  0.96877000  0.51103000  0.04379000  1.0 0.0395026751
I  I39  1  0.54800000  0.78660000  0.04793000  1.0 0.0300515611
I  I40  1  0.78660000  0.54800000  0.95207000  1.0 0.0300515611
I  I41  1  0.82400000  0.88500000  0.12390000  1.0 -0.0583790142
I  I42  1  0.88500000  0.82400000  0.87610000  1.0 -0.0583790142
I  I43  1  0.64430000  0.88930000  0.19240000  1.0 0.0300515611
I  I44  1  0.88930000  0.64430000  0.80760000  1.0 0.0300515611
I  I45  1  0.55150000  0.25170000  0.74230000  1.0 -0.2865744784
I  I46  1  0.25170000  0.55150000  0.25770000  1.0 -0.2865744784
I  I47  1  0.37390000  0.16330000  0.84380000  1.0 -0.0531801813
I  I48  1  0.16330000  0.37390000  0.15620000  1.0 -0.0531801813
N  N1  1  0.20940000  0.48540000  0.43170000  1.0 -0.1631721959
N  N2  1  0.48540000  0.20940000  0.56830000  1.0 -0.1631721959
N  N3  1  0.59920000  0.44800000  0.31220000  1.0 -0.1880274028
N  N4  1  0.44800000  0.59920000  0.68780000  1.0 -0.1880274028
N  N5  1  0.91650000  0.05790000  0.20010000  1.0 -0.2200552131
N  N6  1  0.05790000  0.91650000  0.79990000  1.0 -0.2200552131
N  N7  1  0.32060000  0.40340000  0.33850000  1.0 -0.3893361084
N  N8  1  0.40340000  0.32060000  0.66150000  1.0 -0.3893361084
N  N9  1  0.25240000  0.30420000  0.27950000  1.0 -0.4200141422
N  N10  1  0.30420000  0.25240000  0.72050000  1.0 -0.4200141422
N  N11  1  0.15570000  0.31010000  0.31090000  1.0 -0.3893361084
N  N12  1  0.31010000  0.15570000  0.68910000  1.0 -0.3893361084
N  N13  1  0.71090000  0.38410000  0.36280000  1.0 -0.2200552131
N  N14  1  0.38410000  0.71090000  0.63720000  1.0 -0.2200552131
N  N15  1  0.94110000  0.19230000  0.61040000  1.0 -0.2102582298
N  N16  1  0.19230000  0.94110000  0.38960000  1.0 -0.2102582298
N  N17  1  0.32230000  0.68950000  0.47060000  1.0 -0.1711489712
N  N18  1  0.68950000  0.32230000  0.52940000  1.0 -0.1711489712
N  N19  1  0.73890000  0.18930000  0.48050000  1.0 -0.3893361084
N  N20  1  0.18930000  0.73890000  0.51950000  1.0 -0.3893361084
N  N21  1  0.65450000  0.02170000  0.50090000  1.0 -0.3723650381
N  N22  1  0.02170000  0.65450000  0.49910000  1.0 -0.3723650381
N  N23  1  0.58960000  0.06200000  0.44000000  1.0 -0.3723650381
N  N24  1  0.06200000  0.58960000  0.56000000  1.0 -0.3723650381
N  N25  1  0.95160000  0.09600000  0.70340000  1.0 -0.1819660842
N  N26  1  0.09600000  0.95160000  0.29660000  1.0 -0.1819660842
N  N27  1  0.52040000  0.80120000  0.92580000  1.0 -0.1880274028
N  N28  1  0.80120000  0.52040000  0.07420000  1.0 -0.1880274028
N  N29  1  0.57120000  0.41500000  0.81120000  1.0 -0.2200552131
N  N30  1  0.41500000  0.57120000  0.18880000  1.0 -0.2200552131
N  N31  1  0.70630000  0.85790000  0.81070000  1.0 -0.4282758489
N  N32  1  0.85790000  0.70630000  0.18930000  1.0 -0.4282758489
N  N33  1  0.60750000  0.68810000  0.83430000  1.0 -0.3893361084
N  N34  1  0.68810000  0.60750000  0.16570000  1.0 -0.3893361084
N  N35  1  0.70550000  0.75690000  0.77710000  1.0 -0.4028144583
N  N36  1  0.75690000  0.70550000  0.22290000  1.0 -0.4028144583
N  N37  1  0.32630000  0.69130000  0.97330000  1.0 -0.1711489712
N  N38  1  0.69130000  0.32630000  0.02670000  1.0 -0.1711489712
N  N39  1  0.82070000  0.06730000  0.11060000  1.0 -0.2012956438
N  N40  1  0.06730000  0.82070000  0.88940000  1.0 -0.2012956438
N  N41  1  0.63420000  0.30440000  0.86300000  1.0 -0.1819660842
N  N42  1  0.30440000  0.63420000  0.13700000  1.0 -0.1819660842
N  N43  1  0.99330000  0.35850000  0.00280000  1.0 -0.4282758489
N  N44  1  0.35850000  0.99330000  0.99720000  1.0 -0.4282758489
N  N45  1  0.82350000  0.26950000  0.98190000  1.0 -0.4200141422
N  N46  1  0.26950000  0.82350000  0.01810000  1.0 -0.4200141422
N  N47  1  0.95100000  0.42500000  0.94450000  1.0 -0.4096831337
N  N48  1  0.42500000  0.95100000  0.05550000  1.0 -0.4096831337
N  N49  1  0.20020000  0.62920000  0.82980000  1.0 -0.1631721959
N  N50  1  0.62920000  0.20020000  0.17020000  1.0 -0.1631721959
N  N51  1  0.10530000  0.65070000  0.84550000  1.0 -0.4200141422
N  N52  1  0.65070000  0.10530000  0.15450000  1.0 -0.4200141422
N  N53  1  0.92830000  0.43370000  0.81940000  1.0 -0.1335512554
N  N54  1  0.43370000  0.92830000  0.18060000  1.0 -0.1335512554
N  N55  1  0.03610000  0.42390000  0.87090000  1.0 -0.3443206355
N  N56  1  0.42390000  0.03610000  0.12910000  1.0 -0.3443206355
N  N57  1  0.92050000  0.19750000  0.86440000  1.0 -0.139559914
N  N58  1  0.19750000  0.92050000  0.13560000  1.0 -0.139559914
N  N59  1  0.82350000  0.18050000  0.90400000  1.0 -0.1191369151
N  N60  1  0.18050000  0.82350000  0.09600000  1.0 -0.1191369151
N  N61  1  0.93530000  0.15070000  0.97880000  1.0 -0.2012956438
N  N62  1  0.15070000  0.93530000  0.02120000  1.0 -0.2012956438
N  N63  1  0.06260000  0.29140000  0.94240000  1.0 -0.2960063621
N  N64  1  0.29140000  0.06260000  0.05760000  1.0 -0.2960063621
