# DDEC6 charges by PACMAN v1.1 (https://github.com/mtap-research/PACMAN-charge/)
data_WUFSAT_FSR_pacman
_symmetry_space_group_name_H-M   'P 1'
_cell_length_a   12.79000000
_cell_length_b   12.79000000
_cell_length_c   11.19100000
_cell_angle_alpha   90.00000000
_cell_angle_beta   90.00000000
_cell_angle_gamma   90.00000000
_symmetry_Int_Tables_number   1
_chemical_formula_structural   CaH18(CO)10
_chemical_formula_sum   'Ca4 H72 C40 O40'
_cell_volume   1830.66966310
_cell_formula_units_Z   4
loop_
 _symmetry_equiv_pos_site_id
 _symmetry_equiv_pos_as_xyz
  1  'x, y, z'
loop_
 _atom_site_type_symbol
 _atom_site_label
 _atom_site_symmetry_multiplicity
 _atom_site_fract_x
 _atom_site_fract_y
 _atom_site_fract_z
 _atom_site_occupancy
 _atom_site_charge
Ca  Ca1  1  0.77380000  0.77380000  0.00000000  1.0 1.2915941474
Ca  Ca2  1  0.22620000  0.22620000  0.50000000  1.0 1.2915941474
Ca  Ca3  1  0.27380000  0.72620000  0.75000000  1.0 1.2915941474
Ca  Ca4  1  0.72620000  0.27380000  0.25000000  1.0 1.2915941474
H  H1  1  0.91550000  0.95010000  0.80770000  1.0 0.0893474665
H  H2  1  0.08450000  0.04990000  0.30770000  1.0 0.0893474665
H  H3  1  0.45010000  0.58450000  0.55770000  1.0 0.0893474665
H  H4  1  0.54990000  0.41550000  0.05770000  1.0 0.0893474665
H  H5  1  0.41550000  0.54990000  0.94230000  1.0 0.0893474665
H  H6  1  0.58450000  0.45010000  0.44230000  1.0 0.0893474665
H  H7  1  0.95010000  0.91550000  0.19230000  1.0 0.0893474665
H  H8  1  0.04990000  0.08450000  0.69230000  1.0 0.0893474665
H  H9  1  0.06630000  0.81720000  0.83550000  1.0 0.1219542917
H  H10  1  0.93370000  0.18280000  0.33550000  1.0 0.1219542917
H  H11  1  0.31720000  0.43370000  0.58550000  1.0 0.1219542917
H  H12  1  0.68280000  0.56630000  0.08550000  1.0 0.1219542917
H  H13  1  0.56630000  0.68280000  0.91450000  1.0 0.1219542917
H  H14  1  0.43370000  0.31720000  0.41450000  1.0 0.1219542917
H  H15  1  0.81720000  0.06630000  0.16450000  1.0 0.1219542917
H  H16  1  0.18280000  0.93370000  0.66450000  1.0 0.1219542917
H  H17  1  0.95080000  0.66360000  0.79480000  1.0 0.0893474665
H  H18  1  0.04920000  0.33640000  0.29480000  1.0 0.0893474665
H  H19  1  0.16360000  0.54920000  0.54480000  1.0 0.0893474665
H  H20  1  0.83640000  0.45080000  0.04480000  1.0 0.0893474665
H  H21  1  0.45080000  0.83640000  0.95520000  1.0 0.0893474665
H  H22  1  0.54920000  0.16360000  0.45520000  1.0 0.0893474665
H  H23  1  0.66360000  0.95080000  0.20520000  1.0 0.0893474665
H  H24  1  0.33640000  0.04920000  0.70520000  1.0 0.0893474665
H  H25  1  0.01440000  0.65050000  0.60450000  1.0 0.0717580441
H  H26  1  0.98560000  0.34950000  0.10450000  1.0 0.0717580441
H  H27  1  0.15050000  0.48560000  0.35450000  1.0 0.0717580441
H  H28  1  0.84950000  0.51440000  0.85450000  1.0 0.0717580441
H  H29  1  0.51440000  0.84950000  0.14550000  1.0 0.0717580441
H  H30  1  0.48560000  0.15050000  0.64550000  1.0 0.0717580441
H  H31  1  0.65050000  0.01440000  0.39550000  1.0 0.0717580441
H  H32  1  0.34950000  0.98560000  0.89550000  1.0 0.0717580441
H  H33  1  0.86990000  0.75000000  0.60370000  1.0 0.0837801319
H  H34  1  0.13010000  0.25000000  0.10370000  1.0 0.0837801319
H  H35  1  0.25000000  0.63010000  0.35370000  1.0 0.0837801319
H  H36  1  0.75000000  0.36990000  0.85370000  1.0 0.0837801319
H  H37  1  0.36990000  0.75000000  0.14630000  1.0 0.0837801319
H  H38  1  0.63010000  0.25000000  0.64630000  1.0 0.0837801319
H  H39  1  0.75000000  0.86990000  0.39630000  1.0 0.0837801319
H  H40  1  0.25000000  0.13010000  0.89630000  1.0 0.0837801319
H  H41  1  0.94770000  0.79490000  0.50830000  1.0 0.1076675799
H  H42  1  0.05230000  0.20510000  0.00830000  1.0 0.1076675799
H  H43  1  0.29490000  0.55230000  0.25830000  1.0 0.1076675799
H  H44  1  0.70510000  0.44770000  0.75830000  1.0 0.1076675799
H  H45  1  0.44770000  0.70510000  0.24170000  1.0 0.1076675799
H  H46  1  0.55230000  0.29490000  0.74170000  1.0 0.1076675799
H  H47  1  0.79490000  0.94770000  0.49170000  1.0 0.1076675799
H  H48  1  0.20510000  0.05230000  0.99170000  1.0 0.1076675799
H  H49  1  0.76000000  0.83600000  0.73900000  1.0 0.358658224
H  H50  1  0.24000000  0.16400000  0.23900000  1.0 0.358658224
H  H51  1  0.33600000  0.74000000  0.48900000  1.0 0.358658224
H  H52  1  0.66400000  0.26000000  0.98900000  1.0 0.358658224
H  H53  1  0.26000000  0.66400000  0.01100000  1.0 0.358658224
H  H54  1  0.74000000  0.33600000  0.51100000  1.0 0.358658224
H  H55  1  0.83600000  0.76000000  0.26100000  1.0 0.358658224
H  H56  1  0.16400000  0.24000000  0.76100000  1.0 0.358658224
H  H57  1  0.00450000  0.79140000  0.01670000  1.0 0.3503385406
H  H58  1  0.99550000  0.20860000  0.51670000  1.0 0.3503385406
H  H59  1  0.29140000  0.49550000  0.76670000  1.0 0.3503385406
H  H60  1  0.70860000  0.50450000  0.26670000  1.0 0.3503385406
H  H61  1  0.50450000  0.70860000  0.73330000  1.0 0.3503385406
H  H62  1  0.49550000  0.29140000  0.23330000  1.0 0.3503385406
H  H63  1  0.79140000  0.00450000  0.98330000  1.0 0.3503385406
H  H64  1  0.20860000  0.99550000  0.48330000  1.0 0.3503385406
H  H65  1  0.09870000  0.60790000  0.88050000  1.0 0.3503385406
H  H66  1  0.90130000  0.39210000  0.38050000  1.0 0.3503385406
H  H67  1  0.10790000  0.40130000  0.63050000  1.0 0.3503385406
H  H68  1  0.89210000  0.59870000  0.13050000  1.0 0.3503385406
H  H69  1  0.59870000  0.89210000  0.86950000  1.0 0.3503385406
H  H70  1  0.40130000  0.10790000  0.36950000  1.0 0.3503385406
H  H71  1  0.60790000  0.09870000  0.11950000  1.0 0.3503385406
H  H72  1  0.39210000  0.90130000  0.61950000  1.0 0.3503385406
C  C1  1  0.91130000  0.87960000  0.77390000  1.0 0.2377340417
C  C2  1  0.08870000  0.12040000  0.27390000  1.0 0.2377340417
C  C3  1  0.37960000  0.58870000  0.52390000  1.0 0.2377340417
C  C4  1  0.62040000  0.41130000  0.02390000  1.0 0.2377340417
C  C5  1  0.41130000  0.62040000  0.97610000  1.0 0.2377340417
C  C6  1  0.58870000  0.37960000  0.47610000  1.0 0.2377340417
C  C7  1  0.87960000  0.91130000  0.22610000  1.0 0.2377340417
C  C8  1  0.12040000  0.08870000  0.72610000  1.0 0.2377340417
C  C9  1  0.99150000  0.81050000  0.83680000  1.0 0.0218270801
C  C10  1  0.00850000  0.18950000  0.33680000  1.0 0.0218270801
C  C11  1  0.31050000  0.50850000  0.58680000  1.0 0.0218270801
C  C12  1  0.68950000  0.49150000  0.08680000  1.0 0.0218270801
C  C13  1  0.49150000  0.68950000  0.91320000  1.0 0.0218270801
C  C14  1  0.50850000  0.31050000  0.41320000  1.0 0.0218270801
C  C15  1  0.81050000  0.99150000  0.16320000  1.0 0.0218270801
C  C16  1  0.18950000  0.00850000  0.66320000  1.0 0.0218270801
C  C17  1  0.01000000  0.70700000  0.77670000  1.0 0.0717580441
C  C18  1  0.99000000  0.29300000  0.27670000  1.0 0.0717580441
C  C19  1  0.20700000  0.49000000  0.52670000  1.0 0.0717580441
C  C20  1  0.79300000  0.51000000  0.02670000  1.0 0.0717580441
C  C21  1  0.51000000  0.79300000  0.97330000  1.0 0.0717580441
C  C22  1  0.49000000  0.20700000  0.47330000  1.0 0.0717580441
C  C23  1  0.70700000  0.01000000  0.22330000  1.0 0.0717580441
C  C24  1  0.29300000  0.99000000  0.72330000  1.0 0.0717580441
C  C25  1  0.02180000  0.71740000  0.64260000  1.0 0.1043688918
C  C26  1  0.97820000  0.28260000  0.14260000  1.0 0.1043688918
C  C27  1  0.21740000  0.47820000  0.39260000  1.0 0.1076675799
C  C28  1  0.78260000  0.52180000  0.89260000  1.0 0.1043688918
C  C29  1  0.52180000  0.78260000  0.10740000  1.0 0.1043688918
C  C30  1  0.47820000  0.21740000  0.60740000  1.0 0.1043688918
C  C31  1  0.71740000  0.02180000  0.35740000  1.0 0.1043688918
C  C32  1  0.28260000  0.97820000  0.85740000  1.0 0.1043688918
C  C33  1  0.93650000  0.78500000  0.59330000  1.0 -0.0885415379
C  C34  1  0.06350000  0.21500000  0.09330000  1.0 -0.0885415379
C  C35  1  0.28500000  0.56350000  0.34330000  1.0 -0.0885415379
C  C36  1  0.71500000  0.43650000  0.84330000  1.0 -0.0885415379
C  C37  1  0.43650000  0.71500000  0.15670000  1.0 -0.0885415379
C  C38  1  0.56350000  0.28500000  0.65670000  1.0 -0.0885415379
C  C39  1  0.78500000  0.93650000  0.40670000  1.0 -0.0885415379
C  C40  1  0.21500000  0.06350000  0.90670000  1.0 -0.0885415379
O  O1  1  0.81090000  0.83840000  0.79830000  1.0 -0.5689545277
O  O2  1  0.18910000  0.16160000  0.29830000  1.0 -0.5689545277
O  O3  1  0.33840000  0.68910000  0.54830000  1.0 -0.5689545277
O  O4  1  0.66160000  0.31090000  0.04830000  1.0 -0.5689545277
O  O5  1  0.31090000  0.66160000  0.95170000  1.0 -0.5689545277
O  O6  1  0.68910000  0.33840000  0.45170000  1.0 -0.5689545277
O  O7  1  0.83840000  0.81090000  0.20170000  1.0 -0.5689545277
O  O8  1  0.16160000  0.18910000  0.70170000  1.0 -0.5689545277
O  O9  1  0.95740000  0.79400000  0.95710000  1.0 -0.5218944329
O  O10  1  0.04260000  0.20600000  0.45710000  1.0 -0.5218944329
O  O11  1  0.29400000  0.54260000  0.70710000  1.0 -0.5218944329
O  O12  1  0.70600000  0.45740000  0.20710000  1.0 -0.5218944329
O  O13  1  0.45740000  0.70600000  0.79290000  1.0 -0.5218944329
O  O14  1  0.54260000  0.29400000  0.29290000  1.0 -0.5218944329
O  O15  1  0.79400000  0.95740000  0.04290000  1.0 -0.5218944329
O  O16  1  0.20600000  0.04260000  0.54290000  1.0 -0.5218944329
O  O17  1  0.10230000  0.66090000  0.82380000  1.0 -0.5346055431
O  O18  1  0.89770000  0.33910000  0.32380000  1.0 -0.5359407071
O  O19  1  0.16090000  0.39770000  0.57380000  1.0 -0.5359407071
O  O20  1  0.83910000  0.60230000  0.07380000  1.0 -0.5359407071
O  O21  1  0.60230000  0.83910000  0.92620000  1.0 -0.5359407071
O  O22  1  0.39770000  0.16090000  0.42620000  1.0 -0.5346055431
O  O23  1  0.66090000  0.10230000  0.17620000  1.0 -0.5346055431
O  O24  1  0.33910000  0.89770000  0.67620000  1.0 -0.5359407071
O  O25  1  0.12380000  0.75910000  0.62270000  1.0 -0.7358364243
O  O26  1  0.87620000  0.24090000  0.12270000  1.0 -0.7358364243
O  O27  1  0.25910000  0.37620000  0.37270000  1.0 -0.7358364243
O  O28  1  0.74090000  0.62380000  0.87270000  1.0 -0.7358364243
O  O29  1  0.62380000  0.74090000  0.12730000  1.0 -0.7358364243
O  O30  1  0.37620000  0.25910000  0.62730000  1.0 -0.7358364243
O  O31  1  0.75910000  0.12380000  0.37730000  1.0 -0.7358364243
O  O32  1  0.24090000  0.87620000  0.87730000  1.0 -0.7358364243
O  O33  1  0.93270000  0.88550000  0.65100000  1.0 -0.2544208098
O  O34  1  0.06730000  0.11450000  0.15100000  1.0 -0.2544208098
O  O35  1  0.38550000  0.56730000  0.40100000  1.0 -0.2544208098
O  O36  1  0.61450000  0.43270000  0.90100000  1.0 -0.2544208098
O  O37  1  0.43270000  0.61450000  0.09900000  1.0 -0.2544208098
O  O38  1  0.56730000  0.38550000  0.59900000  1.0 -0.2544208098
O  O39  1  0.88550000  0.93270000  0.34900000  1.0 -0.2544208098
O  O40  1  0.11450000  0.06730000  0.84900000  1.0 -0.2544208098
