# DDEC6 charges by PACMAN v1.1 (https://github.com/mtap-research/PACMAN-charge/)
data_WUGPUL_ASR_pacman
_symmetry_space_group_name_H-M   'P 1'
_cell_length_a   16.66660000
_cell_length_b   16.66660000
_cell_length_c   16.66660000
_cell_angle_alpha   70.25550000
_cell_angle_beta   70.25550000
_cell_angle_gamma   70.25550000
_symmetry_Int_Tables_number   1
_chemical_formula_structural   ZnH3C13O4
_chemical_formula_sum   'Zn6 H18 C78 O24'
_cell_volume   3968.30395169
_cell_formula_units_Z   6
loop_
 _symmetry_equiv_pos_site_id
 _symmetry_equiv_pos_as_xyz
  1  'x, y, z'
loop_
 _atom_site_type_symbol
 _atom_site_label
 _atom_site_symmetry_multiplicity
 _atom_site_fract_x
 _atom_site_fract_y
 _atom_site_fract_z
 _atom_site_occupancy
 _atom_site_charge
Zn  Zn1  1  0.41809000  0.99066000  0.99066000  1.0 0.9591486442
Zn  Zn2  1  0.99066000  0.99066000  0.41809000  1.0 0.9591486442
Zn  Zn3  1  0.99066000  0.41809000  0.99066000  1.0 0.9591486442
Zn  Zn4  1  0.58191000  0.00934000  0.00934000  1.0 0.9591486442
Zn  Zn5  1  0.00934000  0.58191000  0.00934000  1.0 0.9591486442
Zn  Zn6  1  0.00934000  0.00934000  0.58191000  1.0 0.9591486442
H  H1  1  0.49470000  0.28540000  0.98550000  1.0 0.1329539419
H  H2  1  0.28540000  0.98550000  0.49470000  1.0 0.1329539419
H  H3  1  0.98550000  0.49470000  0.28540000  1.0 0.1329539419
H  H4  1  0.50530000  0.01450000  0.71460000  1.0 0.1329539419
H  H5  1  0.71460000  0.50530000  0.01450000  1.0 0.1329539419
H  H6  1  0.01450000  0.71460000  0.50530000  1.0 0.1329539419
H  H7  1  0.50530000  0.71460000  0.01450000  1.0 0.1329539419
H  H8  1  0.71460000  0.01450000  0.50530000  1.0 0.1329539419
H  H9  1  0.01450000  0.50530000  0.71460000  1.0 0.1329539419
H  H10  1  0.49470000  0.98550000  0.28540000  1.0 0.1329539419
H  H11  1  0.28540000  0.49470000  0.98550000  1.0 0.1329539419
H  H12  1  0.98550000  0.28540000  0.49470000  1.0 0.1329539419
H  H13  1  0.26610000  0.26610000  0.97210000  1.0 0.1357096943
H  H14  1  0.26610000  0.97210000  0.26610000  1.0 0.1357096943
H  H15  1  0.97210000  0.26610000  0.26610000  1.0 0.1357096943
H  H16  1  0.73390000  0.02790000  0.73390000  1.0 0.1357096943
H  H17  1  0.73390000  0.73390000  0.02790000  1.0 0.1357096943
H  H18  1  0.02790000  0.73390000  0.73390000  1.0 0.1357096943
C  C1  1  0.42657000  0.16577000  0.98147000  1.0 0.6032542276
C  C2  1  0.16577000  0.98147000  0.42657000  1.0 0.6032542276
C  C3  1  0.98147000  0.42657000  0.16577000  1.0 0.6032542276
C  C4  1  0.57343000  0.01853000  0.83423000  1.0 0.6032542276
C  C5  1  0.83423000  0.57343000  0.01853000  1.0 0.6032542276
C  C6  1  0.01853000  0.83423000  0.57343000  1.0 0.6032542276
C  C7  1  0.57343000  0.83423000  0.01853000  1.0 0.6032542276
C  C8  1  0.83423000  0.01853000  0.57343000  1.0 0.6032542276
C  C9  1  0.01853000  0.57343000  0.83423000  1.0 0.6032542276
C  C10  1  0.42657000  0.98147000  0.16577000  1.0 0.6032542276
C  C11  1  0.16577000  0.42657000  0.98147000  1.0 0.6032542276
C  C12  1  0.98147000  0.16577000  0.42657000  1.0 0.6032542276
C  C13  1  0.38603000  0.25993000  0.97933000  1.0 -0.0299273231
C  C14  1  0.25993000  0.97933000  0.38603000  1.0 -0.0299273231
C  C15  1  0.97933000  0.38603000  0.25993000  1.0 -0.0299273231
C  C16  1  0.61397000  0.02067000  0.74007000  1.0 -0.0299273231
C  C17  1  0.74007000  0.61397000  0.02067000  1.0 -0.0299273231
C  C18  1  0.02067000  0.74007000  0.61397000  1.0 -0.0299273231
C  C19  1  0.61397000  0.74007000  0.02067000  1.0 -0.0299273231
C  C20  1  0.74007000  0.02067000  0.61397000  1.0 -0.0299273231
C  C21  1  0.02067000  0.61397000  0.74007000  1.0 -0.0299273231
C  C22  1  0.38603000  0.97933000  0.25993000  1.0 -0.0299273231
C  C23  1  0.25993000  0.38603000  0.97933000  1.0 -0.0299273231
C  C24  1  0.97933000  0.25993000  0.38603000  1.0 -0.0299273231
C  C25  1  0.43608000  0.31098000  0.98398000  1.0 -0.1329685127
C  C26  1  0.31098000  0.98398000  0.43608000  1.0 -0.1329685127
C  C27  1  0.98398000  0.43608000  0.31098000  1.0 -0.1329685127
C  C28  1  0.56392000  0.01602000  0.68902000  1.0 -0.1329685127
C  C29  1  0.68902000  0.56392000  0.01602000  1.0 -0.1329685127
C  C30  1  0.01602000  0.68902000  0.56392000  1.0 -0.1329685127
C  C31  1  0.56392000  0.68902000  0.01602000  1.0 -0.1329685127
C  C32  1  0.68902000  0.01602000  0.56392000  1.0 -0.1329685127
C  C33  1  0.01602000  0.56392000  0.68902000  1.0 -0.1329685127
C  C34  1  0.43608000  0.98398000  0.31098000  1.0 -0.1329685127
C  C35  1  0.31098000  0.43608000  0.98398000  1.0 -0.1329685127
C  C36  1  0.98398000  0.31098000  0.43608000  1.0 -0.1329685127
C  C37  1  0.29905000  0.29905000  0.97625000  1.0 -0.0809319764
C  C38  1  0.29905000  0.97625000  0.29905000  1.0 -0.0809319764
C  C39  1  0.97625000  0.29905000  0.29905000  1.0 -0.0809319764
C  C40  1  0.70095000  0.02375000  0.70095000  1.0 -0.0809319764
C  C41  1  0.70095000  0.70095000  0.02375000  1.0 -0.0809319764
C  C42  1  0.02375000  0.70095000  0.70095000  1.0 -0.0809319764
C  C43  1  0.39928000  0.39928000  0.98663000  1.0 0.1529083488
C  C44  1  0.39928000  0.98663000  0.39928000  1.0 0.1529083488
C  C45  1  0.98663000  0.39928000  0.39928000  1.0 0.1529083488
C  C46  1  0.60072000  0.01337000  0.60072000  1.0 0.1529083488
C  C47  1  0.60072000  0.60072000  0.01337000  1.0 0.1529083488
C  C48  1  0.01337000  0.60072000  0.60072000  1.0 0.1529083488
C  C49  1  0.45154000  0.45154000  0.99284000  1.0 -0.0299273231
C  C50  1  0.45154000  0.99284000  0.45154000  1.0 -0.0216561745
C  C51  1  0.99284000  0.45154000  0.45154000  1.0 -0.0216561745
C  C52  1  0.54846000  0.00716000  0.54846000  1.0 -0.0299273231
C  C53  1  0.54846000  0.54846000  0.00716000  1.0 -0.0299273231
C  C54  1  0.00716000  0.54846000  0.54846000  1.0 -0.0216561745
C  C55  1  0.41320000  0.51620000  0.03450000  1.0 -0.0299273231
C  C56  1  0.51620000  0.03450000  0.41320000  1.0 -0.0299273231
C  C57  1  0.03450000  0.41320000  0.51620000  1.0 -0.0216561745
C  C58  1  0.58680000  0.96550000  0.48380000  1.0 -0.0216561745
C  C59  1  0.48380000  0.58680000  0.96550000  1.0 -0.0299273231
C  C60  1  0.96550000  0.48380000  0.58680000  1.0 -0.0299273231
C  C61  1  0.58680000  0.48380000  0.96550000  1.0 -0.0299273231
C  C62  1  0.48380000  0.96550000  0.58680000  1.0 -0.0299273231
C  C63  1  0.96550000  0.58680000  0.48380000  1.0 -0.0299273231
C  C64  1  0.41320000  0.03450000  0.51620000  1.0 -0.0299273231
C  C65  1  0.51620000  0.41320000  0.03450000  1.0 -0.0299273231
C  C66  1  0.03450000  0.51620000  0.41320000  1.0 -0.0216561745
C  C67  1  0.43580000  0.53470000  0.95980000  1.0 -0.0413588591
C  C68  1  0.53470000  0.95980000  0.43580000  1.0 -0.0452430285
C  C69  1  0.95980000  0.43580000  0.53470000  1.0 -0.0452430285
C  C70  1  0.56420000  0.04020000  0.46530000  1.0 -0.0413588591
C  C71  1  0.46530000  0.56420000  0.04020000  1.0 -0.0413588591
C  C72  1  0.04020000  0.46530000  0.56420000  1.0 -0.0413588591
C  C73  1  0.56420000  0.46530000  0.04020000  1.0 -0.0413588591
C  C74  1  0.46530000  0.04020000  0.56420000  1.0 -0.0413588591
C  C75  1  0.04020000  0.56420000  0.46530000  1.0 -0.0413588591
C  C76  1  0.43580000  0.95980000  0.53470000  1.0 -0.0413588591
C  C77  1  0.53470000  0.43580000  0.95980000  1.0 -0.0413588591
C  C78  1  0.95980000  0.53470000  0.43580000  1.0 -0.0452430285
O  O1  1  0.37936000  0.12321000  0.97638000  1.0 -0.5369071208
O  O2  1  0.12321000  0.97638000  0.37936000  1.0 -0.5369071208
O  O3  1  0.97638000  0.37936000  0.12321000  1.0 -0.5369071208
O  O4  1  0.62064000  0.02362000  0.87679000  1.0 -0.5369071208
O  O5  1  0.87679000  0.62064000  0.02362000  1.0 -0.5348687482
O  O6  1  0.02362000  0.87679000  0.62064000  1.0 -0.5369071208
O  O7  1  0.62064000  0.87679000  0.02362000  1.0 -0.5369071208
O  O8  1  0.87679000  0.02362000  0.62064000  1.0 -0.5369071208
O  O9  1  0.02362000  0.62064000  0.87679000  1.0 -0.5369071208
O  O10  1  0.37936000  0.97638000  0.12321000  1.0 -0.5369071208
O  O11  1  0.12321000  0.37936000  0.97638000  1.0 -0.5369071208
O  O12  1  0.97638000  0.12321000  0.37936000  1.0 -0.5369071208
O  O13  1  0.50498000  0.13463000  0.98820000  1.0 -0.5369071208
O  O14  1  0.13463000  0.98820000  0.50498000  1.0 -0.5369071208
O  O15  1  0.98820000  0.50498000  0.13463000  1.0 -0.5369071208
O  O16  1  0.49502000  0.01180000  0.86537000  1.0 -0.5369071208
O  O17  1  0.86537000  0.49502000  0.01180000  1.0 -0.5369071208
O  O18  1  0.01180000  0.86537000  0.49502000  1.0 -0.5369071208
O  O19  1  0.49502000  0.86537000  0.01180000  1.0 -0.5369071208
O  O20  1  0.86537000  0.01180000  0.49502000  1.0 -0.5369071208
O  O21  1  0.01180000  0.49502000  0.86537000  1.0 -0.5369071208
O  O22  1  0.50498000  0.98820000  0.13463000  1.0 -0.5369071208
O  O23  1  0.13463000  0.50498000  0.98820000  1.0 -0.5369071208
O  O24  1  0.98820000  0.13463000  0.50498000  1.0 -0.5369071208
