# DDEC6 charges by PACMAN v1.1 (https://github.com/mtap-research/PACMAN-charge/)
data_WUJRUQ_FSR_pacman
_symmetry_space_group_name_H-M   'P 1'
_cell_length_a   12.21900000
_cell_length_b   12.81500000
_cell_length_c   20.58500000
_cell_angle_alpha   95.18700000
_cell_angle_beta   92.18400000
_cell_angle_gamma   105.72400000
_symmetry_Int_Tables_number   1
_chemical_formula_structural   Cd2H25C44S4(N2O5)2
_chemical_formula_sum   'Cd4 H50 C88 S8 N8 O20'
_cell_volume   3083.40720458
_cell_formula_units_Z   2
loop_
 _symmetry_equiv_pos_site_id
 _symmetry_equiv_pos_as_xyz
  1  'x, y, z'
loop_
 _atom_site_type_symbol
 _atom_site_label
 _atom_site_symmetry_multiplicity
 _atom_site_fract_x
 _atom_site_fract_y
 _atom_site_fract_z
 _atom_site_occupancy
 _atom_site_charge
Cd  Cd1  1  0.29108000  0.68231000  0.23629000  1.0 0.8312651602
Cd  Cd2  1  0.70892000  0.31769000  0.76371000  1.0 0.8312651602
Cd  Cd3  1  0.77683000  0.54427000  0.28985000  1.0 0.8768782107
Cd  Cd4  1  0.22317000  0.45573000  0.71015000  1.0 0.8743654576
H  H1  1  0.75570000  0.31420000  0.48540000  1.0 0.1496614752
H  H2  1  0.24430000  0.68580000  0.51460000  1.0 0.1496614752
H  H3  1  0.44530000  0.25520000  0.38770000  1.0 0.1293856996
H  H4  1  0.55470000  0.74480000  0.61230000  1.0 0.1293856996
H  H5  1  0.54140000  0.37950000  0.31620000  1.0 0.1118762856
H  H6  1  0.45860000  0.62050000  0.68380000  1.0 0.1118762856
H  H7  1  0.82930000  0.43820000  0.41830000  1.0 0.1219273616
H  H8  1  0.17070000  0.56180000  0.58170000  1.0 0.1219273616
H  H9  1  0.60230000  0.96310000  0.15020000  1.0 0.1293856996
H  H10  1  0.39770000  0.03690000  0.84980000  1.0 0.1293856996
H  H11  1  0.67370000  0.08730000  0.08260000  1.0 0.1219273616
H  H12  1  0.32630000  0.91270000  0.91740000  1.0 0.1219273616
H  H13  1  0.32410000  0.83840000  0.02740000  1.0 0.1219273616
H  H14  1  0.67590000  0.16160000  0.97260000  1.0 0.1219273616
H  H15  1  0.32460000  0.55610000  0.09720000  1.0 0.1118762856
H  H16  1  0.67540000  0.44390000  0.90280000  1.0 0.1118762856
H  H17  1  0.26100000  0.39380000  0.02860000  1.0 0.1402163841
H  H18  1  0.73900000  0.60620000  0.97140000  1.0 0.1402163841
H  H19  1  0.02720000  0.29190000  0.16130000  1.0 0.1293856996
H  H20  1  0.97280000  0.70810000  0.83870000  1.0 0.1293856996
H  H21  1  0.10000000  0.45050000  0.22470000  1.0 0.1219273616
H  H22  1  0.90000000  0.54950000  0.77530000  1.0 0.1219273616
H  H23  1  0.18890000  0.90490000  0.12280000  1.0 0.1018405867
H  H24  1  0.81110000  0.09510000  0.87720000  1.0 0.1018405867
H  H25  1  0.14000000  0.04960000  0.07840000  1.0 0.1118762856
H  H26  1  0.86000000  0.95040000  0.92160000  1.0 0.1118762856
H  H27  1  0.83980000  0.95910000  0.14970000  1.0 0.1293856996
H  H28  1  0.16020000  0.04090000  0.85030000  1.0 0.1293856996
H  H29  1  0.52410000  0.04140000  0.38580000  1.0 0.1219273616
H  H30  1  0.47590000  0.95860000  0.61420000  1.0 0.1219273616
H  H31  1  0.48440000  0.89520000  0.30440000  1.0 0.1118762856
H  H32  1  0.51560000  0.10480000  0.69560000  1.0 0.1118762856
H  H33  1  0.19980000  0.93610000  0.43630000  1.0 0.1293856996
H  H34  1  0.80020000  0.06390000  0.56370000  1.0 0.1293856996
H  H35  1  0.01060000  0.62920000  0.10760000  1.0 0.1293856996
H  H36  1  0.98940000  0.37080000  0.89240000  1.0 0.1219273616
H  H37  1  0.82990000  0.92860000  0.35660000  1.0 0.1402163841
H  H38  1  0.17010000  0.07140000  0.64340000  1.0 0.1402163841
H  H39  1  0.96610000  0.78440000  0.48800000  1.0 0.1293856996
H  H40  1  0.03390000  0.21560000  0.51200000  1.0 0.1293856996
H  H41  1  0.89890000  0.83270000  0.20300000  1.0 0.1118762856
H  H42  1  0.10110000  0.16730000  0.79700000  1.0 0.1118762856
H  H43  1  0.17160000  0.79130000  0.35090000  1.0 0.1118762856
H  H44  1  0.82840000  0.20870000  0.64910000  1.0 0.1118762856
H  H45  1  0.69910000  0.64080000  0.49420000  1.0 0.1118762856
H  H46  1  0.30090000  0.35920000  0.50580000  1.0 0.1118762856
H  H47  1  0.25640000  0.43920000  0.41230000  1.0 0.1219273616
H  H48  1  0.74360000  0.56080000  0.58770000  1.0 0.1219273616
H  H49  1  0.58680000  0.64330000  0.40330000  1.0 0.1402163841
H  H50  1  0.41320000  0.35670000  0.59670000  1.0 0.1402163841
C  C1  1  0.70990000  0.32660000  0.45150000  1.0 -0.1718499499
C  C2  1  0.29010000  0.67340000  0.54850000  1.0 -0.1718499499
C  C3  1  0.59420000  0.26880000  0.44320000  1.0 0.1118762856
C  C4  1  0.40580000  0.73120000  0.55680000  1.0 0.1118762856
C  C5  1  0.52330000  0.28860000  0.39330000  1.0 -0.2212010572
C  C6  1  0.47670000  0.71140000  0.60670000  1.0 -0.2212010572
C  C7  1  0.58410000  0.36620000  0.35130000  1.0 0.1293856996
C  C8  1  0.41590000  0.63380000  0.64870000  1.0 0.1293856996
C  C9  1  0.75320000  0.39850000  0.41110000  1.0 0.0289296607
C  C10  1  0.24680000  0.60150000  0.58890000  1.0 0.0289296607
C  C11  1  0.39470000  0.81140000  0.14540000  1.0 0.5234285084
C  C12  1  0.60530000  0.18860000  0.85460000  1.0 0.5234285084
C  C13  1  0.45140000  0.89210000  0.09620000  1.0 0.0084103503
C  C14  1  0.54860000  0.10790000  0.90380000  1.0 0.0084103503
C  C15  1  0.56140000  0.96480000  0.11150000  1.0 -0.108186815
C  C16  1  0.43860000  0.03520000  0.88850000  1.0 -0.108186815
C  C17  1  0.60510000  0.03570000  0.06940000  1.0 -0.1353341254
C  C18  1  0.39490000  0.96430000  0.93060000  1.0 -0.1353341254
C  C19  1  0.55840000  0.03940000  0.00880000  1.0 0.0763647457
C  C20  1  0.44160000  0.96060000  0.99120000  1.0 0.0763647457
C  C21  1  0.39470000  0.88880000  0.03730000  1.0 -0.1578038993
C  C22  1  0.60530000  0.11120000  0.96270000  1.0 -0.1578038993
C  C23  1  0.26600000  0.50060000  0.11030000  1.0 0.0876843073
C  C24  1  0.73400000  0.49940000  0.88970000  1.0 0.0876843073
C  C25  1  0.22650000  0.40490000  0.06720000  1.0 -0.2020908656
C  C26  1  0.77350000  0.59510000  0.93280000  1.0 -0.2020908656
C  C27  1  0.13220000  0.32790000  0.08610000  1.0 0.1219273616
C  C28  1  0.86780000  0.67210000  0.91390000  1.0 0.1118762856
C  C29  1  0.08740000  0.34510000  0.14750000  1.0 -0.2020908656
C  C30  1  0.91260000  0.65490000  0.85250000  1.0 -0.2020908656
C  C31  1  0.13310000  0.43910000  0.18570000  1.0 0.0876843073
C  C32  1  0.86690000  0.56090000  0.81430000  1.0 0.0876843073
C  C33  1  0.11850000  0.91680000  0.13040000  1.0 0.052247816
C  C34  1  0.88150000  0.08320000  0.86960000  1.0 0.052247816
C  C35  1  0.08790000  0.00280000  0.10180000  1.0 -0.2212010572
C  C36  1  0.91210000  0.99720000  0.89820000  1.0 -0.2212010572
C  C37  1  0.98170000  0.01630000  0.10880000  1.0 0.0876843073
C  C38  1  0.01830000  0.98370000  0.89120000  1.0 0.0876843073
C  C39  1  0.91290000  0.95210000  0.14470000  1.0 -0.2020908656
C  C40  1  0.08710000  0.04790000  0.85530000  1.0 -0.2020908656
C  C41  1  0.36550000  0.58620000  0.33570000  1.0 0.5132148651
C  C42  1  0.63450000  0.41380000  0.66430000  1.0 0.5132148651
C  C43  1  0.45180000  0.99280000  0.37890000  1.0 -0.2303939673
C  C44  1  0.54820000  0.00720000  0.62110000  1.0 -0.2303939673
C  C45  1  0.42600000  0.90370000  0.33020000  1.0 0.0876843073
C  C46  1  0.57400000  0.09630000  0.66980000  1.0 0.0876843073
C  C47  1  0.35950000  0.00350000  0.41680000  1.0 0.0876843073
C  C48  1  0.64050000  0.99650000  0.58320000  1.0 0.0876843073
C  C49  1  0.25810000  0.93090000  0.40950000  1.0 -0.2020908656
C  C50  1  0.74190000  0.06910000  0.59050000  1.0 -0.2020908656
C  C51  1  0.87660000  0.48550000  0.09860000  1.0 -0.0299632714
C  C52  1  0.12340000  0.51450000  0.90140000  1.0 -0.0299632714
C  C53  1  0.97800000  0.56620000  0.07970000  1.0 -0.108186815
C  C54  1  0.02200000  0.43380000  0.92030000  1.0 -0.108186815
C  C55  1  0.02770000  0.54870000  0.01840000  1.0 0.0589394768
C  C56  1  0.97230000  0.45130000  0.98160000  1.0 0.0589394768
C  C57  1  0.12240000  0.63120000  0.99920000  1.0 -0.0919966797
C  C58  1  0.87760000  0.36880000  0.00080000  1.0 -0.0919966797
C  C59  1  0.83550000  0.38530000  0.05910000  1.0 -0.0629087848
C  C60  1  0.16450000  0.61470000  0.94090000  1.0 -0.0659432138
C  C61  1  0.83240000  0.50180000  0.16490000  1.0 0.5535398809
C  C62  1  0.16760000  0.49820000  0.83510000  1.0 0.5535398809
C  C63  1  0.40240000  0.54340000  0.40190000  1.0 -0.0022458801
C  C64  1  0.59760000  0.45660000  0.59810000  1.0 -0.0022458801
C  C65  1  0.86410000  0.73430000  0.37380000  1.0 0.5255724279
C  C66  1  0.13590000  0.26570000  0.62620000  1.0 0.5255724279
C  C67  1  0.90230000  0.84210000  0.41630000  1.0 -0.0022458801
C  C68  1  0.09770000  0.15790000  0.58370000  1.0 -0.0022458801
C  C69  1  0.87360000  0.93520000  0.39550000  1.0 -0.1458631444
C  C70  1  0.12640000  0.06480000  0.60450000  1.0 -0.1458631444
C  C71  1  0.95950000  0.84830000  0.47210000  1.0 -0.1578038993
C  C72  1  0.04050000  0.15170000  0.52790000  1.0 -0.1578038993
C  C73  1  0.94850000  0.87310000  0.17550000  1.0 0.0876843073
C  C74  1  0.05150000  0.12690000  0.82450000  1.0 0.0876843073
C  C75  1  0.24260000  0.84220000  0.35720000  1.0 0.1018405867
C  C76  1  0.75740000  0.15780000  0.64280000  1.0 0.1018405867
C  C77  1  0.54010000  0.53620000  0.48960000  1.0 0.0289296607
C  C78  1  0.45990000  0.46380000  0.51040000  1.0 0.0289296607
C  C79  1  0.64790000  0.58490000  0.51220000  1.0 -0.1458631444
C  C80  1  0.35210000  0.41510000  0.48780000  1.0 -0.1458631444
C  C81  1  0.90980000  0.03430000  0.43230000  1.0 -0.0629087848
C  C82  1  0.09020000  0.96570000  0.56770000  1.0 -0.0629087848
C  C83  1  0.01370000  0.95340000  0.51050000  1.0 0.052247816
C  C84  1  0.98630000  0.04660000  0.48950000  1.0 0.052247816
C  C85  1  0.33020000  0.46440000  0.43150000  1.0 -0.1312334153
C  C86  1  0.66980000  0.53560000  0.56850000  1.0 -0.1312334153
C  C87  1  0.53090000  0.59390000  0.42310000  1.0 -0.108186815
C  C88  1  0.46910000  0.40610000  0.57690000  1.0 -0.108186815
S  S1  1  0.54351000  0.17446000  0.50112000  1.0 0.0084103503
S  S2  1  0.45649000  0.82554000  0.49888000  1.0 0.0084103503
S  S3  1  0.37210000  0.11449000  0.48035000  1.0 0.0036166984
S  S4  1  0.62790000  0.88551000  0.51965000  1.0 0.0036166984
S  S5  1  0.93323000  0.11714000  0.07024000  1.0 -0.0022458801
S  S6  1  0.06677000  0.88286000  0.92976000  1.0 -0.0054179259
S  S7  1  0.06972000  0.20991000  0.02796000  1.0 -0.0022458801
S  S8  1  0.93028000  0.79009000  0.97204000  1.0 -0.0022458801
N  N1  1  0.68900000  0.41840000  0.35680000  1.0 -0.2776386949
N  N2  1  0.31100000  0.58160000  0.64320000  1.0 -0.2776386949
N  N3  1  0.32330000  0.82920000  0.31780000  1.0 -0.2510608795
N  N4  1  0.67670000  0.17080000  0.68220000  1.0 -0.2510608795
N  N5  1  0.22520000  0.51890000  0.17040000  1.0 -0.2621990355
N  N6  1  0.77480000  0.48110000  0.82960000  1.0 -0.2621990355
N  N7  1  0.04740000  0.85160000  0.16860000  1.0 -0.1787220004
N  N8  1  0.95260000  0.14840000  0.83140000  1.0 -0.1787220004
O  O1  1  0.46140000  0.79250000  0.19160000  1.0 -0.5615963948
O  O2  1  0.53860000  0.20750000  0.80840000  1.0 -0.5615963948
O  O3  1  0.29530000  0.77060000  0.13998000  1.0 -0.4939069363
O  O4  1  0.70470000  0.22940000  0.86002000  1.0 -0.4939069363
O  O5  1  0.25900000  0.57360000  0.33290000  1.0 -0.5615963948
O  O6  1  0.74100000  0.42640000  0.66710000  1.0 -0.5615963948
O  O7  1  0.43220000  0.63160000  0.29950000  1.0 -0.4574617657
O  O8  1  0.56780000  0.36840000  0.70050000  1.0 -0.4548652383
O  O9  1  0.76190000  0.42350000  0.18712000  1.0 -0.5615963948
O  O10  1  0.23810000  0.57650000  0.81288000  1.0 -0.5615963948
O  O11  1  0.86880000  0.59690000  0.19830000  1.0 -0.5439905735
O  O12  1  0.13120000  0.40310000  0.80170000  1.0 -0.5439905735
O  O13  1  0.79470000  0.72940000  0.32480000  1.0 -0.4994994911
O  O14  1  0.20530000  0.27060000  0.67520000  1.0 -0.4994994911
O  O15  1  0.88550000  0.65370000  0.38750000  1.0 -0.5074707779
O  O16  1  0.11450000  0.34630000  0.61250000  1.0 -0.5074707779
O  O17  1  0.59620000  0.54120000  0.24500000  1.0 0.0289296607
O  O18  1  0.40380000  0.45880000  0.75500000  1.0 0.0289296607
O  O19  1  0.10430000  0.69550000  0.23915000  1.0 0.0221776583
O  O20  1  0.89570000  0.30450000  0.76085000  1.0 0.0221776583
