# DDEC6 charges by PACMAN v1.1 (https://github.com/mtap-research/PACMAN-charge/)
data_WULWOS_ion_pacman
_symmetry_space_group_name_H-M   'P 1'
_cell_length_a   19.68830000
_cell_length_b   35.35300000
_cell_length_c   34.84210000
_cell_angle_alpha   90.00000000
_cell_angle_beta   112.26600000
_cell_angle_gamma   90.00000000
_symmetry_Int_Tables_number   1
_chemical_formula_structural   Sr4H124C144(N21O17)3
_chemical_formula_sum   'Sr16 H496 C576 N252 O204'
_cell_volume   22443.19112452
_cell_formula_units_Z   4
loop_
 _symmetry_equiv_pos_site_id
 _symmetry_equiv_pos_as_xyz
  1  'x, y, z'
loop_
 _atom_site_type_symbol
 _atom_site_label
 _atom_site_symmetry_multiplicity
 _atom_site_fract_x
 _atom_site_fract_y
 _atom_site_fract_z
 _atom_site_occupancy
 _atom_site_charge
Sr  Sr1  1  0.66606000  0.26765000  0.23444000  1.0 1.4696238589
Sr  Sr2  1  0.71034000  0.17213000  0.31345000  1.0 1.4696238589
Sr  Sr3  1  0.59320000  0.31033000  0.33734000  1.0 1.4816941273
Sr  Sr4  1  0.11615000  0.21217000  0.17381000  1.0 1.441007818
Sr  Sr5  1  0.33394000  0.76765000  0.26556000  1.0 1.4696238589
Sr  Sr6  1  0.28966000  0.67213000  0.18655000  1.0 1.4696238589
Sr  Sr7  1  0.40680000  0.81033000  0.16266000  1.0 1.4816941273
Sr  Sr8  1  0.88385000  0.71217000  0.32619000  1.0 1.441007818
Sr  Sr9  1  0.33394000  0.73235000  0.76556000  1.0 1.4696238589
Sr  Sr10  1  0.28966000  0.82787000  0.68655000  1.0 1.4696238589
Sr  Sr11  1  0.40680000  0.68967000  0.66266000  1.0 1.4816941273
Sr  Sr12  1  0.88385000  0.78783000  0.82619000  1.0 1.441007818
Sr  Sr13  1  0.66606000  0.23235000  0.73444000  1.0 1.4696238589
Sr  Sr14  1  0.71034000  0.32787000  0.81345000  1.0 1.4696238589
Sr  Sr15  1  0.59320000  0.18967000  0.83734000  1.0 1.4816941273
Sr  Sr16  1  0.11615000  0.28783000  0.67381000  1.0 1.441007818
H  H1  1  0.88173000  0.35181000  0.16602000  1.0 0.0998597909
H  H2  1  0.84014000  0.36218000  0.22428000  1.0 0.1095751847
H  H3  1  0.77630000  0.33489000  0.22542000  1.0 0.11970774
H  H4  1  0.69646000  0.25465000  0.10659000  1.0 0.11970774
H  H5  1  0.72916000  0.27538000  0.07666000  1.0 0.0900562604
H  H6  1  0.82859000  0.31918000  0.10662000  1.0 0.0900562604
H  H7  1  0.99597000  0.33261000  0.35055000  1.0 0.0680371848
H  H8  1  0.84712000  0.28018000  0.35904000  1.0 0.129031506
H  H9  1  0.92249000  0.29952000  0.38788000  1.0 0.0998597909
H  H10  1  0.96134000  0.35887000  0.28697000  1.0 0.0803598285
H  H11  1  0.41980000  0.36803000  0.16830000  1.0 0.0998597909
H  H12  1  0.48566000  0.34628000  0.20317000  1.0 0.129031506
H  H13  1  0.36208000  0.33817000  0.09995000  1.0 0.0998597909
H  H14  1  0.39764000  0.29391000  0.06321000  1.0 0.0900562604
H  H15  1  0.52358000  0.26413000  0.08078000  1.0 0.0998597909
H  H16  1  0.57884000  0.26865000  0.12790000  1.0 0.11970774
H  H17  1  0.48468000  0.19698000  0.05648000  1.0 0.0900562604
H  H18  1  0.53675000  0.14064000  0.08417000  1.0 0.0998597909
H  H19  1  0.64202000  0.12267000  0.14638000  1.0 0.11970774
H  H20  1  0.66549000  0.15003000  0.18585000  1.0 0.129031506
H  H21  1  0.42162000  0.22079000  0.28007000  1.0 0.1095751847
H  H22  1  0.54612000  0.17763000  0.22134000  1.0 0.1095751847
H  H23  1  0.32319000  0.18239000  0.23978000  1.0 0.129031506
H  H24  1  0.44808000  0.14012000  0.18092000  1.0 0.1095751847
H  H25  1  0.05604000  0.31885000  0.23013000  1.0 0.0998597909
H  H26  1  0.00113000  0.35302000  0.22709000  1.0 0.0998597909
H  H27  1  0.78567000  0.23631000  0.03803000  1.0 0.0900562604
H  H28  1  0.96782000  0.26425000  0.09653000  1.0 0.11970774
H  H29  1  0.88919000  0.28177000  0.06992000  1.0 0.1095751847
H  H30  1  0.12892000  0.26213000  0.36313000  1.0 0.0998597909
H  H31  1  0.09697000  0.28817000  0.38982000  1.0 0.0803598285
H  H32  1  0.02733000  0.25588000  0.42729000  1.0 0.0900562604
H  H33  1  0.29977000  0.37291000  0.17791000  1.0 0.0803598285
H  H34  1  0.24149000  0.34060000  0.11019000  1.0 0.1095751847
H  H35  1  0.20117000  0.30119000  0.10916000  1.0 0.11970774
H  H36  1  0.35964000  0.22683000  0.03623000  1.0 0.0900562604
H  H37  1  0.30416000  0.20602000  0.05291000  1.0 0.1095751847
H  H38  1  0.47313000  0.08048000  0.08954000  1.0 0.1095751847
H  H39  1  0.39652000  0.08423000  0.09505000  1.0 0.11970774
H  H40  1  0.58287000  0.06054000  0.15151000  1.0 0.0998597909
H  H41  1  0.02509000  0.19541000  0.44940000  1.0 0.0900562604
H  H42  1  0.92861000  0.14341000  0.43554000  1.0 0.1095751847
H  H43  1  0.85139000  0.15223000  0.39909000  1.0 0.1095751847
H  H44  1  0.99280000  0.08509000  0.42451000  1.0 0.0900562604
H  H45  1  0.95607000  0.03686000  0.37788000  1.0 0.0900562604
H  H46  1  0.78649000  0.05509000  0.29785000  1.0 0.1095751847
H  H47  1  0.84080000  0.02116000  0.32020000  1.0 0.0900562604
H  H48  1  0.59306000  0.02457000  0.20832000  1.0 0.0900562604
H  H49  1  0.68422000  0.07529000  0.29911000  1.0 0.1095751847
H  H50  1  0.65254000  0.03375000  0.28488000  1.0 0.0998597909
H  H51  1  0.55383000  0.01235000  0.31250000  1.0 0.0803598285
H  H52  1  0.51476000  0.03755000  0.36082000  1.0 0.0900562604
H  H53  1  0.59713000  0.12432000  0.39660000  1.0 0.1095751847
H  H54  1  0.55053000  0.09180000  0.40719000  1.0 0.0998597909
H  H55  1  0.29864000  0.25696000  0.37312000  1.0 0.0803598285
H  H56  1  0.48923000  0.24001000  0.40534000  1.0 0.129031506
H  H57  1  0.42070000  0.23047000  0.41765000  1.0 0.0998597909
H  H58  1  0.26511000  0.31100000  0.33386000  1.0 0.0803598285
H  H59  1  0.33976000  0.36273000  0.31034000  1.0 0.0998597909
H  H60  1  0.42443000  0.35261000  0.32237000  1.0 0.11970774
H  H61  1  0.27029000  0.37145000  0.23490000  1.0 0.0900562604
H  H62  1  0.61443000  0.45165000  0.36242000  1.0 0.11970774
H  H63  1  0.72820000  0.38712000  0.46047000  1.0 0.1095751847
H  H64  1  0.79476000  0.17240000  0.02553000  1.0 0.0998597909
H  H65  1  0.33098000  0.11149000  0.17550000  1.0 0.2843516906
H  H66  1  0.67585000  0.50573000  0.39654000  1.0 0.129031506
H  H67  1  0.79629000  0.43959000  0.49403000  1.0 0.11970774
H  H68  1  0.71838000  0.11718000  0.03425000  1.0 0.0998597909
H  H69  1  0.67320000  0.12550000  0.06289000  1.0 0.11970774
H  H70  1  0.13814000  0.13854000  0.41589000  1.0 0.11970774
H  H71  1  0.09173000  0.13560000  0.44474000  1.0 0.0998597909
H  H72  1  0.02601000  0.00579000  0.33814000  1.0 0.1095751847
H  H73  1  0.08166000  0.03197000  0.32666000  1.0 0.129031506
H  H74  1  0.90728000  0.98779000  0.28089000  1.0 0.0900562604
H  H75  1  0.49821000  0.99720000  0.23719000  1.0 0.0998597909
H  H76  1  0.41622000  0.01203000  0.21346000  1.0 0.1095751847
H  H77  1  0.38557000  0.05458000  0.35699000  1.0 0.0998597909
H  H78  1  0.32462000  0.06097000  0.31161000  1.0 0.11970774
H  H79  1  0.42250000  0.11059000  0.40259000  1.0 0.0900562604
H  H80  1  0.21693000  0.17927000  0.30790000  1.0 0.129031506
H  H81  1  0.24846000  0.19151000  0.35561000  1.0 0.1095751847
H  H82  1  0.36509000  0.16639000  0.40154000  1.0 0.0900562604
H  H83  1  0.15883000  0.29048000  0.23302000  1.0 0.1095751847
H  H84  1  0.19059000  0.32633000  0.26230000  1.0 0.0900562604
H  H85  1  0.89120000  0.12342000  0.04788000  1.0 0.0998597909
H  H86  1  0.96452000  0.13313000  0.08669000  1.0 0.1095751847
H  H87  1  0.89233000  0.98127000  0.21292000  1.0 0.0900562604
H  H88  1  0.82322000  0.50379000  0.49226000  1.0 0.2948313606
H  H89  1  0.81783000  0.06994000  0.05758000  1.0 0.0803598285
H  H90  1  0.78143000  0.99504000  0.14916000  1.0 0.1095751847
H  H91  1  0.72150000  0.02181000  0.15588000  1.0 0.1095751847
H  H92  1  0.12940000  0.14769000  0.09388000  1.0 0.129031506
H  H93  1  0.25630000  0.06750000  0.17061000  1.0 0.11970774
H  H94  1  0.84464000  0.02158000  0.10299000  1.0 0.0900562604
H  H95  1  0.01501000  0.03396000  0.18240000  1.0 0.11970774
H  H96  1  0.95224000  0.00268000  0.16386000  1.0 0.0998597909
H  H97  1  0.08385000  0.03703000  0.06803000  1.0 0.11970774
H  H98  1  0.82511000  0.53443000  0.55121000  1.0 0.129031506
H  H99  1  0.78088000  0.61664000  0.46467000  1.0 0.1471579346
H  H100  1  0.06409000  0.15115000  0.03225000  1.0 0.2700738487
H  H101  1  0.26048000  0.01301000  0.18324000  1.0 0.2843516906
H  H102  1  0.88971000  0.64176000  0.58549000  1.0 0.11970774
H  H103  1  0.89504000  0.11109000  0.96839000  1.0 0.129031506
H  H104  1  0.00557000  0.20783000  0.01187000  1.0 0.129031506
H  H105  1  0.21476000  0.92777000  0.12738000  1.0 0.129031506
H  H106  1  0.31057000  0.97470000  0.24105000  1.0 0.129031506
H  H107  1  0.98627000  0.59986000  0.62877000  1.0 0.2948313606
H  H108  1  0.80315000  0.69289000  0.55151000  1.0 0.2700738487
H  H109  1  0.79506000  0.14570000  0.92446000  1.0 0.11970774
H  H110  1  0.90439000  0.24211000  0.96701000  1.0 0.1095751847
H  H111  1  0.25890000  0.86853000  0.15596000  1.0 0.11970774
H  H112  1  0.35053000  0.91574000  0.26964000  1.0 0.11970774
H  H113  1  0.91292000  0.58490000  0.69943000  1.0 0.129031506
H  H114  1  0.10199000  0.56539000  0.68161000  1.0 0.1471579346
H  H115  1  0.86964000  0.74669000  0.48801000  1.0 0.129031506
H  H116  1  0.74142000  0.74774000  0.55577000  1.0 0.129031506
H  H117  1  0.97029000  0.57294000  0.77057000  1.0 0.1095751847
H  H118  1  0.15781000  0.55351000  0.75550000  1.0 0.11970774
H  H119  1  0.84408000  0.81139000  0.47401000  1.0 0.11970774
H  H120  1  0.71586000  0.81189000  0.53975000  1.0 0.11970774
H  H121  1  0.11827000  0.85181000  0.33398000  1.0 0.0998597909
H  H122  1  0.15986000  0.86218000  0.27572000  1.0 0.1095751847
H  H123  1  0.22370000  0.83489000  0.27458000  1.0 0.11970774
H  H124  1  0.30354000  0.75465000  0.39341000  1.0 0.11970774
H  H125  1  0.27084000  0.77538000  0.42334000  1.0 0.0900562604
H  H126  1  0.17141000  0.81918000  0.39338000  1.0 0.0900562604
H  H127  1  0.00403000  0.83261000  0.14945000  1.0 0.0680371848
H  H128  1  0.15288000  0.78018000  0.14096000  1.0 0.129031506
H  H129  1  0.07751000  0.79952000  0.11212000  1.0 0.0998597909
H  H130  1  0.03866000  0.85887000  0.21303000  1.0 0.0803598285
H  H131  1  0.58020000  0.86803000  0.33170000  1.0 0.0998597909
H  H132  1  0.51434000  0.84628000  0.29683000  1.0 0.129031506
H  H133  1  0.63792000  0.83817000  0.40005000  1.0 0.0998597909
H  H134  1  0.60236000  0.79391000  0.43679000  1.0 0.0900562604
H  H135  1  0.47642000  0.76413000  0.41922000  1.0 0.0998597909
H  H136  1  0.42116000  0.76865000  0.37210000  1.0 0.11970774
H  H137  1  0.51532000  0.69698000  0.44352000  1.0 0.0900562604
H  H138  1  0.46325000  0.64064000  0.41583000  1.0 0.0998597909
H  H139  1  0.35798000  0.62267000  0.35362000  1.0 0.11970774
H  H140  1  0.33451000  0.65003000  0.31415000  1.0 0.129031506
H  H141  1  0.57838000  0.72079000  0.21993000  1.0 0.1095751847
H  H142  1  0.45388000  0.67763000  0.27866000  1.0 0.1095751847
H  H143  1  0.67681000  0.68239000  0.26022000  1.0 0.129031506
H  H144  1  0.55192000  0.64012000  0.31908000  1.0 0.1095751847
H  H145  1  0.94396000  0.81885000  0.26987000  1.0 0.0998597909
H  H146  1  0.99887000  0.85302000  0.27291000  1.0 0.0998597909
H  H147  1  0.21433000  0.73631000  0.46197000  1.0 0.0900562604
H  H148  1  0.03218000  0.76425000  0.40347000  1.0 0.11970774
H  H149  1  0.11081000  0.78177000  0.43008000  1.0 0.1095751847
H  H150  1  0.87108000  0.76213000  0.13687000  1.0 0.1095751847
H  H151  1  0.90303000  0.78817000  0.11018000  1.0 0.0803598285
H  H152  1  0.97267000  0.75588000  0.07271000  1.0 0.0900562604
H  H153  1  0.70023000  0.87291000  0.32209000  1.0 0.0803598285
H  H154  1  0.75851000  0.84060000  0.38981000  1.0 0.1095751847
H  H155  1  0.79883000  0.80119000  0.39084000  1.0 0.11970774
H  H156  1  0.64036000  0.72683000  0.46377000  1.0 0.0900562604
H  H157  1  0.69584000  0.70602000  0.44709000  1.0 0.1095751847
H  H158  1  0.52687000  0.58048000  0.41046000  1.0 0.1095751847
H  H159  1  0.60348000  0.58423000  0.40495000  1.0 0.11970774
H  H160  1  0.41713000  0.56054000  0.34849000  1.0 0.0998597909
H  H161  1  0.97491000  0.69541000  0.05060000  1.0 0.0900562604
H  H162  1  0.07139000  0.64341000  0.06446000  1.0 0.1095751847
H  H163  1  0.14861000  0.65223000  0.10091000  1.0 0.1095751847
H  H164  1  0.00720000  0.58509000  0.07549000  1.0 0.0900562604
H  H165  1  0.04393000  0.53686000  0.12212000  1.0 0.0900562604
H  H166  1  0.21351000  0.55509000  0.20215000  1.0 0.1095751847
H  H167  1  0.15920000  0.52116000  0.17980000  1.0 0.0900562604
H  H168  1  0.40694000  0.52457000  0.29168000  1.0 0.0900562604
H  H169  1  0.31578000  0.57529000  0.20089000  1.0 0.1095751847
H  H170  1  0.34746000  0.53375000  0.21512000  1.0 0.0998597909
H  H171  1  0.44617000  0.51235000  0.18750000  1.0 0.0803598285
H  H172  1  0.48524000  0.53755000  0.13918000  1.0 0.0900562604
H  H173  1  0.40287000  0.62432000  0.10340000  1.0 0.1095751847
H  H174  1  0.44947000  0.59180000  0.09281000  1.0 0.0998597909
H  H175  1  0.70136000  0.75696000  0.12688000  1.0 0.0803598285
H  H176  1  0.51077000  0.74001000  0.09466000  1.0 0.129031506
H  H177  1  0.57930000  0.73047000  0.08235000  1.0 0.0998597909
H  H178  1  0.73489000  0.81100000  0.16614000  1.0 0.0803598285
H  H179  1  0.66024000  0.86273000  0.18966000  1.0 0.0998597909
H  H180  1  0.57557000  0.85261000  0.17763000  1.0 0.11970774
H  H181  1  0.72971000  0.87145000  0.26510000  1.0 0.0900562604
H  H182  1  0.38557000  0.95165000  0.13758000  1.0 0.11970774
H  H183  1  0.27180000  0.88712000  0.03953000  1.0 0.1095751847
H  H184  1  0.20524000  0.67240000  0.47447000  1.0 0.0998597909
H  H185  1  0.66902000  0.61149000  0.32450000  1.0 0.2843516906
H  H186  1  0.32415000  0.00573000  0.10346000  1.0 0.129031506
H  H187  1  0.20371000  0.93959000  0.00597000  1.0 0.11970774
H  H188  1  0.28162000  0.61718000  0.46575000  1.0 0.0998597909
H  H189  1  0.32680000  0.62550000  0.43711000  1.0 0.11970774
H  H190  1  0.86186000  0.63854000  0.08411000  1.0 0.11970774
H  H191  1  0.90827000  0.63560000  0.05526000  1.0 0.0998597909
H  H192  1  0.97399000  0.50579000  0.16186000  1.0 0.1095751847
H  H193  1  0.91834000  0.53197000  0.17334000  1.0 0.129031506
H  H194  1  0.09272000  0.48779000  0.21911000  1.0 0.0900562604
H  H195  1  0.50179000  0.49720000  0.26281000  1.0 0.0998597909
H  H196  1  0.58378000  0.51203000  0.28654000  1.0 0.1095751847
H  H197  1  0.61443000  0.55458000  0.14301000  1.0 0.0998597909
H  H198  1  0.67538000  0.56097000  0.18839000  1.0 0.11970774
H  H199  1  0.57750000  0.61059000  0.09741000  1.0 0.0900562604
H  H200  1  0.78307000  0.67927000  0.19210000  1.0 0.129031506
H  H201  1  0.75154000  0.69151000  0.14439000  1.0 0.1095751847
H  H202  1  0.63491000  0.66639000  0.09846000  1.0 0.0900562604
H  H203  1  0.84117000  0.79048000  0.26698000  1.0 0.1095751847
H  H204  1  0.80941000  0.82633000  0.23770000  1.0 0.0900562604
H  H205  1  0.10880000  0.62342000  0.45212000  1.0 0.0998597909
H  H206  1  0.03548000  0.63313000  0.41331000  1.0 0.1095751847
H  H207  1  0.10767000  0.48127000  0.28708000  1.0 0.0900562604
H  H208  1  0.17678000  0.00379000  0.00774000  1.0 0.2948313606
H  H209  1  0.18217000  0.56994000  0.44242000  1.0 0.0803598285
H  H210  1  0.21857000  0.49504000  0.35084000  1.0 0.1095751847
H  H211  1  0.27850000  0.52181000  0.34412000  1.0 0.1095751847
H  H212  1  0.87060000  0.64769000  0.40612000  1.0 0.129031506
H  H213  1  0.74370000  0.56750000  0.32939000  1.0 0.11970774
H  H214  1  0.15536000  0.52158000  0.39701000  1.0 0.0900562604
H  H215  1  0.98499000  0.53396000  0.31760000  1.0 0.11970774
H  H216  1  0.04776000  0.50268000  0.33614000  1.0 0.0998597909
H  H217  1  0.91615000  0.53703000  0.43197000  1.0 0.11970774
H  H218  1  0.17489000  0.03443000  0.94879000  1.0 0.11970774
H  H219  1  0.21912000  0.11664000  0.03533000  1.0 0.1471579346
H  H220  1  0.93591000  0.65115000  0.46775000  1.0 0.2700738487
H  H221  1  0.73952000  0.51301000  0.31676000  1.0 0.2843516906
H  H222  1  0.11029000  0.14176000  0.91451000  1.0 0.11970774
H  H223  1  0.10496000  0.61109000  0.53161000  1.0 0.1401540962
H  H224  1  0.99443000  0.70783000  0.48813000  1.0 0.129031506
H  H225  1  0.78524000  0.42777000  0.37262000  1.0 0.129031506
H  H226  1  0.68943000  0.47470000  0.25895000  1.0 0.129031506
H  H227  1  0.01373000  0.09986000  0.87123000  1.0 0.2948313606
H  H228  1  0.19685000  0.19289000  0.94849000  1.0 0.2700738487
H  H229  1  0.20494000  0.64570000  0.57554000  1.0 0.11970774
H  H230  1  0.09561000  0.74211000  0.53299000  1.0 0.1095751847
H  H231  1  0.74110000  0.36853000  0.34404000  1.0 0.11970774
H  H232  1  0.64947000  0.41574000  0.23036000  1.0 0.11970774
H  H233  1  0.08708000  0.08490000  0.80057000  1.0 0.129031506
H  H234  1  0.89801000  0.06539000  0.81839000  1.0 0.1471579346
H  H235  1  0.13036000  0.24669000  0.01199000  1.0 0.129031506
H  H236  1  0.25858000  0.24774000  0.94423000  1.0 0.129031506
H  H237  1  0.02971000  0.07294000  0.72943000  1.0 0.1095751847
H  H238  1  0.84219000  0.05351000  0.74450000  1.0 0.11970774
H  H239  1  0.15592000  0.31139000  0.02599000  1.0 0.11970774
H  H240  1  0.28414000  0.31189000  0.96025000  1.0 0.11970774
H  H241  1  0.11827000  0.64819000  0.83398000  1.0 0.0998597909
H  H242  1  0.15986000  0.63782000  0.77572000  1.0 0.1095751847
H  H243  1  0.22370000  0.66511000  0.77458000  1.0 0.11970774
H  H244  1  0.30354000  0.74535000  0.89341000  1.0 0.11970774
H  H245  1  0.27084000  0.72462000  0.92334000  1.0 0.0900562604
H  H246  1  0.17141000  0.68082000  0.89338000  1.0 0.0900562604
H  H247  1  0.00403000  0.66739000  0.64945000  1.0 0.0680371848
H  H248  1  0.15288000  0.71982000  0.64096000  1.0 0.129031506
H  H249  1  0.07751000  0.70048000  0.61212000  1.0 0.0998597909
H  H250  1  0.03866000  0.64113000  0.71303000  1.0 0.0803598285
H  H251  1  0.58020000  0.63197000  0.83170000  1.0 0.0998597909
H  H252  1  0.51434000  0.65372000  0.79683000  1.0 0.129031506
H  H253  1  0.63792000  0.66183000  0.90005000  1.0 0.0998597909
H  H254  1  0.60236000  0.70609000  0.93679000  1.0 0.0900562604
H  H255  1  0.47642000  0.73587000  0.91922000  1.0 0.0998597909
H  H256  1  0.42116000  0.73135000  0.87210000  1.0 0.11970774
H  H257  1  0.51532000  0.80302000  0.94352000  1.0 0.0900562604
H  H258  1  0.46325000  0.85936000  0.91583000  1.0 0.0998597909
H  H259  1  0.35798000  0.87733000  0.85362000  1.0 0.11970774
H  H260  1  0.33451000  0.84997000  0.81415000  1.0 0.129031506
H  H261  1  0.57838000  0.77921000  0.71993000  1.0 0.1095751847
H  H262  1  0.45388000  0.82237000  0.77866000  1.0 0.1095751847
H  H263  1  0.67681000  0.81761000  0.76022000  1.0 0.129031506
H  H264  1  0.55192000  0.85988000  0.81908000  1.0 0.1095751847
H  H265  1  0.94396000  0.68115000  0.76987000  1.0 0.0998597909
H  H266  1  0.99887000  0.64698000  0.77291000  1.0 0.0998597909
H  H267  1  0.21433000  0.76369000  0.96197000  1.0 0.0900562604
H  H268  1  0.03218000  0.73575000  0.90347000  1.0 0.11970774
H  H269  1  0.11081000  0.71823000  0.93008000  1.0 0.1095751847
H  H270  1  0.87108000  0.73787000  0.63687000  1.0 0.1095751847
H  H271  1  0.90303000  0.71183000  0.61018000  1.0 0.0803598285
H  H272  1  0.97267000  0.74412000  0.57271000  1.0 0.0900562604
H  H273  1  0.70023000  0.62709000  0.82209000  1.0 0.0803598285
H  H274  1  0.75851000  0.65940000  0.88981000  1.0 0.1095751847
H  H275  1  0.79883000  0.69881000  0.89084000  1.0 0.11970774
H  H276  1  0.64036000  0.77317000  0.96377000  1.0 0.0900562604
H  H277  1  0.69584000  0.79398000  0.94709000  1.0 0.1095751847
H  H278  1  0.52687000  0.91952000  0.91046000  1.0 0.1095751847
H  H279  1  0.60348000  0.91577000  0.90495000  1.0 0.11970774
H  H280  1  0.41713000  0.93946000  0.84849000  1.0 0.0998597909
H  H281  1  0.97491000  0.80459000  0.55060000  1.0 0.0900562604
H  H282  1  0.07139000  0.85659000  0.56446000  1.0 0.1095751847
H  H283  1  0.14861000  0.84777000  0.60091000  1.0 0.1095751847
H  H284  1  0.00720000  0.91491000  0.57549000  1.0 0.0900562604
H  H285  1  0.04393000  0.96314000  0.62212000  1.0 0.0900562604
H  H286  1  0.21351000  0.94491000  0.70215000  1.0 0.1095751847
H  H287  1  0.15920000  0.97884000  0.67980000  1.0 0.0900562604
H  H288  1  0.40694000  0.97543000  0.79168000  1.0 0.0900562604
H  H289  1  0.31578000  0.92471000  0.70089000  1.0 0.1095751847
H  H290  1  0.34746000  0.96625000  0.71512000  1.0 0.0998597909
H  H291  1  0.44617000  0.98765000  0.68750000  1.0 0.0803598285
H  H292  1  0.48524000  0.96245000  0.63918000  1.0 0.0900562604
H  H293  1  0.40287000  0.87568000  0.60340000  1.0 0.1095751847
H  H294  1  0.44947000  0.90820000  0.59281000  1.0 0.0998597909
H  H295  1  0.70136000  0.74304000  0.62688000  1.0 0.0803598285
H  H296  1  0.51077000  0.75999000  0.59466000  1.0 0.129031506
H  H297  1  0.57930000  0.76953000  0.58235000  1.0 0.0998597909
H  H298  1  0.73489000  0.68900000  0.66614000  1.0 0.0803598285
H  H299  1  0.66024000  0.63727000  0.68966000  1.0 0.0998597909
H  H300  1  0.57557000  0.64739000  0.67763000  1.0 0.11970774
H  H301  1  0.72971000  0.62855000  0.76510000  1.0 0.0900562604
H  H302  1  0.38557000  0.54835000  0.63758000  1.0 0.11970774
H  H303  1  0.27180000  0.61288000  0.53953000  1.0 0.1095751847
H  H304  1  0.20524000  0.82760000  0.97447000  1.0 0.0998597909
H  H305  1  0.66902000  0.88851000  0.82450000  1.0 0.2843516906
H  H306  1  0.32415000  0.49427000  0.60346000  1.0 0.129031506
H  H307  1  0.20371000  0.56041000  0.50597000  1.0 0.11970774
H  H308  1  0.28162000  0.88282000  0.96575000  1.0 0.0998597909
H  H309  1  0.32680000  0.87450000  0.93711000  1.0 0.11970774
H  H310  1  0.86186000  0.86146000  0.58411000  1.0 0.11970774
H  H311  1  0.90827000  0.86440000  0.55526000  1.0 0.0998597909
H  H312  1  0.97399000  0.99421000  0.66186000  1.0 0.1095751847
H  H313  1  0.91834000  0.96803000  0.67334000  1.0 0.129031506
H  H314  1  0.09272000  0.01221000  0.71911000  1.0 0.0900562604
H  H315  1  0.50179000  0.00280000  0.76281000  1.0 0.0998597909
H  H316  1  0.58378000  0.98797000  0.78654000  1.0 0.1095751847
H  H317  1  0.61443000  0.94542000  0.64301000  1.0 0.0998597909
H  H318  1  0.67538000  0.93903000  0.68839000  1.0 0.11970774
H  H319  1  0.57750000  0.88941000  0.59741000  1.0 0.0900562604
H  H320  1  0.78307000  0.82073000  0.69210000  1.0 0.129031506
H  H321  1  0.75154000  0.80849000  0.64439000  1.0 0.1095751847
H  H322  1  0.63491000  0.83361000  0.59846000  1.0 0.0900562604
H  H323  1  0.84117000  0.70952000  0.76698000  1.0 0.1095751847
H  H324  1  0.80941000  0.67367000  0.73770000  1.0 0.0900562604
H  H325  1  0.10880000  0.87658000  0.95212000  1.0 0.0998597909
H  H326  1  0.03548000  0.86687000  0.91331000  1.0 0.1095751847
H  H327  1  0.10767000  0.01873000  0.78708000  1.0 0.0900562604
H  H328  1  0.17678000  0.49621000  0.50774000  1.0 0.2948313606
H  H329  1  0.18217000  0.93006000  0.94242000  1.0 0.0803598285
H  H330  1  0.21857000  0.00496000  0.85084000  1.0 0.1095751847
H  H331  1  0.27850000  0.97819000  0.84412000  1.0 0.1095751847
H  H332  1  0.87060000  0.85231000  0.90612000  1.0 0.129031506
H  H333  1  0.74370000  0.93250000  0.82939000  1.0 0.11970774
H  H334  1  0.15536000  0.97842000  0.89701000  1.0 0.0900562604
H  H335  1  0.98499000  0.96604000  0.81760000  1.0 0.11970774
H  H336  1  0.04776000  0.99732000  0.83614000  1.0 0.0998597909
H  H337  1  0.91615000  0.96297000  0.93197000  1.0 0.11970774
H  H338  1  0.17489000  0.46557000  0.44879000  1.0 0.129031506
H  H339  1  0.21912000  0.38336000  0.53533000  1.0 0.1401540962
H  H340  1  0.93591000  0.84885000  0.96775000  1.0 0.2700738487
H  H341  1  0.73952000  0.98699000  0.81676000  1.0 0.2843516906
H  H342  1  0.11029000  0.35824000  0.41451000  1.0 0.11970774
H  H343  1  0.10496000  0.88891000  0.03161000  1.0 0.129031506
H  H344  1  0.99443000  0.79217000  0.98813000  1.0 0.129031506
H  H345  1  0.78524000  0.07223000  0.87262000  1.0 0.129031506
H  H346  1  0.68943000  0.02530000  0.75895000  1.0 0.129031506
H  H347  1  0.01373000  0.40014000  0.37123000  1.0 0.2948313606
H  H348  1  0.19685000  0.30711000  0.44849000  1.0 0.2700738487
H  H349  1  0.20494000  0.85430000  0.07554000  1.0 0.11970774
H  H350  1  0.09561000  0.75789000  0.03299000  1.0 0.1095751847
H  H351  1  0.74110000  0.13147000  0.84404000  1.0 0.11970774
H  H352  1  0.64947000  0.08426000  0.73036000  1.0 0.11970774
H  H353  1  0.08708000  0.41510000  0.30057000  1.0 0.129031506
H  H354  1  0.89801000  0.43461000  0.31839000  1.0 0.1471579346
H  H355  1  0.13036000  0.25331000  0.51199000  1.0 0.129031506
H  H356  1  0.25858000  0.25226000  0.44423000  1.0 0.129031506
H  H357  1  0.02971000  0.42706000  0.22943000  1.0 0.1095751847
H  H358  1  0.84219000  0.44649000  0.24450000  1.0 0.11970774
H  H359  1  0.15592000  0.18861000  0.52599000  1.0 0.11970774
H  H360  1  0.28414000  0.18811000  0.46025000  1.0 0.11970774
H  H361  1  0.88173000  0.14819000  0.66602000  1.0 0.0998597909
H  H362  1  0.84014000  0.13782000  0.72428000  1.0 0.1095751847
H  H363  1  0.77630000  0.16511000  0.72542000  1.0 0.11970774
H  H364  1  0.69646000  0.24535000  0.60659000  1.0 0.11970774
H  H365  1  0.72916000  0.22462000  0.57666000  1.0 0.0900562604
H  H366  1  0.82859000  0.18082000  0.60662000  1.0 0.0900562604
H  H367  1  0.99597000  0.16739000  0.85055000  1.0 0.0680371848
H  H368  1  0.84712000  0.21982000  0.85904000  1.0 0.129031506
H  H369  1  0.92249000  0.20048000  0.88788000  1.0 0.0998597909
H  H370  1  0.96134000  0.14113000  0.78697000  1.0 0.0803598285
H  H371  1  0.41980000  0.13197000  0.66830000  1.0 0.0998597909
H  H372  1  0.48566000  0.15372000  0.70317000  1.0 0.129031506
H  H373  1  0.36208000  0.16183000  0.59995000  1.0 0.0998597909
H  H374  1  0.39764000  0.20609000  0.56321000  1.0 0.0900562604
H  H375  1  0.52358000  0.23587000  0.58078000  1.0 0.0998597909
H  H376  1  0.57884000  0.23135000  0.62790000  1.0 0.11970774
H  H377  1  0.48468000  0.30302000  0.55648000  1.0 0.0900562604
H  H378  1  0.53675000  0.35936000  0.58417000  1.0 0.0998597909
H  H379  1  0.64202000  0.37733000  0.64638000  1.0 0.11970774
H  H380  1  0.66549000  0.34997000  0.68585000  1.0 0.129031506
H  H381  1  0.42162000  0.27921000  0.78007000  1.0 0.1095751847
H  H382  1  0.54612000  0.32237000  0.72134000  1.0 0.1095751847
H  H383  1  0.32319000  0.31761000  0.73978000  1.0 0.129031506
H  H384  1  0.44808000  0.35988000  0.68092000  1.0 0.1095751847
H  H385  1  0.05604000  0.18115000  0.73013000  1.0 0.0998597909
H  H386  1  0.00113000  0.14698000  0.72709000  1.0 0.0998597909
H  H387  1  0.78567000  0.26369000  0.53803000  1.0 0.0900562604
H  H388  1  0.96782000  0.23575000  0.59653000  1.0 0.11970774
H  H389  1  0.88919000  0.21823000  0.56992000  1.0 0.1095751847
H  H390  1  0.12892000  0.23787000  0.86313000  1.0 0.0998597909
H  H391  1  0.09697000  0.21183000  0.88982000  1.0 0.0803598285
H  H392  1  0.02733000  0.24412000  0.92729000  1.0 0.0900562604
H  H393  1  0.29977000  0.12709000  0.67791000  1.0 0.0803598285
H  H394  1  0.24149000  0.15940000  0.61019000  1.0 0.1095751847
H  H395  1  0.20117000  0.19881000  0.60916000  1.0 0.11970774
H  H396  1  0.35964000  0.27317000  0.53623000  1.0 0.0900562604
H  H397  1  0.30416000  0.29398000  0.55291000  1.0 0.1095751847
H  H398  1  0.47313000  0.41952000  0.58954000  1.0 0.1095751847
H  H399  1  0.39652000  0.41577000  0.59505000  1.0 0.11970774
H  H400  1  0.58287000  0.43946000  0.65151000  1.0 0.0998597909
H  H401  1  0.02509000  0.30459000  0.94940000  1.0 0.0900562604
H  H402  1  0.92861000  0.35659000  0.93554000  1.0 0.1095751847
H  H403  1  0.85139000  0.34777000  0.89909000  1.0 0.1095751847
H  H404  1  0.99280000  0.41491000  0.92451000  1.0 0.0900562604
H  H405  1  0.95607000  0.46314000  0.87788000  1.0 0.0900562604
H  H406  1  0.78649000  0.44491000  0.79785000  1.0 0.1095751847
H  H407  1  0.84080000  0.47884000  0.82020000  1.0 0.0900562604
H  H408  1  0.59306000  0.47543000  0.70832000  1.0 0.0900562604
H  H409  1  0.68422000  0.42471000  0.79911000  1.0 0.1095751847
H  H410  1  0.65254000  0.46625000  0.78488000  1.0 0.0998597909
H  H411  1  0.55383000  0.48765000  0.81250000  1.0 0.0803598285
H  H412  1  0.51476000  0.46245000  0.86082000  1.0 0.0900562604
H  H413  1  0.59713000  0.37568000  0.89660000  1.0 0.1095751847
H  H414  1  0.55053000  0.40820000  0.90719000  1.0 0.0998597909
H  H415  1  0.29864000  0.24304000  0.87312000  1.0 0.0803598285
H  H416  1  0.48923000  0.25999000  0.90534000  1.0 0.129031506
H  H417  1  0.42070000  0.26953000  0.91765000  1.0 0.0998597909
H  H418  1  0.26511000  0.18900000  0.83386000  1.0 0.0803598285
H  H419  1  0.33976000  0.13727000  0.81034000  1.0 0.0998597909
H  H420  1  0.42443000  0.14739000  0.82237000  1.0 0.11970774
H  H421  1  0.27029000  0.12855000  0.73490000  1.0 0.0900562604
H  H422  1  0.61443000  0.04835000  0.86242000  1.0 0.11970774
H  H423  1  0.72820000  0.11288000  0.96047000  1.0 0.1095751847
H  H424  1  0.79476000  0.32760000  0.52553000  1.0 0.0998597909
H  H425  1  0.33098000  0.38851000  0.67550000  1.0 0.2843516906
H  H426  1  0.67585000  0.99427000  0.89654000  1.0 0.129031506
H  H427  1  0.79629000  0.06041000  0.99403000  1.0 0.11970774
H  H428  1  0.71838000  0.38282000  0.53425000  1.0 0.0998597909
H  H429  1  0.67320000  0.37450000  0.56289000  1.0 0.11970774
H  H430  1  0.13814000  0.36146000  0.91589000  1.0 0.11970774
H  H431  1  0.09173000  0.36440000  0.94474000  1.0 0.0998597909
H  H432  1  0.02601000  0.49421000  0.83814000  1.0 0.1095751847
H  H433  1  0.08166000  0.46803000  0.82666000  1.0 0.129031506
H  H434  1  0.90728000  0.51221000  0.78089000  1.0 0.0900562604
H  H435  1  0.49821000  0.50280000  0.73719000  1.0 0.0998597909
H  H436  1  0.41622000  0.48797000  0.71346000  1.0 0.1095751847
H  H437  1  0.38557000  0.44542000  0.85699000  1.0 0.0998597909
H  H438  1  0.32462000  0.43903000  0.81161000  1.0 0.11970774
H  H439  1  0.42250000  0.38941000  0.90259000  1.0 0.0900562604
H  H440  1  0.21693000  0.32073000  0.80790000  1.0 0.129031506
H  H441  1  0.24846000  0.30849000  0.85561000  1.0 0.1095751847
H  H442  1  0.36509000  0.33361000  0.90154000  1.0 0.0900562604
H  H443  1  0.15883000  0.20952000  0.73302000  1.0 0.1095751847
H  H444  1  0.19059000  0.17367000  0.76230000  1.0 0.0900562604
H  H445  1  0.89120000  0.37658000  0.54788000  1.0 0.0998597909
H  H446  1  0.96452000  0.36687000  0.58669000  1.0 0.1095751847
H  H447  1  0.89233000  0.51873000  0.71292000  1.0 0.0900562604
H  H448  1  0.82322000  0.99621000  0.99226000  1.0 0.2948313606
H  H449  1  0.81783000  0.43006000  0.55758000  1.0 0.0803598285
H  H450  1  0.78143000  0.50496000  0.64916000  1.0 0.1095751847
H  H451  1  0.72150000  0.47819000  0.65588000  1.0 0.1095751847
H  H452  1  0.12940000  0.35231000  0.59388000  1.0 0.129031506
H  H453  1  0.25630000  0.43250000  0.67061000  1.0 0.11970774
H  H454  1  0.84464000  0.47842000  0.60299000  1.0 0.0900562604
H  H455  1  0.01501000  0.46604000  0.68240000  1.0 0.11970774
H  H456  1  0.95224000  0.49732000  0.66386000  1.0 0.0998597909
H  H457  1  0.08385000  0.46297000  0.56803000  1.0 0.11970774
H  H458  1  0.82511000  0.96557000  0.05121000  1.0 0.129031506
H  H459  1  0.78088000  0.88336000  0.96467000  1.0 0.1471579346
H  H460  1  0.06409000  0.34885000  0.53225000  1.0 0.2700738487
H  H461  1  0.26048000  0.48699000  0.68324000  1.0 0.2843516906
H  H462  1  0.88971000  0.85824000  0.08549000  1.0 0.11970774
H  H463  1  0.89504000  0.38891000  0.46839000  1.0 0.129031506
H  H464  1  0.00557000  0.29217000  0.51187000  1.0 0.129031506
H  H465  1  0.21476000  0.57223000  0.62738000  1.0 0.129031506
H  H466  1  0.31057000  0.52530000  0.74105000  1.0 0.129031506
H  H467  1  0.98627000  0.90014000  0.12877000  1.0 0.2948313606
H  H468  1  0.80315000  0.80711000  0.05151000  1.0 0.2700738487
H  H469  1  0.79506000  0.35430000  0.42446000  1.0 0.11970774
H  H470  1  0.90439000  0.25789000  0.46701000  1.0 0.1095751847
H  H471  1  0.25890000  0.63147000  0.65596000  1.0 0.11970774
H  H472  1  0.35053000  0.58426000  0.76964000  1.0 0.11970774
H  H473  1  0.91292000  0.91510000  0.19943000  1.0 0.129031506
H  H474  1  0.10199000  0.93461000  0.18161000  1.0 0.1471579346
H  H475  1  0.86964000  0.75331000  0.98801000  1.0 0.129031506
H  H476  1  0.74142000  0.75226000  0.05577000  1.0 0.129031506
H  H477  1  0.97029000  0.92706000  0.27057000  1.0 0.1095751847
H  H478  1  0.15781000  0.94649000  0.25550000  1.0 0.11970774
H  H479  1  0.84408000  0.68861000  0.97401000  1.0 0.11970774
H  H480  1  0.71586000  0.68811000  0.03975000  1.0 0.11970774
H  H481  1  0.28484000  0.96900000  0.46968000  1.0 0.2408740979
H  H482  1  0.34012000  0.97484000  0.45137000  1.0 0.2408740979
H  H483  1  0.33119000  0.00302000  0.48010000  1.0 0.2506912615
H  H484  1  0.27413000  0.99870000  0.43841000  1.0 0.2085112471
H  H485  1  0.71516000  0.46900000  0.03032000  1.0 0.2408740979
H  H486  1  0.65988000  0.47484000  0.04863000  1.0 0.2506912615
H  H487  1  0.66881000  0.50302000  0.01990000  1.0 0.2560531449
H  H488  1  0.72587000  0.49870000  0.06159000  1.0 0.2085112471
H  H489  1  0.71516000  0.03100000  0.53032000  1.0 0.2408740979
H  H490  1  0.65988000  0.02516000  0.54863000  1.0 0.2506912615
H  H491  1  0.66881000  0.99698000  0.51990000  1.0 0.2506912615
H  H492  1  0.72587000  0.00130000  0.56159000  1.0 0.2085112471
H  H493  1  0.28484000  0.53100000  0.96968000  1.0 0.2408740979
H  H494  1  0.34012000  0.52516000  0.95137000  1.0 0.2506912615
H  H495  1  0.33119000  0.49698000  0.98010000  1.0 0.2506912615
H  H496  1  0.27413000  0.50130000  0.93841000  1.0 0.2085112471
C  C1  1  0.77876000  0.28900000  0.17016000  1.0 0.5317327651
C  C2  1  0.85388000  0.29997000  0.29178000  1.0 0.548848464
C  C3  1  0.48793000  0.29376000  0.15683000  1.0 0.5408144128
C  C4  1  0.57828000  0.20007000  0.14918000  1.0 0.548848464
C  C5  1  0.55714000  0.22740000  0.27984000  1.0 0.6118379485
C  C6  1  0.49346000  0.20278000  0.25416000  1.0 -0.0394493881
C  C7  1  0.87980000  0.32410000  0.17130000  1.0 0.0900562604
C  C8  1  0.82710000  0.33540000  0.22620000  1.0 0.0291322683
C  C9  1  0.74181000  0.25870000  0.10121000  1.0 0.0209354918
C  C10  1  0.84991000  0.30204000  0.13111000  1.0 0.0900562604
C  C11  1  0.97720000  0.31304000  0.32830000  1.0 0.0803598285
C  C12  1  0.90048000  0.28115000  0.36508000  1.0 0.0209354918
C  C13  1  0.95449000  0.33080000  0.28529000  1.0 0.0998597909
C  C14  1  0.43362000  0.34409000  0.18412000  1.0 0.0291322683
C  C15  1  0.36982000  0.31265000  0.11332000  1.0 0.0900562604
C  C16  1  0.40043000  0.28420000  0.09073000  1.0 0.0998597909
C  C17  1  0.53016000  0.25870000  0.10986000  1.0 0.0209354918
C  C18  1  0.48283000  0.19256000  0.08443000  1.0 0.0998597909
C  C19  1  0.51392000  0.15347000  0.10192000  1.0 0.0998597909
C  C20  1  0.62386000  0.13589000  0.16566000  1.0 0.0291322683
C  C21  1  0.88927000  0.21296000  0.37487000  1.0 0.5317327651
C  C22  1  0.86230000  0.10425000  0.34660000  1.0 0.5408144128
C  C23  1  0.62702000  0.10642000  0.22942000  1.0 0.5615454566
C  C24  1  0.59463000  0.09507000  0.33113000  1.0 0.5317327651
C  C25  1  0.42688000  0.20437000  0.25978000  1.0 -0.0560408531
C  C26  1  0.50080000  0.17894000  0.22500000  1.0 -0.089784093
C  C27  1  0.42153000  0.28685000  0.35093000  1.0 0.5408144128
C  C28  1  0.41793000  0.33635000  0.25063000  1.0 0.5317327651
C  C29  1  0.62173000  0.38015000  0.38773000  1.0 0.548848464
C  C30  1  0.36804000  0.18180000  0.23554000  1.0 -0.1781294487
C  C31  1  0.44238000  0.15681000  0.20088000  1.0 -0.2004684687
C  C32  1  0.66403000  0.41415000  0.40903000  1.0 -0.0264692194
C  C33  1  0.97261000  0.28591000  0.16641000  1.0 0.5317327651
C  C34  1  0.00650000  0.32516000  0.22920000  1.0 0.0291322683
C  C35  1  0.72880000  0.18990000  0.09060000  1.0 0.5118692768
C  C36  1  0.80800000  0.22100000  0.06390000  1.0 0.0998597909
C  C37  1  0.91600000  0.26537000  0.09390000  1.0 0.0112291102
C  C38  1  0.04880000  0.28777000  0.29430000  1.0 0.5118692768
C  C39  1  0.08350000  0.26930000  0.36720000  1.0 0.0112291102
C  C40  1  0.00783000  0.23780000  0.40353000  1.0 0.0998597909
C  C41  1  0.31090000  0.34777000  0.19210000  1.0 0.0900562604
C  C42  1  0.24842000  0.31476000  0.12202000  1.0 0.0209354918
C  C43  1  0.29582000  0.25903000  0.09772000  1.0 0.5203507921
C  C44  1  0.35281000  0.21835000  0.06161000  1.0 0.0209354918
C  C45  1  0.38968000  0.15502000  0.09158000  1.0 0.5118692768
C  C46  1  0.44853000  0.09238000  0.10653000  1.0 0.0112291102
C  C47  1  0.56040000  0.07325000  0.16950000  1.0 0.1095751847
C  C48  1  0.00927000  0.19680000  0.41857000  1.0 0.0900562604
C  C49  1  0.90460000  0.14920000  0.40560000  1.0 0.0112291102
C  C50  1  0.97990000  0.09420000  0.39540000  1.0 0.0998597909
C  C51  1  0.95890000  0.06140000  0.36420000  1.0 0.0998597909
C  C52  1  0.83730000  0.04560000  0.30570000  1.0 0.0209354918
C  C53  1  0.56681000  0.04895000  0.20761000  1.0 0.0998597909
C  C54  1  0.63880000  0.06073000  0.28440000  1.0 0.0209354918
C  C55  1  0.53394000  0.03849000  0.30484000  1.0 0.0998597909
C  C56  1  0.50466000  0.05483000  0.33656000  1.0 0.0998597909
C  C57  1  0.55004000  0.11039000  0.38584000  1.0 -4.25848e-05
C  C58  1  0.37515000  0.15872000  0.20555000  1.0 0.2299362187
C  C59  1  0.31458000  0.25624000  0.34908000  1.0 0.0998597909
C  C60  1  0.43822000  0.23032000  0.39452000  1.0 0.0209354918
C  C61  1  0.29339000  0.29331000  0.32309000  1.0 0.0998597909
C  C62  1  0.37372000  0.34329000  0.30752000  1.0 0.0209354918
C  C63  1  0.29130000  0.34675000  0.23070000  1.0 0.0998597909
C  C64  1  0.65014000  0.44956000  0.38984000  1.0 -0.0808851497
C  C65  1  0.71774000  0.41116000  0.44734000  1.0 -0.089784093
C  C66  1  0.80660000  0.17790000  0.05550000  1.0 0.0998597909
C  C67  1  0.68696000  0.48175000  0.40976000  1.0 -0.1904271094
C  C68  1  0.75752000  0.44249000  0.46772000  1.0 -0.2105317174
C  C69  1  0.72310000  0.12530000  0.06230000  1.0 0.0209354918
C  C70  1  0.92560000  0.19610000  0.09780000  1.0 0.5203507921
C  C71  1  0.08631000  0.20130000  0.38241000  1.0 0.5203507921
C  C72  1  0.22629000  0.29985000  0.18479000  1.0 0.5317327651
C  C73  1  0.44320000  0.06127000  0.16830000  1.0 0.5203507921
C  C74  1  0.08800000  0.14030000  0.41600000  1.0 0.0112291102
C  C75  1  0.06640000  0.08980000  0.36470000  1.0 0.5317327651
C  C76  1  0.03040000  0.02990000  0.32480000  1.0 0.0112291102
C  C77  1  0.79720000  0.04270000  0.22870000  1.0 0.5203507921
C  C78  1  0.90930000  0.01250000  0.26740000  1.0 0.0998597909
C  C79  1  0.46736000  0.02021000  0.22926000  1.0 0.0291322683
C  C80  1  0.40683000  0.04865000  0.27243000  1.0 0.5203507921
C  C81  1  0.37410000  0.06890000  0.33090000  1.0 0.0209354918
C  C82  1  0.50257000  0.17503000  0.38247000  1.0 0.5118692768
C  C83  1  0.41900000  0.12623000  0.37800000  1.0 0.0900562604
C  C84  1  0.24688000  0.14294000  0.16248000  1.0 0.4988033425
C  C85  1  0.23865000  0.24168000  0.28105000  1.0 0.5408144128
C  C86  1  0.26040000  0.18965000  0.33050000  1.0 0.0291322683
C  C87  1  0.38128000  0.16412000  0.37768000  1.0 0.0998597909
C  C88  1  0.20444000  0.30414000  0.24954000  1.0 0.0209354918
C  C89  1  0.74078000  0.47832000  0.44958000  1.0 0.2506912615
C  C90  1  0.91060000  0.13050000  0.07760000  1.0 0.0291322683
C  C91  1  0.89170000  0.00850000  0.22060000  1.0 0.0998597909
C  C92  1  0.19977000  0.11195000  0.13597000  1.0 -0.0079917238
C  C93  1  0.73770000  0.07680000  0.11310000  1.0 0.5203507921
C  C94  1  0.83020000  0.07910000  0.08660000  1.0 0.0612914092
C  C95  1  0.00390000  0.04010000  0.25180000  1.0 0.5118692768
C  C96  1  0.77350000  0.02040000  0.15890000  1.0 0.0209354918
C  C97  1  0.31231000  0.13041000  0.31791000  1.0 0.5118692768
C  C98  1  0.14049000  0.12180000  0.10069000  1.0 -0.1309877297
C  C99  1  0.21544000  0.07410000  0.14634000  1.0 -0.1309877297
C  C100  1  0.75621000  0.54448000  0.46921000  1.0 0.461967918
C  C101  1  0.84530000  0.04640000  0.11700000  1.0 0.0900562604
C  C102  1  0.94590000  0.08520000  0.13410000  1.0 0.4988033425
C  C103  1  0.96260000  0.02840000  0.17610000  1.0 0.0112291102
C  C104  1  0.09715000  0.09365000  0.07515000  1.0 -0.0264692194
C  C105  1  0.17148000  0.04590000  0.12138000  1.0 -0.0211145417
C  C106  1  0.79871000  0.57130000  0.50291000  1.0 -0.0079917238
C  C107  1  0.11327000  0.05618000  0.08567000  1.0 -0.1199442671
C  C108  1  0.03001000  0.10242000  0.03731000  1.0 0.4523529958
C  C109  1  0.18319000  0.00450000  0.13039000  1.0 0.4702586633
C  C110  1  0.82840000  0.56013000  0.54410000  1.0 -0.139043254
C  C111  1  0.80202000  0.60882000  0.49282000  1.0 -0.089784093
C  C112  1  0.86277000  0.58638000  0.57497000  1.0 -0.0079917238
C  C113  1  0.83593000  0.63504000  0.52353000  1.0 -0.0079917238
C  C114  1  0.96100000  0.15590000  0.99420000  1.0 0.2085112471
C  C115  1  0.25818000  0.95713000  0.18168000  1.0 0.2299362187
C  C116  1  0.86623000  0.62370000  0.56443000  1.0 -0.1686338197
C  C117  1  0.89439000  0.57240000  0.61879000  1.0 0.461967918
C  C118  1  0.83891000  0.67569000  0.51021000  1.0 0.4702586633
C  C119  1  0.89760000  0.13792000  0.96830000  1.0 -0.2004684687
C  C120  1  0.96310000  0.19483000  0.99400000  1.0 -0.2105317174
C  C121  1  0.24276000  0.92542000  0.15626000  1.0 -0.1781294487
C  C122  1  0.29907000  0.95300000  0.22367000  1.0 -0.2004684687
C  C123  1  0.83770000  0.15860000  0.94220000  1.0 -0.0983451494
C  C124  1  0.90240000  0.21527000  0.96740000  1.0 -0.1199442671
C  C125  1  0.26864000  0.89014000  0.17344000  1.0 -0.0983451494
C  C126  1  0.32337000  0.91801000  0.24067000  1.0 -0.0808851497
C  C127  1  0.99990000  0.57670000  0.68390000  1.0 0.2167770219
C  C128  1  0.80522000  0.74072000  0.52222000  1.0 0.2085112471
C  C129  1  0.83970000  0.19670000  0.94180000  1.0 -0.0394493881
C  C130  1  0.30846000  0.88606000  0.21576000  1.0 -0.0394493881
C  C131  1  0.96370000  0.57880000  0.71050000  1.0 -0.220211815
C  C132  1  0.07500000  0.56740000  0.69910000  1.0 -0.220211815
C  C133  1  0.83790000  0.75960000  0.49840000  1.0 -0.2105317174
C  C134  1  0.76160000  0.76028000  0.53840000  1.0 -0.2293790105
C  C135  1  0.77450000  0.21990000  0.91420000  1.0 0.548848464
C  C136  1  0.33194000  0.84788000  0.23404000  1.0 0.5946702611
C  C137  1  0.99790000  0.57230000  0.75340000  1.0 -0.0983451494
C  C138  1  0.10780000  0.56090000  0.74350000  1.0 -0.0740186247
C  C139  1  0.82230000  0.79825000  0.49020000  1.0 -0.0983451494
C  C140  1  0.74700000  0.79875000  0.52910000  1.0 -0.0808851497
C  C141  1  0.06830000  0.56530000  0.76910000  1.0 -0.0394493881
C  C142  1  0.77670000  0.81771000  0.50500000  1.0 -0.0394493881
C  C143  1  0.10430000  0.56180000  0.81560000  1.0 0.5203507921
C  C144  1  0.75940000  0.85870000  0.49390000  1.0 0.5408144128
C  C145  1  0.22124000  0.78900000  0.32984000  1.0 0.5317327651
C  C146  1  0.14612000  0.79997000  0.20822000  1.0 0.548848464
C  C147  1  0.51207000  0.79376000  0.34317000  1.0 0.5408144128
C  C148  1  0.42172000  0.70007000  0.35082000  1.0 0.548848464
C  C149  1  0.44286000  0.72740000  0.22016000  1.0 0.6118379485
C  C150  1  0.50654000  0.70278000  0.24584000  1.0 -0.0394493881
C  C151  1  0.12020000  0.82410000  0.32870000  1.0 0.0900562604
C  C152  1  0.17290000  0.83540000  0.27380000  1.0 0.0291322683
C  C153  1  0.25819000  0.75870000  0.39879000  1.0 0.0209354918
C  C154  1  0.15009000  0.80204000  0.36889000  1.0 0.0900562604
C  C155  1  0.02280000  0.81304000  0.17170000  1.0 0.0803598285
C  C156  1  0.09952000  0.78115000  0.13492000  1.0 0.0209354918
C  C157  1  0.04551000  0.83080000  0.21471000  1.0 0.0998597909
C  C158  1  0.56638000  0.84409000  0.31588000  1.0 0.0291322683
C  C159  1  0.63018000  0.81265000  0.38668000  1.0 0.0900562604
C  C160  1  0.59957000  0.78420000  0.40927000  1.0 0.0998597909
C  C161  1  0.46984000  0.75870000  0.39014000  1.0 0.0209354918
C  C162  1  0.51717000  0.69256000  0.41557000  1.0 0.0998597909
C  C163  1  0.48608000  0.65347000  0.39808000  1.0 0.0998597909
C  C164  1  0.37614000  0.63589000  0.33434000  1.0 0.0291322683
C  C165  1  0.11073000  0.71296000  0.12513000  1.0 0.5317327651
C  C166  1  0.13770000  0.60425000  0.15340000  1.0 0.5408144128
C  C167  1  0.37298000  0.60642000  0.27058000  1.0 0.5615454566
C  C168  1  0.40537000  0.59507000  0.16887000  1.0 0.5317327651
C  C169  1  0.57312000  0.70437000  0.24022000  1.0 -0.0546416018
C  C170  1  0.49920000  0.67894000  0.27500000  1.0 -0.089784093
C  C171  1  0.57847000  0.78685000  0.14907000  1.0 0.5408144128
C  C172  1  0.58207000  0.83635000  0.24937000  1.0 0.5317327651
C  C173  1  0.37827000  0.88015000  0.11227000  1.0 0.548848464
C  C174  1  0.63196000  0.68180000  0.26446000  1.0 -0.1781294487
C  C175  1  0.55762000  0.65681000  0.29912000  1.0 -0.2004684687
C  C176  1  0.33597000  0.91415000  0.09097000  1.0 -0.0264692194
C  C177  1  0.02739000  0.78591000  0.33359000  1.0 0.5317327651
C  C178  1  0.99350000  0.82516000  0.27080000  1.0 0.0291322683
C  C179  1  0.27120000  0.68990000  0.40940000  1.0 0.5118692768
C  C180  1  0.19200000  0.72100000  0.43610000  1.0 0.0998597909
C  C181  1  0.08400000  0.76537000  0.40610000  1.0 0.0112291102
C  C182  1  0.95120000  0.78777000  0.20570000  1.0 0.5118692768
C  C183  1  0.91650000  0.76930000  0.13280000  1.0 0.0112291102
C  C184  1  0.99217000  0.73780000  0.09647000  1.0 0.0998597909
C  C185  1  0.68910000  0.84777000  0.30790000  1.0 0.0900562604
C  C186  1  0.75158000  0.81476000  0.37798000  1.0 0.0209354918
C  C187  1  0.70418000  0.75903000  0.40228000  1.0 0.5203507921
C  C188  1  0.64719000  0.71835000  0.43839000  1.0 0.0209354918
C  C189  1  0.61032000  0.65502000  0.40842000  1.0 0.5118692768
C  C190  1  0.55147000  0.59238000  0.39347000  1.0 0.0112291102
C  C191  1  0.43960000  0.57325000  0.33050000  1.0 0.1095751847
C  C192  1  0.99073000  0.69680000  0.08143000  1.0 0.0900562604
C  C193  1  0.09540000  0.64920000  0.09440000  1.0 0.0112291102
C  C194  1  0.02010000  0.59420000  0.10460000  1.0 0.0998597909
C  C195  1  0.04110000  0.56140000  0.13580000  1.0 0.0998597909
C  C196  1  0.16270000  0.54560000  0.19430000  1.0 0.0209354918
C  C197  1  0.43319000  0.54895000  0.29239000  1.0 0.0998597909
C  C198  1  0.36120000  0.56073000  0.21560000  1.0 0.0209354918
C  C199  1  0.46606000  0.53849000  0.19516000  1.0 0.0998597909
C  C200  1  0.49534000  0.55483000  0.16344000  1.0 0.0998597909
C  C201  1  0.44996000  0.61039000  0.11416000  1.0 0.000709641
C  C202  1  0.62485000  0.65872000  0.29445000  1.0 0.2299362187
C  C203  1  0.68542000  0.75624000  0.15092000  1.0 0.0998597909
C  C204  1  0.56178000  0.73032000  0.10548000  1.0 0.0209354918
C  C205  1  0.70661000  0.79331000  0.17691000  1.0 0.0998597909
C  C206  1  0.62628000  0.84329000  0.19248000  1.0 0.0209354918
C  C207  1  0.70870000  0.84675000  0.26930000  1.0 0.0998597909
C  C208  1  0.34986000  0.94956000  0.11016000  1.0 -0.0808851497
C  C209  1  0.28226000  0.91116000  0.05266000  1.0 -0.089784093
C  C210  1  0.19340000  0.67790000  0.44450000  1.0 0.0900562604
C  C211  1  0.31304000  0.98175000  0.09024000  1.0 -0.1904271094
C  C212  1  0.24248000  0.94249000  0.03228000  1.0 -0.2105317174
C  C213  1  0.27690000  0.62530000  0.43770000  1.0 0.0209354918
C  C214  1  0.07440000  0.69610000  0.40220000  1.0 0.5203507921
C  C215  1  0.91369000  0.70130000  0.11759000  1.0 0.5203507921
C  C216  1  0.77371000  0.79985000  0.31521000  1.0 0.5317327651
C  C217  1  0.55680000  0.56127000  0.33170000  1.0 0.5203507921
C  C218  1  0.91200000  0.64030000  0.08400000  1.0 0.0112291102
C  C219  1  0.93360000  0.58980000  0.13530000  1.0 0.5317327651
C  C220  1  0.96960000  0.52990000  0.17520000  1.0 0.0112291102
C  C221  1  0.20280000  0.54270000  0.27130000  1.0 0.5118692768
C  C222  1  0.09070000  0.51250000  0.23260000  1.0 0.0998597909
C  C223  1  0.53264000  0.52021000  0.27074000  1.0 0.0291322683
C  C224  1  0.59317000  0.54865000  0.22757000  1.0 0.5203507921
C  C225  1  0.62590000  0.56890000  0.16910000  1.0 0.0209354918
C  C226  1  0.49743000  0.67503000  0.11753000  1.0 0.5118692768
C  C227  1  0.58100000  0.62623000  0.12200000  1.0 0.0900562604
C  C228  1  0.75312000  0.64294000  0.33752000  1.0 0.4988033425
C  C229  1  0.76135000  0.74168000  0.21895000  1.0 0.5408144128
C  C230  1  0.73960000  0.68965000  0.16950000  1.0 0.0291322683
C  C231  1  0.61872000  0.66412000  0.12232000  1.0 0.0998597909
C  C232  1  0.79556000  0.80414000  0.25046000  1.0 0.0209354918
C  C233  1  0.25922000  0.97832000  0.05042000  1.0 0.2506912615
C  C234  1  0.08940000  0.63050000  0.42240000  1.0 0.0291322683
C  C235  1  0.10830000  0.50850000  0.27940000  1.0 0.0998597909
C  C236  1  0.80023000  0.61195000  0.36403000  1.0 -0.0079917238
C  C237  1  0.26230000  0.57680000  0.38690000  1.0 0.5203507921
C  C238  1  0.16980000  0.57910000  0.41340000  1.0 0.0612914092
C  C239  1  0.99610000  0.54010000  0.24820000  1.0 0.5118692768
C  C240  1  0.22650000  0.52040000  0.34110000  1.0 0.0291322683
C  C241  1  0.68769000  0.63041000  0.18209000  1.0 0.5118692768
C  C242  1  0.85951000  0.62180000  0.39931000  1.0 -0.1309877297
C  C243  1  0.78456000  0.57410000  0.35366000  1.0 -0.1309877297
C  C244  1  0.24379000  0.04448000  0.03079000  1.0 0.461967918
C  C245  1  0.15470000  0.54640000  0.38300000  1.0 0.0900562604
C  C246  1  0.05410000  0.58520000  0.36590000  1.0 0.4988033425
C  C247  1  0.03740000  0.52840000  0.32390000  1.0 0.0112291102
C  C248  1  0.90285000  0.59365000  0.42485000  1.0 -0.0264692194
C  C249  1  0.82852000  0.54590000  0.37862000  1.0 -0.0211145417
C  C250  1  0.20129000  0.07130000  0.99709000  1.0 -0.0079917238
C  C251  1  0.88673000  0.55618000  0.41433000  1.0 -0.1199442671
C  C252  1  0.96999000  0.60242000  0.46269000  1.0 0.4523529958
C  C253  1  0.81681000  0.50450000  0.36961000  1.0 0.4702586633
C  C254  1  0.17160000  0.06013000  0.95590000  1.0 -0.139043254
C  C255  1  0.19798000  0.10882000  0.00718000  1.0 -0.089784093
C  C256  1  0.13723000  0.08638000  0.92503000  1.0 -0.0079917238
C  C257  1  0.16407000  0.13504000  0.97647000  1.0 -0.0079917238
C  C258  1  0.03900000  0.65590000  0.50580000  1.0 0.2085112471
C  C259  1  0.74182000  0.45713000  0.31832000  1.0 0.2299362187
C  C260  1  0.13377000  0.12370000  0.93557000  1.0 -0.1686338197
C  C261  1  0.10561000  0.07240000  0.88121000  1.0 0.461967918
C  C262  1  0.16109000  0.17569000  0.98979000  1.0 0.4702586633
C  C263  1  0.10240000  0.63792000  0.53170000  1.0 -0.1904271094
C  C264  1  0.03690000  0.69483000  0.50600000  1.0 -0.2105317174
C  C265  1  0.75724000  0.42542000  0.34374000  1.0 -0.1781294487
C  C266  1  0.70093000  0.45300000  0.27633000  1.0 -0.2004684687
C  C267  1  0.16230000  0.65860000  0.55780000  1.0 -0.0983451494
C  C268  1  0.09760000  0.71527000  0.53260000  1.0 -0.1199442671
C  C269  1  0.73136000  0.39014000  0.32656000  1.0 -0.0983451494
C  C270  1  0.67663000  0.41801000  0.25933000  1.0 -0.0808851497
C  C271  1  0.00010000  0.07670000  0.81610000  1.0 0.2167770219
C  C272  1  0.19478000  0.24072000  0.97778000  1.0 0.2085112471
C  C273  1  0.16030000  0.69670000  0.55820000  1.0 -0.0394493881
C  C274  1  0.69154000  0.38606000  0.28424000  1.0 -0.0394493881
C  C275  1  0.03630000  0.07880000  0.78950000  1.0 -0.220211815
C  C276  1  0.92500000  0.06740000  0.80090000  1.0 -0.220211815
C  C277  1  0.16210000  0.25960000  0.00160000  1.0 -0.2004684687
C  C278  1  0.23840000  0.26028000  0.96160000  1.0 -0.2293790105
C  C279  1  0.22550000  0.71990000  0.58580000  1.0 0.548848464
C  C280  1  0.66806000  0.34788000  0.26596000  1.0 0.5946702611
C  C281  1  0.00210000  0.07230000  0.74660000  1.0 -0.0983451494
C  C282  1  0.89220000  0.06090000  0.75650000  1.0 -0.0740186247
C  C283  1  0.17770000  0.29825000  0.00980000  1.0 -0.0983451494
C  C284  1  0.25300000  0.29875000  0.97090000  1.0 -0.0808851497
C  C285  1  0.93170000  0.06530000  0.73090000  1.0 -0.0394493881
C  C286  1  0.22330000  0.31771000  0.99500000  1.0 -0.0394493881
C  C287  1  0.89570000  0.06180000  0.68440000  1.0 0.5203507921
C  C288  1  0.24060000  0.35870000  0.00610000  1.0 0.5408144128
C  C289  1  0.22124000  0.71100000  0.82984000  1.0 0.5317327651
C  C290  1  0.14612000  0.70003000  0.70822000  1.0 0.548848464
C  C291  1  0.51207000  0.70624000  0.84317000  1.0 0.5408144128
C  C292  1  0.42172000  0.79993000  0.85082000  1.0 0.548848464
C  C293  1  0.44286000  0.77260000  0.72016000  1.0 0.6118379485
C  C294  1  0.50654000  0.79722000  0.74584000  1.0 -0.0394493881
C  C295  1  0.12020000  0.67590000  0.82870000  1.0 0.0900562604
C  C296  1  0.17290000  0.66460000  0.77380000  1.0 0.0291322683
C  C297  1  0.25819000  0.74130000  0.89879000  1.0 0.0209354918
C  C298  1  0.15009000  0.69796000  0.86889000  1.0 0.0900562604
C  C299  1  0.02280000  0.68696000  0.67170000  1.0 0.0803598285
C  C300  1  0.09952000  0.71885000  0.63492000  1.0 0.0209354918
C  C301  1  0.04551000  0.66920000  0.71471000  1.0 0.0998597909
C  C302  1  0.56638000  0.65591000  0.81588000  1.0 0.0291322683
C  C303  1  0.63018000  0.68735000  0.88668000  1.0 0.0900562604
C  C304  1  0.59957000  0.71580000  0.90927000  1.0 0.0998597909
C  C305  1  0.46984000  0.74130000  0.89014000  1.0 0.0209354918
C  C306  1  0.51717000  0.80744000  0.91557000  1.0 0.0998597909
C  C307  1  0.48608000  0.84653000  0.89808000  1.0 0.0998597909
C  C308  1  0.37614000  0.86411000  0.83434000  1.0 0.0291322683
C  C309  1  0.11073000  0.78704000  0.62513000  1.0 0.5317327651
C  C310  1  0.13770000  0.89575000  0.65340000  1.0 0.5408144128
C  C311  1  0.37298000  0.89358000  0.77058000  1.0 0.5615454566
C  C312  1  0.40537000  0.90493000  0.66887000  1.0 0.5317327651
C  C313  1  0.57312000  0.79563000  0.74022000  1.0 -0.0560408531
C  C314  1  0.49920000  0.82106000  0.77500000  1.0 -0.089784093
C  C315  1  0.57847000  0.71315000  0.64907000  1.0 0.5408144128
C  C316  1  0.58207000  0.66365000  0.74937000  1.0 0.5317327651
C  C317  1  0.37827000  0.61985000  0.61227000  1.0 0.548848464
C  C318  1  0.63196000  0.81820000  0.76446000  1.0 -0.1781294487
C  C319  1  0.55762000  0.84319000  0.79912000  1.0 -0.2004684687
C  C320  1  0.33597000  0.58585000  0.59097000  1.0 -0.0264692194
C  C321  1  0.02739000  0.71409000  0.83359000  1.0 0.5317327651
C  C322  1  0.99350000  0.67484000  0.77080000  1.0 0.0291322683
C  C323  1  0.27120000  0.81010000  0.90940000  1.0 0.5118692768
C  C324  1  0.19200000  0.77900000  0.93610000  1.0 0.0998597909
C  C325  1  0.08400000  0.73463000  0.90610000  1.0 0.0112291102
C  C326  1  0.95120000  0.71223000  0.70570000  1.0 0.5118692768
C  C327  1  0.91650000  0.73070000  0.63280000  1.0 0.0112291102
C  C328  1  0.99217000  0.76220000  0.59647000  1.0 0.0998597909
C  C329  1  0.68910000  0.65223000  0.80790000  1.0 0.0900562604
C  C330  1  0.75158000  0.68524000  0.87798000  1.0 0.0209354918
C  C331  1  0.70418000  0.74097000  0.90228000  1.0 0.5203507921
C  C332  1  0.64719000  0.78165000  0.93839000  1.0 0.0209354918
C  C333  1  0.61032000  0.84498000  0.90842000  1.0 0.5118692768
C  C334  1  0.55147000  0.90762000  0.89347000  1.0 0.0112291102
C  C335  1  0.43960000  0.92675000  0.83050000  1.0 0.1095751847
C  C336  1  0.99073000  0.80320000  0.58143000  1.0 0.0900562604
C  C337  1  0.09540000  0.85080000  0.59440000  1.0 0.0112291102
C  C338  1  0.02010000  0.90580000  0.60460000  1.0 0.0998597909
C  C339  1  0.04110000  0.93860000  0.63580000  1.0 0.0998597909
C  C340  1  0.16270000  0.95440000  0.69430000  1.0 0.0209354918
C  C341  1  0.43319000  0.95105000  0.79239000  1.0 0.0998597909
C  C342  1  0.36120000  0.93927000  0.71560000  1.0 0.0209354918
C  C343  1  0.46606000  0.96151000  0.69516000  1.0 0.0998597909
C  C344  1  0.49534000  0.94517000  0.66344000  1.0 0.0998597909
C  C345  1  0.44996000  0.88961000  0.61416000  1.0 0.000709641
C  C346  1  0.62485000  0.84128000  0.79445000  1.0 0.2299362187
C  C347  1  0.68542000  0.74376000  0.65092000  1.0 0.0998597909
C  C348  1  0.56178000  0.76968000  0.60548000  1.0 0.0209354918
C  C349  1  0.70661000  0.70669000  0.67691000  1.0 0.1095751847
C  C350  1  0.62628000  0.65671000  0.69248000  1.0 0.0209354918
C  C351  1  0.70870000  0.65325000  0.76930000  1.0 0.0998597909
C  C352  1  0.34986000  0.55044000  0.61016000  1.0 -0.0808851497
C  C353  1  0.28226000  0.58884000  0.55266000  1.0 -0.089784093
C  C354  1  0.19340000  0.82210000  0.94450000  1.0 0.0998597909
C  C355  1  0.31304000  0.51825000  0.59024000  1.0 -0.1904271094
C  C356  1  0.24248000  0.55751000  0.53228000  1.0 -0.2105317174
C  C357  1  0.27690000  0.87470000  0.93770000  1.0 0.0209354918
C  C358  1  0.07440000  0.80390000  0.90220000  1.0 0.5203507921
C  C359  1  0.91369000  0.79870000  0.61759000  1.0 0.5203507921
C  C360  1  0.77371000  0.70015000  0.81521000  1.0 0.5317327651
C  C361  1  0.55680000  0.93873000  0.83170000  1.0 0.5203507921
C  C362  1  0.91200000  0.85970000  0.58400000  1.0 0.0112291102
C  C363  1  0.93360000  0.91020000  0.63530000  1.0 0.5317327651
C  C364  1  0.96960000  0.97010000  0.67520000  1.0 0.0112291102
C  C365  1  0.20280000  0.95730000  0.77130000  1.0 0.5118692768
C  C366  1  0.09070000  0.98750000  0.73260000  1.0 0.0998597909
C  C367  1  0.53264000  0.97979000  0.77074000  1.0 0.0291322683
C  C368  1  0.59317000  0.95135000  0.72757000  1.0 0.5317327651
C  C369  1  0.62590000  0.93110000  0.66910000  1.0 0.0209354918
C  C370  1  0.49743000  0.82497000  0.61753000  1.0 0.5118692768
C  C371  1  0.58100000  0.87377000  0.62200000  1.0 0.0900562604
C  C372  1  0.75312000  0.85706000  0.83752000  1.0 0.4988033425
C  C373  1  0.76135000  0.75832000  0.71895000  1.0 0.5408144128
C  C374  1  0.73960000  0.81035000  0.66950000  1.0 0.0291322683
C  C375  1  0.61872000  0.83588000  0.62232000  1.0 0.0998597909
C  C376  1  0.79556000  0.69586000  0.75046000  1.0 0.0209354918
C  C377  1  0.25922000  0.52168000  0.55042000  1.0 0.2506912615
C  C378  1  0.08940000  0.86950000  0.92240000  1.0 0.0291322683
C  C379  1  0.10830000  0.99150000  0.77940000  1.0 0.0998597909
C  C380  1  0.80023000  0.88805000  0.86403000  1.0 -0.0079917238
C  C381  1  0.26230000  0.92320000  0.88690000  1.0 0.5203507921
C  C382  1  0.16980000  0.92090000  0.91340000  1.0 0.0612914092
C  C383  1  0.99610000  0.95990000  0.74820000  1.0 0.5118692768
C  C384  1  0.22650000  0.97960000  0.84110000  1.0 0.0209354918
C  C385  1  0.68769000  0.86959000  0.68209000  1.0 0.5118692768
C  C386  1  0.85951000  0.87820000  0.89931000  1.0 -0.1309877297
C  C387  1  0.78456000  0.92590000  0.85366000  1.0 -0.1309877297
C  C388  1  0.24379000  0.45552000  0.53079000  1.0 0.461967918
C  C389  1  0.15470000  0.95360000  0.88300000  1.0 0.0900562604
C  C390  1  0.05410000  0.91480000  0.86590000  1.0 0.4988033425
C  C391  1  0.03740000  0.97160000  0.82390000  1.0 0.0112291102
C  C392  1  0.90285000  0.90635000  0.92485000  1.0 -0.0264692194
C  C393  1  0.82852000  0.95410000  0.87862000  1.0 -0.0211145417
C  C394  1  0.20129000  0.42870000  0.49709000  1.0 -0.0079917238
C  C395  1  0.88673000  0.94382000  0.91433000  1.0 -0.1199442671
C  C396  1  0.96999000  0.89758000  0.96269000  1.0 0.4523529958
C  C397  1  0.81681000  0.99550000  0.86961000  1.0 0.4702586633
C  C398  1  0.17160000  0.43987000  0.45590000  1.0 -0.139043254
C  C399  1  0.19798000  0.39118000  0.50718000  1.0 -0.089784093
C  C400  1  0.13723000  0.41362000  0.42503000  1.0 -0.0079917238
C  C401  1  0.16407000  0.36496000  0.47647000  1.0 -0.0079917238
C  C402  1  0.03900000  0.84410000  0.00580000  1.0 0.2085112471
C  C403  1  0.74182000  0.04287000  0.81832000  1.0 0.2299362187
C  C404  1  0.13377000  0.37630000  0.43557000  1.0 -0.1686338197
C  C405  1  0.10561000  0.42760000  0.38121000  1.0 0.461967918
C  C406  1  0.16109000  0.32431000  0.48979000  1.0 0.4702586633
C  C407  1  0.10240000  0.86208000  0.03170000  1.0 -0.1904271094
C  C408  1  0.03690000  0.80517000  0.00600000  1.0 -0.2105317174
C  C409  1  0.75724000  0.07458000  0.84374000  1.0 -0.1781294487
C  C410  1  0.70093000  0.04700000  0.77633000  1.0 -0.2004684687
C  C411  1  0.16230000  0.84140000  0.05780000  1.0 -0.0983451494
C  C412  1  0.09760000  0.78473000  0.03260000  1.0 -0.1199442671
C  C413  1  0.73136000  0.10986000  0.82656000  1.0 -0.0983451494
C  C414  1  0.67663000  0.08199000  0.75933000  1.0 -0.0808851497
C  C415  1  0.00010000  0.42330000  0.31610000  1.0 0.2167770219
C  C416  1  0.19478000  0.25928000  0.47778000  1.0 0.2085112471
C  C417  1  0.16030000  0.80330000  0.05820000  1.0 -0.0394493881
C  C418  1  0.69154000  0.11394000  0.78424000  1.0 -0.0394493881
C  C419  1  0.03630000  0.42120000  0.28950000  1.0 -0.220211815
C  C420  1  0.92500000  0.43260000  0.30090000  1.0 -0.220211815
C  C421  1  0.16210000  0.24040000  0.50160000  1.0 -0.2004684687
C  C422  1  0.23840000  0.23972000  0.46160000  1.0 -0.2293790105
C  C423  1  0.22550000  0.78010000  0.08580000  1.0 0.548848464
C  C424  1  0.66806000  0.15212000  0.76596000  1.0 0.5946702611
C  C425  1  0.00210000  0.42770000  0.24660000  1.0 -0.0983451494
C  C426  1  0.89220000  0.43910000  0.25650000  1.0 -0.0740186247
C  C427  1  0.17770000  0.20175000  0.50980000  1.0 -0.0983451494
C  C428  1  0.25300000  0.20125000  0.47090000  1.0 -0.0808851497
C  C429  1  0.93170000  0.43470000  0.23090000  1.0 -0.0394493881
C  C430  1  0.22330000  0.18229000  0.49500000  1.0 -0.0394493881
C  C431  1  0.89570000  0.43820000  0.18440000  1.0 0.5203507921
C  C432  1  0.24060000  0.14130000  0.50610000  1.0 0.5408144128
C  C433  1  0.77876000  0.21100000  0.67016000  1.0 0.5317327651
C  C434  1  0.85388000  0.20003000  0.79178000  1.0 0.548848464
C  C435  1  0.48793000  0.20624000  0.65683000  1.0 0.5408144128
C  C436  1  0.57828000  0.29993000  0.64918000  1.0 0.548848464
C  C437  1  0.55714000  0.27260000  0.77984000  1.0 0.6118379485
C  C438  1  0.49346000  0.29722000  0.75416000  1.0 -0.0394493881
C  C439  1  0.87980000  0.17590000  0.67130000  1.0 0.0900562604
C  C440  1  0.82710000  0.16460000  0.72620000  1.0 0.0291322683
C  C441  1  0.74181000  0.24130000  0.60121000  1.0 0.0209354918
C  C442  1  0.84991000  0.19796000  0.63111000  1.0 0.0900562604
C  C443  1  0.97720000  0.18696000  0.82830000  1.0 0.0803598285
C  C444  1  0.90048000  0.21885000  0.86508000  1.0 0.0209354918
C  C445  1  0.95449000  0.16920000  0.78529000  1.0 0.0998597909
C  C446  1  0.43362000  0.15591000  0.68412000  1.0 0.0291322683
C  C447  1  0.36982000  0.18735000  0.61332000  1.0 0.0900562604
C  C448  1  0.40043000  0.21580000  0.59073000  1.0 0.0998597909
C  C449  1  0.53016000  0.24130000  0.60986000  1.0 0.0209354918
C  C450  1  0.48283000  0.30744000  0.58443000  1.0 0.0998597909
C  C451  1  0.51392000  0.34653000  0.60192000  1.0 0.0998597909
C  C452  1  0.62386000  0.36411000  0.66566000  1.0 0.0291322683
C  C453  1  0.88927000  0.28704000  0.87487000  1.0 0.5317327651
C  C454  1  0.86230000  0.39575000  0.84660000  1.0 0.5408144128
C  C455  1  0.62702000  0.39358000  0.72942000  1.0 0.5615454566
C  C456  1  0.59463000  0.40493000  0.83113000  1.0 0.5317327651
C  C457  1  0.42688000  0.29563000  0.75978000  1.0 -0.0560408531
C  C458  1  0.50080000  0.32106000  0.72500000  1.0 -0.089784093
C  C459  1  0.42153000  0.21315000  0.85093000  1.0 0.5408144128
C  C460  1  0.41793000  0.16365000  0.75063000  1.0 0.5317327651
C  C461  1  0.62173000  0.11985000  0.88773000  1.0 0.548848464
C  C462  1  0.36804000  0.31820000  0.73554000  1.0 -0.1781294487
C  C463  1  0.44238000  0.34319000  0.70088000  1.0 -0.2004684687
C  C464  1  0.66403000  0.08585000  0.90903000  1.0 -0.0264692194
C  C465  1  0.97261000  0.21409000  0.66641000  1.0 0.5317327651
C  C466  1  0.00650000  0.17484000  0.72920000  1.0 0.0291322683
C  C467  1  0.72880000  0.31010000  0.59060000  1.0 0.5118692768
C  C468  1  0.80800000  0.27900000  0.56390000  1.0 0.0998597909
C  C469  1  0.91600000  0.23463000  0.59390000  1.0 0.0112291102
C  C470  1  0.04880000  0.21223000  0.79430000  1.0 0.5118692768
C  C471  1  0.08350000  0.23070000  0.86720000  1.0 0.0112291102
C  C472  1  0.00783000  0.26220000  0.90353000  1.0 0.0998597909
C  C473  1  0.31090000  0.15223000  0.69210000  1.0 0.0900562604
C  C474  1  0.24842000  0.18524000  0.62202000  1.0 0.0209354918
C  C475  1  0.29582000  0.24097000  0.59772000  1.0 0.5203507921
C  C476  1  0.35281000  0.28165000  0.56161000  1.0 0.0209354918
C  C477  1  0.38968000  0.34498000  0.59158000  1.0 0.5118692768
C  C478  1  0.44853000  0.40762000  0.60653000  1.0 0.0112291102
C  C479  1  0.56040000  0.42675000  0.66950000  1.0 0.1095751847
C  C480  1  0.00927000  0.30320000  0.91857000  1.0 0.0900562604
C  C481  1  0.90460000  0.35080000  0.90560000  1.0 0.0112291102
C  C482  1  0.97990000  0.40580000  0.89540000  1.0 0.0998597909
C  C483  1  0.95890000  0.43860000  0.86420000  1.0 0.0998597909
C  C484  1  0.83730000  0.45440000  0.80570000  1.0 0.0209354918
C  C485  1  0.56681000  0.45105000  0.70761000  1.0 0.0998597909
C  C486  1  0.63880000  0.43927000  0.78440000  1.0 0.0209354918
C  C487  1  0.53394000  0.46151000  0.80484000  1.0 0.0998597909
C  C488  1  0.50466000  0.44517000  0.83656000  1.0 0.0998597909
C  C489  1  0.55004000  0.38961000  0.88584000  1.0 0.000709641
C  C490  1  0.37515000  0.34128000  0.70555000  1.0 0.2299362187
C  C491  1  0.31458000  0.24376000  0.84908000  1.0 0.0998597909
C  C492  1  0.43822000  0.26968000  0.89452000  1.0 0.0209354918
C  C493  1  0.29339000  0.20669000  0.82309000  1.0 0.1095751847
C  C494  1  0.37372000  0.15671000  0.80752000  1.0 0.0209354918
C  C495  1  0.29130000  0.15325000  0.73070000  1.0 0.0998597909
C  C496  1  0.65014000  0.05044000  0.88984000  1.0 -0.0808851497
C  C497  1  0.71774000  0.08884000  0.94734000  1.0 -0.089784093
C  C498  1  0.80660000  0.32210000  0.55550000  1.0 0.0900562604
C  C499  1  0.68696000  0.01825000  0.90976000  1.0 -0.1904271094
C  C500  1  0.75752000  0.05751000  0.96772000  1.0 -0.2105317174
C  C501  1  0.72310000  0.37470000  0.56230000  1.0 0.0209354918
C  C502  1  0.92560000  0.30390000  0.59780000  1.0 0.5203507921
C  C503  1  0.08631000  0.29870000  0.88241000  1.0 0.5203507921
C  C504  1  0.22629000  0.20015000  0.68479000  1.0 0.5317327651
C  C505  1  0.44320000  0.43873000  0.66830000  1.0 0.5203507921
C  C506  1  0.08800000  0.35970000  0.91600000  1.0 0.0112291102
C  C507  1  0.06640000  0.41020000  0.86470000  1.0 0.5317327651
C  C508  1  0.03040000  0.47010000  0.82480000  1.0 0.0112291102
C  C509  1  0.79720000  0.45730000  0.72870000  1.0 0.5118692768
C  C510  1  0.90930000  0.48750000  0.76740000  1.0 0.0998597909
C  C511  1  0.46736000  0.47979000  0.72926000  1.0 0.0291322683
C  C512  1  0.40683000  0.45135000  0.77243000  1.0 0.5203507921
C  C513  1  0.37410000  0.43110000  0.83090000  1.0 0.0209354918
C  C514  1  0.50257000  0.32497000  0.88247000  1.0 0.5118692768
C  C515  1  0.41900000  0.37377000  0.87800000  1.0 0.0900562604
C  C516  1  0.24688000  0.35706000  0.66248000  1.0 0.4988033425
C  C517  1  0.23865000  0.25832000  0.78105000  1.0 0.5408144128
C  C518  1  0.26040000  0.31035000  0.83050000  1.0 0.0291322683
C  C519  1  0.38128000  0.33588000  0.87768000  1.0 0.0998597909
C  C520  1  0.20444000  0.19586000  0.74954000  1.0 0.0209354918
C  C521  1  0.74078000  0.02168000  0.94958000  1.0 0.2506912615
C  C522  1  0.91060000  0.36950000  0.57760000  1.0 0.0291322683
C  C523  1  0.89170000  0.49150000  0.72060000  1.0 0.0998597909
C  C524  1  0.19977000  0.38805000  0.63597000  1.0 -0.0079917238
C  C525  1  0.73770000  0.42320000  0.61310000  1.0 0.5203507921
C  C526  1  0.83020000  0.42090000  0.58660000  1.0 0.0612914092
C  C527  1  0.00390000  0.45990000  0.75180000  1.0 0.5118692768
C  C528  1  0.77350000  0.47960000  0.65890000  1.0 0.0291322683
C  C529  1  0.31231000  0.36959000  0.81791000  1.0 0.5118692768
C  C530  1  0.14049000  0.37820000  0.60069000  1.0 -0.1309877297
C  C531  1  0.21544000  0.42590000  0.64634000  1.0 -0.1309877297
C  C532  1  0.75621000  0.95552000  0.96921000  1.0 0.461967918
C  C533  1  0.84530000  0.45360000  0.61700000  1.0 0.0900562604
C  C534  1  0.94590000  0.41480000  0.63410000  1.0 0.4988033425
C  C535  1  0.96260000  0.47160000  0.67610000  1.0 0.0112291102
C  C536  1  0.09715000  0.40635000  0.57515000  1.0 -0.0264692194
C  C537  1  0.17148000  0.45410000  0.62138000  1.0 -0.0211145417
C  C538  1  0.79871000  0.92870000  0.00291000  1.0 -0.0079917238
C  C539  1  0.11327000  0.44382000  0.58567000  1.0 -0.1199442671
C  C540  1  0.03001000  0.39758000  0.53731000  1.0 0.4523529958
C  C541  1  0.18319000  0.49550000  0.63039000  1.0 0.4702586633
C  C542  1  0.82840000  0.93987000  0.04410000  1.0 -0.139043254
C  C543  1  0.80202000  0.89118000  0.99282000  1.0 -0.089784093
C  C544  1  0.86277000  0.91362000  0.07497000  1.0 -0.0079917238
C  C545  1  0.83593000  0.86496000  0.02353000  1.0 -0.0079917238
C  C546  1  0.96100000  0.34410000  0.49420000  1.0 0.2085112471
C  C547  1  0.25818000  0.54287000  0.68168000  1.0 0.2299362187
C  C548  1  0.86623000  0.87630000  0.06443000  1.0 -0.1686338197
C  C549  1  0.89439000  0.92760000  0.11879000  1.0 0.461967918
C  C550  1  0.83891000  0.82431000  0.01021000  1.0 0.4702586633
C  C551  1  0.89760000  0.36208000  0.46830000  1.0 -0.2004684687
C  C552  1  0.96310000  0.30517000  0.49400000  1.0 -0.2105317174
C  C553  1  0.24276000  0.57458000  0.65626000  1.0 -0.1781294487
C  C554  1  0.29907000  0.54700000  0.72367000  1.0 -0.2004684687
C  C555  1  0.83770000  0.34140000  0.44220000  1.0 -0.0983451494
C  C556  1  0.90240000  0.28473000  0.46740000  1.0 -0.1199442671
C  C557  1  0.26864000  0.60986000  0.67344000  1.0 -0.0983451494
C  C558  1  0.32337000  0.58199000  0.74067000  1.0 -0.0808851497
C  C559  1  0.99990000  0.92330000  0.18390000  1.0 0.2167770219
C  C560  1  0.80522000  0.75928000  0.02222000  1.0 0.2085112471
C  C561  1  0.83970000  0.30330000  0.44180000  1.0 -0.0394493881
C  C562  1  0.30846000  0.61394000  0.71576000  1.0 -0.0394493881
C  C563  1  0.96370000  0.92120000  0.21050000  1.0 -0.220211815
C  C564  1  0.07500000  0.93260000  0.19910000  1.0 -0.220211815
C  C565  1  0.83790000  0.74040000  0.99840000  1.0 -0.2105317174
C  C566  1  0.76160000  0.73972000  0.03840000  1.0 -0.2293790105
C  C567  1  0.77450000  0.28010000  0.41420000  1.0 0.548848464
C  C568  1  0.33194000  0.65212000  0.73404000  1.0 0.5946702611
C  C569  1  0.99790000  0.92770000  0.25340000  1.0 -0.0983451494
C  C570  1  0.10780000  0.93910000  0.24350000  1.0 -0.0808851497
C  C571  1  0.82230000  0.70175000  0.99020000  1.0 -0.1054816666
C  C572  1  0.74700000  0.70125000  0.02910000  1.0 -0.0808851497
C  C573  1  0.06830000  0.93470000  0.26910000  1.0 -0.0394493881
C  C574  1  0.77670000  0.68229000  0.00500000  1.0 -0.0394493881
C  C575  1  0.10430000  0.93820000  0.31560000  1.0 0.5203507921
C  C576  1  0.75940000  0.64130000  0.99390000  1.0 0.5408144128
N  N1  1  0.82849000  0.31594000  0.19129000  1.0 -0.2403041812
N  N2  1  0.79416000  0.27803000  0.13626000  1.0 -0.2403041812
N  N3  1  0.91077000  0.29499000  0.32877000  1.0 -0.220211815
N  N4  1  0.87614000  0.32042000  0.26604000  1.0 -0.2497253537
N  N5  1  0.42709000  0.31334000  0.15529000  1.0 -0.2497253537
N  N6  1  0.47496000  0.27862000  0.11906000  1.0 -0.220211815
N  N7  1  0.53016000  0.21856000  0.11516000  1.0 -0.2497253537
N  N8  1  0.56812000  0.16205000  0.14272000  1.0 -0.2497253537
N  N9  1  0.95296000  0.30858000  0.19246000  1.0 -0.2497253537
N  N10  1  0.76553000  0.22275000  0.09123000  1.0 -0.2293790105
N  N11  1  0.91338000  0.28243000  0.13058000  1.0 -0.2293790105
N  N12  1  0.03437000  0.28665000  0.32997000  1.0 -0.220211815
N  N13  1  0.93113000  0.24453000  0.37923000  1.0 -0.2403041812
N  N14  1  0.00094000  0.31300000  0.26764000  1.0 -0.2403041812
N  N15  1  0.38902000  0.33953000  0.20832000  1.0 -0.2403041812
N  N16  1  0.30248000  0.29583000  0.11088000  1.0 -0.2403041812
N  N17  1  0.35320000  0.25129000  0.08660000  1.0 -0.269694687
N  N18  1  0.40836000  0.19094000  0.08246000  1.0 -0.2403041812
N  N19  1  0.45089000  0.13301000  0.10219000  1.0 -0.220211815
N  N20  1  0.59848000  0.10810000  0.18768000  1.0 -0.2403041812
N  N21  1  0.93325000  0.18418000  0.39725000  1.0 -0.2403041812
N  N22  1  0.91558000  0.11779000  0.38198000  1.0 -0.2497253537
N  N23  1  0.88780000  0.07251000  0.33410000  1.0 -0.2403041812
N  N24  1  0.60744000  0.07326000  0.24224000  1.0 -0.2580818226
N  N25  1  0.59044000  0.06496000  0.30604000  1.0 -0.2497253537
N  N26  1  0.54467000  0.09030000  0.34867000  1.0 -0.2105317174
N  N27  1  0.39327000  0.25521000  0.36267000  1.0 -0.2403041812
N  N28  1  0.36407000  0.30892000  0.32727000  1.0 -0.2403041812
N  N29  1  0.36122000  0.33914000  0.26412000  1.0 -0.2497253537
N  N30  1  0.75109000  0.16373000  0.06879000  1.0 -0.2403041812
N  N31  1  0.88559000  0.22815000  0.08559000  1.0 -0.2403041812
N  N32  1  0.05466000  0.23604000  0.38006000  1.0 -0.2403041812
N  N33  1  0.26575000  0.31761000  0.16605000  1.0 -0.220211815
N  N34  1  0.48220000  0.07825000  0.14850000  1.0 -0.2293790105
N  N35  1  0.06106000  0.17821000  0.40436000  1.0 -0.2105317174
N  N36  1  0.04320000  0.11114000  0.38950000  1.0 -0.2293790105
N  N37  1  0.01610000  0.06080000  0.34810000  1.0 -0.2403041812
N  N38  1  0.85190000  0.03930000  0.26820000  1.0 -0.2580818226
N  N39  1  0.49162000  0.04296000  0.20252000  1.0 -0.2403041812
N  N40  1  0.47015000  0.03893000  0.26615000  1.0 -0.269694687
N  N41  1  0.42673000  0.05889000  0.31293000  1.0 -0.2105317174
N  N42  1  0.49068000  0.13681000  0.37938000  1.0 -0.2293790105
N  N43  1  0.31805000  0.13435000  0.18005000  1.0 -0.3606528787
N  N44  1  0.27493000  0.22723000  0.31903000  1.0 -0.2403041812
N  N45  1  0.43829000  0.19156000  0.38049000  1.0 -0.2580818226
N  N46  1  0.24960000  0.27987000  0.28160000  1.0 -0.2580818226
N  N47  1  0.23858000  0.31717000  0.22228000  1.0 -0.2580818226
N  N48  1  0.88140000  0.16544000  0.08150000  1.0 -0.2497253537
N  N49  1  0.76570000  0.09803000  0.09130000  1.0 -0.2004684687
N  N50  1  0.98320000  0.02820000  0.28210000  1.0 -0.2105317174
N  N51  1  0.81850000  0.02386000  0.20130000  1.0 -0.220211815
N  N52  1  0.37201000  0.10849000  0.33951000  1.0 -0.2403041812
N  N53  1  0.32007000  0.16397000  0.33867000  1.0 -0.2497253537
N  N54  1  0.77967000  0.50857000  0.47317000  1.0 -0.3516908336
N  N55  1  0.89520000  0.10060000  0.10060000  1.0 -0.220211815
N  N56  1  0.94930000  0.02900000  0.21390000  1.0 -0.2580818226
N  N57  1  0.78630000  0.04870000  0.13240000  1.0 -0.2497253537
N  N58  1  0.91780000  0.05550000  0.14610000  1.0 -0.2105317174
N  N59  1  0.02384000  0.13746000  0.02284000  1.0 -0.3606528787
N  N60  1  0.23660000  0.99442000  0.16690000  1.0 -0.3724972952
N  N61  1  0.96379000  0.58567000  0.64109000  1.0 -0.389327218
N  N62  1  0.81440000  0.70136000  0.53090000  1.0 -0.3784225706
N  N63  1  0.17151000  0.81594000  0.30871000  1.0 -0.2403041812
N  N64  1  0.20584000  0.77803000  0.36374000  1.0 -0.2403041812
N  N65  1  0.08923000  0.79499000  0.17123000  1.0 -0.220211815
N  N66  1  0.12386000  0.82042000  0.23396000  1.0 -0.2497253537
N  N67  1  0.57291000  0.81334000  0.34471000  1.0 -0.2497253537
N  N68  1  0.52504000  0.77862000  0.38094000  1.0 -0.220211815
N  N69  1  0.46984000  0.71856000  0.38484000  1.0 -0.2497253537
N  N70  1  0.43188000  0.66205000  0.35728000  1.0 -0.2497253537
N  N71  1  0.04704000  0.80858000  0.30754000  1.0 -0.2497253537
N  N72  1  0.23447000  0.72275000  0.40877000  1.0 -0.2293790105
N  N73  1  0.08662000  0.78243000  0.36942000  1.0 -0.2293790105
N  N74  1  0.96563000  0.78665000  0.17003000  1.0 -0.220211815
N  N75  1  0.06887000  0.74453000  0.12077000  1.0 -0.2403041812
N  N76  1  0.99906000  0.81300000  0.23236000  1.0 -0.2293790105
N  N77  1  0.61098000  0.83953000  0.29168000  1.0 -0.2403041812
N  N78  1  0.69752000  0.79583000  0.38912000  1.0 -0.2403041812
N  N79  1  0.64680000  0.75129000  0.41340000  1.0 -0.269694687
N  N80  1  0.59164000  0.69094000  0.41754000  1.0 -0.2403041812
N  N81  1  0.54911000  0.63301000  0.39781000  1.0 -0.220211815
N  N82  1  0.40152000  0.60810000  0.31232000  1.0 -0.2403041812
N  N83  1  0.06675000  0.68418000  0.10275000  1.0 -0.2497253537
N  N84  1  0.08442000  0.61779000  0.11802000  1.0 -0.2497253537
N  N85  1  0.11220000  0.57251000  0.16590000  1.0 -0.2403041812
N  N86  1  0.39256000  0.57326000  0.25776000  1.0 -0.2580818226
N  N87  1  0.40956000  0.56496000  0.19396000  1.0 -0.2497253537
N  N88  1  0.45533000  0.59030000  0.15133000  1.0 -0.2105317174
N  N89  1  0.60673000  0.75521000  0.13733000  1.0 -0.2403041812
N  N90  1  0.63593000  0.80892000  0.17273000  1.0 -0.2403041812
N  N91  1  0.63878000  0.83914000  0.23588000  1.0 -0.2497253537
N  N92  1  0.24891000  0.66373000  0.43121000  1.0 -0.2403041812
N  N93  1  0.11441000  0.72815000  0.41441000  1.0 -0.2497253537
N  N94  1  0.94534000  0.73604000  0.11994000  1.0 -0.2403041812
N  N95  1  0.73425000  0.81761000  0.33395000  1.0 -0.220211815
N  N96  1  0.51780000  0.57825000  0.35150000  1.0 -0.2293790105
N  N97  1  0.93894000  0.67821000  0.09564000  1.0 -0.2105317174
N  N98  1  0.95680000  0.61114000  0.11050000  1.0 -0.2293790105
N  N99  1  0.98390000  0.56080000  0.15190000  1.0 -0.2403041812
N  N100  1  0.14810000  0.53930000  0.23180000  1.0 -0.2580818226
N  N101  1  0.50838000  0.54296000  0.29748000  1.0 -0.2403041812
N  N102  1  0.52985000  0.53893000  0.23385000  1.0 -0.269694687
N  N103  1  0.57327000  0.55889000  0.18707000  1.0 -0.2105317174
N  N104  1  0.50932000  0.63681000  0.12062000  1.0 -0.2293790105
N  N105  1  0.68195000  0.63435000  0.31995000  1.0 -0.3606528787
N  N106  1  0.72507000  0.72723000  0.18097000  1.0 -0.2403041812
N  N107  1  0.56171000  0.69156000  0.11951000  1.0 -0.2580818226
N  N108  1  0.75040000  0.77987000  0.21840000  1.0 -0.2580818226
N  N109  1  0.76142000  0.81717000  0.27772000  1.0 -0.2580818226
N  N110  1  0.11860000  0.66544000  0.41850000  1.0 -0.2497253537
N  N111  1  0.23430000  0.59803000  0.40870000  1.0 -0.2004684687
N  N112  1  0.01680000  0.52820000  0.21790000  1.0 -0.2004684687
N  N113  1  0.18150000  0.52386000  0.29870000  1.0 -0.220211815
N  N114  1  0.62799000  0.60849000  0.16049000  1.0 -0.2403041812
N  N115  1  0.67993000  0.66397000  0.16133000  1.0 -0.2497253537
N  N116  1  0.22033000  0.00857000  0.02683000  1.0 -0.3516908336
N  N117  1  0.10480000  0.60060000  0.39940000  1.0 -0.220211815
N  N118  1  0.05070000  0.52900000  0.28610000  1.0 -0.2580818226
N  N119  1  0.21370000  0.54870000  0.36760000  1.0 -0.2497253537
N  N120  1  0.08220000  0.55550000  0.35390000  1.0 -0.2105317174
N  N121  1  0.97616000  0.63746000  0.47716000  1.0 -0.3606528787
N  N122  1  0.76340000  0.49442000  0.33310000  1.0 -0.3724972952
N  N123  1  0.03621000  0.08567000  0.85891000  1.0 -0.389327218
N  N124  1  0.18560000  0.20136000  0.96910000  1.0 -0.3784225706
N  N125  1  0.17151000  0.68406000  0.80871000  1.0 -0.2293790105
N  N126  1  0.20584000  0.72197000  0.86374000  1.0 -0.2403041812
N  N127  1  0.08923000  0.70501000  0.67123000  1.0 -0.2293790105
N  N128  1  0.12386000  0.67958000  0.73396000  1.0 -0.2497253537
N  N129  1  0.57291000  0.68666000  0.84471000  1.0 -0.2497253537
N  N130  1  0.52504000  0.72138000  0.88094000  1.0 -0.220211815
N  N131  1  0.46984000  0.78144000  0.88484000  1.0 -0.2580818226
N  N132  1  0.43188000  0.83795000  0.85728000  1.0 -0.2497253537
N  N133  1  0.04704000  0.69142000  0.80754000  1.0 -0.2497253537
N  N134  1  0.23447000  0.77725000  0.90877000  1.0 -0.2293790105
N  N135  1  0.08662000  0.71757000  0.86942000  1.0 -0.2293790105
N  N136  1  0.96563000  0.71335000  0.67003000  1.0 -0.220211815
N  N137  1  0.06887000  0.75547000  0.62077000  1.0 -0.2403041812
N  N138  1  0.99906000  0.68700000  0.73236000  1.0 -0.2293790105
N  N139  1  0.61098000  0.66047000  0.79168000  1.0 -0.2403041812
N  N140  1  0.69752000  0.70417000  0.88912000  1.0 -0.2403041812
N  N141  1  0.64680000  0.74871000  0.91340000  1.0 -0.269694687
N  N142  1  0.59164000  0.80906000  0.91754000  1.0 -0.2403041812
N  N143  1  0.54911000  0.86699000  0.89781000  1.0 -0.220211815
N  N144  1  0.40152000  0.89190000  0.81232000  1.0 -0.2403041812
N  N145  1  0.06675000  0.81582000  0.60275000  1.0 -0.2497253537
N  N146  1  0.08442000  0.88221000  0.61802000  1.0 -0.2497253537
N  N147  1  0.11220000  0.92749000  0.66590000  1.0 -0.2403041812
N  N148  1  0.39256000  0.92674000  0.75776000  1.0 -0.2580818226
N  N149  1  0.40956000  0.93504000  0.69396000  1.0 -0.2497253537
N  N150  1  0.45533000  0.90970000  0.65133000  1.0 -0.2105317174
N  N151  1  0.60673000  0.74479000  0.63733000  1.0 -0.2293790105
N  N152  1  0.63593000  0.69108000  0.67273000  1.0 -0.2403041812
N  N153  1  0.63878000  0.66086000  0.73588000  1.0 -0.2497253537
N  N154  1  0.24891000  0.83627000  0.93121000  1.0 -0.2403041812
N  N155  1  0.11441000  0.77185000  0.91441000  1.0 -0.2497253537
N  N156  1  0.94534000  0.76396000  0.61994000  1.0 -0.2403041812
N  N157  1  0.73425000  0.68239000  0.83395000  1.0 -0.220211815
N  N158  1  0.51780000  0.92175000  0.85150000  1.0 -0.2293790105
N  N159  1  0.93894000  0.82179000  0.59564000  1.0 -0.2105317174
N  N160  1  0.95680000  0.88886000  0.61050000  1.0 -0.2293790105
N  N161  1  0.98390000  0.93920000  0.65190000  1.0 -0.2403041812
N  N162  1  0.14810000  0.96070000  0.73180000  1.0 -0.2580818226
N  N163  1  0.50838000  0.95704000  0.79748000  1.0 -0.2403041812
N  N164  1  0.52985000  0.96107000  0.73385000  1.0 -0.269694687
N  N165  1  0.57327000  0.94111000  0.68707000  1.0 -0.2105317174
N  N166  1  0.50932000  0.86319000  0.62062000  1.0 -0.2293790105
N  N167  1  0.68195000  0.86565000  0.81995000  1.0 -0.3606528787
N  N168  1  0.72507000  0.77277000  0.68097000  1.0 -0.2403041812
N  N169  1  0.56171000  0.80844000  0.61951000  1.0 -0.2580818226
N  N170  1  0.75040000  0.72013000  0.71840000  1.0 -0.2580818226
N  N171  1  0.76142000  0.68283000  0.77772000  1.0 -0.2580818226
N  N172  1  0.11860000  0.83456000  0.91850000  1.0 -0.2497253537
N  N173  1  0.23430000  0.90197000  0.90870000  1.0 -0.2105317174
N  N174  1  0.01680000  0.97180000  0.71790000  1.0 -0.2004684687
N  N175  1  0.18150000  0.97614000  0.79870000  1.0 -0.220211815
N  N176  1  0.62799000  0.89151000  0.66049000  1.0 -0.2403041812
N  N177  1  0.67993000  0.83603000  0.66133000  1.0 -0.2497253537
N  N178  1  0.22033000  0.49143000  0.52683000  1.0 -0.3516908336
N  N179  1  0.10480000  0.89940000  0.89940000  1.0 -0.220211815
N  N180  1  0.05070000  0.97100000  0.78610000  1.0 -0.2580818226
N  N181  1  0.21370000  0.95130000  0.86760000  1.0 -0.2497253537
N  N182  1  0.08220000  0.94450000  0.85390000  1.0 -0.2105317174
N  N183  1  0.97616000  0.86254000  0.97716000  1.0 -0.3606528787
N  N184  1  0.76340000  0.00558000  0.83310000  1.0 -0.3724972952
N  N185  1  0.03621000  0.41433000  0.35891000  1.0 -0.389327218
N  N186  1  0.18560000  0.29864000  0.46910000  1.0 -0.3784225706
N  N187  1  0.82849000  0.18406000  0.69129000  1.0 -0.2403041812
N  N188  1  0.79416000  0.22197000  0.63626000  1.0 -0.2403041812
N  N189  1  0.91077000  0.20501000  0.82877000  1.0 -0.2293790105
N  N190  1  0.87614000  0.17958000  0.76604000  1.0 -0.2497253537
N  N191  1  0.42709000  0.18666000  0.65529000  1.0 -0.2497253537
N  N192  1  0.47496000  0.22138000  0.61906000  1.0 -0.220211815
N  N193  1  0.53016000  0.28144000  0.61516000  1.0 -0.2580818226
N  N194  1  0.56812000  0.33795000  0.64272000  1.0 -0.2497253537
N  N195  1  0.95296000  0.19142000  0.69246000  1.0 -0.2497253537
N  N196  1  0.76553000  0.27725000  0.59123000  1.0 -0.2293790105
N  N197  1  0.91338000  0.21757000  0.63058000  1.0 -0.2293790105
N  N198  1  0.03437000  0.21335000  0.82997000  1.0 -0.220211815
N  N199  1  0.93113000  0.25547000  0.87923000  1.0 -0.2403041812
N  N200  1  0.00094000  0.18700000  0.76764000  1.0 -0.2403041812
N  N201  1  0.38902000  0.16047000  0.70832000  1.0 -0.2403041812
N  N202  1  0.30248000  0.20417000  0.61088000  1.0 -0.2403041812
N  N203  1  0.35320000  0.24871000  0.58660000  1.0 -0.269694687
N  N204  1  0.40836000  0.30906000  0.58246000  1.0 -0.2403041812
N  N205  1  0.45089000  0.36699000  0.60219000  1.0 -0.220211815
N  N206  1  0.59848000  0.39190000  0.68768000  1.0 -0.2403041812
N  N207  1  0.93325000  0.31582000  0.89725000  1.0 -0.2403041812
N  N208  1  0.91558000  0.38221000  0.88198000  1.0 -0.2497253537
N  N209  1  0.88780000  0.42749000  0.83410000  1.0 -0.2403041812
N  N210  1  0.60744000  0.42674000  0.74224000  1.0 -0.2580818226
N  N211  1  0.59044000  0.43504000  0.80604000  1.0 -0.2497253537
N  N212  1  0.54467000  0.40970000  0.84867000  1.0 -0.2105317174
N  N213  1  0.39327000  0.24479000  0.86267000  1.0 -0.2403041812
N  N214  1  0.36407000  0.19108000  0.82727000  1.0 -0.2403041812
N  N215  1  0.36122000  0.16086000  0.76412000  1.0 -0.2497253537
N  N216  1  0.75109000  0.33627000  0.56879000  1.0 -0.2403041812
N  N217  1  0.88559000  0.27185000  0.58559000  1.0 -0.2403041812
N  N218  1  0.05466000  0.26396000  0.88006000  1.0 -0.2403041812
N  N219  1  0.26575000  0.18239000  0.66605000  1.0 -0.220211815
N  N220  1  0.48220000  0.42175000  0.64850000  1.0 -0.2293790105
N  N221  1  0.06106000  0.32179000  0.90436000  1.0 -0.2105317174
N  N222  1  0.04320000  0.38886000  0.88950000  1.0 -0.2293790105
N  N223  1  0.01610000  0.43920000  0.84810000  1.0 -0.2403041812
N  N224  1  0.85190000  0.46070000  0.76820000  1.0 -0.2580818226
N  N225  1  0.49162000  0.45704000  0.70252000  1.0 -0.2403041812
N  N226  1  0.47015000  0.46107000  0.76615000  1.0 -0.269694687
N  N227  1  0.42673000  0.44111000  0.81293000  1.0 -0.2105317174
N  N228  1  0.49068000  0.36319000  0.87938000  1.0 -0.2293790105
N  N229  1  0.31805000  0.36565000  0.68005000  1.0 -0.3606528787
N  N230  1  0.27493000  0.27277000  0.81903000  1.0 -0.2403041812
N  N231  1  0.43829000  0.30844000  0.88049000  1.0 -0.2580818226
N  N232  1  0.24960000  0.22013000  0.78160000  1.0 -0.2580818226
N  N233  1  0.23858000  0.18283000  0.72228000  1.0 -0.2580818226
N  N234  1  0.88140000  0.33456000  0.58150000  1.0 -0.2497253537
N  N235  1  0.76570000  0.40197000  0.59130000  1.0 -0.2105317174
N  N236  1  0.98320000  0.47180000  0.78210000  1.0 -0.2004684687
N  N237  1  0.81850000  0.47614000  0.70130000  1.0 -0.220211815
N  N238  1  0.37201000  0.39151000  0.83951000  1.0 -0.2403041812
N  N239  1  0.32007000  0.33603000  0.83867000  1.0 -0.2497253537
N  N240  1  0.77967000  0.99143000  0.97317000  1.0 -0.3516908336
N  N241  1  0.89520000  0.39940000  0.60060000  1.0 -0.220211815
N  N242  1  0.94930000  0.47100000  0.71390000  1.0 -0.2580818226
N  N243  1  0.78630000  0.45130000  0.63240000  1.0 -0.2497253537
N  N244  1  0.91780000  0.44450000  0.64610000  1.0 -0.2105317174
N  N245  1  0.02384000  0.36254000  0.52284000  1.0 -0.3606528787
N  N246  1  0.23660000  0.50558000  0.66690000  1.0 -0.3724972952
N  N247  1  0.96379000  0.91433000  0.14109000  1.0 -0.389327218
N  N248  1  0.81440000  0.79864000  0.03090000  1.0 -0.3784225706
N  N249  1  0.30759000  0.98639000  0.45989000  1.0 -0.6484147656
N  N250  1  0.69241000  0.48639000  0.04011000  1.0 -0.6792166579
N  N251  1  0.69241000  0.01361000  0.54011000  1.0 -0.6792166579
N  N252  1  0.30759000  0.51361000  0.95989000  1.0 -0.6484147656
O  O1  1  0.72911000  0.27740000  0.18030000  1.0 -0.5686405274
O  O2  1  0.79140000  0.28764000  0.28383000  1.0 -0.5493608821
O  O3  1  0.54500000  0.29141000  0.18729000  1.0 -0.5795841563
O  O4  1  0.62313000  0.21503000  0.18008000  1.0 -0.5402437794
O  O5  1  0.61770000  0.22289000  0.27595000  1.0 -0.6792166579
O  O6  1  0.75547000  0.20721000  0.26097000  1.0 -0.3606528787
O  O7  1  0.66588000  0.34194000  0.22957000  1.0 -0.6159520644
O  O8  1  0.65396000  0.32218000  0.28726000  1.0 -0.6614022526
O  O9  1  0.82360000  0.21009000  0.35490000  1.0 -0.5493608821
O  O10  1  0.80169000  0.11833000  0.32919000  1.0 -0.6092534809
O  O11  1  0.66488000  0.13128000  0.25258000  1.0 -0.5878047594
O  O12  1  0.63633000  0.12230000  0.33663000  1.0 -0.5609946895
O  O13  1  0.69337000  0.19182000  0.37777000  1.0 -0.1309877297
O  O14  1  0.54694000  0.25066000  0.30444000  1.0 -0.6092534809
O  O15  1  0.48654000  0.29430000  0.36104000  1.0 -0.5609946895
O  O16  1  0.48204000  0.33275000  0.27219000  1.0 -0.5402437794
O  O17  1  0.63438000  0.34948000  0.40718000  1.0 -0.6018451202
O  O18  1  0.57508000  0.38276000  0.35088000  1.0 -0.6283657301
O  O19  1  0.72641000  0.29641000  0.38391000  1.0 -0.6283657301
O  O20  1  0.03411000  0.27230000  0.17410000  1.0 -0.5878047594
O  O21  1  0.68296000  0.18513000  0.10576000  1.0 -0.5181483853
O  O22  1  0.09549000  0.27019000  0.28739000  1.0 -0.4789771411
O  O23  1  0.24644000  0.23732000  0.09544000  1.0 -0.4193185635
O  O24  1  0.32932000  0.14530000  0.08932000  1.0 -0.4789771411
O  O25  1  0.99192000  0.19404000  0.11872000  1.0 -0.5878047594
O  O26  1  0.13082000  0.19308000  0.36682000  1.0 -0.5116513639
O  O27  1  0.18351000  0.27324000  0.16991000  1.0 -0.5795841563
O  O28  1  0.37659000  0.06154000  0.15806000  1.0 -0.5116513639
O  O29  1  0.12270000  0.09545000  0.35750000  1.0 -0.4965988147
O  O30  1  0.73900000  0.05815000  0.22170000  1.0 -0.5116513639
O  O31  1  0.34433000  0.04752000  0.24603000  1.0 -0.5116513639
O  O32  1  0.55965000  0.19121000  0.38715000  1.0 -0.440457021
O  O33  1  0.22031000  0.17337000  0.16716000  1.0 -0.5116513639
O  O34  1  0.20048000  0.22356000  0.25008000  1.0 -0.5686405274
O  O35  1  0.67751000  0.08078000  0.11581000  1.0 -0.5493608821
O  O36  1  0.11205000  0.21893000  0.09805000  1.0 -0.220211815
O  O37  1  0.12136000  0.14440000  0.20566000  1.0 0.0518680689
O  O38  1  0.04527000  0.20745000  0.22737000  1.0 -0.0211145417
O  O39  1  0.06300000  0.05330000  0.25630000  1.0 -0.4601896453
O  O40  1  0.26091000  0.12134000  0.28591000  1.0 -0.471683738
O  O41  1  0.70249000  0.55543000  0.44079000  1.0 -0.4193185635
O  O42  1  0.01070000  0.09676000  0.15170000  1.0 -0.4898447889
O  O43  1  0.98276000  0.07838000  0.02176000  1.0 -0.4789771411
O  O44  1  0.14741000  0.98081000  0.10521000  1.0 -0.4601896453
O  O45  1  0.87016000  0.54744000  0.63036000  1.0 -0.4193185635
O  O46  1  0.85880000  0.68321000  0.48200000  1.0 -0.4193185635
O  O47  1  0.77492000  0.25384000  0.92382000  1.0 -0.4898447889
O  O48  1  0.06150000  0.56750000  0.83900000  1.0 -0.6614022526
O  O49  1  0.16720000  0.55230000  0.83070000  1.0 -0.5116513639
O  O50  1  0.72200000  0.87560000  0.51320000  1.0 -0.6159520644
O  O51  1  0.78710000  0.87395000  0.47150000  1.0 -0.6092534809
O  O52  1  0.27089000  0.77740000  0.31970000  1.0 -0.5686405274
O  O53  1  0.20860000  0.78764000  0.21617000  1.0 -0.5493608821
O  O54  1  0.45500000  0.79141000  0.31271000  1.0 -0.5795841563
O  O55  1  0.37687000  0.71503000  0.31992000  1.0 -0.5402437794
O  O56  1  0.38230000  0.72289000  0.22405000  1.0 -0.6792166579
O  O57  1  0.24453000  0.70721000  0.23903000  1.0 -0.3606528787
O  O58  1  0.33412000  0.84194000  0.27043000  1.0 -0.6159520644
O  O59  1  0.34604000  0.82218000  0.21274000  1.0 -0.6614022526
O  O60  1  0.17640000  0.71009000  0.14510000  1.0 -0.5402437794
O  O61  1  0.19831000  0.61833000  0.17081000  1.0 -0.6092534809
O  O62  1  0.33512000  0.63128000  0.24742000  1.0 -0.5878047594
O  O63  1  0.36367000  0.62230000  0.16337000  1.0 -0.5609946895
O  O64  1  0.30663000  0.69182000  0.12223000  1.0 -0.1309877297
O  O65  1  0.45306000  0.75066000  0.19556000  1.0 -0.6092534809
O  O66  1  0.51346000  0.79430000  0.13896000  1.0 -0.5609946895
O  O67  1  0.51796000  0.83275000  0.22781000  1.0 -0.5402437794
O  O68  1  0.36562000  0.84948000  0.09282000  1.0 -0.6018451202
O  O69  1  0.42492000  0.88276000  0.14912000  1.0 -0.6283657301
O  O70  1  0.27359000  0.79641000  0.11609000  1.0 -0.6283657301
O  O71  1  0.96589000  0.77230000  0.32590000  1.0 -0.5878047594
O  O72  1  0.31704000  0.68513000  0.39424000  1.0 -0.5181483853
O  O73  1  0.90451000  0.77019000  0.21261000  1.0 -0.4789771411
O  O74  1  0.75356000  0.73732000  0.40456000  1.0 -0.4193185635
O  O75  1  0.67068000  0.64530000  0.41068000  1.0 -0.4789771411
O  O76  1  0.00808000  0.69404000  0.38128000  1.0 -0.5878047594
O  O77  1  0.86918000  0.69308000  0.13318000  1.0 -0.5116513639
O  O78  1  0.81649000  0.77324000  0.33009000  1.0 -0.5795841563
O  O79  1  0.62341000  0.56154000  0.34194000  1.0 -0.5116513639
O  O80  1  0.87730000  0.59545000  0.14250000  1.0 -0.4898447889
O  O81  1  0.26100000  0.55815000  0.27830000  1.0 -0.5116513639
O  O82  1  0.65567000  0.54752000  0.25397000  1.0 -0.5116513639
O  O83  1  0.44035000  0.69121000  0.11285000  1.0 -0.440457021
O  O84  1  0.77969000  0.67337000  0.33284000  1.0 -0.5116513639
O  O85  1  0.79952000  0.72356000  0.24992000  1.0 -0.5686405274
O  O86  1  0.32249000  0.58078000  0.38419000  1.0 -0.5493608821
O  O87  1  0.88795000  0.71893000  0.40195000  1.0 -0.220211815
O  O88  1  0.87864000  0.64440000  0.29434000  1.0 0.0612914092
O  O89  1  0.95473000  0.70745000  0.27263000  1.0 -0.0211145417
O  O90  1  0.93700000  0.55330000  0.24370000  1.0 -0.4601896453
O  O91  1  0.73909000  0.62134000  0.21409000  1.0 -0.471683738
O  O92  1  0.29751000  0.05543000  0.05921000  1.0 -0.4193185635
O  O93  1  0.98930000  0.59676000  0.34830000  1.0 -0.4898447889
O  O94  1  0.01724000  0.57838000  0.47824000  1.0 -0.4789771411
O  O95  1  0.85259000  0.48081000  0.39479000  1.0 -0.4601896453
O  O96  1  0.12984000  0.04744000  0.86964000  1.0 -0.4193185635
O  O97  1  0.14120000  0.18321000  0.01800000  1.0 -0.4193185635
O  O98  1  0.22508000  0.75384000  0.57618000  1.0 -0.4898447889
O  O99  1  0.93850000  0.06750000  0.66100000  1.0 -0.6614022526
O  O100  1  0.83280000  0.05230000  0.66930000  1.0 -0.5116513639
O  O101  1  0.27800000  0.37560000  0.98680000  1.0 -0.6159520644
O  O102  1  0.21290000  0.37395000  0.02850000  1.0 -0.6018451202
O  O103  1  0.27089000  0.72260000  0.81970000  1.0 -0.5686405274
O  O104  1  0.20860000  0.71236000  0.71617000  1.0 -0.5493608821
O  O105  1  0.45500000  0.70859000  0.81271000  1.0 -0.5795841563
O  O106  1  0.37687000  0.78497000  0.81992000  1.0 -0.5402437794
O  O107  1  0.38230000  0.77711000  0.72405000  1.0 -0.6792166579
O  O108  1  0.24453000  0.79279000  0.73903000  1.0 -0.3606528787
O  O109  1  0.33412000  0.65806000  0.77043000  1.0 -0.6159520644
O  O110  1  0.34604000  0.67782000  0.71274000  1.0 -0.6614022526
O  O111  1  0.17640000  0.78991000  0.64510000  1.0 -0.5402437794
O  O112  1  0.19831000  0.88167000  0.67081000  1.0 -0.6092534809
O  O113  1  0.33512000  0.86872000  0.74742000  1.0 -0.5878047594
O  O114  1  0.36367000  0.87770000  0.66337000  1.0 -0.5609946895
O  O115  1  0.30663000  0.80818000  0.62223000  1.0 -0.1309877297
O  O116  1  0.45306000  0.74934000  0.69556000  1.0 -0.6092534809
O  O117  1  0.51346000  0.70570000  0.63896000  1.0 -0.5609946895
O  O118  1  0.51796000  0.66725000  0.72781000  1.0 -0.5402437794
O  O119  1  0.36562000  0.65052000  0.59282000  1.0 -0.6018451202
O  O120  1  0.42492000  0.61724000  0.64912000  1.0 -0.6283657301
O  O121  1  0.27359000  0.70359000  0.61609000  1.0 -0.6283657301
O  O122  1  0.96589000  0.72770000  0.82590000  1.0 -0.5878047594
O  O123  1  0.31704000  0.81487000  0.89424000  1.0 -0.5181483853
O  O124  1  0.90451000  0.72981000  0.71261000  1.0 -0.4789771411
O  O125  1  0.75356000  0.76268000  0.90456000  1.0 -0.4193185635
O  O126  1  0.67068000  0.85470000  0.91068000  1.0 -0.4789771411
O  O127  1  0.00808000  0.80596000  0.88128000  1.0 -0.5878047594
O  O128  1  0.86918000  0.80692000  0.63318000  1.0 -0.5116513639
O  O129  1  0.81649000  0.72676000  0.83009000  1.0 -0.5795841563
O  O130  1  0.62341000  0.93846000  0.84194000  1.0 -0.5116513639
O  O131  1  0.87730000  0.90455000  0.64250000  1.0 -0.4898447889
O  O132  1  0.26100000  0.94185000  0.77830000  1.0 -0.5116513639
O  O133  1  0.65567000  0.95248000  0.75397000  1.0 -0.5116513639
O  O134  1  0.44035000  0.80879000  0.61285000  1.0 -0.440457021
O  O135  1  0.77969000  0.82663000  0.83284000  1.0 -0.5116513639
O  O136  1  0.79952000  0.77644000  0.74992000  1.0 -0.5686405274
O  O137  1  0.32249000  0.91922000  0.88419000  1.0 -0.5493608821
O  O138  1  0.88795000  0.78107000  0.90195000  1.0 -0.220211815
O  O139  1  0.87864000  0.85560000  0.79434000  1.0 0.0612914092
O  O140  1  0.95473000  0.79255000  0.77263000  1.0 -0.0211145417
O  O141  1  0.93700000  0.94670000  0.74370000  1.0 -0.4601896453
O  O142  1  0.73909000  0.87866000  0.71409000  1.0 -0.471683738
O  O143  1  0.29751000  0.44457000  0.55921000  1.0 -0.4193185635
O  O144  1  0.98930000  0.90324000  0.84830000  1.0 -0.4898447889
O  O145  1  0.01724000  0.92162000  0.97824000  1.0 -0.4789771411
O  O146  1  0.85259000  0.01919000  0.89479000  1.0 -0.4601896453
O  O147  1  0.12984000  0.45256000  0.36964000  1.0 -0.4193185635
O  O148  1  0.14120000  0.31679000  0.51800000  1.0 -0.4193185635
O  O149  1  0.22508000  0.74616000  0.07618000  1.0 -0.4898447889
O  O150  1  0.93850000  0.43250000  0.16100000  1.0 -0.6614022526
O  O151  1  0.83280000  0.44770000  0.16930000  1.0 -0.5181483853
O  O152  1  0.27800000  0.12440000  0.48680000  1.0 -0.6159520644
O  O153  1  0.21290000  0.12605000  0.52850000  1.0 -0.6018451202
O  O154  1  0.72911000  0.22260000  0.68030000  1.0 -0.5686405274
O  O155  1  0.79140000  0.21236000  0.78383000  1.0 -0.5493608821
O  O156  1  0.54500000  0.20859000  0.68729000  1.0 -0.5795841563
O  O157  1  0.62313000  0.28497000  0.68008000  1.0 -0.5402437794
O  O158  1  0.61770000  0.27711000  0.77595000  1.0 -0.6792166579
O  O159  1  0.75547000  0.29279000  0.76097000  1.0 -0.3606528787
O  O160  1  0.66588000  0.15806000  0.72957000  1.0 -0.6159520644
O  O161  1  0.65396000  0.17782000  0.78726000  1.0 -0.6614022526
O  O162  1  0.82360000  0.28991000  0.85490000  1.0 -0.5493608821
O  O163  1  0.80169000  0.38167000  0.82919000  1.0 -0.6092534809
O  O164  1  0.66488000  0.36872000  0.75258000  1.0 -0.5878047594
O  O165  1  0.63633000  0.37770000  0.83663000  1.0 -0.5609946895
O  O166  1  0.69337000  0.30818000  0.87777000  1.0 -0.1309877297
O  O167  1  0.54694000  0.24934000  0.80444000  1.0 -0.6092534809
O  O168  1  0.48654000  0.20570000  0.86104000  1.0 -0.5609946895
O  O169  1  0.48204000  0.16725000  0.77219000  1.0 -0.5402437794
O  O170  1  0.63438000  0.15052000  0.90718000  1.0 -0.6018451202
O  O171  1  0.57508000  0.11724000  0.85088000  1.0 -0.6283657301
O  O172  1  0.72641000  0.20359000  0.88391000  1.0 -0.6283657301
O  O173  1  0.03411000  0.22770000  0.67410000  1.0 -0.5878047594
O  O174  1  0.68296000  0.31487000  0.60576000  1.0 -0.5181483853
O  O175  1  0.09549000  0.22981000  0.78739000  1.0 -0.4789771411
O  O176  1  0.24644000  0.26268000  0.59544000  1.0 -0.4193185635
O  O177  1  0.32932000  0.35470000  0.58932000  1.0 -0.4789771411
O  O178  1  0.99192000  0.30596000  0.61872000  1.0 -0.5878047594
O  O179  1  0.13082000  0.30692000  0.86682000  1.0 -0.5116513639
O  O180  1  0.18351000  0.22676000  0.66991000  1.0 -0.5795841563
O  O181  1  0.37659000  0.43846000  0.65806000  1.0 -0.5116513639
O  O182  1  0.12270000  0.40455000  0.85750000  1.0 -0.4965988147
O  O183  1  0.73900000  0.44185000  0.72170000  1.0 -0.5116513639
O  O184  1  0.34433000  0.45248000  0.74603000  1.0 -0.5116513639
O  O185  1  0.55965000  0.30879000  0.88715000  1.0 -0.440457021
O  O186  1  0.22031000  0.32663000  0.66716000  1.0 -0.5116513639
O  O187  1  0.20048000  0.27644000  0.75008000  1.0 -0.5686405274
O  O188  1  0.67751000  0.41922000  0.61581000  1.0 -0.5493608821
O  O189  1  0.11205000  0.28107000  0.59805000  1.0 -0.220211815
O  O190  1  0.12136000  0.35560000  0.70566000  1.0 0.0518680689
O  O191  1  0.04527000  0.29255000  0.72737000  1.0 -0.0211145417
O  O192  1  0.06300000  0.44670000  0.75630000  1.0 -0.4601896453
O  O193  1  0.26091000  0.37866000  0.78591000  1.0 -0.471683738
O  O194  1  0.70249000  0.94457000  0.94079000  1.0 -0.4193185635
O  O195  1  0.01070000  0.40324000  0.65170000  1.0 -0.4898447889
O  O196  1  0.98276000  0.42162000  0.52176000  1.0 -0.4789771411
O  O197  1  0.14741000  0.51919000  0.60521000  1.0 -0.4601896453
O  O198  1  0.87016000  0.95256000  0.13036000  1.0 -0.4193185635
O  O199  1  0.85880000  0.81679000  0.98200000  1.0 -0.4193185635
O  O200  1  0.77492000  0.24616000  0.42382000  1.0 -0.4898447889
O  O201  1  0.06150000  0.93250000  0.33900000  1.0 -0.6614022526
O  O202  1  0.16720000  0.94770000  0.33070000  1.0 -0.5116513639
O  O203  1  0.72200000  0.62440000  0.01320000  1.0 -0.6159520644
O  O204  1  0.78710000  0.62605000  0.97150000  1.0 -0.6018451202
