# DDEC6 charges by PACMAN v1.1 (https://github.com/mtap-research/PACMAN-charge/)
data_WULWUY_ion_pacman
_symmetry_space_group_name_H-M   'P 1'
_cell_length_a   19.50450000
_cell_length_b   34.00920000
_cell_length_c   34.91930000
_cell_angle_alpha   90.00000000
_cell_angle_beta   109.63200000
_cell_angle_gamma   90.00000000
_symmetry_Int_Tables_number   1
_chemical_formula_structural   Sr4H124C144N63O53
_chemical_formula_sum   'Sr16 H496 C576 N252 O212'
_cell_volume   21816.63219824
_cell_formula_units_Z   4
loop_
 _symmetry_equiv_pos_site_id
 _symmetry_equiv_pos_as_xyz
  1  'x, y, z'
loop_
 _atom_site_type_symbol
 _atom_site_label
 _atom_site_symmetry_multiplicity
 _atom_site_fract_x
 _atom_site_fract_y
 _atom_site_fract_z
 _atom_site_occupancy
 _atom_site_charge
Sr  Sr1  1  0.09894000  0.26892000  0.64122000  1.0 1.4721818389
Sr  Sr2  1  0.64567000  0.20742000  0.72383000  1.0 1.4530712189
Sr  Sr3  1  0.55117000  0.18149000  0.80836000  1.0 1.4366112771
Sr  Sr4  1  0.59297000  0.28817000  0.86940000  1.0 1.4618985774
Sr  Sr5  1  0.90106000  0.76892000  0.85878000  1.0 1.4721818389
Sr  Sr6  1  0.35433000  0.70742000  0.77617000  1.0 1.4530712189
Sr  Sr7  1  0.44883000  0.68149000  0.69164000  1.0 1.4366112771
Sr  Sr8  1  0.40703000  0.78817000  0.63060000  1.0 1.4618985774
Sr  Sr9  1  0.90106000  0.73108000  0.35878000  1.0 1.4721818389
Sr  Sr10  1  0.35433000  0.79258000  0.27617000  1.0 1.4530712189
Sr  Sr11  1  0.44883000  0.81851000  0.19164000  1.0 1.4366112771
Sr  Sr12  1  0.40703000  0.71183000  0.13060000  1.0 1.4618985774
Sr  Sr13  1  0.09894000  0.23108000  0.14122000  1.0 1.4721818389
Sr  Sr14  1  0.64567000  0.29258000  0.22383000  1.0 1.4530712189
Sr  Sr15  1  0.55117000  0.31851000  0.30836000  1.0 1.4366112771
Sr  Sr16  1  0.59297000  0.21183000  0.36940000  1.0 1.4618985774
H  H1  1  0.61064000  0.04970000  0.86221000  1.0 0.1200423971
H  H2  1  0.67225000  0.99330000  0.89308000  1.0 0.1281998921
H  H3  1  0.79679000  0.06007000  0.98699000  1.0 0.1281998921
H  H4  1  0.73080000  0.11577000  0.95709000  1.0 0.1112685522
H  H5  1  0.76843000  0.87556000  0.96712000  1.0 0.1482879938
H  H6  1  0.89546000  0.85959000  0.08459000  1.0 0.0998695412
H  H7  1  0.82649000  0.96901000  0.04314000  1.0 0.1200423971
H  H8  1  0.87870000  0.74134000  0.00604000  1.0 0.1381912489
H  H9  1  0.85724000  0.67429000  0.99733000  1.0 0.1112685522
H  H10  1  0.70123000  0.68037000  0.04747000  1.0 0.1200423971
H  H11  1  0.72026000  0.74879000  0.05756000  1.0 0.1200423971
H  H12  1  0.04034000  0.95266000  0.17165000  1.0 0.1381912489
H  H13  1  0.10781000  0.96618000  0.24005000  1.0 0.1281998921
H  H14  1  0.94932000  0.92629000  0.27562000  1.0 0.1200423971
H  H15  1  0.88134000  0.90913000  0.20824000  1.0 0.1281998921
H  H16  1  0.82099000  0.99133000  0.97969000  1.0 0.2983739199
H  H17  1  0.79438000  0.80349000  0.05692000  1.0 0.2794549586
H  H18  1  0.89043000  0.89316000  0.14069000  1.0 0.2712864699
H  H19  1  0.43125000  0.24518000  0.68599000  1.0 0.1112685522
H  H20  1  0.33616000  0.28351000  0.64328000  1.0 0.1281998921
H  H21  1  0.37984000  0.36677000  0.73027000  1.0 0.1200423971
H  H22  1  0.46601000  0.32655000  0.77462000  1.0 0.1112685522
H  H23  1  0.11005000  0.33890000  0.57211000  1.0 0.1112685522
H  H24  1  0.05182000  0.45283000  0.55195000  1.0 0.1281998921
H  H25  1  0.22564000  0.42162000  0.64957000  1.0 0.1200423971
H  H26  1  0.86993000  0.36386000  0.45496000  1.0 0.1281998921
H  H27  1  0.77461000  0.31935000  0.42756000  1.0 0.1281998921
H  H28  1  0.90536000  0.22878000  0.48133000  1.0 0.1112685522
H  H29  1  0.00146000  0.27259000  0.50665000  1.0 0.1381912489
H  H30  1  0.23522000  0.50569000  0.73118000  1.0 0.1281998921
H  H31  1  0.30019000  0.55945000  0.76715000  1.0 0.1200423971
H  H32  1  0.27538000  0.61504000  0.66059000  1.0 0.1200423971
H  H33  1  0.20620000  0.56210000  0.62503000  1.0 0.1200423971
H  H34  1  0.30622000  0.37881000  0.65604000  1.0 0.2794549586
H  H35  1  0.04874000  0.33681000  0.51015000  1.0 0.2712864699
H  H36  1  0.18423000  0.47325000  0.67130000  1.0 0.2917520823
H  H37  1  0.99654000  0.29315000  0.93908000  1.0 0.0905265182
H  H38  1  0.00382000  0.23040000  0.92082000  1.0 0.0998695412
H  H39  1  0.06247000  0.35516000  0.93283000  1.0 0.0998695412
H  H40  1  0.11049000  0.35188000  0.90377000  1.0 0.1200423971
H  H41  1  0.89791000  0.34564000  0.92363000  1.0 0.1112685522
H  H42  1  0.82346000  0.33458000  0.88859000  1.0 0.1200423971
H  H43  1  0.96130000  0.40357000  0.91259000  1.0 0.0905265182
H  H44  1  0.92754000  0.45513000  0.86768000  1.0 0.0905265182
H  H45  1  0.05062000  0.46214000  0.81345000  1.0 0.1200423971
H  H46  1  0.99047000  0.48740000  0.82433000  1.0 0.0998695412
H  H47  1  0.75967000  0.43696000  0.79262000  1.0 0.1112685522
H  H48  1  0.81552000  0.47176000  0.81251000  1.0 0.0905265182
H  H49  1  0.87715000  0.50372000  0.76888000  1.0 0.0823674404
H  H50  1  0.86214000  0.50724000  0.70057000  1.0 0.0823674404
H  H51  1  0.92739000  0.48485000  0.65490000  1.0 0.0998695412
H  H52  1  0.98799000  0.45158000  0.67175000  1.0 0.1200423971
H  H53  1  0.74923000  0.48987000  0.64072000  1.0 0.0998695412
H  H54  1  0.69341000  0.46007000  0.65002000  1.0 0.1112685522
H  H55  1  0.81731000  0.46606000  0.59655000  1.0 0.0905265182
H  H56  1  0.79369000  0.41812000  0.54876000  1.0 0.0823674404
H  H57  1  0.86701000  0.36580000  0.53468000  1.0 0.0998695412
H  H58  1  0.94161000  0.35565000  0.57007000  1.0 0.1112685522
H  H59  1  0.65130000  0.35507000  0.55391000  1.0 0.1112685522
H  H60  1  0.69645000  0.36453000  0.52440000  1.0 0.1112685522
H  H61  1  0.77353000  0.30934000  0.51424000  1.0 0.0998695412
H  H62  1  0.76936000  0.24368000  0.52782000  1.0 0.0998695412
H  H63  1  0.95141000  0.21397000  0.58037000  1.0 0.1112685522
H  H64  1  0.87312000  0.19480000  0.55856000  1.0 0.1200423971
H  H65  1  0.71698000  0.20046000  0.56953000  1.0 0.0998695412
H  H66  1  0.68264000  0.22281000  0.59907000  1.0 0.1112685522
H  H67  1  0.82385000  0.15557000  0.60274000  1.0 0.0998695412
H  H68  1  0.88607000  0.13043000  0.66595000  1.0 0.0998695412
H  H69  1  0.04238000  0.18507000  0.72219000  1.0 0.0998695412
H  H70  1  0.00529000  0.14304000  0.72111000  1.0 0.0905265182
H  H71  1  0.83221000  0.11789000  0.71943000  1.0 0.1112685522
H  H72  1  0.76594000  0.14508000  0.72021000  1.0 0.1200423971
H  H73  1  0.95306000  0.12800000  0.77406000  1.0 0.0823674404
H  H74  1  0.97786000  0.14846000  0.83880000  1.0 0.0823674404
H  H75  1  0.11336000  0.22135000  0.85804000  1.0 0.0998695412
H  H76  1  0.07560000  0.19421000  0.88258000  1.0 0.0823674404
H  H77  1  0.83190000  0.19886000  0.85475000  1.0 0.1281998921
H  H78  1  0.90946000  0.18031000  0.87940000  1.0 0.0905265182
H  H79  1  0.50356000  0.47294000  0.81050000  1.0 0.0823674404
H  H80  1  0.43194000  0.45543000  0.84782000  1.0 0.0905265182
H  H81  1  0.60835000  0.44251000  0.79514000  1.0 0.0998695412
H  H82  1  0.62593000  0.39755000  0.80784000  1.0 0.1200423971
H  H83  1  0.46845000  0.49059000  0.73512000  1.0 0.0998695412
H  H84  1  0.38875000  0.47760000  0.70700000  1.0 0.1200423971
H  H85  1  0.57315000  0.45758000  0.72132000  1.0 0.0905265182
H  H86  1  0.58039000  0.42449000  0.66493000  1.0 0.0998695412
H  H87  1  0.64179000  0.36378000  0.66028000  1.0 0.1112685522
H  H88  1  0.65172000  0.33115000  0.69472000  1.0 0.1200423971
H  H89  1  0.40178000  0.40572000  0.59508000  1.0 0.1200423971
H  H90  1  0.48438000  0.41012000  0.59689000  1.0 0.1112685522
H  H91  1  0.55170000  0.35002000  0.59125000  1.0 0.0998695412
H  H92  1  0.50708000  0.29279000  0.55641000  1.0 0.0905265182
H  H93  1  0.53954000  0.22552000  0.57313000  1.0 0.0998695412
H  H94  1  0.58555000  0.21608000  0.61944000  1.0 0.1112685522
H  H95  1  0.31682000  0.28021000  0.54116000  1.0 0.1112685522
H  H96  1  0.37846000  0.26131000  0.52628000  1.0 0.0905265182
H  H97  1  0.40876000  0.19087000  0.54641000  1.0 0.0905265182
H  H98  1  0.36799000  0.14035000  0.57668000  1.0 0.0998695412
H  H99  1  0.47162000  0.12666000  0.68078000  1.0 0.1281998921
H  H100  1  0.40803000  0.10586000  0.64508000  1.0 0.0998695412
H  H101  1  0.19938000  0.17517000  0.58178000  1.0 0.1200423971
H  H102  1  0.24285000  0.13491000  0.58436000  1.0 0.1112685522
H  H103  1  0.28558000  0.10108000  0.65129000  1.0 0.0823674404
H  H104  1  0.24755000  0.10398000  0.70669000  1.0 0.0823674404
H  H105  1  0.14921000  0.14509000  0.72219000  1.0 0.0905265182
H  H106  1  0.12072000  0.18231000  0.69310000  1.0 0.1112685522
H  H107  1  0.30565000  0.11637000  0.78030000  1.0 0.0998695412
H  H108  1  0.38716000  0.13257000  0.79395000  1.0 0.1200423971
H  H109  1  0.21285000  0.16174000  0.79654000  1.0 0.0823674404
H  H110  1  0.21529000  0.21847000  0.83060000  1.0 0.0823674404
H  H111  1  0.16331000  0.28229000  0.81152000  1.0 0.1112685522
H  H112  1  0.15231000  0.29883000  0.76695000  1.0 0.1281998921
H  H113  1  0.31994000  0.24436000  0.88687000  1.0 0.0998695412
H  H114  1  0.39994000  0.24022000  0.88440000  1.0 0.1200423971
H  H115  1  0.25959000  0.31239000  0.86919000  1.0 0.0998695412
H  H116  1  0.31031000  0.37213000  0.87856000  1.0 0.0998695412
H  H117  1  0.44112000  0.39842000  0.89795000  1.0 0.1112685522
H  H118  1  0.50062000  0.36610000  0.89813000  1.0 0.1112685522
H  H119  1  0.25282000  0.42628000  0.78937000  1.0 0.1281998921
H  H120  1  0.30126000  0.43214000  0.83607000  1.0 0.1112685522
H  H121  1  0.38936000  0.54970000  0.63779000  1.0 0.1200423971
H  H122  1  0.32775000  0.49330000  0.60692000  1.0 0.1281998921
H  H123  1  0.20321000  0.56007000  0.51301000  1.0 0.1281998921
H  H124  1  0.26920000  0.61577000  0.54291000  1.0 0.1112685522
H  H125  1  0.23157000  0.37556000  0.53288000  1.0 0.1482879938
H  H126  1  0.10454000  0.35959000  0.41541000  1.0 0.0998695412
H  H127  1  0.17351000  0.46901000  0.45686000  1.0 0.1200423971
H  H128  1  0.12130000  0.24134000  0.49396000  1.0 0.1381912489
H  H129  1  0.14276000  0.17429000  0.50267000  1.0 0.1112685522
H  H130  1  0.29877000  0.18037000  0.45253000  1.0 0.1200423971
H  H131  1  0.27974000  0.24879000  0.44244000  1.0 0.1200423971
H  H132  1  0.95966000  0.45266000  0.32835000  1.0 0.1381912489
H  H133  1  0.89219000  0.46618000  0.25995000  1.0 0.1281998921
H  H134  1  0.05068000  0.42629000  0.22438000  1.0 0.1200423971
H  H135  1  0.11866000  0.40913000  0.29176000  1.0 0.1281998921
H  H136  1  0.17901000  0.49133000  0.52031000  1.0 0.2983739199
H  H137  1  0.20562000  0.30349000  0.44308000  1.0 0.2794549586
H  H138  1  0.10957000  0.39316000  0.35931000  1.0 0.2712864699
H  H139  1  0.56875000  0.74518000  0.81401000  1.0 0.1112685522
H  H140  1  0.66384000  0.78351000  0.85672000  1.0 0.1281998921
H  H141  1  0.62016000  0.86677000  0.76973000  1.0 0.1200423971
H  H142  1  0.53399000  0.82655000  0.72538000  1.0 0.1112685522
H  H143  1  0.88995000  0.83890000  0.92789000  1.0 0.1112685522
H  H144  1  0.94818000  0.95283000  0.94805000  1.0 0.1281998921
H  H145  1  0.77436000  0.92162000  0.85043000  1.0 0.1200423971
H  H146  1  0.13007000  0.86386000  0.04504000  1.0 0.1281998921
H  H147  1  0.22539000  0.81935000  0.07244000  1.0 0.1281998921
H  H148  1  0.09464000  0.72878000  0.01867000  1.0 0.1112685522
H  H149  1  0.99854000  0.77259000  0.99335000  1.0 0.1381912489
H  H150  1  0.76478000  0.00569000  0.76882000  1.0 0.1281998921
H  H151  1  0.69981000  0.05945000  0.73285000  1.0 0.1200423971
H  H152  1  0.72462000  0.11504000  0.83941000  1.0 0.1200423971
H  H153  1  0.79380000  0.06210000  0.87497000  1.0 0.1200423971
H  H154  1  0.69378000  0.87881000  0.84396000  1.0 0.2794549586
H  H155  1  0.95126000  0.83681000  0.98985000  1.0 0.2712864699
H  H156  1  0.81577000  0.97325000  0.82870000  1.0 0.2917520823
H  H157  1  0.00346000  0.79315000  0.56092000  1.0 0.0905265182
H  H158  1  0.99618000  0.73040000  0.57918000  1.0 0.0998695412
H  H159  1  0.93753000  0.85516000  0.56717000  1.0 0.0998695412
H  H160  1  0.88951000  0.85188000  0.59623000  1.0 0.1200423971
H  H161  1  0.10209000  0.84564000  0.57637000  1.0 0.1112685522
H  H162  1  0.17654000  0.83458000  0.61141000  1.0 0.1200423971
H  H163  1  0.03870000  0.90357000  0.58741000  1.0 0.0905265182
H  H164  1  0.07246000  0.95513000  0.63232000  1.0 0.0905265182
H  H165  1  0.94938000  0.96214000  0.68655000  1.0 0.1200423971
H  H166  1  0.00953000  0.98740000  0.67567000  1.0 0.0998695412
H  H167  1  0.24033000  0.93696000  0.70738000  1.0 0.1112685522
H  H168  1  0.18448000  0.97176000  0.68749000  1.0 0.0905265182
H  H169  1  0.12285000  0.00372000  0.73112000  1.0 0.0823674404
H  H170  1  0.13786000  0.00724000  0.79943000  1.0 0.0823674404
H  H171  1  0.07261000  0.98485000  0.84510000  1.0 0.0998695412
H  H172  1  0.01201000  0.95158000  0.82825000  1.0 0.1200423971
H  H173  1  0.25077000  0.98987000  0.85928000  1.0 0.0998695412
H  H174  1  0.30659000  0.96007000  0.84998000  1.0 0.1112685522
H  H175  1  0.18269000  0.96606000  0.90345000  1.0 0.0905265182
H  H176  1  0.20631000  0.91812000  0.95124000  1.0 0.0823674404
H  H177  1  0.13299000  0.86580000  0.96532000  1.0 0.0998695412
H  H178  1  0.05839000  0.85565000  0.92993000  1.0 0.1112685522
H  H179  1  0.34870000  0.85507000  0.94609000  1.0 0.1112685522
H  H180  1  0.30355000  0.86453000  0.97560000  1.0 0.1112685522
H  H181  1  0.22647000  0.80934000  0.98576000  1.0 0.0998695412
H  H182  1  0.23064000  0.74368000  0.97218000  1.0 0.0998695412
H  H183  1  0.04859000  0.71397000  0.91963000  1.0 0.1112685522
H  H184  1  0.12688000  0.69480000  0.94144000  1.0 0.1200423971
H  H185  1  0.28302000  0.70046000  0.93047000  1.0 0.0998695412
H  H186  1  0.31736000  0.72281000  0.90093000  1.0 0.1112685522
H  H187  1  0.17615000  0.65557000  0.89726000  1.0 0.0998695412
H  H188  1  0.11393000  0.63043000  0.83405000  1.0 0.0998695412
H  H189  1  0.95762000  0.68507000  0.77781000  1.0 0.0998695412
H  H190  1  0.99471000  0.64304000  0.77889000  1.0 0.0905265182
H  H191  1  0.16779000  0.61789000  0.78057000  1.0 0.1112685522
H  H192  1  0.23406000  0.64508000  0.77979000  1.0 0.1200423971
H  H193  1  0.04694000  0.62800000  0.72594000  1.0 0.0823674404
H  H194  1  0.02214000  0.64846000  0.66120000  1.0 0.0823674404
H  H195  1  0.88664000  0.72135000  0.64196000  1.0 0.0998695412
H  H196  1  0.92440000  0.69421000  0.61742000  1.0 0.0823674404
H  H197  1  0.16810000  0.69886000  0.64525000  1.0 0.1200423971
H  H198  1  0.09054000  0.68031000  0.62060000  1.0 0.0905265182
H  H199  1  0.49644000  0.97294000  0.68950000  1.0 0.0823674404
H  H200  1  0.56806000  0.95543000  0.65218000  1.0 0.0905265182
H  H201  1  0.39165000  0.94251000  0.70486000  1.0 0.0998695412
H  H202  1  0.37407000  0.89755000  0.69216000  1.0 0.1200423971
H  H203  1  0.53155000  0.99059000  0.76488000  1.0 0.0998695412
H  H204  1  0.61125000  0.97760000  0.79300000  1.0 0.1200423971
H  H205  1  0.42685000  0.95758000  0.77868000  1.0 0.0905265182
H  H206  1  0.41961000  0.92449000  0.83507000  1.0 0.0998695412
H  H207  1  0.35821000  0.86378000  0.83972000  1.0 0.1112685522
H  H208  1  0.34828000  0.83115000  0.80528000  1.0 0.1200423971
H  H209  1  0.59822000  0.90572000  0.90492000  1.0 0.1200423971
H  H210  1  0.51562000  0.91012000  0.90311000  1.0 0.1112685522
H  H211  1  0.44830000  0.85002000  0.90875000  1.0 0.0998695412
H  H212  1  0.49292000  0.79279000  0.94359000  1.0 0.0905265182
H  H213  1  0.46046000  0.72552000  0.92687000  1.0 0.0998695412
H  H214  1  0.41445000  0.71608000  0.88056000  1.0 0.1112685522
H  H215  1  0.68318000  0.78021000  0.95884000  1.0 0.1112685522
H  H216  1  0.62154000  0.76131000  0.97372000  1.0 0.0905265182
H  H217  1  0.59124000  0.69087000  0.95359000  1.0 0.0905265182
H  H218  1  0.63201000  0.64035000  0.92332000  1.0 0.0998695412
H  H219  1  0.52838000  0.62666000  0.81922000  1.0 0.1281998921
H  H220  1  0.59197000  0.60586000  0.85492000  1.0 0.0998695412
H  H221  1  0.80062000  0.67517000  0.91822000  1.0 0.1200423971
H  H222  1  0.75715000  0.63491000  0.91564000  1.0 0.1112685522
H  H223  1  0.71442000  0.60108000  0.84871000  1.0 0.0823674404
H  H224  1  0.75245000  0.60398000  0.79331000  1.0 0.0823674404
H  H225  1  0.85079000  0.64509000  0.77781000  1.0 0.0905265182
H  H226  1  0.87928000  0.68231000  0.80690000  1.0 0.1112685522
H  H227  1  0.69435000  0.61637000  0.71970000  1.0 0.0998695412
H  H228  1  0.61284000  0.63257000  0.70605000  1.0 0.1200423971
H  H229  1  0.78715000  0.66174000  0.70346000  1.0 0.0823674404
H  H230  1  0.78471000  0.71847000  0.66940000  1.0 0.0823674404
H  H231  1  0.83669000  0.78229000  0.68848000  1.0 0.1112685522
H  H232  1  0.84769000  0.79883000  0.73305000  1.0 0.1281998921
H  H233  1  0.68006000  0.74436000  0.61313000  1.0 0.0998695412
H  H234  1  0.60006000  0.74022000  0.61560000  1.0 0.1200423971
H  H235  1  0.74041000  0.81239000  0.63081000  1.0 0.0998695412
H  H236  1  0.68969000  0.87213000  0.62144000  1.0 0.1112685522
H  H237  1  0.55888000  0.89842000  0.60205000  1.0 0.1112685522
H  H238  1  0.49938000  0.86610000  0.60187000  1.0 0.1112685522
H  H239  1  0.74718000  0.92628000  0.71063000  1.0 0.1281998921
H  H240  1  0.69874000  0.93214000  0.66393000  1.0 0.1112685522
H  H241  1  0.38936000  0.95030000  0.13779000  1.0 0.1200423971
H  H242  1  0.32775000  0.00670000  0.10692000  1.0 0.1281998921
H  H243  1  0.20321000  0.93993000  0.01301000  1.0 0.1281998921
H  H244  1  0.26920000  0.88423000  0.04291000  1.0 0.1112685522
H  H245  1  0.23157000  0.12444000  0.03288000  1.0 0.1482879938
H  H246  1  0.10454000  0.14041000  0.91541000  1.0 0.0998695412
H  H247  1  0.17351000  0.03099000  0.95686000  1.0 0.1200423971
H  H248  1  0.12130000  0.25866000  0.99396000  1.0 0.1381912489
H  H249  1  0.14276000  0.32571000  0.00267000  1.0 0.1112685522
H  H250  1  0.29877000  0.31963000  0.95253000  1.0 0.1200423971
H  H251  1  0.27974000  0.25121000  0.94244000  1.0 0.1200423971
H  H252  1  0.95966000  0.04734000  0.82835000  1.0 0.1381912489
H  H253  1  0.89219000  0.03382000  0.75995000  1.0 0.1281998921
H  H254  1  0.05068000  0.07371000  0.72438000  1.0 0.1200423971
H  H255  1  0.11866000  0.09087000  0.79176000  1.0 0.1281998921
H  H256  1  0.17901000  0.00867000  0.02031000  1.0 0.2983739199
H  H257  1  0.20562000  0.19651000  0.94308000  1.0 0.2794549586
H  H258  1  0.10957000  0.10684000  0.85931000  1.0 0.2712864699
H  H259  1  0.56875000  0.75482000  0.31401000  1.0 0.1112685522
H  H260  1  0.66384000  0.71649000  0.35672000  1.0 0.1281998921
H  H261  1  0.62016000  0.63323000  0.26973000  1.0 0.1200423971
H  H262  1  0.53399000  0.67345000  0.22538000  1.0 0.1112685522
H  H263  1  0.88995000  0.66110000  0.42789000  1.0 0.1112685522
H  H264  1  0.94818000  0.54717000  0.44805000  1.0 0.1281998921
H  H265  1  0.77436000  0.57838000  0.35043000  1.0 0.1200423971
H  H266  1  0.13007000  0.63614000  0.54504000  1.0 0.1281998921
H  H267  1  0.22539000  0.68065000  0.57244000  1.0 0.1281998921
H  H268  1  0.09464000  0.77122000  0.51867000  1.0 0.1112685522
H  H269  1  0.99854000  0.72741000  0.49335000  1.0 0.1381912489
H  H270  1  0.76478000  0.49431000  0.26882000  1.0 0.1281998921
H  H271  1  0.69981000  0.44055000  0.23285000  1.0 0.1200423971
H  H272  1  0.72462000  0.38496000  0.33941000  1.0 0.1200423971
H  H273  1  0.79380000  0.43790000  0.37497000  1.0 0.1200423971
H  H274  1  0.69378000  0.62119000  0.34396000  1.0 0.2794549586
H  H275  1  0.95126000  0.66319000  0.48985000  1.0 0.2712864699
H  H276  1  0.81577000  0.52675000  0.32870000  1.0 0.2917520823
H  H277  1  0.00346000  0.70685000  0.06092000  1.0 0.0905265182
H  H278  1  0.99618000  0.76960000  0.07918000  1.0 0.0998695412
H  H279  1  0.93753000  0.64484000  0.06717000  1.0 0.1112685522
H  H280  1  0.88951000  0.64812000  0.09623000  1.0 0.1200423971
H  H281  1  0.10209000  0.65436000  0.07637000  1.0 0.1112685522
H  H282  1  0.17654000  0.66542000  0.11141000  1.0 0.1200423971
H  H283  1  0.03870000  0.59643000  0.08741000  1.0 0.0905265182
H  H284  1  0.07246000  0.54487000  0.13232000  1.0 0.0905265182
H  H285  1  0.94938000  0.53786000  0.18655000  1.0 0.1200423971
H  H286  1  0.00953000  0.51260000  0.17567000  1.0 0.0998695412
H  H287  1  0.24033000  0.56304000  0.20738000  1.0 0.1112685522
H  H288  1  0.18448000  0.52824000  0.18749000  1.0 0.0905265182
H  H289  1  0.12285000  0.49628000  0.23112000  1.0 0.0823674404
H  H290  1  0.13786000  0.49276000  0.29943000  1.0 0.0823674404
H  H291  1  0.07261000  0.51515000  0.34510000  1.0 0.0998695412
H  H292  1  0.01201000  0.54842000  0.32825000  1.0 0.1200423971
H  H293  1  0.25077000  0.51013000  0.35928000  1.0 0.0998695412
H  H294  1  0.30659000  0.53993000  0.34998000  1.0 0.1112685522
H  H295  1  0.18269000  0.53394000  0.40345000  1.0 0.0905265182
H  H296  1  0.20631000  0.58188000  0.45124000  1.0 0.0823674404
H  H297  1  0.13299000  0.63420000  0.46532000  1.0 0.0998695412
H  H298  1  0.05839000  0.64435000  0.42993000  1.0 0.1112685522
H  H299  1  0.34870000  0.64493000  0.44609000  1.0 0.1112685522
H  H300  1  0.30355000  0.63547000  0.47560000  1.0 0.1112685522
H  H301  1  0.22647000  0.69066000  0.48576000  1.0 0.0998695412
H  H302  1  0.23064000  0.75632000  0.47218000  1.0 0.0998695412
H  H303  1  0.04859000  0.78603000  0.41963000  1.0 0.1112685522
H  H304  1  0.12688000  0.80520000  0.44144000  1.0 0.1200423971
H  H305  1  0.28302000  0.79954000  0.43047000  1.0 0.0998695412
H  H306  1  0.31736000  0.77719000  0.40093000  1.0 0.1112685522
H  H307  1  0.17615000  0.84443000  0.39726000  1.0 0.0998695412
H  H308  1  0.11393000  0.86957000  0.33405000  1.0 0.0998695412
H  H309  1  0.95762000  0.81493000  0.27781000  1.0 0.0998695412
H  H310  1  0.99471000  0.85696000  0.27889000  1.0 0.0905265182
H  H311  1  0.16779000  0.88211000  0.28057000  1.0 0.1112685522
H  H312  1  0.23406000  0.85492000  0.27979000  1.0 0.1200423971
H  H313  1  0.04694000  0.87200000  0.22594000  1.0 0.0823674404
H  H314  1  0.02214000  0.85154000  0.16120000  1.0 0.0823674404
H  H315  1  0.88664000  0.77865000  0.14196000  1.0 0.0998695412
H  H316  1  0.92440000  0.80579000  0.11742000  1.0 0.0823674404
H  H317  1  0.16810000  0.80114000  0.14525000  1.0 0.1281998921
H  H318  1  0.09054000  0.81969000  0.12060000  1.0 0.0905265182
H  H319  1  0.49644000  0.52706000  0.18950000  1.0 0.0823674404
H  H320  1  0.56806000  0.54457000  0.15218000  1.0 0.0905265182
H  H321  1  0.39165000  0.55749000  0.20486000  1.0 0.0998695412
H  H322  1  0.37407000  0.60245000  0.19216000  1.0 0.1200423971
H  H323  1  0.53155000  0.50941000  0.26488000  1.0 0.0998695412
H  H324  1  0.61125000  0.52240000  0.29300000  1.0 0.1200423971
H  H325  1  0.42685000  0.54242000  0.27868000  1.0 0.0905265182
H  H326  1  0.41961000  0.57551000  0.33507000  1.0 0.0998695412
H  H327  1  0.35821000  0.63622000  0.33972000  1.0 0.1200423971
H  H328  1  0.34828000  0.66885000  0.30528000  1.0 0.1200423971
H  H329  1  0.59822000  0.59428000  0.40492000  1.0 0.1200423971
H  H330  1  0.51562000  0.58988000  0.40311000  1.0 0.1112685522
H  H331  1  0.44830000  0.64998000  0.40875000  1.0 0.0998695412
H  H332  1  0.49292000  0.70721000  0.44359000  1.0 0.0905265182
H  H333  1  0.46046000  0.77448000  0.42687000  1.0 0.0998695412
H  H334  1  0.41445000  0.78392000  0.38056000  1.0 0.1112685522
H  H335  1  0.68318000  0.71979000  0.45884000  1.0 0.1112685522
H  H336  1  0.62154000  0.73869000  0.47372000  1.0 0.0905265182
H  H337  1  0.59124000  0.80913000  0.45359000  1.0 0.0905265182
H  H338  1  0.63201000  0.85965000  0.42332000  1.0 0.0998695412
H  H339  1  0.52838000  0.87334000  0.31922000  1.0 0.1281998921
H  H340  1  0.59197000  0.89414000  0.35492000  1.0 0.0998695412
H  H341  1  0.80062000  0.82483000  0.41822000  1.0 0.1200423971
H  H342  1  0.75715000  0.86509000  0.41564000  1.0 0.1112685522
H  H343  1  0.71442000  0.89892000  0.34871000  1.0 0.0823674404
H  H344  1  0.75245000  0.89602000  0.29331000  1.0 0.0905265182
H  H345  1  0.85079000  0.85491000  0.27781000  1.0 0.0905265182
H  H346  1  0.87928000  0.81769000  0.30690000  1.0 0.1112685522
H  H347  1  0.69435000  0.88363000  0.21970000  1.0 0.0998695412
H  H348  1  0.61284000  0.86743000  0.20605000  1.0 0.1200423971
H  H349  1  0.78715000  0.83826000  0.20346000  1.0 0.0823674404
H  H350  1  0.78471000  0.78153000  0.16940000  1.0 0.0823674404
H  H351  1  0.83669000  0.71771000  0.18848000  1.0 0.1112685522
H  H352  1  0.84769000  0.70117000  0.23305000  1.0 0.1281998921
H  H353  1  0.68006000  0.75564000  0.11313000  1.0 0.0998695412
H  H354  1  0.60006000  0.75978000  0.11560000  1.0 0.1200423971
H  H355  1  0.74041000  0.68761000  0.13081000  1.0 0.0998695412
H  H356  1  0.68969000  0.62787000  0.12144000  1.0 0.1112685522
H  H357  1  0.55888000  0.60158000  0.10205000  1.0 0.1112685522
H  H358  1  0.49938000  0.63390000  0.10187000  1.0 0.1112685522
H  H359  1  0.74718000  0.57372000  0.21063000  1.0 0.1281998921
H  H360  1  0.69874000  0.56786000  0.16393000  1.0 0.1112685522
H  H361  1  0.61064000  0.45030000  0.36221000  1.0 0.1200423971
H  H362  1  0.67225000  0.50670000  0.39308000  1.0 0.1281998921
H  H363  1  0.79679000  0.43993000  0.48699000  1.0 0.1281998921
H  H364  1  0.73080000  0.38423000  0.45709000  1.0 0.1112685522
H  H365  1  0.76843000  0.62444000  0.46712000  1.0 0.1482879938
H  H366  1  0.89546000  0.64041000  0.58459000  1.0 0.0998695412
H  H367  1  0.82649000  0.53099000  0.54314000  1.0 0.1200423971
H  H368  1  0.87870000  0.75866000  0.50604000  1.0 0.1381912489
H  H369  1  0.85724000  0.82571000  0.49733000  1.0 0.1112685522
H  H370  1  0.70123000  0.81963000  0.54747000  1.0 0.1200423971
H  H371  1  0.72026000  0.75121000  0.55756000  1.0 0.1200423971
H  H372  1  0.04034000  0.54734000  0.67165000  1.0 0.1381912489
H  H373  1  0.10781000  0.53382000  0.74005000  1.0 0.1281998921
H  H374  1  0.94932000  0.57371000  0.77562000  1.0 0.1200423971
H  H375  1  0.88134000  0.59087000  0.70824000  1.0 0.1281998921
H  H376  1  0.82099000  0.50867000  0.47969000  1.0 0.2983739199
H  H377  1  0.79438000  0.69651000  0.55692000  1.0 0.2794549586
H  H378  1  0.89043000  0.60684000  0.64069000  1.0 0.2712864699
H  H379  1  0.43125000  0.25482000  0.18599000  1.0 0.1112685522
H  H380  1  0.33616000  0.21649000  0.14328000  1.0 0.1281998921
H  H381  1  0.37984000  0.13323000  0.23027000  1.0 0.1200423971
H  H382  1  0.46601000  0.17345000  0.27462000  1.0 0.1112685522
H  H383  1  0.11005000  0.16110000  0.07211000  1.0 0.1112685522
H  H384  1  0.05182000  0.04717000  0.05195000  1.0 0.1281998921
H  H385  1  0.22564000  0.07838000  0.14957000  1.0 0.1200423971
H  H386  1  0.86993000  0.13614000  0.95496000  1.0 0.1281998921
H  H387  1  0.77461000  0.18065000  0.92756000  1.0 0.1281998921
H  H388  1  0.90536000  0.27122000  0.98133000  1.0 0.1112685522
H  H389  1  0.00146000  0.22741000  0.00665000  1.0 0.1381912489
H  H390  1  0.23522000  0.99431000  0.23118000  1.0 0.1281998921
H  H391  1  0.30019000  0.94055000  0.26715000  1.0 0.1200423971
H  H392  1  0.27538000  0.88496000  0.16059000  1.0 0.1200423971
H  H393  1  0.20620000  0.93790000  0.12503000  1.0 0.1200423971
H  H394  1  0.30622000  0.12119000  0.15604000  1.0 0.2794549586
H  H395  1  0.04874000  0.16319000  0.01015000  1.0 0.2712864699
H  H396  1  0.18423000  0.02675000  0.17130000  1.0 0.2917520823
H  H397  1  0.99654000  0.20685000  0.43908000  1.0 0.0905265182
H  H398  1  0.00382000  0.26960000  0.42082000  1.0 0.0998695412
H  H399  1  0.06247000  0.14484000  0.43283000  1.0 0.0998695412
H  H400  1  0.11049000  0.14812000  0.40377000  1.0 0.1200423971
H  H401  1  0.89791000  0.15436000  0.42363000  1.0 0.1112685522
H  H402  1  0.82346000  0.16542000  0.38859000  1.0 0.1200423971
H  H403  1  0.96130000  0.09643000  0.41259000  1.0 0.0905265182
H  H404  1  0.92754000  0.04487000  0.36768000  1.0 0.0905265182
H  H405  1  0.05062000  0.03786000  0.31345000  1.0 0.1200423971
H  H406  1  0.99047000  0.01260000  0.32433000  1.0 0.0998695412
H  H407  1  0.75967000  0.06304000  0.29262000  1.0 0.1112685522
H  H408  1  0.81552000  0.02824000  0.31251000  1.0 0.0905265182
H  H409  1  0.87715000  0.99628000  0.26888000  1.0 0.0823674404
H  H410  1  0.86214000  0.99276000  0.20057000  1.0 0.0823674404
H  H411  1  0.92739000  0.01515000  0.15490000  1.0 0.0998695412
H  H412  1  0.98799000  0.04842000  0.17175000  1.0 0.1200423971
H  H413  1  0.74923000  0.01013000  0.14072000  1.0 0.0998695412
H  H414  1  0.69341000  0.03993000  0.15002000  1.0 0.1112685522
H  H415  1  0.81731000  0.03394000  0.09655000  1.0 0.0905265182
H  H416  1  0.79369000  0.08188000  0.04876000  1.0 0.0823674404
H  H417  1  0.86701000  0.13420000  0.03468000  1.0 0.0998695412
H  H418  1  0.94161000  0.14435000  0.07007000  1.0 0.1112685522
H  H419  1  0.65130000  0.14493000  0.05391000  1.0 0.1112685522
H  H420  1  0.69645000  0.13547000  0.02440000  1.0 0.1112685522
H  H421  1  0.77353000  0.19066000  0.01424000  1.0 0.0998695412
H  H422  1  0.76936000  0.25632000  0.02782000  1.0 0.0998695412
H  H423  1  0.95141000  0.28603000  0.08037000  1.0 0.1112685522
H  H424  1  0.87312000  0.30520000  0.05856000  1.0 0.1200423971
H  H425  1  0.71698000  0.29954000  0.06953000  1.0 0.0998695412
H  H426  1  0.68264000  0.27719000  0.09907000  1.0 0.1112685522
H  H427  1  0.82385000  0.34443000  0.10274000  1.0 0.0998695412
H  H428  1  0.88607000  0.36957000  0.16595000  1.0 0.0998695412
H  H429  1  0.04238000  0.31493000  0.22219000  1.0 0.0998695412
H  H430  1  0.00529000  0.35696000  0.22111000  1.0 0.0905265182
H  H431  1  0.83221000  0.38211000  0.21943000  1.0 0.1112685522
H  H432  1  0.76594000  0.35492000  0.22021000  1.0 0.1200423971
H  H433  1  0.95306000  0.37200000  0.27406000  1.0 0.0823674404
H  H434  1  0.97786000  0.35154000  0.33880000  1.0 0.0823674404
H  H435  1  0.11336000  0.27865000  0.35804000  1.0 0.0998695412
H  H436  1  0.07560000  0.30579000  0.38258000  1.0 0.0823674404
H  H437  1  0.83190000  0.30114000  0.35475000  1.0 0.1281998921
H  H438  1  0.90946000  0.31969000  0.37940000  1.0 0.0905265182
H  H439  1  0.50356000  0.02706000  0.31050000  1.0 0.0823674404
H  H440  1  0.43194000  0.04457000  0.34782000  1.0 0.0905265182
H  H441  1  0.60835000  0.05749000  0.29514000  1.0 0.0998695412
H  H442  1  0.62593000  0.10245000  0.30784000  1.0 0.1200423971
H  H443  1  0.46845000  0.00941000  0.23512000  1.0 0.0998695412
H  H444  1  0.38875000  0.02240000  0.20700000  1.0 0.1200423971
H  H445  1  0.57315000  0.04242000  0.22132000  1.0 0.0905265182
H  H446  1  0.58039000  0.07551000  0.16493000  1.0 0.0998695412
H  H447  1  0.64179000  0.13622000  0.16028000  1.0 0.1112685522
H  H448  1  0.65172000  0.16885000  0.19472000  1.0 0.1200423971
H  H449  1  0.40178000  0.09428000  0.09508000  1.0 0.1200423971
H  H450  1  0.48438000  0.08988000  0.09689000  1.0 0.1112685522
H  H451  1  0.55170000  0.14998000  0.09125000  1.0 0.0998695412
H  H452  1  0.50708000  0.20721000  0.05641000  1.0 0.0905265182
H  H453  1  0.53954000  0.27448000  0.07313000  1.0 0.0998695412
H  H454  1  0.58555000  0.28392000  0.11944000  1.0 0.1112685522
H  H455  1  0.31682000  0.21979000  0.04116000  1.0 0.1112685522
H  H456  1  0.37846000  0.23869000  0.02628000  1.0 0.0905265182
H  H457  1  0.40876000  0.30913000  0.04641000  1.0 0.0905265182
H  H458  1  0.36799000  0.35965000  0.07668000  1.0 0.0998695412
H  H459  1  0.47162000  0.37334000  0.18078000  1.0 0.1281998921
H  H460  1  0.40803000  0.39414000  0.14508000  1.0 0.0998695412
H  H461  1  0.19938000  0.32483000  0.08178000  1.0 0.1200423971
H  H462  1  0.24285000  0.36509000  0.08436000  1.0 0.1112685522
H  H463  1  0.28558000  0.39892000  0.15129000  1.0 0.0823674404
H  H464  1  0.24755000  0.39602000  0.20669000  1.0 0.0823674404
H  H465  1  0.14921000  0.35491000  0.22219000  1.0 0.0905265182
H  H466  1  0.12072000  0.31769000  0.19310000  1.0 0.1112685522
H  H467  1  0.30565000  0.38363000  0.28030000  1.0 0.0998695412
H  H468  1  0.38716000  0.36743000  0.29395000  1.0 0.1200423971
H  H469  1  0.21285000  0.33826000  0.29654000  1.0 0.0823674404
H  H470  1  0.21529000  0.28153000  0.33060000  1.0 0.0823674404
H  H471  1  0.16331000  0.21771000  0.31152000  1.0 0.1112685522
H  H472  1  0.15231000  0.20117000  0.26695000  1.0 0.1281998921
H  H473  1  0.31994000  0.25564000  0.38687000  1.0 0.0998695412
H  H474  1  0.39994000  0.25978000  0.38440000  1.0 0.1200423971
H  H475  1  0.25959000  0.18761000  0.36919000  1.0 0.0998695412
H  H476  1  0.31031000  0.12787000  0.37856000  1.0 0.1112685522
H  H477  1  0.44112000  0.10158000  0.39795000  1.0 0.1112685522
H  H478  1  0.50062000  0.13390000  0.39813000  1.0 0.1112685522
H  H479  1  0.25282000  0.07372000  0.28937000  1.0 0.1281998921
H  H480  1  0.30126000  0.06786000  0.33607000  1.0 0.1112685522
H  H481  1  0.96038000  0.07834000  0.91098000  1.0 0.2629594328
H  H482  1  0.93368000  0.09923000  0.87191000  1.0 0.2093298519
H  H483  1  0.97426000  0.12065000  0.90918000  1.0 0.2093298519
H  H484  1  0.90015000  0.10655000  0.90314000  1.0 0.2399006048
H  H485  1  0.03962000  0.57834000  0.58902000  1.0 0.2629594328
H  H486  1  0.06632000  0.59923000  0.62809000  1.0 0.2093298519
H  H487  1  0.02574000  0.62065000  0.59082000  1.0 0.2093298519
H  H488  1  0.09985000  0.60655000  0.59686000  1.0 0.2399006048
H  H489  1  0.03962000  0.92166000  0.08902000  1.0 0.2629594328
H  H490  1  0.06632000  0.90077000  0.12809000  1.0 0.2093298519
H  H491  1  0.02574000  0.87935000  0.09082000  1.0 0.2093298519
H  H492  1  0.09985000  0.89345000  0.09686000  1.0 0.2399006048
H  H493  1  0.96038000  0.42166000  0.41098000  1.0 0.2629594328
H  H494  1  0.93368000  0.40077000  0.37191000  1.0 0.2093298519
H  H495  1  0.97426000  0.37935000  0.40918000  1.0 0.2093298519
H  H496  1  0.90015000  0.39345000  0.40314000  1.0 0.2399006048
C  C1  1  0.61890000  0.12460000  0.89060000  1.0 0.5497352751
C  C2  1  0.66254000  0.08837000  0.90774000  1.0 -0.0196970287
C  C3  1  0.64700000  0.05150000  0.88830000  1.0 -0.090414405
C  C4  1  0.68349000  0.01807000  0.90629000  1.0 -0.1723877984
C  C5  1  0.73726000  0.02139000  0.94436000  1.0 0.2399006048
C  C6  1  0.75690000  0.05780000  0.96230000  1.0 -0.201888569
C  C7  1  0.71840000  0.09094000  0.94420000  1.0 -0.090414405
C  C8  1  0.74522000  0.95336000  0.96812000  1.0 0.4613120528
C  C9  1  0.79117000  0.92618000  0.00077000  1.0 -0.0027868111
C  C10  1  0.79335000  0.88603000  0.99335000  1.0 -0.090414405
C  C11  1  0.83269000  0.86146000  0.02519000  1.0 -0.0104344682
C  C12  1  0.86904000  0.87660000  0.06314000  1.0 -0.1924524646
C  C13  1  0.86702000  0.91717000  0.07022000  1.0 -0.0104344682
C  C14  1  0.82794000  0.94152000  0.03864000  1.0 -0.1390209655
C  C15  1  0.83645000  0.81831000  0.01635000  1.0 0.4674185934
C  C16  1  0.80148000  0.75192000  0.03228000  1.0 0.2230761489
C  C17  1  0.84230000  0.72938000  0.01460000  1.0 -0.1924524646
C  C18  1  0.82940000  0.68960000  0.00950000  1.0 -0.090414405
C  C19  1  0.77640000  0.67120000  0.02190000  1.0 -0.031009729
C  C20  1  0.73740000  0.69290000  0.03910000  1.0 -0.090414405
C  C21  1  0.74820000  0.73390000  0.04510000  1.0 -0.2307985086
C  C22  1  0.76380000  0.62630000  0.01570000  1.0 0.5497352751
C  C23  1  0.90870000  0.93560000  0.10960000  1.0 0.4504652964
C  C24  1  0.95460000  0.92830000  0.18350000  1.0 0.2016351344
C  C25  1  0.02130000  0.94600000  0.19250000  1.0 -0.201888569
C  C26  1  0.06140000  0.95420000  0.23410000  1.0 -0.090414405
C  C27  1  0.03870000  0.94640000  0.26480000  1.0 -0.0414375256
C  C28  1  0.96950000  0.93070000  0.25470000  1.0 -0.1390209655
C  C29  1  0.92790000  0.92090000  0.21410000  1.0 -0.2307985086
C  C30  1  0.08440000  0.95130000  0.30900000  1.0 0.5035734779
C  C31  1  0.51530000  0.25630000  0.76220000  1.0 0.5994010987
C  C32  1  0.45952000  0.28240000  0.73412000  1.0 -0.0414375256
C  C33  1  0.41990000  0.26980000  0.69530000  1.0 -0.0793239822
C  C34  1  0.36380000  0.29250000  0.66970000  1.0 -0.1723877984
C  C35  1  0.34920000  0.32884000  0.68380000  1.0 0.2292157979
C  C36  1  0.38880000  0.34140000  0.72160000  1.0 -0.201888569
C  C37  1  0.44160000  0.31820000  0.74750000  1.0 -0.0714809857
C  C38  1  0.22502000  0.34395000  0.63732000  1.0 0.5100300771
C  C39  1  0.17716000  0.37620000  0.61386000  1.0 -0.0104344682
C  C40  1  0.11856000  0.36581000  0.57946000  1.0 -0.1272495765
C  C41  1  0.07239000  0.39449000  0.55579000  1.0 -0.0196970287
C  C42  1  0.08320000  0.43319000  0.56790000  1.0 -0.1102156071
C  C43  1  0.13955000  0.44417000  0.60315000  1.0 -0.031009729
C  C44  1  0.18662000  0.41465000  0.62572000  1.0 -0.1272495765
C  C45  1  0.00650000  0.38400000  0.52010000  1.0 0.4613120528
C  C46  1  0.94370000  0.32260000  0.48440000  1.0 0.2093298519
C  C47  1  0.87720000  0.33650000  0.46050000  1.0 -0.2101301203
C  C48  1  0.82060000  0.30990000  0.44450000  1.0 -0.1102156071
C  C49  1  0.82930000  0.26960000  0.45270000  1.0 -0.0414375256
C  C50  1  0.89760000  0.25610000  0.47590000  1.0 -0.1272495765
C  C51  1  0.95450000  0.28220000  0.49130000  1.0 -0.2101301203
C  C52  1  0.76520000  0.24110000  0.43880000  1.0 0.5317656771
C  C53  1  0.14890000  0.48610000  0.61510000  1.0 0.4613120528
C  C54  1  0.21700000  0.52840000  0.67420000  1.0 0.2230761489
C  C55  1  0.24380000  0.52790000  0.71690000  1.0 -0.201888569
C  C56  1  0.28290000  0.55970000  0.73830000  1.0 -0.090414405
C  C57  1  0.29688000  0.59249000  0.71728000  1.0 -0.0455604186
C  C58  1  0.26770000  0.59290000  0.67520000  1.0 -0.090414405
C  C59  1  0.22690000  0.56102000  0.65380000  1.0 -0.1924524646
C  C60  1  0.33820000  0.62641000  0.74020000  1.0 0.5701510804
C  C61  1  0.06990000  0.28480000  0.87580000  1.0 0.5192323353
C  C62  1  0.98320000  0.29040000  0.90890000  1.0 0.0905265182
C  C63  1  0.98672000  0.24800000  0.89652000  1.0 0.0905265182
C  C64  1  0.86870000  0.27020000  0.86710000  1.0 0.5035734779
C  C65  1  0.06040000  0.34980000  0.90460000  1.0 0.0212350959
C  C66  1  0.87640000  0.33840000  0.89460000  1.0 0.0026758981
C  C67  1  0.03840000  0.40210000  0.85290000  1.0 0.5192323353
C  C68  1  0.95090000  0.39460000  0.88390000  1.0 0.0905265182
C  C69  1  0.93050000  0.42980000  0.85380000  1.0 0.0905265182
C  C70  1  0.83390000  0.38450000  0.83800000  1.0 0.5035734779
C  C71  1  0.99930000  0.46230000  0.81240000  1.0 0.0123326825
C  C72  1  0.81030000  0.44610000  0.79830000  1.0 0.0212350959
C  C73  1  0.97580000  0.44910000  0.73990000  1.0 0.5192323353
C  C74  1  0.87890000  0.47730000  0.75660000  1.0 0.0998695412
C  C75  1  0.86260000  0.47940000  0.71000000  1.0 0.0905265182
C  C76  1  0.76880000  0.44550000  0.72340000  1.0 0.5192323353
C  C77  1  0.93600000  0.45790000  0.66620000  1.0 0.0123326825
C  C78  1  0.74460000  0.46350000  0.65150000  1.0 0.0212350959
C  C79  1  0.92140000  0.39970000  0.62180000  1.0 0.5100300771
C  C80  1  0.81960000  0.43940000  0.60900000  1.0 0.0998695412
C  C81  1  0.80360000  0.40683000  0.57650000  1.0 0.0905265182
C  C82  1  0.71286000  0.40668000  0.60606000  1.0 0.5192323353
C  C83  1  0.88810000  0.35638000  0.56310000  1.0 0.0212350959
C  C84  1  0.70107000  0.35676000  0.55247000  1.0 0.0212350959
C  C85  1  0.90766000  0.28570000  0.57836000  1.0 0.5383405111
C  C86  1  0.78798000  0.30407000  0.54408000  1.0 0.1112685522
C  C87  1  0.79189000  0.25948000  0.55309000  1.0 0.0905265182
C  C88  1  0.71220000  0.28966000  0.58200000  1.0 0.5192323353
C  C89  1  0.90065000  0.21321000  0.58025000  1.0 0.0123326825
C  C90  1  0.72811000  0.21872000  0.59291000  1.0 0.0212350959
C  C91  1  0.95743000  0.20151000  0.65383000  1.0 0.5317656771
C  C92  1  0.84158000  0.17650000  0.62388000  1.0 0.0905265182
C  C93  1  0.87468000  0.15902000  0.66678000  1.0 0.0998695412
C  C94  1  0.76575000  0.19032000  0.66215000  1.0 0.5383405111
C  C95  1  0.99675000  0.17170000  0.72135000  1.0 0.0212350959
C  C96  1  0.81703000  0.14549000  0.72073000  1.0 0.0212350959
C  C97  1  0.03090000  0.20370000  0.78720000  1.0 0.5317656771
C  C98  1  0.93995000  0.15630000  0.77525000  1.0 0.0905265182
C  C99  1  0.96078000  0.17060000  0.81908000  1.0 0.0823674404
C  C100  1  0.83661000  0.18159000  0.78551000  1.0 0.5317656771
C  C101  1  0.06620000  0.21470000  0.86130000  1.0 0.0123326825
C  C102  1  0.88430000  0.19950000  0.85800000  1.0 -0.0027868111
C  C103  1  0.52120000  0.38800000  0.83290000  1.0 0.5192323353
C  C104  1  0.47720000  0.44760000  0.80110000  1.0 0.0905265182
C  C105  1  0.43280000  0.43460000  0.82770000  1.0 0.0823674404
C  C106  1  0.35590000  0.43800000  0.75980000  1.0 0.5100300771
C  C107  1  0.58780000  0.41560000  0.79100000  1.0 0.0123326825
C  C108  1  0.43550000  0.46770000  0.72600000  1.0 0.0212350959
C  C109  1  0.59630000  0.37130000  0.73660000  1.0 0.5317656771
C  C110  1  0.54360000  0.43290000  0.71610000  1.0 0.1112685522
C  C111  1  0.54960000  0.41020000  0.67820000  1.0 0.1200423971
C  C112  1  0.42630000  0.42606000  0.66750000  1.0 0.5192323353
C  C113  1  0.61540000  0.34761000  0.67440000  1.0 0.0303946893
C  C114  1  0.45200000  0.39637000  0.60910000  1.0 0.0303946893
C  C115  1  0.57192000  0.28247000  0.64742000  1.0 0.5570544572
C  C116  1  0.52196000  0.33458000  0.60436000  1.0 0.1112685522
C  C117  1  0.49451000  0.29521000  0.58181000  1.0 0.0998695412
C  C118  1  0.39451000  0.33289000  0.58351000  1.0 0.5192323353
C  C119  1  0.53822000  0.22617000  0.60122000  1.0 0.0303946893
C  C120  1  0.36607000  0.26834000  0.55067000  1.0 0.0123326825
C  C121  1  0.48796000  0.18056000  0.63856000  1.0 0.5317656771
C  C122  1  0.40844000  0.19799000  0.57414000  1.0 0.0998695412
C  C123  1  0.37294000  0.16570000  0.59194000  1.0 0.0998695412
C  C124  1  0.30016000  0.22150000  0.57956000  1.0 0.5100300771
C  C125  1  0.42185000  0.13036000  0.66115000  1.0 0.0212350959
C  C126  1  0.24596000  0.16160000  0.59606000  1.0 0.0212350959
C  C127  1  0.20661000  0.17650000  0.65411000  1.0 0.5317656771
C  C128  1  0.29436000  0.12750000  0.66466000  1.0 0.0905265182
C  C129  1  0.26850000  0.12960000  0.70190000  1.0 0.0905265182
C  C130  1  0.39228000  0.14338000  0.72328000  1.0 0.5383405111
C  C131  1  0.16470000  0.16960000  0.71220000  1.0 0.0123326825
C  C132  1  0.33627000  0.13842000  0.77697000  1.0 0.0212350959
C  C133  1  0.18681000  0.23550000  0.74401000  1.0 0.5701510804
C  C134  1  0.23776000  0.18340000  0.78696000  1.0 0.0905265182
C  C135  1  0.24405000  0.22030000  0.81175000  1.0 0.0998695412
C  C136  1  0.36128000  0.19660000  0.82048000  1.0 0.5192323353
C  C137  1  0.18860000  0.28790000  0.79180000  1.0 0.0303946893
C  C138  1  0.34950000  0.24860000  0.86910000  1.0 0.0212350959
C  C139  1  0.24460000  0.35220000  0.79040000  1.0 0.5192323353
C  C140  1  0.28900000  0.31690000  0.85100000  1.0 0.0998695412
C  C141  1  0.32240000  0.35740000  0.85690000  1.0 0.0823674404
C  C142  1  0.41350000  0.31050000  0.87080000  1.0 0.5383405111
C  C143  1  0.45490000  0.37880000  0.88090000  1.0 0.0123326825
C  C144  1  0.29780000  0.41750000  0.81100000  1.0 0.0212350959
C  C145  1  0.38110000  0.62460000  0.60940000  1.0 0.5497352751
C  C146  1  0.33746000  0.58837000  0.59226000  1.0 -0.0196970287
C  C147  1  0.35300000  0.55150000  0.61170000  1.0 -0.090414405
C  C148  1  0.31651000  0.51807000  0.59371000  1.0 -0.1723877984
C  C149  1  0.26274000  0.52139000  0.55564000  1.0 0.2399006048
C  C150  1  0.24310000  0.55780000  0.53770000  1.0 -0.201888569
C  C151  1  0.28160000  0.59094000  0.55580000  1.0 -0.0957173361
C  C152  1  0.25478000  0.45336000  0.53188000  1.0 0.4613120528
C  C153  1  0.20883000  0.42618000  0.49923000  1.0 -0.0027868111
C  C154  1  0.20665000  0.38603000  0.50665000  1.0 -0.090414405
C  C155  1  0.16731000  0.36146000  0.47481000  1.0 -0.0104344682
C  C156  1  0.13096000  0.37660000  0.43686000  1.0 -0.1924524646
C  C157  1  0.13298000  0.41717000  0.42978000  1.0 -0.0104344682
C  C158  1  0.17206000  0.44152000  0.46136000  1.0 -0.1390209655
C  C159  1  0.16355000  0.31831000  0.48365000  1.0 0.4674185934
C  C160  1  0.19852000  0.25192000  0.46772000  1.0 0.2230761489
C  C161  1  0.15770000  0.22938000  0.48540000  1.0 -0.1924524646
C  C162  1  0.17060000  0.18960000  0.49050000  1.0 -0.090414405
C  C163  1  0.22360000  0.17120000  0.47810000  1.0 -0.031009729
C  C164  1  0.26260000  0.19290000  0.46090000  1.0 -0.090414405
C  C165  1  0.25180000  0.23390000  0.45490000  1.0 -0.2307985086
C  C166  1  0.23620000  0.12630000  0.48430000  1.0 0.5497352751
C  C167  1  0.09130000  0.43560000  0.39040000  1.0 0.4504652964
C  C168  1  0.04540000  0.42830000  0.31650000  1.0 0.2016351344
C  C169  1  0.97870000  0.44600000  0.30750000  1.0 -0.201888569
C  C170  1  0.93860000  0.45420000  0.26590000  1.0 -0.090414405
C  C171  1  0.96130000  0.44640000  0.23520000  1.0 -0.0414375256
C  C172  1  0.03050000  0.43070000  0.24530000  1.0 -0.1390209655
C  C173  1  0.07210000  0.42090000  0.28590000  1.0 -0.2307985086
C  C174  1  0.91560000  0.45130000  0.19100000  1.0 0.5035734779
C  C175  1  0.48470000  0.75630000  0.73780000  1.0 0.5994010987
C  C176  1  0.54048000  0.78240000  0.76588000  1.0 -0.0414375256
C  C177  1  0.58010000  0.76980000  0.80470000  1.0 -0.0793239822
C  C178  1  0.63620000  0.79250000  0.83030000  1.0 -0.1723877984
C  C179  1  0.65080000  0.82884000  0.81620000  1.0 0.2292157979
C  C180  1  0.61120000  0.84140000  0.77840000  1.0 -0.201888569
C  C181  1  0.55840000  0.81820000  0.75250000  1.0 -0.0714809857
C  C182  1  0.77498000  0.84395000  0.86268000  1.0 0.5100300771
C  C183  1  0.82284000  0.87620000  0.88614000  1.0 -0.0104344682
C  C184  1  0.88144000  0.86581000  0.92054000  1.0 -0.1272495765
C  C185  1  0.92761000  0.89449000  0.94421000  1.0 -0.0196970287
C  C186  1  0.91680000  0.93319000  0.93210000  1.0 -0.1102156071
C  C187  1  0.86045000  0.94417000  0.89685000  1.0 -0.031009729
C  C188  1  0.81338000  0.91465000  0.87428000  1.0 -0.1272495765
C  C189  1  0.99350000  0.88400000  0.97990000  1.0 0.4613120528
C  C190  1  0.05630000  0.82260000  0.01560000  1.0 0.2093298519
C  C191  1  0.12280000  0.83650000  0.03950000  1.0 -0.2206574594
C  C192  1  0.17940000  0.80990000  0.05550000  1.0 -0.1102156071
C  C193  1  0.17070000  0.76960000  0.04730000  1.0 -0.0414375256
C  C194  1  0.10240000  0.75610000  0.02410000  1.0 -0.1272495765
C  C195  1  0.04550000  0.78220000  0.00870000  1.0 -0.2101301203
C  C196  1  0.23480000  0.74110000  0.06120000  1.0 0.5317656771
C  C197  1  0.85110000  0.98610000  0.88490000  1.0 0.4613120528
C  C198  1  0.78300000  0.02840000  0.82580000  1.0 0.2230761489
C  C199  1  0.75620000  0.02790000  0.78310000  1.0 -0.201888569
C  C200  1  0.71710000  0.05970000  0.76170000  1.0 -0.090414405
C  C201  1  0.70312000  0.09249000  0.78272000  1.0 -0.0455604186
C  C202  1  0.73230000  0.09290000  0.82480000  1.0 -0.090414405
C  C203  1  0.77310000  0.06102000  0.84620000  1.0 -0.1924524646
C  C204  1  0.66180000  0.12641000  0.75980000  1.0 0.5701510804
C  C205  1  0.93010000  0.78480000  0.62420000  1.0 0.5192323353
C  C206  1  0.01680000  0.79040000  0.59110000  1.0 0.0905265182
C  C207  1  0.01328000  0.74800000  0.60348000  1.0 0.0823674404
C  C208  1  0.13130000  0.77020000  0.63290000  1.0 0.5035734779
C  C209  1  0.93960000  0.84980000  0.59540000  1.0 0.0212350959
C  C210  1  0.12360000  0.83840000  0.60540000  1.0 0.0026758981
C  C211  1  0.96160000  0.90210000  0.64710000  1.0 0.5192323353
C  C212  1  0.04910000  0.89460000  0.61610000  1.0 0.0905265182
C  C213  1  0.06950000  0.92980000  0.64620000  1.0 0.0905265182
C  C214  1  0.16610000  0.88450000  0.66200000  1.0 0.5035734779
C  C215  1  0.00070000  0.96230000  0.68760000  1.0 0.0123326825
C  C216  1  0.18970000  0.94610000  0.70170000  1.0 0.0123326825
C  C217  1  0.02420000  0.94910000  0.76010000  1.0 0.5192323353
C  C218  1  0.12110000  0.97730000  0.74340000  1.0 0.0998695412
C  C219  1  0.13740000  0.97940000  0.79000000  1.0 0.0905265182
C  C220  1  0.23120000  0.94550000  0.77660000  1.0 0.5192323353
C  C221  1  0.06400000  0.95790000  0.83380000  1.0 0.0123326825
C  C222  1  0.25540000  0.96350000  0.84850000  1.0 0.0212350959
C  C223  1  0.07860000  0.89970000  0.87820000  1.0 0.5100300771
C  C224  1  0.18040000  0.93940000  0.89100000  1.0 0.0998695412
C  C225  1  0.19640000  0.90683000  0.92350000  1.0 0.0905265182
C  C226  1  0.28714000  0.90668000  0.89394000  1.0 0.5192323353
C  C227  1  0.11190000  0.85638000  0.93690000  1.0 0.0212350959
C  C228  1  0.29893000  0.85676000  0.94753000  1.0 0.0212350959
C  C229  1  0.09234000  0.78570000  0.92164000  1.0 0.5383405111
C  C230  1  0.21202000  0.80407000  0.95592000  1.0 0.1112685522
C  C231  1  0.20811000  0.75948000  0.94691000  1.0 0.0905265182
C  C232  1  0.28780000  0.78966000  0.91800000  1.0 0.5192323353
C  C233  1  0.09935000  0.71321000  0.91975000  1.0 0.0123326825
C  C234  1  0.27189000  0.71872000  0.90709000  1.0 0.0212350959
C  C235  1  0.04257000  0.70151000  0.84617000  1.0 0.5383405111
C  C236  1  0.15842000  0.67650000  0.87612000  1.0 0.0905265182
C  C237  1  0.12532000  0.65902000  0.83322000  1.0 0.0998695412
C  C238  1  0.23425000  0.69032000  0.83785000  1.0 0.5383405111
C  C239  1  0.00325000  0.67170000  0.77865000  1.0 0.0212350959
C  C240  1  0.18297000  0.64549000  0.77927000  1.0 0.0212350959
C  C241  1  0.96910000  0.70370000  0.71280000  1.0 0.5317656771
C  C242  1  0.06005000  0.65630000  0.72475000  1.0 0.0905265182
C  C243  1  0.03922000  0.67060000  0.68092000  1.0 0.0823674404
C  C244  1  0.16339000  0.68159000  0.71449000  1.0 0.5317656771
C  C245  1  0.93380000  0.71470000  0.63870000  1.0 0.0123326825
C  C246  1  0.11570000  0.69950000  0.64200000  1.0 -0.0027868111
C  C247  1  0.47880000  0.88800000  0.66710000  1.0 0.5192323353
C  C248  1  0.52280000  0.94760000  0.69890000  1.0 0.0905265182
C  C249  1  0.56720000  0.93460000  0.67230000  1.0 0.0823674404
C  C250  1  0.64410000  0.93800000  0.74020000  1.0 0.5100300771
C  C251  1  0.41220000  0.91560000  0.70900000  1.0 0.0123326825
C  C252  1  0.56450000  0.96770000  0.77400000  1.0 0.0212350959
C  C253  1  0.40370000  0.87130000  0.76340000  1.0 0.5317656771
C  C254  1  0.45640000  0.93290000  0.78390000  1.0 0.1112685522
C  C255  1  0.45040000  0.91020000  0.82180000  1.0 0.1200423971
C  C256  1  0.57370000  0.92606000  0.83250000  1.0 0.5192323353
C  C257  1  0.38460000  0.84761000  0.82560000  1.0 0.0303946893
C  C258  1  0.54800000  0.89637000  0.89090000  1.0 0.0303946893
C  C259  1  0.42808000  0.78247000  0.85258000  1.0 0.5570544572
C  C260  1  0.47804000  0.83458000  0.89564000  1.0 0.1112685522
C  C261  1  0.50549000  0.79521000  0.91819000  1.0 0.0998695412
C  C262  1  0.60549000  0.83289000  0.91649000  1.0 0.5192323353
C  C263  1  0.46178000  0.72617000  0.89878000  1.0 0.0303946893
C  C264  1  0.63393000  0.76834000  0.94933000  1.0 0.0123326825
C  C265  1  0.51204000  0.68056000  0.86144000  1.0 0.5317656771
C  C266  1  0.59156000  0.69799000  0.92586000  1.0 0.0998695412
C  C267  1  0.62706000  0.66570000  0.90806000  1.0 0.0998695412
C  C268  1  0.69984000  0.72150000  0.92044000  1.0 0.5100300771
C  C269  1  0.57815000  0.63036000  0.83885000  1.0 0.0212350959
C  C270  1  0.75404000  0.66160000  0.90394000  1.0 0.0212350959
C  C271  1  0.79339000  0.67650000  0.84589000  1.0 0.5317656771
C  C272  1  0.70564000  0.62750000  0.83534000  1.0 0.0905265182
C  C273  1  0.73150000  0.62960000  0.79810000  1.0 0.0905265182
C  C274  1  0.60772000  0.64338000  0.77672000  1.0 0.5383405111
C  C275  1  0.83530000  0.66960000  0.78780000  1.0 0.0123326825
C  C276  1  0.66373000  0.63842000  0.72303000  1.0 0.0212350959
C  C277  1  0.81319000  0.73550000  0.75599000  1.0 0.5701510804
C  C278  1  0.76224000  0.68340000  0.71304000  1.0 0.0905265182
C  C279  1  0.75595000  0.72030000  0.68825000  1.0 0.0998695412
C  C280  1  0.63872000  0.69660000  0.67952000  1.0 0.5192323353
C  C281  1  0.81140000  0.78790000  0.70820000  1.0 0.0303946893
C  C282  1  0.65050000  0.74860000  0.63090000  1.0 0.0212350959
C  C283  1  0.75540000  0.85220000  0.70960000  1.0 0.5192323353
C  C284  1  0.71100000  0.81690000  0.64900000  1.0 0.0998695412
C  C285  1  0.67760000  0.85740000  0.64310000  1.0 0.0823674404
C  C286  1  0.58650000  0.81050000  0.62920000  1.0 0.5383405111
C  C287  1  0.54510000  0.87880000  0.61910000  1.0 0.0123326825
C  C288  1  0.70220000  0.91750000  0.68900000  1.0 0.0212350959
C  C289  1  0.38110000  0.87540000  0.10940000  1.0 0.5497352751
C  C290  1  0.33746000  0.91163000  0.09226000  1.0 -0.0196970287
C  C291  1  0.35300000  0.94850000  0.11170000  1.0 -0.090414405
C  C292  1  0.31651000  0.98193000  0.09371000  1.0 -0.1723877984
C  C293  1  0.26274000  0.97861000  0.05564000  1.0 0.2399006048
C  C294  1  0.24310000  0.94220000  0.03770000  1.0 -0.201888569
C  C295  1  0.28160000  0.90906000  0.05580000  1.0 -0.090414405
C  C296  1  0.25478000  0.04664000  0.03188000  1.0 0.4613120528
C  C297  1  0.20883000  0.07382000  0.99923000  1.0 -0.0027868111
C  C298  1  0.20665000  0.11397000  0.00665000  1.0 -0.090414405
C  C299  1  0.16731000  0.13854000  0.97481000  1.0 -0.0104344682
C  C300  1  0.13096000  0.12340000  0.93686000  1.0 -0.1924524646
C  C301  1  0.13298000  0.08283000  0.92978000  1.0 -0.0104344682
C  C302  1  0.17206000  0.05848000  0.96136000  1.0 -0.1390209655
C  C303  1  0.16355000  0.18169000  0.98365000  1.0 0.4674185934
C  C304  1  0.19852000  0.24808000  0.96772000  1.0 0.2230761489
C  C305  1  0.15770000  0.27062000  0.98540000  1.0 -0.1924524646
C  C306  1  0.17060000  0.31040000  0.99050000  1.0 -0.090414405
C  C307  1  0.22360000  0.32880000  0.97810000  1.0 -0.031009729
C  C308  1  0.26260000  0.30710000  0.96090000  1.0 -0.090414405
C  C309  1  0.25180000  0.26610000  0.95490000  1.0 -0.2307985086
C  C310  1  0.23620000  0.37370000  0.98430000  1.0 0.5497352751
C  C311  1  0.09130000  0.06440000  0.89040000  1.0 0.4504652964
C  C312  1  0.04540000  0.07170000  0.81650000  1.0 0.2016351344
C  C313  1  0.97870000  0.05400000  0.80750000  1.0 -0.201888569
C  C314  1  0.93860000  0.04580000  0.76590000  1.0 -0.090414405
C  C315  1  0.96130000  0.05360000  0.73520000  1.0 -0.0414375256
C  C316  1  0.03050000  0.06930000  0.74530000  1.0 -0.1390209655
C  C317  1  0.07210000  0.07910000  0.78590000  1.0 -0.2307985086
C  C318  1  0.91560000  0.04870000  0.69100000  1.0 0.5035734779
C  C319  1  0.48470000  0.74370000  0.23780000  1.0 0.5994010987
C  C320  1  0.54048000  0.71760000  0.26588000  1.0 -0.0414375256
C  C321  1  0.58010000  0.73020000  0.30470000  1.0 -0.0793239822
C  C322  1  0.63620000  0.70750000  0.33030000  1.0 -0.1723877984
C  C323  1  0.65080000  0.67116000  0.31620000  1.0 0.2292157979
C  C324  1  0.61120000  0.65860000  0.27840000  1.0 -0.201888569
C  C325  1  0.55840000  0.68180000  0.25250000  1.0 -0.0714809857
C  C326  1  0.77498000  0.65605000  0.36268000  1.0 0.5100300771
C  C327  1  0.82284000  0.62380000  0.38614000  1.0 -0.0104344682
C  C328  1  0.88144000  0.63419000  0.42054000  1.0 -0.1272495765
C  C329  1  0.92761000  0.60551000  0.44421000  1.0 -0.0196970287
C  C330  1  0.91680000  0.56681000  0.43210000  1.0 -0.1102156071
C  C331  1  0.86045000  0.55583000  0.39685000  1.0 -0.031009729
C  C332  1  0.81338000  0.58535000  0.37428000  1.0 -0.1272495765
C  C333  1  0.99350000  0.61600000  0.47990000  1.0 0.4613120528
C  C334  1  0.05630000  0.67740000  0.51560000  1.0 0.2093298519
C  C335  1  0.12280000  0.66350000  0.53950000  1.0 -0.2101301203
C  C336  1  0.17940000  0.69010000  0.55550000  1.0 -0.1102156071
C  C337  1  0.17070000  0.73040000  0.54730000  1.0 -0.0414375256
C  C338  1  0.10240000  0.74390000  0.52410000  1.0 -0.1272495765
C  C339  1  0.04550000  0.71780000  0.50870000  1.0 -0.2101301203
C  C340  1  0.23480000  0.75890000  0.56120000  1.0 0.5317656771
C  C341  1  0.85110000  0.51390000  0.38490000  1.0 0.4613120528
C  C342  1  0.78300000  0.47160000  0.32580000  1.0 0.2230761489
C  C343  1  0.75620000  0.47210000  0.28310000  1.0 -0.201888569
C  C344  1  0.71710000  0.44030000  0.26170000  1.0 -0.090414405
C  C345  1  0.70312000  0.40751000  0.28272000  1.0 -0.0455604186
C  C346  1  0.73230000  0.40710000  0.32480000  1.0 -0.090414405
C  C347  1  0.77310000  0.43898000  0.34620000  1.0 -0.1924524646
C  C348  1  0.66180000  0.37359000  0.25980000  1.0 0.5701510804
C  C349  1  0.93010000  0.71520000  0.12420000  1.0 0.5192323353
C  C350  1  0.01680000  0.70960000  0.09110000  1.0 0.0823674404
C  C351  1  0.01328000  0.75200000  0.10348000  1.0 0.0823674404
C  C352  1  0.13130000  0.72980000  0.13290000  1.0 0.5035734779
C  C353  1  0.93960000  0.65020000  0.09540000  1.0 0.0212350959
C  C354  1  0.12360000  0.66160000  0.10540000  1.0 0.0026758981
C  C355  1  0.96160000  0.59790000  0.14710000  1.0 0.5192323353
C  C356  1  0.04910000  0.60540000  0.11610000  1.0 0.0905265182
C  C357  1  0.06950000  0.57020000  0.14620000  1.0 0.0905265182
C  C358  1  0.16610000  0.61550000  0.16200000  1.0 0.5035734779
C  C359  1  0.00070000  0.53770000  0.18760000  1.0 0.0123326825
C  C360  1  0.18970000  0.55390000  0.20170000  1.0 0.0212350959
C  C361  1  0.02420000  0.55090000  0.26010000  1.0 0.5192323353
C  C362  1  0.12110000  0.52270000  0.24340000  1.0 0.0998695412
C  C363  1  0.13740000  0.52060000  0.29000000  1.0 0.0905265182
C  C364  1  0.23120000  0.55450000  0.27660000  1.0 0.5192323353
C  C365  1  0.06400000  0.54210000  0.33380000  1.0 0.0123326825
C  C366  1  0.25540000  0.53650000  0.34850000  1.0 0.0212350959
C  C367  1  0.07860000  0.60030000  0.37820000  1.0 0.5100300771
C  C368  1  0.18040000  0.56060000  0.39100000  1.0 0.0998695412
C  C369  1  0.19640000  0.59317000  0.42350000  1.0 0.0905265182
C  C370  1  0.28714000  0.59332000  0.39394000  1.0 0.5192323353
C  C371  1  0.11190000  0.64362000  0.43690000  1.0 0.0212350959
C  C372  1  0.29893000  0.64324000  0.44753000  1.0 0.0212350959
C  C373  1  0.09234000  0.71430000  0.42164000  1.0 0.5383405111
C  C374  1  0.21202000  0.69593000  0.45592000  1.0 0.1112685522
C  C375  1  0.20811000  0.74052000  0.44691000  1.0 0.0905265182
C  C376  1  0.28780000  0.71034000  0.41800000  1.0 0.5192323353
C  C377  1  0.09935000  0.78679000  0.41975000  1.0 0.0123326825
C  C378  1  0.27189000  0.78128000  0.40709000  1.0 0.0212350959
C  C379  1  0.04257000  0.79849000  0.34617000  1.0 0.5383405111
C  C380  1  0.15842000  0.82350000  0.37612000  1.0 0.0905265182
C  C381  1  0.12532000  0.84098000  0.33322000  1.0 0.0998695412
C  C382  1  0.23425000  0.80968000  0.33785000  1.0 0.5383405111
C  C383  1  0.00325000  0.82830000  0.27865000  1.0 0.0212350959
C  C384  1  0.18297000  0.85451000  0.27927000  1.0 0.0212350959
C  C385  1  0.96910000  0.79630000  0.21280000  1.0 0.5317656771
C  C386  1  0.06005000  0.84370000  0.22475000  1.0 0.0905265182
C  C387  1  0.03922000  0.82940000  0.18092000  1.0 0.0823674404
C  C388  1  0.16339000  0.81841000  0.21449000  1.0 0.5317656771
C  C389  1  0.93380000  0.78530000  0.13870000  1.0 0.0123326825
C  C390  1  0.11570000  0.80050000  0.14200000  1.0 -0.0027868111
C  C391  1  0.47880000  0.61200000  0.16710000  1.0 0.5192323353
C  C392  1  0.52280000  0.55240000  0.19890000  1.0 0.0905265182
C  C393  1  0.56720000  0.56540000  0.17230000  1.0 0.0823674404
C  C394  1  0.64410000  0.56200000  0.24020000  1.0 0.5100300771
C  C395  1  0.41220000  0.58440000  0.20900000  1.0 0.0123326825
C  C396  1  0.56450000  0.53230000  0.27400000  1.0 0.0212350959
C  C397  1  0.40370000  0.62870000  0.26340000  1.0 0.5317656771
C  C398  1  0.45640000  0.56710000  0.28390000  1.0 0.1112685522
C  C399  1  0.45040000  0.58980000  0.32180000  1.0 0.1200423971
C  C400  1  0.57370000  0.57394000  0.33250000  1.0 0.5192323353
C  C401  1  0.38460000  0.65239000  0.32560000  1.0 0.0303946893
C  C402  1  0.54800000  0.60363000  0.39090000  1.0 0.0303946893
C  C403  1  0.42808000  0.71753000  0.35258000  1.0 0.5570544572
C  C404  1  0.47804000  0.66542000  0.39564000  1.0 0.1112685522
C  C405  1  0.50549000  0.70479000  0.41819000  1.0 0.0998695412
C  C406  1  0.60549000  0.66711000  0.41649000  1.0 0.5192323353
C  C407  1  0.46178000  0.77383000  0.39878000  1.0 0.0303946893
C  C408  1  0.63393000  0.73166000  0.44933000  1.0 0.0123326825
C  C409  1  0.51204000  0.81944000  0.36144000  1.0 0.5317656771
C  C410  1  0.59156000  0.80201000  0.42586000  1.0 0.0998695412
C  C411  1  0.62706000  0.83430000  0.40806000  1.0 0.0998695412
C  C412  1  0.69984000  0.77850000  0.42044000  1.0 0.5100300771
C  C413  1  0.57815000  0.86964000  0.33885000  1.0 0.0212350959
C  C414  1  0.75404000  0.83840000  0.40394000  1.0 0.0212350959
C  C415  1  0.79339000  0.82350000  0.34589000  1.0 0.5317656771
C  C416  1  0.70564000  0.87250000  0.33534000  1.0 0.0905265182
C  C417  1  0.73150000  0.87040000  0.29810000  1.0 0.0905265182
C  C418  1  0.60772000  0.85662000  0.27672000  1.0 0.5383405111
C  C419  1  0.83530000  0.83040000  0.28780000  1.0 0.0123326825
C  C420  1  0.66373000  0.86158000  0.22303000  1.0 0.0212350959
C  C421  1  0.81319000  0.76450000  0.25599000  1.0 0.5701510804
C  C422  1  0.76224000  0.81660000  0.21304000  1.0 0.0905265182
C  C423  1  0.75595000  0.77970000  0.18825000  1.0 0.0998695412
C  C424  1  0.63872000  0.80340000  0.17952000  1.0 0.5192323353
C  C425  1  0.81140000  0.71210000  0.20820000  1.0 0.0303946893
C  C426  1  0.65050000  0.75140000  0.13090000  1.0 0.0212350959
C  C427  1  0.75540000  0.64780000  0.20960000  1.0 0.5192323353
C  C428  1  0.71100000  0.68310000  0.14900000  1.0 0.0998695412
C  C429  1  0.67760000  0.64260000  0.14310000  1.0 0.0823674404
C  C430  1  0.58650000  0.68950000  0.12920000  1.0 0.5383405111
C  C431  1  0.54510000  0.62120000  0.11910000  1.0 0.0123326825
C  C432  1  0.70220000  0.58250000  0.18900000  1.0 0.0212350959
C  C433  1  0.61890000  0.37540000  0.39060000  1.0 0.5497352751
C  C434  1  0.66254000  0.41163000  0.40774000  1.0 -0.0196970287
C  C435  1  0.64700000  0.44850000  0.38830000  1.0 -0.090414405
C  C436  1  0.68349000  0.48193000  0.40629000  1.0 -0.1723877984
C  C437  1  0.73726000  0.47861000  0.44436000  1.0 0.2399006048
C  C438  1  0.75690000  0.44220000  0.46230000  1.0 -0.201888569
C  C439  1  0.71840000  0.40906000  0.44420000  1.0 -0.090414405
C  C440  1  0.74522000  0.54664000  0.46812000  1.0 0.4613120528
C  C441  1  0.79117000  0.57382000  0.50077000  1.0 -0.0027868111
C  C442  1  0.79335000  0.61397000  0.49335000  1.0 -0.090414405
C  C443  1  0.83269000  0.63854000  0.52519000  1.0 -0.0104344682
C  C444  1  0.86904000  0.62340000  0.56314000  1.0 -0.1924524646
C  C445  1  0.86702000  0.58283000  0.57022000  1.0 -0.0104344682
C  C446  1  0.82794000  0.55848000  0.53864000  1.0 -0.1390209655
C  C447  1  0.83645000  0.68169000  0.51635000  1.0 0.4674185934
C  C448  1  0.80148000  0.74808000  0.53228000  1.0 0.2230761489
C  C449  1  0.84230000  0.77062000  0.51460000  1.0 -0.1924524646
C  C450  1  0.82940000  0.81040000  0.50950000  1.0 -0.090414405
C  C451  1  0.77640000  0.82880000  0.52190000  1.0 -0.031009729
C  C452  1  0.73740000  0.80710000  0.53910000  1.0 -0.090414405
C  C453  1  0.74820000  0.76610000  0.54510000  1.0 -0.2307985086
C  C454  1  0.76380000  0.87370000  0.51570000  1.0 0.5497352751
C  C455  1  0.90870000  0.56440000  0.60960000  1.0 0.4504652964
C  C456  1  0.95460000  0.57170000  0.68350000  1.0 0.2016351344
C  C457  1  0.02130000  0.55400000  0.69250000  1.0 -0.201888569
C  C458  1  0.06140000  0.54580000  0.73410000  1.0 -0.090414405
C  C459  1  0.03870000  0.55360000  0.76480000  1.0 -0.0414375256
C  C460  1  0.96950000  0.56930000  0.75470000  1.0 -0.1390209655
C  C461  1  0.92790000  0.57910000  0.71410000  1.0 -0.2307985086
C  C462  1  0.08440000  0.54870000  0.80900000  1.0 0.5035734779
C  C463  1  0.51530000  0.24370000  0.26220000  1.0 0.5994010987
C  C464  1  0.45952000  0.21760000  0.23412000  1.0 -0.0414375256
C  C465  1  0.41990000  0.23020000  0.19530000  1.0 -0.0793239822
C  C466  1  0.36380000  0.20750000  0.16970000  1.0 -0.1723877984
C  C467  1  0.34920000  0.17116000  0.18380000  1.0 0.2292157979
C  C468  1  0.38880000  0.15860000  0.22160000  1.0 -0.201888569
C  C469  1  0.44160000  0.18180000  0.24750000  1.0 -0.0714809857
C  C470  1  0.22502000  0.15605000  0.13732000  1.0 0.5035734779
C  C471  1  0.17716000  0.12380000  0.11386000  1.0 -0.0104344682
C  C472  1  0.11856000  0.13419000  0.07946000  1.0 -0.1272495765
C  C473  1  0.07239000  0.10551000  0.05579000  1.0 -0.0196970287
C  C474  1  0.08320000  0.06681000  0.06790000  1.0 -0.1102156071
C  C475  1  0.13955000  0.05583000  0.10315000  1.0 -0.031009729
C  C476  1  0.18662000  0.08535000  0.12572000  1.0 -0.1272495765
C  C477  1  0.00650000  0.11600000  0.02010000  1.0 0.4613120528
C  C478  1  0.94370000  0.17740000  0.98440000  1.0 0.2093298519
C  C479  1  0.87720000  0.16350000  0.96050000  1.0 -0.2101301203
C  C480  1  0.82060000  0.19010000  0.94450000  1.0 -0.1102156071
C  C481  1  0.82930000  0.23040000  0.95270000  1.0 -0.0414375256
C  C482  1  0.89760000  0.24390000  0.97590000  1.0 -0.1272495765
C  C483  1  0.95450000  0.21780000  0.99130000  1.0 -0.2101301203
C  C484  1  0.76520000  0.25890000  0.93880000  1.0 0.5317656771
C  C485  1  0.14890000  0.01390000  0.11510000  1.0 0.4613120528
C  C486  1  0.21700000  0.97160000  0.17420000  1.0 0.2230761489
C  C487  1  0.24380000  0.97210000  0.21690000  1.0 -0.201888569
C  C488  1  0.28290000  0.94030000  0.23830000  1.0 -0.090414405
C  C489  1  0.29688000  0.90751000  0.21728000  1.0 -0.0455604186
C  C490  1  0.26770000  0.90710000  0.17520000  1.0 -0.090414405
C  C491  1  0.22690000  0.93898000  0.15380000  1.0 -0.1924524646
C  C492  1  0.33820000  0.87359000  0.24020000  1.0 0.5701510804
C  C493  1  0.06990000  0.21520000  0.37580000  1.0 0.5192323353
C  C494  1  0.98320000  0.20960000  0.40890000  1.0 0.0905265182
C  C495  1  0.98672000  0.25200000  0.39652000  1.0 0.0905265182
C  C496  1  0.86870000  0.22980000  0.36710000  1.0 0.5035734779
C  C497  1  0.06040000  0.15020000  0.40460000  1.0 0.0212350959
C  C498  1  0.87640000  0.16160000  0.39460000  1.0 0.0026758981
C  C499  1  0.03840000  0.09790000  0.35290000  1.0 0.5192323353
C  C500  1  0.95090000  0.10540000  0.38390000  1.0 0.0905265182
C  C501  1  0.93050000  0.07020000  0.35380000  1.0 0.0905265182
C  C502  1  0.83390000  0.11550000  0.33800000  1.0 0.5035734779
C  C503  1  0.99930000  0.03770000  0.31240000  1.0 0.0123326825
C  C504  1  0.81030000  0.05390000  0.29830000  1.0 0.0212350959
C  C505  1  0.97580000  0.05090000  0.23990000  1.0 0.5192323353
C  C506  1  0.87890000  0.02270000  0.25660000  1.0 0.0998695412
C  C507  1  0.86260000  0.02060000  0.21000000  1.0 0.0905265182
C  C508  1  0.76880000  0.05450000  0.22340000  1.0 0.5192323353
C  C509  1  0.93600000  0.04210000  0.16620000  1.0 0.0123326825
C  C510  1  0.74460000  0.03650000  0.15150000  1.0 0.0212350959
C  C511  1  0.92140000  0.10030000  0.12180000  1.0 0.5100300771
C  C512  1  0.81960000  0.06060000  0.10900000  1.0 0.0998695412
C  C513  1  0.80360000  0.09317000  0.07650000  1.0 0.0905265182
C  C514  1  0.71286000  0.09332000  0.10606000  1.0 0.5192323353
C  C515  1  0.88810000  0.14362000  0.06310000  1.0 0.0212350959
C  C516  1  0.70107000  0.14324000  0.05247000  1.0 0.0212350959
C  C517  1  0.90766000  0.21430000  0.07836000  1.0 0.5383405111
C  C518  1  0.78798000  0.19593000  0.04408000  1.0 0.1112685522
C  C519  1  0.79189000  0.24052000  0.05309000  1.0 0.0905265182
C  C520  1  0.71220000  0.21034000  0.08200000  1.0 0.5192323353
C  C521  1  0.90065000  0.28679000  0.08025000  1.0 0.0123326825
C  C522  1  0.72811000  0.28128000  0.09291000  1.0 0.0212350959
C  C523  1  0.95743000  0.29849000  0.15383000  1.0 0.5317656771
C  C524  1  0.84158000  0.32350000  0.12388000  1.0 0.0905265182
C  C525  1  0.87468000  0.34098000  0.16678000  1.0 0.0998695412
C  C526  1  0.76575000  0.30968000  0.16215000  1.0 0.5383405111
C  C527  1  0.99675000  0.32830000  0.22135000  1.0 0.0212350959
C  C528  1  0.81703000  0.35451000  0.22073000  1.0 0.0212350959
C  C529  1  0.03090000  0.29630000  0.28720000  1.0 0.5317656771
C  C530  1  0.93995000  0.34370000  0.27525000  1.0 0.0905265182
C  C531  1  0.96078000  0.32940000  0.31908000  1.0 0.0823674404
C  C532  1  0.83661000  0.31841000  0.28551000  1.0 0.5317656771
C  C533  1  0.06620000  0.28530000  0.36130000  1.0 0.0123326825
C  C534  1  0.88430000  0.30050000  0.35800000  1.0 -0.0027868111
C  C535  1  0.52120000  0.11200000  0.33290000  1.0 0.5192323353
C  C536  1  0.47720000  0.05240000  0.30110000  1.0 0.0905265182
C  C537  1  0.43280000  0.06540000  0.32770000  1.0 0.0823674404
C  C538  1  0.35590000  0.06200000  0.25980000  1.0 0.5100300771
C  C539  1  0.58780000  0.08440000  0.29100000  1.0 0.0123326825
C  C540  1  0.43550000  0.03230000  0.22600000  1.0 0.0212350959
C  C541  1  0.59630000  0.12870000  0.23660000  1.0 0.5317656771
C  C542  1  0.54360000  0.06710000  0.21610000  1.0 0.1112685522
C  C543  1  0.54960000  0.08980000  0.17820000  1.0 0.1200423971
C  C544  1  0.42630000  0.07394000  0.16750000  1.0 0.5192323353
C  C545  1  0.61540000  0.15239000  0.17440000  1.0 0.0303946893
C  C546  1  0.45200000  0.10363000  0.10910000  1.0 0.0303946893
C  C547  1  0.57192000  0.21753000  0.14742000  1.0 0.5570544572
C  C548  1  0.52196000  0.16542000  0.10436000  1.0 0.1112685522
C  C549  1  0.49451000  0.20479000  0.08181000  1.0 0.0998695412
C  C550  1  0.39451000  0.16711000  0.08351000  1.0 0.5192323353
C  C551  1  0.53822000  0.27383000  0.10122000  1.0 0.0303946893
C  C552  1  0.36607000  0.23166000  0.05067000  1.0 0.0123326825
C  C553  1  0.48796000  0.31944000  0.13856000  1.0 0.5317656771
C  C554  1  0.40844000  0.30201000  0.07414000  1.0 0.0998695412
C  C555  1  0.37294000  0.33430000  0.09194000  1.0 0.0905265182
C  C556  1  0.30016000  0.27850000  0.07956000  1.0 0.5100300771
C  C557  1  0.42185000  0.36964000  0.16115000  1.0 0.0212350959
C  C558  1  0.24596000  0.33840000  0.09606000  1.0 0.0212350959
C  C559  1  0.20661000  0.32350000  0.15411000  1.0 0.5317656771
C  C560  1  0.29436000  0.37250000  0.16466000  1.0 0.0905265182
C  C561  1  0.26850000  0.37040000  0.20190000  1.0 0.0905265182
C  C562  1  0.39228000  0.35662000  0.22328000  1.0 0.5383405111
C  C563  1  0.16470000  0.33040000  0.21220000  1.0 0.0123326825
C  C564  1  0.33627000  0.36158000  0.27697000  1.0 0.0212350959
C  C565  1  0.18681000  0.26450000  0.24401000  1.0 0.5701510804
C  C566  1  0.23776000  0.31660000  0.28696000  1.0 0.0905265182
C  C567  1  0.24405000  0.27970000  0.31175000  1.0 0.0998695412
C  C568  1  0.36128000  0.30340000  0.32048000  1.0 0.5192323353
C  C569  1  0.18860000  0.21210000  0.29180000  1.0 0.0303946893
C  C570  1  0.34950000  0.25140000  0.36910000  1.0 0.0212350959
C  C571  1  0.24460000  0.14780000  0.29040000  1.0 0.5192323353
C  C572  1  0.28900000  0.18310000  0.35100000  1.0 0.0998695412
C  C573  1  0.32240000  0.14260000  0.35690000  1.0 0.0823674404
C  C574  1  0.41350000  0.18950000  0.37080000  1.0 0.5383405111
C  C575  1  0.45490000  0.12120000  0.38090000  1.0 0.0123326825
C  C576  1  0.29780000  0.08250000  0.31100000  1.0 0.0212350959
N  N1  1  0.77423000  0.98846000  0.96613000  1.0 -0.3616959704
N  N2  1  0.80893000  0.79318000  0.03783000  1.0 -0.3772789752
N  N3  1  0.91387000  0.91570000  0.14337000  1.0 -0.3772789752
N  N4  1  0.29381000  0.35424000  0.65821000  1.0 -0.3686097143
N  N5  1  0.00571000  0.34743000  0.50591000  1.0 -0.3907822585
N  N6  1  0.18282000  0.49312000  0.65492000  1.0 -0.3616959704
N  N7  1  0.03872000  0.24890000  0.87492000  1.0 -0.2101301203
N  N8  1  0.03471000  0.31070000  0.89401000  1.0 -0.2307985086
N  N9  1  0.91265000  0.23878000  0.87155000  1.0 -0.2307985086
N  N10  1  0.90801000  0.30131000  0.88801000  1.0 -0.2491353077
N  N11  1  0.01511000  0.37920000  0.87791000  1.0 -0.2307985086
N  N12  1  0.98811000  0.43000000  0.83681000  1.0 -0.201888569
N  N13  1  0.88685000  0.37018000  0.87045000  1.0 -0.2206574594
N  N14  1  0.85987000  0.41805000  0.82477000  1.0 -0.2491353077
N  N15  1  0.95243000  0.46030000  0.77053000  1.0 -0.2307985086
N  N16  1  0.92123000  0.45700000  0.70353000  1.0 -0.2410169346
N  N17  1  0.82358000  0.45159000  0.75988000  1.0 -0.2410169346
N  N18  1  0.79094000  0.46160000  0.69374000  1.0 -0.2206574594
N  N19  1  0.89184000  0.43058000  0.63584000  1.0 -0.2307985086
N  N20  1  0.86211000  0.31677000  0.56541000  1.0 -0.2410169346
N  N21  1  0.76168000  0.43414000  0.62608000  1.0 -0.2206574594
N  N22  1  0.74030000  0.38712000  0.57990000  1.0 -0.2491353077
N  N23  1  0.87030000  0.38364000  0.58910000  1.0 -0.2206574594
N  N24  1  0.86904000  0.25229000  0.57064000  1.0 -0.2307985086
N  N25  1  0.73411000  0.31816000  0.56041000  1.0 -0.2491353077
N  N26  1  0.75096000  0.25585000  0.58136000  1.0 -0.2307985086
N  N27  1  0.90035000  0.19836000  0.61875000  1.0 -0.2206574594
N  N28  1  0.94006000  0.18236000  0.68376000  1.0 -0.2307985086
N  N29  1  0.78127000  0.20065000  0.62757000  1.0 -0.2410169346
N  N30  1  0.81953000  0.16575000  0.68513000  1.0 -0.2410169346
N  N31  1  0.98172000  0.18141000  0.75792000  1.0 -0.2101301203
N  N32  1  0.01784000  0.19837000  0.82294000  1.0 -0.2307985086
N  N33  1  0.86171000  0.16215000  0.75871000  1.0 -0.2491353077
N  N34  1  0.89257000  0.18732000  0.82057000  1.0 -0.2206574594
N  N35  1  0.46930000  0.39931000  0.84780000  1.0 -0.2307985086
N  N36  1  0.52709000  0.41434000  0.80539000  1.0 -0.2410169346
N  N37  1  0.36124000  0.42760000  0.79874000  1.0 -0.2410169346
N  N38  1  0.42237000  0.45087000  0.76137000  1.0 -0.2410169346
N  N39  1  0.57152000  0.40507000  0.74862000  1.0 -0.258150048
N  N40  1  0.58089000  0.37315000  0.69509000  1.0 -0.2700582994
N  N41  1  0.46668000  0.44131000  0.70438000  1.0 -0.2206574594
N  N42  1  0.47300000  0.40699000  0.65130000  1.0 -0.2491353077
N  N43  1  0.56427000  0.32208000  0.64487000  1.0 -0.2491353077
N  N44  1  0.53091000  0.26573000  0.61171000  1.0 -0.2410169346
N  N45  1  0.45505000  0.35468000  0.60195000  1.0 -0.2307985086
N  N46  1  0.41700000  0.29755000  0.57330000  1.0 -0.2101301203
N  N47  1  0.36317000  0.23200000  0.57297000  1.0 -0.2700582994
N  N48  1  0.30349000  0.18253000  0.58809000  1.0 -0.2410169346
N  N49  1  0.48200000  0.20018000  0.60350000  1.0 -0.2410169346
N  N50  1  0.42314000  0.16220000  0.63404000  1.0 -0.258150048
N  N51  1  0.25361000  0.15807000  0.63841000  1.0 -0.2307985086
N  N52  1  0.21421000  0.16002000  0.69071000  1.0 -0.2491353077
N  N53  1  0.37246000  0.13638000  0.68346000  1.0 -0.2307985086
N  N54  1  0.33233000  0.13983000  0.73533000  1.0 -0.2410169346
N  N55  1  0.19727000  0.19546000  0.74587000  1.0 -0.258150048
N  N56  1  0.21700000  0.25125000  0.78160000  1.0 -0.2491353077
N  N57  1  0.31381000  0.17356000  0.79211000  1.0 -0.2307985086
N  N58  1  0.32133000  0.22395000  0.83363000  1.0 -0.258150048
N  N59  1  0.24378000  0.31622000  0.80868000  1.0 -0.2491353077
N  N60  1  0.29175000  0.37636000  0.81805000  1.0 -0.2307985086
N  N61  1  0.34994000  0.29038000  0.86034000  1.0 -0.2410169346
N  N62  1  0.40006000  0.34998000  0.86876000  1.0 -0.2491353077
N  N63  1  0.22577000  0.48846000  0.53387000  1.0 -0.3616959704
N  N64  1  0.19107000  0.29318000  0.46217000  1.0 -0.3772789752
N  N65  1  0.08613000  0.41570000  0.35663000  1.0 -0.3772789752
N  N66  1  0.70619000  0.85424000  0.84179000  1.0 -0.3686097143
N  N67  1  0.99429000  0.84743000  0.99409000  1.0 -0.3907822585
N  N68  1  0.81718000  0.99312000  0.84508000  1.0 -0.3616959704
N  N69  1  0.96128000  0.74890000  0.62508000  1.0 -0.2101301203
N  N70  1  0.96529000  0.81070000  0.60599000  1.0 -0.2307985086
N  N71  1  0.08735000  0.73878000  0.62845000  1.0 -0.2307985086
N  N72  1  0.09199000  0.80131000  0.61199000  1.0 -0.2491353077
N  N73  1  0.98489000  0.87920000  0.62209000  1.0 -0.2307985086
N  N74  1  0.01189000  0.93000000  0.66319000  1.0 -0.2101301203
N  N75  1  0.11315000  0.87018000  0.62955000  1.0 -0.2307985086
N  N76  1  0.14013000  0.91805000  0.67523000  1.0 -0.2491353077
N  N77  1  0.04757000  0.96030000  0.72947000  1.0 -0.2410169346
N  N78  1  0.07877000  0.95700000  0.79647000  1.0 -0.2410169346
N  N79  1  0.17642000  0.95159000  0.74012000  1.0 -0.2410169346
N  N80  1  0.20906000  0.96160000  0.80626000  1.0 -0.2206574594
N  N81  1  0.10816000  0.93058000  0.86416000  1.0 -0.2307985086
N  N82  1  0.13789000  0.81677000  0.93459000  1.0 -0.2410169346
N  N83  1  0.23832000  0.93414000  0.87392000  1.0 -0.2206574594
N  N84  1  0.25970000  0.88712000  0.92010000  1.0 -0.2491353077
N  N85  1  0.12970000  0.88364000  0.91090000  1.0 -0.2206574594
N  N86  1  0.13096000  0.75229000  0.92936000  1.0 -0.2307985086
N  N87  1  0.26589000  0.81816000  0.93959000  1.0 -0.2491353077
N  N88  1  0.24904000  0.75585000  0.91864000  1.0 -0.2410169346
N  N89  1  0.09965000  0.69836000  0.88125000  1.0 -0.2206574594
N  N90  1  0.05994000  0.68236000  0.81624000  1.0 -0.2307985086
N  N91  1  0.21873000  0.70065000  0.87243000  1.0 -0.2410169346
N  N92  1  0.18047000  0.66575000  0.81487000  1.0 -0.2410169346
N  N93  1  0.01828000  0.68141000  0.74208000  1.0 -0.2101301203
N  N94  1  0.98216000  0.69837000  0.67706000  1.0 -0.2307985086
N  N95  1  0.13829000  0.66215000  0.74129000  1.0 -0.2491353077
N  N96  1  0.10743000  0.68732000  0.67943000  1.0 -0.2206574594
N  N97  1  0.53070000  0.89931000  0.65220000  1.0 -0.2307985086
N  N98  1  0.47291000  0.91434000  0.69461000  1.0 -0.2491353077
N  N99  1  0.63876000  0.92760000  0.70126000  1.0 -0.2410169346
N  N100  1  0.57763000  0.95087000  0.73863000  1.0 -0.2410169346
N  N101  1  0.42848000  0.90507000  0.75138000  1.0 -0.258150048
N  N102  1  0.41911000  0.87315000  0.80491000  1.0 -0.2700582994
N  N103  1  0.53332000  0.94131000  0.79562000  1.0 -0.2206574594
N  N104  1  0.52700000  0.90699000  0.84870000  1.0 -0.2491353077
N  N105  1  0.43573000  0.82208000  0.85513000  1.0 -0.2491353077
N  N106  1  0.46909000  0.76573000  0.88829000  1.0 -0.2410169346
N  N107  1  0.54495000  0.85468000  0.89805000  1.0 -0.2307985086
N  N108  1  0.58300000  0.79755000  0.92670000  1.0 -0.2101301203
N  N109  1  0.63683000  0.73200000  0.92703000  1.0 -0.2700582994
N  N110  1  0.69651000  0.68253000  0.91191000  1.0 -0.2410169346
N  N111  1  0.51800000  0.70018000  0.89650000  1.0 -0.2410169346
N  N112  1  0.57686000  0.66220000  0.86596000  1.0 -0.258150048
N  N113  1  0.74639000  0.65807000  0.86159000  1.0 -0.2307985086
N  N114  1  0.78579000  0.66002000  0.80929000  1.0 -0.2491353077
N  N115  1  0.62754000  0.63638000  0.81654000  1.0 -0.2307985086
N  N116  1  0.66767000  0.63983000  0.76467000  1.0 -0.2410169346
N  N117  1  0.80273000  0.69546000  0.75413000  1.0 -0.258150048
N  N118  1  0.78300000  0.75125000  0.71840000  1.0 -0.2410169346
N  N119  1  0.68619000  0.67356000  0.70789000  1.0 -0.2307985086
N  N120  1  0.67867000  0.72395000  0.66637000  1.0 -0.2491353077
N  N121  1  0.75622000  0.81622000  0.69132000  1.0 -0.2491353077
N  N122  1  0.70825000  0.87636000  0.68195000  1.0 -0.2307985086
N  N123  1  0.65006000  0.79038000  0.63966000  1.0 -0.2491353077
N  N124  1  0.59994000  0.84998000  0.63124000  1.0 -0.2491353077
N  N125  1  0.22577000  0.01154000  0.03387000  1.0 -0.3616959704
N  N126  1  0.19107000  0.20682000  0.96217000  1.0 -0.3772789752
N  N127  1  0.08613000  0.08430000  0.85663000  1.0 -0.3772789752
N  N128  1  0.70619000  0.64576000  0.34179000  1.0 -0.3686097143
N  N129  1  0.99429000  0.65257000  0.49409000  1.0 -0.3907822585
N  N130  1  0.81718000  0.50688000  0.34508000  1.0 -0.3616959704
N  N131  1  0.96128000  0.75110000  0.12508000  1.0 -0.2101301203
N  N132  1  0.96529000  0.68930000  0.10599000  1.0 -0.2307985086
N  N133  1  0.08735000  0.76122000  0.12845000  1.0 -0.2307985086
N  N134  1  0.09199000  0.69869000  0.11199000  1.0 -0.2491353077
N  N135  1  0.98489000  0.62080000  0.12209000  1.0 -0.2307985086
N  N136  1  0.01189000  0.57000000  0.16319000  1.0 -0.2101301203
N  N137  1  0.11315000  0.62982000  0.12955000  1.0 -0.2307985086
N  N138  1  0.14013000  0.58195000  0.17523000  1.0 -0.2491353077
N  N139  1  0.04757000  0.53970000  0.22947000  1.0 -0.2410169346
N  N140  1  0.07877000  0.54300000  0.29647000  1.0 -0.2410169346
N  N141  1  0.17642000  0.54841000  0.24012000  1.0 -0.2410169346
N  N142  1  0.20906000  0.53840000  0.30626000  1.0 -0.2206574594
N  N143  1  0.10816000  0.56942000  0.36416000  1.0 -0.2307985086
N  N144  1  0.13789000  0.68323000  0.43459000  1.0 -0.2410169346
N  N145  1  0.23832000  0.56586000  0.37392000  1.0 -0.2206574594
N  N146  1  0.25970000  0.61288000  0.42010000  1.0 -0.2410169346
N  N147  1  0.12970000  0.61636000  0.41090000  1.0 -0.2206574594
N  N148  1  0.13096000  0.74771000  0.42936000  1.0 -0.2307985086
N  N149  1  0.26589000  0.68184000  0.43959000  1.0 -0.2491353077
N  N150  1  0.24904000  0.74415000  0.41864000  1.0 -0.2410169346
N  N151  1  0.09965000  0.80164000  0.38125000  1.0 -0.2206574594
N  N152  1  0.05994000  0.81764000  0.31624000  1.0 -0.2307985086
N  N153  1  0.21873000  0.79935000  0.37243000  1.0 -0.2410169346
N  N154  1  0.18047000  0.83425000  0.31487000  1.0 -0.2410169346
N  N155  1  0.01828000  0.81859000  0.24208000  1.0 -0.2101301203
N  N156  1  0.98216000  0.80163000  0.17706000  1.0 -0.2307985086
N  N157  1  0.13829000  0.83785000  0.24129000  1.0 -0.258150048
N  N158  1  0.10743000  0.81268000  0.17943000  1.0 -0.2206574594
N  N159  1  0.53070000  0.60069000  0.15220000  1.0 -0.2307985086
N  N160  1  0.47291000  0.58566000  0.19461000  1.0 -0.2491353077
N  N161  1  0.63876000  0.57240000  0.20126000  1.0 -0.2491353077
N  N162  1  0.57763000  0.54913000  0.23863000  1.0 -0.2410169346
N  N163  1  0.42848000  0.59493000  0.25138000  1.0 -0.2491353077
N  N164  1  0.41911000  0.62685000  0.30491000  1.0 -0.2700582994
N  N165  1  0.53332000  0.55869000  0.29562000  1.0 -0.2206574594
N  N166  1  0.52700000  0.59301000  0.34870000  1.0 -0.2491353077
N  N167  1  0.43573000  0.67792000  0.35513000  1.0 -0.2491353077
N  N168  1  0.46909000  0.73427000  0.38829000  1.0 -0.2410169346
N  N169  1  0.54495000  0.64532000  0.39805000  1.0 -0.2307985086
N  N170  1  0.58300000  0.70245000  0.42670000  1.0 -0.2101301203
N  N171  1  0.63683000  0.76800000  0.42703000  1.0 -0.2700582994
N  N172  1  0.69651000  0.81747000  0.41191000  1.0 -0.2410169346
N  N173  1  0.51800000  0.79982000  0.39650000  1.0 -0.2410169346
N  N174  1  0.57686000  0.83780000  0.36596000  1.0 -0.258150048
N  N175  1  0.74639000  0.84193000  0.36159000  1.0 -0.2307985086
N  N176  1  0.78579000  0.83998000  0.30929000  1.0 -0.2410169346
N  N177  1  0.62754000  0.86362000  0.31654000  1.0 -0.2307985086
N  N178  1  0.66767000  0.86017000  0.26467000  1.0 -0.2410169346
N  N179  1  0.80273000  0.80454000  0.25413000  1.0 -0.258150048
N  N180  1  0.78300000  0.74875000  0.21840000  1.0 -0.2491353077
N  N181  1  0.68619000  0.82644000  0.20789000  1.0 -0.2307985086
N  N182  1  0.67867000  0.77605000  0.16637000  1.0 -0.2491353077
N  N183  1  0.75622000  0.68378000  0.19132000  1.0 -0.2491353077
N  N184  1  0.70825000  0.62364000  0.18195000  1.0 -0.2206574594
N  N185  1  0.65006000  0.70962000  0.13966000  1.0 -0.2410169346
N  N186  1  0.59994000  0.65002000  0.13124000  1.0 -0.2491353077
N  N187  1  0.77423000  0.51154000  0.46613000  1.0 -0.3616959704
N  N188  1  0.80893000  0.70682000  0.53783000  1.0 -0.3772789752
N  N189  1  0.91387000  0.58430000  0.64337000  1.0 -0.3772789752
N  N190  1  0.29381000  0.14576000  0.15821000  1.0 -0.3686097143
N  N191  1  0.00571000  0.15257000  0.00591000  1.0 -0.3907822585
N  N192  1  0.18282000  0.00688000  0.15492000  1.0 -0.3616959704
N  N193  1  0.03872000  0.25110000  0.37492000  1.0 -0.2101301203
N  N194  1  0.03471000  0.18930000  0.39401000  1.0 -0.2307985086
N  N195  1  0.91265000  0.26122000  0.37155000  1.0 -0.2307985086
N  N196  1  0.90801000  0.19869000  0.38801000  1.0 -0.2491353077
N  N197  1  0.01511000  0.12080000  0.37791000  1.0 -0.2307985086
N  N198  1  0.98811000  0.07000000  0.33681000  1.0 -0.201888569
N  N199  1  0.88685000  0.12982000  0.37045000  1.0 -0.2206574594
N  N200  1  0.85987000  0.08195000  0.32477000  1.0 -0.2491353077
N  N201  1  0.95243000  0.03970000  0.27053000  1.0 -0.2307985086
N  N202  1  0.92123000  0.04300000  0.20353000  1.0 -0.2410169346
N  N203  1  0.82358000  0.04841000  0.25988000  1.0 -0.2307985086
N  N204  1  0.79094000  0.03840000  0.19374000  1.0 -0.2206574594
N  N205  1  0.89184000  0.06942000  0.13584000  1.0 -0.2307985086
N  N206  1  0.86211000  0.18323000  0.06541000  1.0 -0.2410169346
N  N207  1  0.76168000  0.06586000  0.12608000  1.0 -0.2206574594
N  N208  1  0.74030000  0.11288000  0.07990000  1.0 -0.2491353077
N  N209  1  0.87030000  0.11636000  0.08910000  1.0 -0.2206574594
N  N210  1  0.86904000  0.24771000  0.07064000  1.0 -0.2307985086
N  N211  1  0.73411000  0.18184000  0.06041000  1.0 -0.2491353077
N  N212  1  0.75096000  0.24415000  0.08136000  1.0 -0.2307985086
N  N213  1  0.90035000  0.30164000  0.11875000  1.0 -0.2206574594
N  N214  1  0.94006000  0.31764000  0.18376000  1.0 -0.2307985086
N  N215  1  0.78127000  0.29935000  0.12757000  1.0 -0.2410169346
N  N216  1  0.81953000  0.33425000  0.18513000  1.0 -0.2307985086
N  N217  1  0.98172000  0.31859000  0.25792000  1.0 -0.2101301203
N  N218  1  0.01784000  0.30163000  0.32294000  1.0 -0.2307985086
N  N219  1  0.86171000  0.33785000  0.25871000  1.0 -0.2491353077
N  N220  1  0.89257000  0.31268000  0.32057000  1.0 -0.2206574594
N  N221  1  0.46930000  0.10069000  0.34780000  1.0 -0.2307985086
N  N222  1  0.52709000  0.08566000  0.30539000  1.0 -0.2491353077
N  N223  1  0.36124000  0.07240000  0.29874000  1.0 -0.2410169346
N  N224  1  0.42237000  0.04913000  0.26137000  1.0 -0.2410169346
N  N225  1  0.57152000  0.09493000  0.24862000  1.0 -0.2491353077
N  N226  1  0.58089000  0.12685000  0.19509000  1.0 -0.2700582994
N  N227  1  0.46668000  0.05869000  0.20438000  1.0 -0.2206574594
N  N228  1  0.47300000  0.09301000  0.15130000  1.0 -0.2491353077
N  N229  1  0.56427000  0.17792000  0.14487000  1.0 -0.2491353077
N  N230  1  0.53091000  0.23427000  0.11171000  1.0 -0.2410169346
N  N231  1  0.45505000  0.14532000  0.10195000  1.0 -0.2307985086
N  N232  1  0.41700000  0.20245000  0.07330000  1.0 -0.2101301203
N  N233  1  0.36317000  0.26800000  0.07297000  1.0 -0.2700582994
N  N234  1  0.30349000  0.31747000  0.08809000  1.0 -0.2307985086
N  N235  1  0.48200000  0.29982000  0.10350000  1.0 -0.2491353077
N  N236  1  0.42314000  0.33780000  0.13404000  1.0 -0.2491353077
N  N237  1  0.25361000  0.34193000  0.13841000  1.0 -0.2307985086
N  N238  1  0.21421000  0.33998000  0.19071000  1.0 -0.2491353077
N  N239  1  0.37246000  0.36362000  0.18346000  1.0 -0.2307985086
N  N240  1  0.33233000  0.36017000  0.23533000  1.0 -0.2491353077
N  N241  1  0.19727000  0.30454000  0.24587000  1.0 -0.258150048
N  N242  1  0.21700000  0.24875000  0.28160000  1.0 -0.2491353077
N  N243  1  0.31381000  0.32644000  0.29211000  1.0 -0.2206574594
N  N244  1  0.32133000  0.27605000  0.33363000  1.0 -0.2491353077
N  N245  1  0.24378000  0.18378000  0.30868000  1.0 -0.2491353077
N  N246  1  0.29175000  0.12364000  0.31805000  1.0 -0.2307985086
N  N247  1  0.34994000  0.20962000  0.36034000  1.0 -0.2491353077
N  N248  1  0.40006000  0.15002000  0.36876000  1.0 -0.2491353077
N  N249  1  0.94210000  0.10120000  0.89880000  1.0 -0.6852107374
N  N250  1  0.05790000  0.60120000  0.60120000  1.0 -0.6852107374
N  N251  1  0.05790000  0.89880000  0.10120000  1.0 -0.6852107374
N  N252  1  0.94210000  0.39880000  0.39880000  1.0 -0.6852107374
O  O1  1  0.68244000  0.20520000  0.84324000  1.0 -0.0714809857
O  O2  1  0.67876000  0.31402000  0.83586000  1.0 0.0730457576
O  O3  1  0.65176000  0.33506000  0.93006000  1.0 -0.4311394868
O  O4  1  0.70514000  0.26951000  0.76354000  1.0 0.0212350959
O  O5  1  0.14420000  0.96370000  0.31550000  1.0 -0.4599740332
O  O6  1  0.05790000  0.94390000  0.33360000  1.0 -0.4813066681
O  O7  1  0.57090000  0.12253000  0.85590000  1.0 -0.6253986833
O  O8  1  0.63181000  0.15493000  0.91381000  1.0 -0.5100808043
O  O9  1  0.68350000  0.94362000  0.94730000  1.0 -0.4403028248
O  O10  1  0.86166000  0.80754000  0.99046000  1.0 -0.3907822585
O  O11  1  0.80060000  0.60920000  0.99740000  1.0 -0.5810209293
O  O12  1  0.72380000  0.61140000  0.03240000  1.0 -0.5500269391
O  O13  1  0.93719000  0.96793000  0.11009000  1.0 -0.4599740332
O  O14  1  0.54259000  0.22857000  0.74799000  1.0 -0.6692276774
O  O15  1  0.52828000  0.25943000  0.80008000  1.0 -0.6530095367
O  O16  1  0.20146000  0.31017000  0.63666000  1.0 -0.5280649988
O  O17  1  0.95452000  0.40678000  0.50772000  1.0 -0.4867159272
O  O18  1  0.77242000  0.20964000  0.45882000  1.0 -0.5438415734
O  O19  1  0.70994000  0.25027000  0.41074000  1.0 -0.5100808043
O  O20  1  0.12881000  0.51249000  0.58981000  1.0 -0.4542945204
O  O21  1  0.36590000  0.65048000  0.72280000  1.0 -0.6206675945
O  O22  1  0.34193000  0.63112000  0.77643000  1.0 -0.5971519578
O  O23  1  0.11933000  0.29322000  0.86403000  1.0 -0.4813066681
O  O24  1  0.80282000  0.27024000  0.84742000  1.0 -0.4220342217
O  O25  1  0.09571000  0.39703000  0.84561000  1.0 -0.4999262892
O  O26  1  0.77284000  0.37172000  0.82304000  1.0 -0.4599740332
O  O27  1  0.03551000  0.43594000  0.74331000  1.0 -0.4813066681
O  O28  1  0.70961000  0.42995000  0.71821000  1.0 -0.5280649988
O  O29  1  0.98500000  0.38819000  0.63640000  1.0 -0.4653903423
O  O30  1  0.65316000  0.39997000  0.60916000  1.0 -0.5500269391
O  O31  1  0.97478000  0.28827000  0.59428000  1.0 -0.5971519578
O  O32  1  0.66612000  0.29357000  0.59762000  1.0 -0.5153136192
O  O33  1  0.01425000  0.21833000  0.65775000  1.0 -0.5971519578
O  O34  1  0.71214000  0.20037000  0.67060000  1.0 -0.5810209293
O  O35  1  0.07930000  0.22349000  0.78250000  1.0 -0.5100808043
O  O36  1  0.77267000  0.19151000  0.77907000  1.0 -0.5500269391
O  O37  1  0.55827000  0.35737000  0.84307000  1.0 -0.5877167462
O  O38  1  0.30187000  0.43687000  0.73037000  1.0 -0.4867159272
O  O39  1  0.62568000  0.34385000  0.75888000  1.0 -0.4149852274
O  O40  1  0.36089000  0.42919000  0.65099000  1.0 -0.4999262892
O  O41  1  0.61009000  0.26431000  0.67739000  1.0 -0.5810209293
O  O42  1  0.33067000  0.34241000  0.57667000  1.0 -0.4999262892
O  O43  1  0.54109000  0.17903000  0.66819000  1.0 -0.5500269391
O  O44  1  0.25004000  0.24373000  0.57714000  1.0 -0.4220342217
O  O45  1  0.45403000  0.15065000  0.74673000  1.0 -0.5877167462
O  O46  1  0.16300000  0.20318000  0.63780000  1.0 -0.5737905754
O  O47  1  0.42722000  0.19280000  0.83352000  1.0 -0.5100808043
O  O48  1  0.15508000  0.25440000  0.71368000  1.0 -0.5737905754
O  O49  1  0.47549000  0.29538000  0.88189000  1.0 -0.6206675945
O  O50  1  0.20831000  0.36092000  0.75541000  1.0 -0.4599740332
O  O51  1  0.56021000  0.21678000  0.87771000  1.0 -0.3081997587
O  O52  1  0.08741000  0.33287000  0.67881000  1.0 -0.0714809857
O  O53  1  0.10095000  0.25597000  0.56965000  1.0 -0.2989620843
O  O54  1  0.31756000  0.70520000  0.65676000  1.0 -0.0793239822
O  O55  1  0.32124000  0.81402000  0.66414000  1.0 0.0730457576
O  O56  1  0.34824000  0.83506000  0.56994000  1.0 -0.4311394868
O  O57  1  0.29486000  0.76951000  0.73646000  1.0 0.0303946893
O  O58  1  0.85580000  0.46370000  0.18450000  1.0 -0.4599740332
O  O59  1  0.94210000  0.44390000  0.16640000  1.0 -0.4813066681
O  O60  1  0.42910000  0.62253000  0.64410000  1.0 -0.6253986833
O  O61  1  0.36819000  0.65493000  0.58619000  1.0 -0.5100808043
O  O62  1  0.31650000  0.44362000  0.55270000  1.0 -0.4403028248
O  O63  1  0.13834000  0.30754000  0.50954000  1.0 -0.3907822585
O  O64  1  0.19940000  0.10920000  0.50260000  1.0 -0.5810209293
O  O65  1  0.27620000  0.11140000  0.46760000  1.0 -0.5500269391
O  O66  1  0.06281000  0.46793000  0.38991000  1.0 -0.4599740332
O  O67  1  0.45741000  0.72857000  0.75201000  1.0 -0.6692276774
O  O68  1  0.47172000  0.75943000  0.69992000  1.0 -0.6530095367
O  O69  1  0.79854000  0.81017000  0.86334000  1.0 -0.5280649988
O  O70  1  0.04548000  0.90678000  0.99228000  1.0 -0.4867159272
O  O71  1  0.22758000  0.70964000  0.04118000  1.0 -0.5438415734
O  O72  1  0.29006000  0.75027000  0.08926000  1.0 -0.5100808043
O  O73  1  0.87119000  0.01249000  0.91019000  1.0 -0.4599740332
O  O74  1  0.63410000  0.15048000  0.77720000  1.0 -0.6206675945
O  O75  1  0.65807000  0.13112000  0.72357000  1.0 -0.5971519578
O  O76  1  0.88067000  0.79322000  0.63597000  1.0 -0.4813066681
O  O77  1  0.19718000  0.77024000  0.65258000  1.0 -0.4220342217
O  O78  1  0.90429000  0.89703000  0.65439000  1.0 -0.4999262892
O  O79  1  0.22716000  0.87172000  0.67696000  1.0 -0.4599740332
O  O80  1  0.96449000  0.93594000  0.75669000  1.0 -0.4813066681
O  O81  1  0.29039000  0.92995000  0.78179000  1.0 -0.5280649988
O  O82  1  0.01500000  0.88819000  0.86360000  1.0 -0.4653903423
O  O83  1  0.34684000  0.89997000  0.89084000  1.0 -0.5500269391
O  O84  1  0.02522000  0.78827000  0.90572000  1.0 -0.5971519578
O  O85  1  0.33388000  0.79357000  0.90238000  1.0 -0.5153136192
O  O86  1  0.98575000  0.71833000  0.84225000  1.0 -0.5971519578
O  O87  1  0.28786000  0.70037000  0.82940000  1.0 -0.5810209293
O  O88  1  0.92070000  0.72349000  0.71750000  1.0 -0.5100808043
O  O89  1  0.22733000  0.69151000  0.72093000  1.0 -0.5500269391
O  O90  1  0.44173000  0.85737000  0.65693000  1.0 -0.5877167462
O  O91  1  0.69813000  0.93687000  0.76963000  1.0 -0.4867159272
O  O92  1  0.37432000  0.84385000  0.74112000  1.0 -0.4149852274
O  O93  1  0.63911000  0.92919000  0.84901000  1.0 -0.4999262892
O  O94  1  0.38991000  0.76431000  0.82261000  1.0 -0.5810209293
O  O95  1  0.66933000  0.84241000  0.92333000  1.0 -0.4999262892
O  O96  1  0.45891000  0.67903000  0.83181000  1.0 -0.5500269391
O  O97  1  0.74996000  0.74373000  0.92286000  1.0 -0.4220342217
O  O98  1  0.54597000  0.65065000  0.75327000  1.0 -0.5877167462
O  O99  1  0.83700000  0.70318000  0.86220000  1.0 -0.5737905754
O  O100  1  0.57278000  0.69280000  0.66648000  1.0 -0.5100808043
O  O101  1  0.84492000  0.75440000  0.78632000  1.0 -0.5737905754
O  O102  1  0.52451000  0.79538000  0.61811000  1.0 -0.6206675945
O  O103  1  0.79169000  0.86092000  0.74459000  1.0 -0.4599740332
O  O104  1  0.43979000  0.71678000  0.62229000  1.0 -0.3081997587
O  O105  1  0.91259000  0.83287000  0.82119000  1.0 -0.0627021184
O  O106  1  0.89905000  0.75597000  0.93035000  1.0 -0.2938720165
O  O107  1  0.31756000  0.79480000  0.15676000  1.0 -0.0793239822
O  O108  1  0.32124000  0.68598000  0.16414000  1.0 0.0823674404
O  O109  1  0.34824000  0.66494000  0.06994000  1.0 -0.4311394868
O  O110  1  0.29486000  0.73049000  0.23646000  1.0 0.0303946893
O  O111  1  0.85580000  0.03630000  0.68450000  1.0 -0.4599740332
O  O112  1  0.94210000  0.05610000  0.66640000  1.0 -0.4813066681
O  O113  1  0.42910000  0.87747000  0.14410000  1.0 -0.6253986833
O  O114  1  0.36819000  0.84507000  0.08619000  1.0 -0.5100808043
O  O115  1  0.31650000  0.05638000  0.05270000  1.0 -0.4403028248
O  O116  1  0.13834000  0.19246000  0.00954000  1.0 -0.3907822585
O  O117  1  0.19940000  0.39080000  0.00260000  1.0 -0.5810209293
O  O118  1  0.27620000  0.38860000  0.96760000  1.0 -0.5500269391
O  O119  1  0.06281000  0.03207000  0.88991000  1.0 -0.4599740332
O  O120  1  0.45741000  0.77143000  0.25201000  1.0 -0.6692276774
O  O121  1  0.47172000  0.74057000  0.19992000  1.0 -0.6530095367
O  O122  1  0.79854000  0.68983000  0.36334000  1.0 -0.5280649988
O  O123  1  0.04548000  0.59322000  0.49228000  1.0 -0.4867159272
O  O124  1  0.22758000  0.79036000  0.54118000  1.0 -0.5438415734
O  O125  1  0.29006000  0.74973000  0.58926000  1.0 -0.5100808043
O  O126  1  0.87119000  0.48751000  0.41019000  1.0 -0.4542945204
O  O127  1  0.63410000  0.34952000  0.27720000  1.0 -0.6206675945
O  O128  1  0.65807000  0.36888000  0.22357000  1.0 -0.5971519578
O  O129  1  0.88067000  0.70678000  0.13597000  1.0 -0.4813066681
O  O130  1  0.19718000  0.72976000  0.15258000  1.0 -0.4220342217
O  O131  1  0.90429000  0.60297000  0.15439000  1.0 -0.4999262892
O  O132  1  0.22716000  0.62828000  0.17696000  1.0 -0.4599740332
O  O133  1  0.96449000  0.56406000  0.25669000  1.0 -0.4813066681
O  O134  1  0.29039000  0.57005000  0.28179000  1.0 -0.5280649988
O  O135  1  0.01500000  0.61181000  0.36360000  1.0 -0.4653903423
O  O136  1  0.34684000  0.60003000  0.39084000  1.0 -0.5500269391
O  O137  1  0.02522000  0.71173000  0.40572000  1.0 -0.5971519578
O  O138  1  0.33388000  0.70643000  0.40238000  1.0 -0.5153136192
O  O139  1  0.98575000  0.78167000  0.34225000  1.0 -0.5971519578
O  O140  1  0.28786000  0.79963000  0.32940000  1.0 -0.5810209293
O  O141  1  0.92070000  0.77651000  0.21750000  1.0 -0.5100808043
O  O142  1  0.22733000  0.80849000  0.22093000  1.0 -0.5500269391
O  O143  1  0.44173000  0.64263000  0.15693000  1.0 -0.5877167462
O  O144  1  0.69813000  0.56313000  0.26963000  1.0 -0.4867159272
O  O145  1  0.37432000  0.65615000  0.24112000  1.0 -0.4220342217
O  O146  1  0.63911000  0.57081000  0.34901000  1.0 -0.4999262892
O  O147  1  0.38991000  0.73569000  0.32261000  1.0 -0.5810209293
O  O148  1  0.66933000  0.65759000  0.42333000  1.0 -0.4999262892
O  O149  1  0.45891000  0.82097000  0.33181000  1.0 -0.5500269391
O  O150  1  0.74996000  0.75627000  0.42286000  1.0 -0.4220342217
O  O151  1  0.54597000  0.84935000  0.25327000  1.0 -0.5877167462
O  O152  1  0.83700000  0.79682000  0.36220000  1.0 -0.5737905754
O  O153  1  0.57278000  0.80720000  0.16648000  1.0 -0.5100808043
O  O154  1  0.84492000  0.74560000  0.28632000  1.0 -0.5737905754
O  O155  1  0.52451000  0.70462000  0.11811000  1.0 -0.6206675945
O  O156  1  0.79169000  0.63908000  0.24459000  1.0 -0.4599740332
O  O157  1  0.43979000  0.78322000  0.12229000  1.0 -0.3081997587
O  O158  1  0.91259000  0.66713000  0.32119000  1.0 -0.0714809857
O  O159  1  0.89905000  0.74403000  0.43035000  1.0 -0.2989620843
O  O160  1  0.68244000  0.29480000  0.34324000  1.0 -0.0793239822
O  O161  1  0.67876000  0.18598000  0.33586000  1.0 0.0730457576
O  O162  1  0.65176000  0.16494000  0.43006000  1.0 -0.4403028248
O  O163  1  0.70514000  0.23049000  0.26354000  1.0 0.0212350959
O  O164  1  0.14420000  0.53630000  0.81550000  1.0 -0.4599740332
O  O165  1  0.05790000  0.55610000  0.83360000  1.0 -0.4813066681
O  O166  1  0.57090000  0.37747000  0.35590000  1.0 -0.6253986833
O  O167  1  0.63181000  0.34507000  0.41381000  1.0 -0.5153136192
O  O168  1  0.68350000  0.55638000  0.44730000  1.0 -0.4403028248
O  O169  1  0.86166000  0.69246000  0.49046000  1.0 -0.3907822585
O  O170  1  0.80060000  0.89080000  0.49740000  1.0 -0.5810209293
O  O171  1  0.72380000  0.88860000  0.53240000  1.0 -0.5561044989
O  O172  1  0.93719000  0.53207000  0.61009000  1.0 -0.4599740332
O  O173  1  0.54259000  0.27143000  0.24799000  1.0 -0.6692276774
O  O174  1  0.52828000  0.24057000  0.30008000  1.0 -0.6530095367
O  O175  1  0.20146000  0.18983000  0.13666000  1.0 -0.5280649988
O  O176  1  0.95452000  0.09322000  0.00772000  1.0 -0.4867159272
O  O177  1  0.77242000  0.29036000  0.95882000  1.0 -0.5438415734
O  O178  1  0.70994000  0.24973000  0.91074000  1.0 -0.5100808043
O  O179  1  0.12881000  0.98751000  0.08981000  1.0 -0.4542945204
O  O180  1  0.36590000  0.84952000  0.22280000  1.0 -0.6206675945
O  O181  1  0.34193000  0.86888000  0.27643000  1.0 -0.5971519578
O  O182  1  0.11933000  0.20678000  0.36403000  1.0 -0.4867159272
O  O183  1  0.80282000  0.22976000  0.34742000  1.0 -0.4220342217
O  O184  1  0.09571000  0.10297000  0.34561000  1.0 -0.4999262892
O  O185  1  0.77284000  0.12828000  0.32304000  1.0 -0.4599740332
O  O186  1  0.03551000  0.06406000  0.24331000  1.0 -0.4813066681
O  O187  1  0.70961000  0.07005000  0.21821000  1.0 -0.5280649988
O  O188  1  0.98500000  0.11181000  0.13640000  1.0 -0.4653903423
O  O189  1  0.65316000  0.10003000  0.10916000  1.0 -0.5500269391
O  O190  1  0.97478000  0.21173000  0.09428000  1.0 -0.5971519578
O  O191  1  0.66612000  0.20643000  0.09762000  1.0 -0.5153136192
O  O192  1  0.01425000  0.28167000  0.15775000  1.0 -0.5971519578
O  O193  1  0.71214000  0.29963000  0.17060000  1.0 -0.5810209293
O  O194  1  0.07930000  0.27651000  0.28250000  1.0 -0.5100808043
O  O195  1  0.77267000  0.30849000  0.27907000  1.0 -0.5500269391
O  O196  1  0.55827000  0.14263000  0.34307000  1.0 -0.5877167462
O  O197  1  0.30187000  0.06313000  0.23037000  1.0 -0.4867159272
O  O198  1  0.62568000  0.15615000  0.25888000  1.0 -0.4149852274
O  O199  1  0.36089000  0.07081000  0.15099000  1.0 -0.4999262892
O  O200  1  0.61009000  0.23569000  0.17739000  1.0 -0.5810209293
O  O201  1  0.33067000  0.15759000  0.07667000  1.0 -0.4999262892
O  O202  1  0.54109000  0.32097000  0.16819000  1.0 -0.5500269391
O  O203  1  0.25004000  0.25627000  0.07714000  1.0 -0.4220342217
O  O204  1  0.45403000  0.34935000  0.24673000  1.0 -0.5877167462
O  O205  1  0.16300000  0.29682000  0.13780000  1.0 -0.5737905754
O  O206  1  0.42722000  0.30720000  0.33352000  1.0 -0.5100808043
O  O207  1  0.15508000  0.24560000  0.21368000  1.0 -0.5737905754
O  O208  1  0.47549000  0.20462000  0.38189000  1.0 -0.6206675945
O  O209  1  0.20831000  0.13908000  0.25541000  1.0 -0.4599740332
O  O210  1  0.56021000  0.28322000  0.37771000  1.0 -0.3081997587
O  O211  1  0.08741000  0.16713000  0.17881000  1.0 -0.0714809857
O  O212  1  0.10095000  0.24403000  0.06965000  1.0 -0.2989620843
