# DDEC6 charges by PACMAN v1.1 (https://github.com/mtap-research/PACMAN-charge/)
data_WULXAF_FSR_pacman
_symmetry_space_group_name_H-M   'P 1'
_cell_length_a   19.86150000
_cell_length_b   35.29200000
_cell_length_c   34.52580000
_cell_angle_alpha   90.00000000
_cell_angle_beta   111.51100000
_cell_angle_gamma   90.00000000
_symmetry_Int_Tables_number   1
_chemical_formula_structural   K2Sr5H124C151N62O61
_chemical_formula_sum   'K8 Sr20 H496 C604 N248 O244'
_cell_volume   22515.26768885
_cell_formula_units_Z   4
loop_
 _symmetry_equiv_pos_site_id
 _symmetry_equiv_pos_as_xyz
  1  'x, y, z'
loop_
 _atom_site_type_symbol
 _atom_site_label
 _atom_site_symmetry_multiplicity
 _atom_site_fract_x
 _atom_site_fract_y
 _atom_site_fract_z
 _atom_site_occupancy
 _atom_site_charge
K  K1  1  0.15858000  0.08754000  0.30036000  1.0 0.3731582288
K  K2  1  0.13540000  0.09450000  0.26700000  1.0 0.4180416961
K  K3  1  0.84142000  0.58754000  0.19964000  1.0 0.3731582288
K  K4  1  0.86460000  0.59450000  0.23300000  1.0 0.4180416961
K  K5  1  0.84142000  0.91246000  0.69964000  1.0 0.3731582288
K  K6  1  0.86460000  0.90550000  0.73300000  1.0 0.4180416961
K  K7  1  0.15858000  0.41246000  0.80036000  1.0 0.3731582288
K  K8  1  0.13540000  0.40550000  0.76700000  1.0 0.4180416961
Sr  Sr1  1  0.66284000  0.26931000  0.23147000  1.0 1.4495247949
Sr  Sr2  1  0.70671000  0.17301000  0.30960000  1.0 0.6654934038
Sr  Sr3  1  0.58995000  0.31211000  0.33316000  1.0 1.3274476279
Sr  Sr4  1  0.11889000  0.21655000  0.17363000  1.0 1.4325401236
Sr  Sr5  1  0.69255000  0.17823000  0.32245000  1.0 0.4758492459
Sr  Sr6  1  0.33716000  0.76931000  0.26853000  1.0 1.4495247949
Sr  Sr7  1  0.29329000  0.67301000  0.19040000  1.0 0.6654934038
Sr  Sr8  1  0.41005000  0.81211000  0.16684000  1.0 1.3274476279
Sr  Sr9  1  0.88111000  0.71655000  0.32637000  1.0 1.4325401236
Sr  Sr10  1  0.30745000  0.67823000  0.17755000  1.0 0.4758492459
Sr  Sr11  1  0.33716000  0.73069000  0.76853000  1.0 1.4495247949
Sr  Sr12  1  0.29329000  0.82699000  0.69040000  1.0 0.6654934038
Sr  Sr13  1  0.41005000  0.68789000  0.66684000  1.0 1.3274476279
Sr  Sr14  1  0.88111000  0.78345000  0.82637000  1.0 1.4325401236
Sr  Sr15  1  0.30745000  0.82177000  0.67755000  1.0 0.4676721377
Sr  Sr16  1  0.66284000  0.23069000  0.73147000  1.0 1.4495247949
Sr  Sr17  1  0.70671000  0.32699000  0.80960000  1.0 0.6643593658
Sr  Sr18  1  0.58995000  0.18789000  0.83316000  1.0 1.3274476279
Sr  Sr19  1  0.11889000  0.28345000  0.67363000  1.0 1.4325401236
Sr  Sr20  1  0.69255000  0.32177000  0.82245000  1.0 0.4758492459
H  H1  1  0.39641000  0.29408000  0.05996000  1.0 0.0895129282
H  H2  1  0.51961000  0.26460000  0.07653000  1.0 0.0993455271
H  H3  1  0.57541000  0.26988000  0.12322000  1.0 0.1197192793
H  H4  1  0.42215000  0.37150000  0.16551000  1.0 0.0993455271
H  H5  1  0.48564000  0.34904000  0.20033000  1.0 0.1197192793
H  H6  1  0.36528000  0.34066000  0.09620000  1.0 0.0993455271
H  H7  1  0.47922000  0.19700000  0.05420000  1.0 0.0807987903
H  H8  1  0.53191000  0.14084000  0.08250000  1.0 0.0993455271
H  H9  1  0.65925000  0.15042000  0.18396000  1.0 0.1197192793
H  H10  1  0.63474000  0.12256000  0.14472000  1.0 0.1197192793
H  H11  1  0.70095000  0.25508000  0.10694000  1.0 0.1098281762
H  H12  1  0.73350000  0.27526000  0.07619000  1.0 0.0895129282
H  H13  1  0.83273000  0.32001000  0.10599000  1.0 0.0895129282
H  H14  1  0.88422000  0.35304000  0.16593000  1.0 0.0993455271
H  H15  1  0.84296000  0.36256000  0.22637000  1.0 0.1098281762
H  H16  1  0.77923000  0.33510000  0.22672000  1.0 0.1197192793
H  H17  1  0.99585000  0.32898000  0.35147000  1.0 0.0637237144
H  H18  1  0.92086000  0.29814000  0.38808000  1.0 0.0895129282
H  H19  1  0.84528000  0.28000000  0.35958000  1.0 0.1098281762
H  H20  1  0.96024000  0.35721000  0.28790000  1.0 0.0807987903
H  H21  1  0.53927000  0.17856000  0.21841000  1.0 0.1098281762
H  H22  1  0.42034000  0.22335000  0.27966000  1.0 0.1098281762
H  H23  1  0.44177000  0.14046000  0.18033000  1.0 0.1098281762
H  H24  1  0.31835000  0.18596000  0.23910000  1.0 0.142046084
H  H25  1  0.58452000  0.02650000  0.20908000  1.0 0.0895129282
H  H26  1  0.64389000  0.03659000  0.28594000  1.0 0.0895129282
H  H27  1  0.67543000  0.07824000  0.29951000  1.0 0.1098281762
H  H28  1  0.57646000  0.06119000  0.15160000  1.0 0.0993455271
H  H29  1  0.54684000  0.01620000  0.31425000  1.0 0.0807987903
H  H30  1  0.50837000  0.04134000  0.36298000  1.0 0.0895129282
H  H31  1  0.59208000  0.12778000  0.39942000  1.0 0.1098281762
H  H32  1  0.54352000  0.09622000  0.40988000  1.0 0.0993455271
H  H33  1  0.02074000  0.25301000  0.42673000  1.0 0.0719960362
H  H34  1  0.01435000  0.19221000  0.44889000  1.0 0.0807987903
H  H35  1  0.91742000  0.14354000  0.43573000  1.0 0.0993455271
H  H36  1  0.84186000  0.15292000  0.39944000  1.0 0.0993455271
H  H37  1  0.97908000  0.08428000  0.42689000  1.0 0.0895129282
H  H38  1  0.93707000  0.03371000  0.38239000  1.0 0.0807987903
H  H39  1  0.77515000  0.05281000  0.29842000  1.0 0.1098281762
H  H40  1  0.82570000  0.01845000  0.32235000  1.0 0.0895129282
H  H41  1  0.35554000  0.22648000  0.03512000  1.0 0.0895129282
H  H42  1  0.30276000  0.20686000  0.05470000  1.0 0.1098281762
H  H43  1  0.30219000  0.37799000  0.17551000  1.0 0.0807987903
H  H44  1  0.24498000  0.34555000  0.10718000  1.0 0.1098281762
H  H45  1  0.20359000  0.30665000  0.10685000  1.0 0.1197192793
H  H46  1  0.46866000  0.08092000  0.08946000  1.0 0.1098281762
H  H47  1  0.39292000  0.08540000  0.09532000  1.0 0.1197192793
H  H48  1  0.79300000  0.23311000  0.03908000  1.0 0.0807987903
H  H49  1  0.89383000  0.28046000  0.06903000  1.0 0.0993455271
H  H50  1  0.97152000  0.26367000  0.09638000  1.0 0.0993455271
H  H51  1  0.00353000  0.35249000  0.22876000  1.0 0.0993455271
H  H52  1  0.05579000  0.31751000  0.23070000  1.0 0.0993455271
H  H53  1  0.09112000  0.28339000  0.38831000  1.0 0.0807987903
H  H54  1  0.12111000  0.25656000  0.36103000  1.0 0.1098281762
H  H55  1  0.26887000  0.31787000  0.33417000  1.0 0.0807987903
H  H56  1  0.34091000  0.36826000  0.30960000  1.0 0.0993455271
H  H57  1  0.42455000  0.35834000  0.32125000  1.0 0.1197192793
H  H58  1  0.30053000  0.26429000  0.37352000  1.0 0.0807987903
H  H59  1  0.41974000  0.23778000  0.41796000  1.0 0.0895129282
H  H60  1  0.48779000  0.24626000  0.40510000  1.0 0.1098281762
H  H61  1  0.27280000  0.37682000  0.23312000  1.0 0.0807987903
H  H62  1  0.62040000  0.45279000  0.36241000  1.0 0.1197192793
H  H63  1  0.73795000  0.38738000  0.45922000  1.0 0.0993455271
H  H64  1  0.80361000  0.16942000  0.02927000  1.0 0.0719960362
H  H65  1  0.32622000  0.11403000  0.17334000  1.0 0.2918897768
H  H66  1  0.68118000  0.50678000  0.39673000  1.0 0.1273501455
H  H67  1  0.80305000  0.43982000  0.49231000  1.0 0.1098281762
H  H68  1  0.41095000  0.01489000  0.21537000  1.0 0.1098281762
H  H69  1  0.49176000  0.00018000  0.23903000  1.0 0.0993455271
H  H70  1  0.32291000  0.06517000  0.31615000  1.0 0.1098281762
H  H71  1  0.38461000  0.05910000  0.36103000  1.0 0.0895129282
H  H72  1  0.42098000  0.11783000  0.40659000  1.0 0.0895129282
H  H73  1  0.12311000  0.13225000  0.41381000  1.0 0.1197192793
H  H74  1  0.07955000  0.13098000  0.44457000  1.0 0.0993455271
H  H75  1  0.00208000  0.99772000  0.34441000  1.0 0.1098281762
H  H76  1  0.06350000  0.01973000  0.33381000  1.0 0.1197192793
H  H77  1  0.88753000  0.98099000  0.28236000  1.0 0.0807987903
H  H78  1  0.72294000  0.11681000  0.03621000  1.0 0.0993455271
H  H79  1  0.67815000  0.12536000  0.06531000  1.0 0.1197192793
H  H80  1  0.16175000  0.29698000  0.23239000  1.0 0.1098281762
H  H81  1  0.19436000  0.33307000  0.26110000  1.0 0.0895129282
H  H82  1  0.21880000  0.18542000  0.30942000  1.0 0.1197192793
H  H83  1  0.24849000  0.19839000  0.35709000  1.0 0.0993455271
H  H84  1  0.36477000  0.17372000  0.40390000  1.0 0.0895129282
H  H85  1  0.87906000  0.97560000  0.21473000  1.0 0.0895129282
H  H86  1  0.97047000  0.12887000  0.09525000  1.0 0.1098281762
H  H87  1  0.90188000  0.11854000  0.05469000  1.0 0.0807987903
H  H88  1  0.82655000  0.50546000  0.49128000  1.0 0.2918897768
H  H89  1  0.71455000  0.02050000  0.15548000  1.0 0.1098281762
H  H90  1  0.77271000  0.99259000  0.14878000  1.0 0.1098281762
H  H91  1  0.82095000  0.06804000  0.06135000  1.0 0.0807987903
H  H92  1  0.25388000  0.06829000  0.17105000  1.0 0.1197192793
H  H93  1  0.12704000  0.14790000  0.09481000  1.0 0.1197192793
H  H94  1  0.00705000  0.03001000  0.18896000  1.0 0.1197192793
H  H95  1  0.94531000  0.99908000  0.16882000  1.0 0.0993455271
H  H96  1  0.84233000  0.01930000  0.10609000  1.0 0.0895129282
H  H97  1  0.08306000  0.03646000  0.06835000  1.0 0.1197192793
H  H98  1  0.77900000  0.61825000  0.46431000  1.0 0.142046084
H  H99  1  0.83050000  0.53511000  0.55141000  1.0 0.1197192793
H  H100  1  0.26140000  0.01406000  0.18277000  1.0 0.2803691675
H  H101  1  0.06383000  0.15267000  0.03274000  1.0 0.2430892599
H  H102  1  0.89757000  0.64273000  0.58484000  1.0 0.1098281762
H  H103  1  0.21049000  0.92692000  0.13019000  1.0 0.1197192793
H  H104  1  0.31783000  0.97692000  0.24097000  1.0 0.1273501455
H  H105  1  0.00243000  0.20701000  0.01079000  1.0 0.0895129282
H  H106  1  0.89437000  0.10943000  0.96589000  1.0 0.0993455271
H  H107  1  0.81282000  0.69503000  0.55472000  1.0 0.2739366044
H  H108  1  0.98371000  0.60368000  0.62977000  1.0 0.2803691675
H  H109  1  0.25548000  0.86829000  0.16031000  1.0 0.1197192793
H  H110  1  0.35679000  0.91827000  0.27109000  1.0 0.1273501455
H  H111  1  0.90333000  0.24196000  0.96743000  1.0 0.0993455271
H  H112  1  0.79528000  0.14438000  0.92253000  1.0 0.0993455271
H  H113  1  0.74478000  0.74933000  0.55594000  1.0 0.1273501455
H  H114  1  0.87744000  0.74840000  0.49119000  1.0 0.1197192793
H  H115  1  0.93108000  0.58369000  0.70846000  1.0 0.1273501455
H  H116  1  0.09836000  0.56690000  0.66931000  1.0 0.1273501455
H  H117  1  0.72146000  0.81286000  0.54152000  1.0 0.1098281762
H  H118  1  0.85301000  0.81328000  0.47653000  1.0 0.1098281762
H  H119  1  0.01073000  0.56694000  0.77694000  1.0 0.1098281762
H  H120  1  0.17309000  0.55130000  0.73534000  1.0 0.1197192793
H  H121  1  0.04043000  0.21407000  0.03040000  1.0 0.1098281762
H  H122  1  0.94902000  0.25823000  0.99834000  1.0 0.0895129282
H  H123  1  0.81005000  0.17262000  0.94471000  1.0 0.1098281762
H  H124  1  0.90147000  0.12847000  0.97677000  1.0 0.0993455271
H  H125  1  0.60359000  0.79408000  0.44004000  1.0 0.0895129282
H  H126  1  0.48039000  0.76460000  0.42347000  1.0 0.0993455271
H  H127  1  0.42459000  0.76988000  0.37678000  1.0 0.1098281762
H  H128  1  0.57785000  0.87150000  0.33449000  1.0 0.0895129282
H  H129  1  0.51436000  0.84904000  0.29967000  1.0 0.1197192793
H  H130  1  0.63472000  0.84066000  0.40380000  1.0 0.0993455271
H  H131  1  0.52078000  0.69700000  0.44580000  1.0 0.0807987903
H  H132  1  0.46809000  0.64084000  0.41750000  1.0 0.0895129282
H  H133  1  0.34075000  0.65042000  0.31604000  1.0 0.1197192793
H  H134  1  0.36526000  0.62256000  0.35528000  1.0 0.1197192793
H  H135  1  0.29905000  0.75508000  0.39306000  1.0 0.1098281762
H  H136  1  0.26650000  0.77526000  0.42381000  1.0 0.0895129282
H  H137  1  0.16727000  0.82001000  0.39401000  1.0 0.0895129282
H  H138  1  0.11578000  0.85304000  0.33407000  1.0 0.0993455271
H  H139  1  0.15704000  0.86256000  0.27363000  1.0 0.1098281762
H  H140  1  0.22077000  0.83510000  0.27328000  1.0 0.1197192793
H  H141  1  0.00415000  0.82898000  0.14853000  1.0 0.0637237144
H  H142  1  0.07914000  0.79814000  0.11192000  1.0 0.0895129282
H  H143  1  0.15472000  0.78000000  0.14042000  1.0 0.1098281762
H  H144  1  0.03976000  0.85721000  0.21210000  1.0 0.0807987903
H  H145  1  0.46073000  0.67856000  0.28159000  1.0 0.1098281762
H  H146  1  0.57966000  0.72335000  0.22034000  1.0 0.1098281762
H  H147  1  0.55823000  0.64046000  0.31967000  1.0 0.1098281762
H  H148  1  0.68165000  0.68596000  0.26090000  1.0 0.142046084
H  H149  1  0.41548000  0.52650000  0.29092000  1.0 0.0895129282
H  H150  1  0.35611000  0.53659000  0.21406000  1.0 0.0895129282
H  H151  1  0.32457000  0.57824000  0.20049000  1.0 0.1098281762
H  H152  1  0.42354000  0.56119000  0.34840000  1.0 0.0993455271
H  H153  1  0.45316000  0.51620000  0.18575000  1.0 0.0807987903
H  H154  1  0.49163000  0.54134000  0.13702000  1.0 0.0895129282
H  H155  1  0.40792000  0.62778000  0.10058000  1.0 0.1098281762
H  H156  1  0.45648000  0.59622000  0.09012000  1.0 0.0993455271
H  H157  1  0.97926000  0.75301000  0.07327000  1.0 0.0719960362
H  H158  1  0.98565000  0.69221000  0.05111000  1.0 0.0807987903
H  H159  1  0.08258000  0.64354000  0.06427000  1.0 0.0993455271
H  H160  1  0.15814000  0.65292000  0.10056000  1.0 0.0993455271
H  H161  1  0.02092000  0.58428000  0.07311000  1.0 0.0895129282
H  H162  1  0.06293000  0.53371000  0.11761000  1.0 0.0807987903
H  H163  1  0.22485000  0.55281000  0.20158000  1.0 0.1098281762
H  H164  1  0.17430000  0.51845000  0.17765000  1.0 0.0895129282
H  H165  1  0.64446000  0.72648000  0.46488000  1.0 0.0895129282
H  H166  1  0.69724000  0.70686000  0.44530000  1.0 0.1098281762
H  H167  1  0.69781000  0.87799000  0.32449000  1.0 0.0807987903
H  H168  1  0.75502000  0.84555000  0.39282000  1.0 0.1098281762
H  H169  1  0.79641000  0.80665000  0.39315000  1.0 0.1197192793
H  H170  1  0.53134000  0.58092000  0.41054000  1.0 0.1098281762
H  H171  1  0.60708000  0.58540000  0.40468000  1.0 0.1197192793
H  H172  1  0.20700000  0.73311000  0.46092000  1.0 0.0807987903
H  H173  1  0.10617000  0.78046000  0.43097000  1.0 0.0895129282
H  H174  1  0.02848000  0.76367000  0.40362000  1.0 0.0993455271
H  H175  1  0.99647000  0.85249000  0.27124000  1.0 0.0993455271
H  H176  1  0.94421000  0.81751000  0.26930000  1.0 0.0993455271
H  H177  1  0.90888000  0.78339000  0.11169000  1.0 0.0807987903
H  H178  1  0.87889000  0.75656000  0.13897000  1.0 0.1098281762
H  H179  1  0.73113000  0.81787000  0.16583000  1.0 0.0807987903
H  H180  1  0.65909000  0.86826000  0.19040000  1.0 0.0993455271
H  H181  1  0.57545000  0.85834000  0.17875000  1.0 0.1197192793
H  H182  1  0.69947000  0.76429000  0.12648000  1.0 0.0807987903
H  H183  1  0.58026000  0.73778000  0.08204000  1.0 0.0895129282
H  H184  1  0.51221000  0.74626000  0.09490000  1.0 0.1098281762
H  H185  1  0.72720000  0.87682000  0.26688000  1.0 0.0807987903
H  H186  1  0.37960000  0.95279000  0.13759000  1.0 0.1197192793
H  H187  1  0.26205000  0.88738000  0.04078000  1.0 0.0993455271
H  H188  1  0.19639000  0.66942000  0.47073000  1.0 0.0719960362
H  H189  1  0.67378000  0.61403000  0.32666000  1.0 0.2918897768
H  H190  1  0.31882000  0.00678000  0.10327000  1.0 0.1273501455
H  H191  1  0.19695000  0.93982000  0.00769000  1.0 0.1098281762
H  H192  1  0.58905000  0.51489000  0.28463000  1.0 0.1098281762
H  H193  1  0.50824000  0.50018000  0.26097000  1.0 0.0993455271
H  H194  1  0.67709000  0.56517000  0.18385000  1.0 0.1098281762
H  H195  1  0.61539000  0.55910000  0.13897000  1.0 0.0895129282
H  H196  1  0.57902000  0.61783000  0.09341000  1.0 0.0895129282
H  H197  1  0.87689000  0.63225000  0.08619000  1.0 0.1197192793
H  H198  1  0.92045000  0.63098000  0.05543000  1.0 0.1098281762
H  H199  1  0.99792000  0.49772000  0.15559000  1.0 0.1098281762
H  H200  1  0.93650000  0.51973000  0.16619000  1.0 0.1098281762
H  H201  1  0.11247000  0.48099000  0.21764000  1.0 0.0807987903
H  H202  1  0.27706000  0.61681000  0.46379000  1.0 0.0993455271
H  H203  1  0.32185000  0.62536000  0.43469000  1.0 0.1197192793
H  H204  1  0.83825000  0.79698000  0.26761000  1.0 0.1098281762
H  H205  1  0.80564000  0.83307000  0.23890000  1.0 0.0895129282
H  H206  1  0.78120000  0.68542000  0.19058000  1.0 0.1197192793
H  H207  1  0.75151000  0.69839000  0.14291000  1.0 0.0993455271
H  H208  1  0.63523000  0.67372000  0.09610000  1.0 0.0895129282
H  H209  1  0.12094000  0.47560000  0.28527000  1.0 0.0895129282
H  H210  1  0.02953000  0.62887000  0.40475000  1.0 0.1098281762
H  H211  1  0.09812000  0.61854000  0.44531000  1.0 0.0807987903
H  H212  1  0.17345000  0.00546000  0.00872000  1.0 0.2918897768
H  H213  1  0.28545000  0.52050000  0.34452000  1.0 0.1098281762
H  H214  1  0.22729000  0.49259000  0.35122000  1.0 0.1098281762
H  H215  1  0.17905000  0.56804000  0.43865000  1.0 0.0807987903
H  H216  1  0.74612000  0.56829000  0.32895000  1.0 0.1197192793
H  H217  1  0.87296000  0.64790000  0.40519000  1.0 0.1197192793
H  H218  1  0.99295000  0.53001000  0.31104000  1.0 0.1197192793
H  H219  1  0.05469000  0.49908000  0.33118000  1.0 0.0993455271
H  H220  1  0.15767000  0.51930000  0.39391000  1.0 0.0895129282
H  H221  1  0.91694000  0.53646000  0.43165000  1.0 0.1197192793
H  H222  1  0.22100000  0.11825000  0.03569000  1.0 0.142046084
H  H223  1  0.16950000  0.03511000  0.94859000  1.0 0.1197192793
H  H224  1  0.73860000  0.51406000  0.31723000  1.0 0.2803691675
H  H225  1  0.93617000  0.65267000  0.46726000  1.0 0.2430892599
H  H226  1  0.10243000  0.14273000  0.91516000  1.0 0.1098281762
H  H227  1  0.78951000  0.42692000  0.36981000  1.0 0.1197192793
H  H228  1  0.68217000  0.47692000  0.25903000  1.0 0.1273501455
H  H229  1  0.99757000  0.70701000  0.48921000  1.0 0.0895129282
H  H230  1  0.10563000  0.60943000  0.53411000  1.0 0.0993455271
H  H231  1  0.18718000  0.19503000  0.94528000  1.0 0.2739366044
H  H232  1  0.01629000  0.10368000  0.87023000  1.0 0.2803691675
H  H233  1  0.74452000  0.36829000  0.33969000  1.0 0.1197192793
H  H234  1  0.64321000  0.41827000  0.22891000  1.0 0.1273501455
H  H235  1  0.09667000  0.74196000  0.53257000  1.0 0.0993455271
H  H236  1  0.20472000  0.64438000  0.57747000  1.0 0.0993455271
H  H237  1  0.25522000  0.24933000  0.94406000  1.0 0.1273501455
H  H238  1  0.12256000  0.24840000  0.00881000  1.0 0.1197192793
H  H239  1  0.06892000  0.08369000  0.79154000  1.0 0.1273501455
H  H240  1  0.90164000  0.06690000  0.83069000  1.0 0.1273501455
H  H241  1  0.27854000  0.31286000  0.95848000  1.0 0.1098281762
H  H242  1  0.14699000  0.31328000  0.02347000  1.0 0.1098281762
H  H243  1  0.98927000  0.06694000  0.72306000  1.0 0.1098281762
H  H244  1  0.82691000  0.05130000  0.76466000  1.0 0.1197192793
H  H245  1  0.95957000  0.71407000  0.46960000  1.0 0.1098281762
H  H246  1  0.05098000  0.75823000  0.50166000  1.0 0.0895129282
H  H247  1  0.18995000  0.67262000  0.55529000  1.0 0.1098281762
H  H248  1  0.09853000  0.62847000  0.52323000  1.0 0.0993455271
H  H249  1  0.60359000  0.70592000  0.94004000  1.0 0.0895129282
H  H250  1  0.48039000  0.73540000  0.92347000  1.0 0.0993455271
H  H251  1  0.42459000  0.73012000  0.87678000  1.0 0.1098281762
H  H252  1  0.57785000  0.62850000  0.83449000  1.0 0.0895129282
H  H253  1  0.51436000  0.65096000  0.79967000  1.0 0.1197192793
H  H254  1  0.63472000  0.65934000  0.90380000  1.0 0.0993455271
H  H255  1  0.52078000  0.80300000  0.94580000  1.0 0.0807987903
H  H256  1  0.46809000  0.85916000  0.91750000  1.0 0.0895129282
H  H257  1  0.34075000  0.84958000  0.81604000  1.0 0.1197192793
H  H258  1  0.36526000  0.87744000  0.85528000  1.0 0.1197192793
H  H259  1  0.29905000  0.74492000  0.89306000  1.0 0.1098281762
H  H260  1  0.26650000  0.72474000  0.92381000  1.0 0.0895129282
H  H261  1  0.16727000  0.67999000  0.89401000  1.0 0.0895129282
H  H262  1  0.11578000  0.64696000  0.83407000  1.0 0.0993455271
H  H263  1  0.15704000  0.63744000  0.77363000  1.0 0.1098281762
H  H264  1  0.22077000  0.66490000  0.77328000  1.0 0.1197192793
H  H265  1  0.00415000  0.67102000  0.64853000  1.0 0.0637237144
H  H266  1  0.07914000  0.70186000  0.61192000  1.0 0.0895129282
H  H267  1  0.15472000  0.72000000  0.64042000  1.0 0.1098281762
H  H268  1  0.03976000  0.64279000  0.71210000  1.0 0.0807987903
H  H269  1  0.46073000  0.82144000  0.78159000  1.0 0.1098281762
H  H270  1  0.57966000  0.77665000  0.72034000  1.0 0.1098281762
H  H271  1  0.55823000  0.85954000  0.81967000  1.0 0.1098281762
H  H272  1  0.68165000  0.81404000  0.76090000  1.0 0.142046084
H  H273  1  0.41548000  0.97350000  0.79092000  1.0 0.0895129282
H  H274  1  0.35611000  0.96341000  0.71406000  1.0 0.0895129282
H  H275  1  0.32457000  0.92176000  0.70049000  1.0 0.1098281762
H  H276  1  0.42354000  0.93881000  0.84840000  1.0 0.0993455271
H  H277  1  0.45316000  0.98380000  0.68575000  1.0 0.0807987903
H  H278  1  0.49163000  0.95866000  0.63702000  1.0 0.0895129282
H  H279  1  0.40792000  0.87222000  0.60058000  1.0 0.1098281762
H  H280  1  0.45648000  0.90378000  0.59012000  1.0 0.0993455271
H  H281  1  0.97926000  0.74699000  0.57327000  1.0 0.0719960362
H  H282  1  0.98565000  0.80779000  0.55111000  1.0 0.0807987903
H  H283  1  0.08258000  0.85646000  0.56427000  1.0 0.0993455271
H  H284  1  0.15814000  0.84708000  0.60056000  1.0 0.0993455271
H  H285  1  0.02092000  0.91572000  0.57311000  1.0 0.0895129282
H  H286  1  0.06293000  0.96629000  0.61761000  1.0 0.0807987903
H  H287  1  0.22485000  0.94719000  0.70158000  1.0 0.1098281762
H  H288  1  0.17430000  0.98155000  0.67765000  1.0 0.0895129282
H  H289  1  0.64446000  0.77352000  0.96488000  1.0 0.0895129282
H  H290  1  0.69724000  0.79314000  0.94530000  1.0 0.1098281762
H  H291  1  0.69781000  0.62201000  0.82449000  1.0 0.0807987903
H  H292  1  0.75502000  0.65445000  0.89282000  1.0 0.1098281762
H  H293  1  0.79641000  0.69335000  0.89315000  1.0 0.1197192793
H  H294  1  0.53134000  0.91908000  0.91054000  1.0 0.1098281762
H  H295  1  0.60708000  0.91460000  0.90468000  1.0 0.1197192793
H  H296  1  0.20700000  0.76689000  0.96092000  1.0 0.0807987903
H  H297  1  0.10617000  0.71954000  0.93097000  1.0 0.0895129282
H  H298  1  0.02848000  0.73633000  0.90362000  1.0 0.0993455271
H  H299  1  0.99647000  0.64751000  0.77124000  1.0 0.0993455271
H  H300  1  0.94421000  0.68249000  0.76930000  1.0 0.0993455271
H  H301  1  0.90888000  0.71661000  0.61169000  1.0 0.0807987903
H  H302  1  0.87889000  0.74344000  0.63897000  1.0 0.1098281762
H  H303  1  0.73113000  0.68213000  0.66583000  1.0 0.0807987903
H  H304  1  0.65909000  0.63174000  0.69040000  1.0 0.0993455271
H  H305  1  0.57545000  0.64166000  0.67875000  1.0 0.1197192793
H  H306  1  0.69947000  0.73571000  0.62648000  1.0 0.0807987903
H  H307  1  0.58026000  0.76222000  0.58204000  1.0 0.0895129282
H  H308  1  0.51221000  0.75374000  0.59490000  1.0 0.1098281762
H  H309  1  0.72720000  0.62318000  0.76688000  1.0 0.0807987903
H  H310  1  0.37960000  0.54721000  0.63759000  1.0 0.1197192793
H  H311  1  0.26205000  0.61262000  0.54078000  1.0 0.0993455271
H  H312  1  0.19639000  0.83058000  0.97073000  1.0 0.0719960362
H  H313  1  0.67378000  0.88597000  0.82666000  1.0 0.2918897768
H  H314  1  0.31882000  0.49322000  0.60327000  1.0 0.1273501455
H  H315  1  0.19695000  0.56018000  0.50769000  1.0 0.1098281762
H  H316  1  0.58905000  0.98511000  0.78463000  1.0 0.1098281762
H  H317  1  0.50824000  0.99982000  0.76097000  1.0 0.0993455271
H  H318  1  0.67709000  0.93483000  0.68385000  1.0 0.1098281762
H  H319  1  0.61539000  0.94090000  0.63897000  1.0 0.0895129282
H  H320  1  0.57902000  0.88217000  0.59341000  1.0 0.0895129282
H  H321  1  0.87689000  0.86775000  0.58619000  1.0 0.1197192793
H  H322  1  0.92045000  0.86902000  0.55543000  1.0 0.0993455271
H  H323  1  0.99792000  0.00228000  0.65559000  1.0 0.0993455271
H  H324  1  0.93650000  0.98027000  0.66619000  1.0 0.1098281762
H  H325  1  0.11247000  0.01901000  0.71764000  1.0 0.0807987903
H  H326  1  0.27706000  0.88319000  0.96379000  1.0 0.0993455271
H  H327  1  0.32185000  0.87464000  0.93469000  1.0 0.1197192793
H  H328  1  0.83825000  0.70302000  0.76761000  1.0 0.1098281762
H  H329  1  0.80564000  0.66693000  0.73890000  1.0 0.0895129282
H  H330  1  0.78120000  0.81458000  0.69058000  1.0 0.1197192793
H  H331  1  0.75151000  0.80161000  0.64291000  1.0 0.0993455271
H  H332  1  0.63523000  0.82628000  0.59610000  1.0 0.0895129282
H  H333  1  0.12094000  0.02440000  0.78527000  1.0 0.0895129282
H  H334  1  0.02953000  0.87113000  0.90475000  1.0 0.1098281762
H  H335  1  0.09812000  0.88146000  0.94531000  1.0 0.0807987903
H  H336  1  0.17345000  0.49454000  0.50872000  1.0 0.2918897768
H  H337  1  0.28545000  0.97950000  0.84452000  1.0 0.1098281762
H  H338  1  0.22729000  0.00741000  0.85122000  1.0 0.1098281762
H  H339  1  0.17905000  0.93196000  0.93865000  1.0 0.0807987903
H  H340  1  0.74612000  0.93171000  0.82895000  1.0 0.1197192793
H  H341  1  0.87296000  0.85210000  0.90519000  1.0 0.1197192793
H  H342  1  0.99295000  0.96999000  0.81104000  1.0 0.1197192793
H  H343  1  0.05469000  0.00092000  0.83118000  1.0 0.0993455271
H  H344  1  0.15767000  0.98070000  0.89391000  1.0 0.0895129282
H  H345  1  0.91694000  0.96354000  0.93165000  1.0 0.1197192793
H  H346  1  0.22100000  0.38175000  0.53569000  1.0 0.142046084
H  H347  1  0.16950000  0.46489000  0.44859000  1.0 0.1197192793
H  H348  1  0.73860000  0.98594000  0.81723000  1.0 0.2803691675
H  H349  1  0.93617000  0.84733000  0.96726000  1.0 0.2430892599
H  H350  1  0.10243000  0.35727000  0.41516000  1.0 0.1098281762
H  H351  1  0.78951000  0.07308000  0.86981000  1.0 0.1197192793
H  H352  1  0.68217000  0.02308000  0.75903000  1.0 0.1273501455
H  H353  1  0.99757000  0.79299000  0.98921000  1.0 0.0895129282
H  H354  1  0.10563000  0.89057000  0.03411000  1.0 0.0993455271
H  H355  1  0.18718000  0.30497000  0.44528000  1.0 0.2739366044
H  H356  1  0.01629000  0.39632000  0.37023000  1.0 0.2803691675
H  H357  1  0.74452000  0.13171000  0.83969000  1.0 0.1197192793
H  H358  1  0.64321000  0.08173000  0.72891000  1.0 0.1273501455
H  H359  1  0.09667000  0.75804000  0.03257000  1.0 0.0993455271
H  H360  1  0.20472000  0.85562000  0.07747000  1.0 0.0993455271
H  H361  1  0.25522000  0.25067000  0.44406000  1.0 0.1273501455
H  H362  1  0.12256000  0.25160000  0.50881000  1.0 0.1197192793
H  H363  1  0.06892000  0.41631000  0.29154000  1.0 0.1273501455
H  H364  1  0.90164000  0.43310000  0.33069000  1.0 0.1273501455
H  H365  1  0.27854000  0.18714000  0.45848000  1.0 0.1098281762
H  H366  1  0.14699000  0.18672000  0.52347000  1.0 0.1098281762
H  H367  1  0.98927000  0.43306000  0.22306000  1.0 0.1098281762
H  H368  1  0.82691000  0.44870000  0.26466000  1.0 0.1197192793
H  H369  1  0.95957000  0.78593000  0.96960000  1.0 0.1098281762
H  H370  1  0.05098000  0.74177000  0.00166000  1.0 0.0895129282
H  H371  1  0.18995000  0.82738000  0.05529000  1.0 0.1098281762
H  H372  1  0.09853000  0.87153000  0.02323000  1.0 0.0993455271
H  H373  1  0.39641000  0.20592000  0.55996000  1.0 0.0895129282
H  H374  1  0.51961000  0.23540000  0.57653000  1.0 0.0993455271
H  H375  1  0.57541000  0.23012000  0.62322000  1.0 0.1098281762
H  H376  1  0.42215000  0.12850000  0.66551000  1.0 0.0895129282
H  H377  1  0.48564000  0.15096000  0.70033000  1.0 0.1197192793
H  H378  1  0.36528000  0.15934000  0.59620000  1.0 0.0993455271
H  H379  1  0.47922000  0.30300000  0.55420000  1.0 0.0807987903
H  H380  1  0.53191000  0.35916000  0.58250000  1.0 0.0895129282
H  H381  1  0.65925000  0.34958000  0.68396000  1.0 0.1197192793
H  H382  1  0.63474000  0.37744000  0.64472000  1.0 0.1197192793
H  H383  1  0.70095000  0.24492000  0.60694000  1.0 0.1098281762
H  H384  1  0.73350000  0.22474000  0.57619000  1.0 0.0895129282
H  H385  1  0.83273000  0.17999000  0.60599000  1.0 0.0895129282
H  H386  1  0.88422000  0.14696000  0.66593000  1.0 0.0993455271
H  H387  1  0.84296000  0.13744000  0.72637000  1.0 0.1098281762
H  H388  1  0.77923000  0.16490000  0.72672000  1.0 0.1197192793
H  H389  1  0.99585000  0.17102000  0.85147000  1.0 0.0637237144
H  H390  1  0.92086000  0.20186000  0.88808000  1.0 0.0895129282
H  H391  1  0.84528000  0.22000000  0.85958000  1.0 0.1098281762
H  H392  1  0.96024000  0.14279000  0.78790000  1.0 0.0807987903
H  H393  1  0.53927000  0.32144000  0.71841000  1.0 0.1098281762
H  H394  1  0.42034000  0.27665000  0.77966000  1.0 0.1098281762
H  H395  1  0.44177000  0.35954000  0.68033000  1.0 0.1098281762
H  H396  1  0.31835000  0.31404000  0.73910000  1.0 0.142046084
H  H397  1  0.58452000  0.47350000  0.70908000  1.0 0.0895129282
H  H398  1  0.64389000  0.46341000  0.78594000  1.0 0.0895129282
H  H399  1  0.67543000  0.42176000  0.79951000  1.0 0.1098281762
H  H400  1  0.57646000  0.43881000  0.65160000  1.0 0.0993455271
H  H401  1  0.54684000  0.48380000  0.81425000  1.0 0.0807987903
H  H402  1  0.50837000  0.45866000  0.86298000  1.0 0.0895129282
H  H403  1  0.59208000  0.37222000  0.89942000  1.0 0.1098281762
H  H404  1  0.54352000  0.40378000  0.90988000  1.0 0.0993455271
H  H405  1  0.02074000  0.24699000  0.92673000  1.0 0.0719960362
H  H406  1  0.01435000  0.30779000  0.94889000  1.0 0.0807987903
H  H407  1  0.91742000  0.35646000  0.93573000  1.0 0.0993455271
H  H408  1  0.84186000  0.34708000  0.89944000  1.0 0.0993455271
H  H409  1  0.97908000  0.41572000  0.92689000  1.0 0.0895129282
H  H410  1  0.93707000  0.46629000  0.88239000  1.0 0.0807987903
H  H411  1  0.77515000  0.44719000  0.79842000  1.0 0.1098281762
H  H412  1  0.82570000  0.48155000  0.82235000  1.0 0.0895129282
H  H413  1  0.35554000  0.27352000  0.53512000  1.0 0.0895129282
H  H414  1  0.30276000  0.29314000  0.55470000  1.0 0.1098281762
H  H415  1  0.30219000  0.12201000  0.67551000  1.0 0.0807987903
H  H416  1  0.24498000  0.15445000  0.60718000  1.0 0.1098281762
H  H417  1  0.20359000  0.19335000  0.60685000  1.0 0.1197192793
H  H418  1  0.46866000  0.41908000  0.58946000  1.0 0.1098281762
H  H419  1  0.39292000  0.41460000  0.59532000  1.0 0.1197192793
H  H420  1  0.79300000  0.26689000  0.53908000  1.0 0.0807987903
H  H421  1  0.89383000  0.21954000  0.56903000  1.0 0.0895129282
H  H422  1  0.97152000  0.23633000  0.59638000  1.0 0.0993455271
H  H423  1  0.00353000  0.14751000  0.72876000  1.0 0.0993455271
H  H424  1  0.05579000  0.18249000  0.73070000  1.0 0.0993455271
H  H425  1  0.09112000  0.21661000  0.88831000  1.0 0.0807987903
H  H426  1  0.12111000  0.24344000  0.86103000  1.0 0.1098281762
H  H427  1  0.26887000  0.18213000  0.83417000  1.0 0.0807987903
H  H428  1  0.34091000  0.13174000  0.80960000  1.0 0.0993455271
H  H429  1  0.42455000  0.14166000  0.82125000  1.0 0.1197192793
H  H430  1  0.30053000  0.23571000  0.87352000  1.0 0.0807987903
H  H431  1  0.41974000  0.26222000  0.91796000  1.0 0.0895129282
H  H432  1  0.48779000  0.25374000  0.90510000  1.0 0.1098281762
H  H433  1  0.27280000  0.12318000  0.73312000  1.0 0.0807987903
H  H434  1  0.62040000  0.04721000  0.86241000  1.0 0.1197192793
H  H435  1  0.73795000  0.11262000  0.95922000  1.0 0.0993455271
H  H436  1  0.80361000  0.33058000  0.52927000  1.0 0.0719960362
H  H437  1  0.32622000  0.38597000  0.67334000  1.0 0.2918897768
H  H438  1  0.68118000  0.99322000  0.89673000  1.0 0.1273501455
H  H439  1  0.80305000  0.06018000  0.99231000  1.0 0.1098281762
H  H440  1  0.41095000  0.48511000  0.71537000  1.0 0.1098281762
H  H441  1  0.49176000  0.49982000  0.73903000  1.0 0.0993455271
H  H442  1  0.32291000  0.43483000  0.81615000  1.0 0.1098281762
H  H443  1  0.38461000  0.44090000  0.86103000  1.0 0.0895129282
H  H444  1  0.42098000  0.38217000  0.90659000  1.0 0.0895129282
H  H445  1  0.12311000  0.36775000  0.91381000  1.0 0.1197192793
H  H446  1  0.07955000  0.36902000  0.94457000  1.0 0.0993455271
H  H447  1  0.00208000  0.50228000  0.84441000  1.0 0.0993455271
H  H448  1  0.06350000  0.48027000  0.83381000  1.0 0.1098281762
H  H449  1  0.88753000  0.51901000  0.78236000  1.0 0.0807987903
H  H450  1  0.72294000  0.38319000  0.53621000  1.0 0.0993455271
H  H451  1  0.67815000  0.37464000  0.56531000  1.0 0.1197192793
H  H452  1  0.16175000  0.20302000  0.73239000  1.0 0.1098281762
H  H453  1  0.19436000  0.16693000  0.76110000  1.0 0.0895129282
H  H454  1  0.21880000  0.31458000  0.80942000  1.0 0.1197192793
H  H455  1  0.24849000  0.30161000  0.85709000  1.0 0.0993455271
H  H456  1  0.36477000  0.32628000  0.90390000  1.0 0.0895129282
H  H457  1  0.87906000  0.52440000  0.71473000  1.0 0.0895129282
H  H458  1  0.97047000  0.37113000  0.59525000  1.0 0.1098281762
H  H459  1  0.90188000  0.38146000  0.55469000  1.0 0.0807987903
H  H460  1  0.82655000  0.99454000  0.99128000  1.0 0.2918897768
H  H461  1  0.71455000  0.47950000  0.65548000  1.0 0.1098281762
H  H462  1  0.77271000  0.50741000  0.64878000  1.0 0.1098281762
H  H463  1  0.82095000  0.43196000  0.56135000  1.0 0.0807987903
H  H464  1  0.25388000  0.43171000  0.67105000  1.0 0.1197192793
H  H465  1  0.12704000  0.35210000  0.59481000  1.0 0.1197192793
H  H466  1  0.00705000  0.46999000  0.68896000  1.0 0.1197192793
H  H467  1  0.94531000  0.50092000  0.66882000  1.0 0.0993455271
H  H468  1  0.84233000  0.48070000  0.60609000  1.0 0.0895129282
H  H469  1  0.08306000  0.46354000  0.56835000  1.0 0.1273501455
H  H470  1  0.77900000  0.88175000  0.96431000  1.0 0.142046084
H  H471  1  0.83050000  0.96489000  0.05141000  1.0 0.1197192793
H  H472  1  0.26140000  0.48594000  0.68277000  1.0 0.2803691675
H  H473  1  0.06383000  0.34733000  0.53274000  1.0 0.2430892599
H  H474  1  0.89757000  0.85727000  0.08484000  1.0 0.1098281762
H  H475  1  0.21049000  0.57308000  0.63019000  1.0 0.1197192793
H  H476  1  0.31783000  0.52308000  0.74097000  1.0 0.1273501455
H  H477  1  0.00243000  0.29299000  0.51079000  1.0 0.0895129282
H  H478  1  0.89437000  0.39057000  0.46589000  1.0 0.0993455271
H  H479  1  0.81282000  0.80497000  0.05472000  1.0 0.2739366044
H  H480  1  0.98371000  0.89632000  0.12977000  1.0 0.2803691675
H  H481  1  0.25548000  0.63171000  0.66031000  1.0 0.1197192793
H  H482  1  0.35679000  0.58173000  0.77109000  1.0 0.1273501455
H  H483  1  0.90333000  0.25804000  0.46743000  1.0 0.0993455271
H  H484  1  0.79528000  0.35562000  0.42253000  1.0 0.0993455271
H  H485  1  0.74478000  0.75067000  0.05594000  1.0 0.1273501455
H  H486  1  0.87744000  0.75160000  0.99119000  1.0 0.1273501455
H  H487  1  0.93108000  0.91631000  0.20846000  1.0 0.1273501455
H  H488  1  0.09836000  0.93310000  0.16931000  1.0 0.1273501455
H  H489  1  0.72146000  0.68714000  0.04152000  1.0 0.1098281762
H  H490  1  0.85301000  0.68672000  0.97653000  1.0 0.1098281762
H  H491  1  0.01073000  0.93306000  0.27694000  1.0 0.1098281762
H  H492  1  0.17309000  0.94870000  0.23534000  1.0 0.1197192793
H  H493  1  0.04043000  0.28593000  0.53040000  1.0 0.1098281762
H  H494  1  0.94902000  0.24177000  0.49834000  1.0 0.0895129282
H  H495  1  0.81005000  0.32738000  0.44471000  1.0 0.1098281762
H  H496  1  0.90147000  0.37153000  0.47677000  1.0 0.0993455271
C  C1  1  0.48686000  0.29666000  0.15353000  1.0 0.5406512727
C  C2  1  0.57441000  0.20134000  0.14601000  1.0 0.5406512727
C  C3  1  0.78230000  0.28938000  0.16960000  1.0 0.530169185
C  C4  1  0.85200000  0.29981000  0.29200000  1.0 0.5406512727
C  C5  1  0.55180000  0.22996000  0.27520000  1.0 0.4588516739
C  C6  1  0.48690000  0.20582000  0.25040000  1.0 -0.0679603663
C  C7  1  0.62020000  0.10852000  0.22910000  1.0 0.5626078297
C  C8  1  0.58780000  0.09862000  0.33240000  1.0 0.5406512727
C  C9  1  0.88360000  0.21180000  0.37390000  1.0 0.530169185
C  C10  1  0.85010000  0.10187000  0.34760000  1.0 0.5406512727
C  C11  1  0.39944000  0.28542000  0.08814000  1.0 0.0895129282
C  C12  1  0.52718000  0.25973000  0.10608000  1.0 0.020346501
C  C13  1  0.43438000  0.34743000  0.18128000  1.0 0.027194119
C  C14  1  0.37160000  0.31550000  0.11040000  1.0 0.0895129282
C  C15  1  0.47906000  0.19314000  0.08286000  1.0 0.0993455271
C  C16  1  0.50972000  0.15404000  0.10052000  1.0 0.0993455271
C  C17  1  0.61750000  0.13643000  0.16420000  1.0 0.027194119
C  C18  1  0.74579000  0.25897000  0.10119000  1.0 0.020346501
C  C19  1  0.85360000  0.30292000  0.13060000  1.0 0.0895129282
C  C20  1  0.88230000  0.32527000  0.17110000  1.0 0.0993455271
C  C21  1  0.82950000  0.33568000  0.22740000  1.0 0.020346501
C  C22  1  0.97500000  0.31020000  0.32850000  1.0 0.0993455271
C  C23  1  0.89770000  0.28020000  0.36490000  1.0 -0.0035067827
C  C24  1  0.95260000  0.32917000  0.28540000  1.0 0.0993455271
C  C25  1  0.49450000  0.18068000  0.22230000  1.0 -0.0807779996
C  C26  1  0.42350000  0.20730000  0.25830000  1.0 -0.0679603663
C  C27  1  0.42072000  0.29220000  0.34902000  1.0 0.5406512727
C  C28  1  0.41787000  0.34162000  0.24827000  1.0 0.530169185
C  C29  1  0.62982000  0.38076000  0.38652000  1.0 0.5626078297
C  C30  1  0.43610000  0.15822000  0.19960000  1.0 -0.1923849207
C  C31  1  0.36250000  0.18470000  0.23440000  1.0 -0.1549605976
C  C32  1  0.67064000  0.41490000  0.40764000  1.0 -0.0203067788
C  C33  1  0.55914000  0.05115000  0.20814000  1.0 0.0993455271
C  C34  1  0.63060000  0.06369000  0.28510000  1.0 0.020346501
C  C35  1  0.55416000  0.07462000  0.16946000  1.0 0.1098281762
C  C36  1  0.52704000  0.04235000  0.30654000  1.0 0.0895129282
C  C37  1  0.49930000  0.05879000  0.33880000  1.0 0.0993455271
C  C38  1  0.54490000  0.11457000  0.38850000  1.0 0.020346501
C  C39  1  0.00130000  0.23500000  0.40280000  1.0 0.0719960362
C  C40  1  0.00020000  0.19360000  0.41800000  1.0 0.0807987903
C  C41  1  0.89400000  0.14860000  0.40550000  1.0 0.020346501
C  C42  1  0.96590000  0.09180000  0.39710000  1.0 0.0993455271
C  C43  1  0.94290000  0.05710000  0.36760000  1.0 0.0895129282
C  C44  1  0.82480000  0.04240000  0.30720000  1.0 0.020346501
C  C45  1  0.29528000  0.26241000  0.09638000  1.0 0.5197651691
C  C46  1  0.35052000  0.21918000  0.06162000  1.0 0.0125867781
C  C47  1  0.31255000  0.35276000  0.18965000  1.0 0.0807987903
C  C48  1  0.25062000  0.31980000  0.11942000  1.0 0.0125867781
C  C49  1  0.38739000  0.15618000  0.09179000  1.0 0.5107325237
C  C50  1  0.44434000  0.09327000  0.10654000  1.0 0.0125867781
C  C51  1  0.73506000  0.18979000  0.09256000  1.0 0.5197651691
C  C52  1  0.81440000  0.21892000  0.06590000  1.0 0.0807987903
C  C53  1  0.92025000  0.26481000  0.09375000  1.0 0.020346501
C  C54  1  0.97457000  0.28716000  0.16587000  1.0 0.5197651691
C  C55  1  0.00680000  0.32450000  0.22960000  1.0 0.027194119
C  C56  1  0.04430000  0.28570000  0.29260000  1.0 0.5107325237
C  C57  1  0.07680000  0.26430000  0.36570000  1.0 0.0125867781
C  C58  1  0.36950000  0.16093000  0.20420000  1.0 0.2474329968
C  C59  1  0.29510000  0.29952000  0.32270000  1.0 0.0895129282
C  C60  1  0.37474000  0.34906000  0.30624000  1.0 0.0125867781
C  C61  1  0.31550000  0.26296000  0.34890000  1.0 0.1098281762
C  C62  1  0.43750000  0.23654000  0.39470000  1.0 0.027194119
C  C63  1  0.29450000  0.35220000  0.22930000  1.0 0.0895129282
C  C64  1  0.65633000  0.45037000  0.38953000  1.0 -0.0807779996
C  C65  1  0.72627000  0.41158000  0.44647000  1.0 -0.1202396273
C  C66  1  0.81460000  0.17570000  0.05920000  1.0 0.0637237144
C  C67  1  0.69264000  0.48262000  0.40964000  1.0 -0.1762464951
C  C68  1  0.76410000  0.44274000  0.46640000  1.0 -0.2112454015
C  C69  1  0.43784000  0.06312000  0.16924000  1.0 0.5197651691
C  C70  1  0.46127000  0.02319000  0.23097000  1.0 0.020346501
C  C71  1  0.40244000  0.05228000  0.27514000  1.0 0.5107325237
C  C72  1  0.37180000  0.07336000  0.33460000  1.0 -0.0035067827
C  C73  1  0.50030000  0.18035000  0.38420000  1.0 0.5107325237
C  C74  1  0.41780000  0.13252000  0.38120000  1.0 0.0993455271
C  C75  1  0.07750000  0.19660000  0.38170000  1.0 0.5107325237
C  C76  1  0.07460000  0.13540000  0.41530000  1.0 -0.0035067827
C  C77  1  0.04880000  0.08250000  0.36540000  1.0 0.5406512727
C  C78  1  0.01200000  0.02060000  0.33080000  1.0 0.0037629375
C  C79  1  0.78800000  0.03845000  0.23170000  1.0 0.5107325237
C  C80  1  0.89390000  0.00572000  0.27000000  1.0 0.0895129282
C  C81  1  0.22830000  0.30560000  0.18340000  1.0 0.530169185
C  C82  1  0.72760000  0.12436000  0.06470000  1.0 0.020346501
C  C83  1  0.93130000  0.19501000  0.09930000  1.0 0.530169185
C  C84  1  0.24270000  0.14338000  0.16300000  1.0 0.5107325237
C  C85  1  0.23800000  0.24770000  0.28100000  1.0 0.5406512727
C  C86  1  0.20720000  0.31019000  0.24870000  1.0 0.020346501
C  C87  1  0.26120000  0.19618000  0.33200000  1.0 0.020346501
C  C88  1  0.38124000  0.17080000  0.37994000  1.0 0.0895129282
C  C89  1  0.74599000  0.47885000  0.44909000  1.0 0.2474329968
C  C90  1  0.87920000  0.00262000  0.22350000  1.0 0.0993455271
C  C91  1  0.91700000  0.12690000  0.08400000  1.0 0.020346501
C  C92  1  0.19658000  0.11215000  0.13608000  1.0 0.0125867781
C  C93  1  0.31180000  0.13592000  0.32200000  1.0 0.5487148314
C  C94  1  0.99190000  0.03130000  0.25710000  1.0 0.5487148314
C  C95  1  0.76620000  0.01789000  0.15930000  1.0 0.020346501
C  C96  1  0.73780000  0.07463000  0.11580000  1.0 0.5197651691
C  C97  1  0.83010000  0.07707000  0.09030000  1.0 0.0895129282
C  C98  1  0.21334000  0.07453000  0.14684000  1.0 -0.1365489315
C  C99  1  0.13828000  0.12195000  0.10128000  1.0 -0.130806511
C  C100  1  0.75783000  0.54541000  0.46973000  1.0 0.4588516739
C  C101  1  0.95490000  0.02460000  0.18160000  1.0 0.020346501
C  C102  1  0.84280000  0.04396000  0.12050000  1.0 0.0895129282
C  C103  1  0.94540000  0.08240000  0.14190000  1.0 0.5197651691
C  C104  1  0.17038000  0.04570000  0.12198000  1.0 -0.0203067788
C  C105  1  0.09573000  0.09397000  0.07553000  1.0 -0.0127347089
C  C106  1  0.80073000  0.57240000  0.50293000  1.0 -0.0127347089
C  C107  1  0.11191000  0.05570000  0.08591000  1.0 -0.130806511
C  C108  1  0.18273000  0.00434000  0.13173000  1.0 0.4676721377
C  C109  1  0.03040000  0.10311000  0.03780000  1.0 0.4064585616
C  C110  1  0.80226000  0.61028000  0.49236000  1.0 -0.1078065144
C  C111  1  0.83320000  0.56087000  0.54410000  1.0 -0.1625636282
C  C112  1  0.83812000  0.63659000  0.52332000  1.0 -0.0127347089
C  C113  1  0.86980000  0.58726000  0.57470000  1.0 -0.0035067827
C  C114  1  0.25959000  0.95786000  0.18309000  1.0 0.2202321042
C  C115  1  0.95770000  0.15493000  0.99240000  1.0 0.0719960362
C  C116  1  0.87223000  0.62484000  0.56403000  1.0 -0.1923849207
C  C117  1  0.83915000  0.67676000  0.50955000  1.0 0.4676721377
C  C118  1  0.90130000  0.57362000  0.61910000  1.0 0.4548040678
C  C119  1  0.24076000  0.92538000  0.15876000  1.0 -0.1923849207
C  C120  1  0.30367000  0.95467000  0.22447000  1.0 -0.1923849207
C  C121  1  0.96037000  0.19429000  0.99287000  1.0 -0.0203067788
C  C122  1  0.89620000  0.13633000  0.96620000  1.0 -0.0679603663
C  C123  1  0.26696000  0.89053000  0.17696000  1.0 -0.1078065144
C  C124  1  0.32765000  0.91995000  0.24235000  1.0 -0.0807779996
C  C125  1  0.90150000  0.21505000  0.96710000  1.0 -0.0454373087
C  C126  1  0.83730000  0.15709000  0.94040000  1.0 -0.0807779996
C  C127  1  0.81091000  0.74227000  0.52381000  1.0 0.2079884832
C  C128  1  0.00739000  0.57600000  0.68249000  1.0 0.2038319309
C  C129  1  0.30912000  0.88765000  0.21842000  1.0 -0.0298221807
C  C130  1  0.84000000  0.19646000  0.94090000  1.0 -0.100826862
C  C131  1  0.76640000  0.76207000  0.53920000  1.0 -0.2112454015
C  C132  1  0.84477000  0.76133000  0.50097000  1.0 -0.2199016973
C  C133  1  0.97986000  0.57674000  0.71386000  1.0 -0.2295906947
C  C134  1  0.07990000  0.56670000  0.69110000  1.0 -0.2048135053
C  C135  1  0.33283000  0.84935000  0.23763000  1.0 0.598224019
C  C136  1  0.77460000  0.22040000  0.91120000  1.0 0.3451214184
C  C137  1  0.75270000  0.79988000  0.53070000  1.0 -0.0807779996
C  C138  1  0.83020000  0.80014000  0.49240000  1.0 -0.100826862
C  C139  1  0.02730000  0.56674000  0.75440000  1.0 -0.1202396273
C  C140  1  0.12390000  0.55740000  0.73000000  1.0 -0.0807779996
C  C141  1  0.78370000  0.81937000  0.50680000  1.0 -0.040562522
C  C142  1  0.09910000  0.55650000  0.76110000  1.0 -0.040562522
C  C143  1  0.76680000  0.86020000  0.49580000  1.0 0.5406512727
C  C144  1  0.15010000  0.54380000  0.80420000  1.0 0.5197651691
C  C145  1  0.97950000  0.16710000  0.00660000  1.0 0.0719960362
C  C146  1  0.99370000  0.20570000  0.01300000  1.0 -0.0633576053
C  C147  1  0.93940000  0.23190000  0.99400000  1.0 -0.1078065144
C  C148  1  0.87090000  0.21960000  0.96850000  1.0 -0.0679603663
C  C149  1  0.85680000  0.18100000  0.96210000  1.0 -0.040562522
C  C150  1  0.91110000  0.15480000  0.98110000  1.0 -0.0203067788
C  C151  1  0.80830000  0.24890000  0.94950000  1.0 0.2971374442
C  C152  1  0.51314000  0.79666000  0.34647000  1.0 0.5406512727
C  C153  1  0.42559000  0.70134000  0.35399000  1.0 0.5406512727
C  C154  1  0.21770000  0.78938000  0.33040000  1.0 0.530169185
C  C155  1  0.14800000  0.79981000  0.20800000  1.0 0.5406512727
C  C156  1  0.44820000  0.72996000  0.22480000  1.0 0.4588516739
C  C157  1  0.51310000  0.70582000  0.24960000  1.0 -0.0679603663
C  C158  1  0.37980000  0.60852000  0.27090000  1.0 0.5626078297
C  C159  1  0.41220000  0.59862000  0.16760000  1.0 0.5406512727
C  C160  1  0.11640000  0.71180000  0.12610000  1.0 0.530169185
C  C161  1  0.14990000  0.60187000  0.15240000  1.0 0.5406512727
C  C162  1  0.60056000  0.78542000  0.41186000  1.0 0.0895129282
C  C163  1  0.47282000  0.75973000  0.39392000  1.0 0.020346501
C  C164  1  0.56562000  0.84743000  0.31872000  1.0 0.027194119
C  C165  1  0.62840000  0.81550000  0.38960000  1.0 0.0895129282
C  C166  1  0.52094000  0.69314000  0.41714000  1.0 0.0993455271
C  C167  1  0.49028000  0.65404000  0.39948000  1.0 0.0993455271
C  C168  1  0.38250000  0.63643000  0.33580000  1.0 0.027194119
C  C169  1  0.25421000  0.75897000  0.39881000  1.0 0.020346501
C  C170  1  0.14640000  0.80292000  0.36940000  1.0 0.0895129282
C  C171  1  0.11770000  0.82527000  0.32890000  1.0 0.0993455271
C  C172  1  0.17050000  0.83568000  0.27260000  1.0 0.020346501
C  C173  1  0.02500000  0.81020000  0.17150000  1.0 0.0993455271
C  C174  1  0.10230000  0.78020000  0.13510000  1.0 -0.0035067827
C  C175  1  0.04740000  0.82917000  0.21460000  1.0 0.0993455271
C  C176  1  0.50550000  0.68068000  0.27770000  1.0 -0.0807779996
C  C177  1  0.57650000  0.70730000  0.24170000  1.0 -0.0679603663
C  C178  1  0.57928000  0.79220000  0.15098000  1.0 0.5406512727
C  C179  1  0.58213000  0.84162000  0.25173000  1.0 0.530169185
C  C180  1  0.37018000  0.88076000  0.11348000  1.0 0.5626078297
C  C181  1  0.56390000  0.65822000  0.30040000  1.0 -0.1923849207
C  C182  1  0.63750000  0.68470000  0.26560000  1.0 -0.1549605976
C  C183  1  0.32936000  0.91490000  0.09236000  1.0 -0.0203067788
C  C184  1  0.44086000  0.55115000  0.29186000  1.0 0.0993455271
C  C185  1  0.36940000  0.56369000  0.21490000  1.0 0.020346501
C  C186  1  0.44584000  0.57462000  0.33054000  1.0 0.1098281762
C  C187  1  0.47296000  0.54235000  0.19346000  1.0 0.0993455271
C  C188  1  0.50070000  0.55879000  0.16120000  1.0 0.0993455271
C  C189  1  0.45510000  0.61457000  0.11150000  1.0 0.020346501
C  C190  1  0.99870000  0.73500000  0.09720000  1.0 0.0719960362
C  C191  1  0.99980000  0.69360000  0.08200000  1.0 0.0807987903
C  C192  1  0.10600000  0.64860000  0.09450000  1.0 0.020346501
C  C193  1  0.03410000  0.59180000  0.10290000  1.0 0.0993455271
C  C194  1  0.05710000  0.55710000  0.13240000  1.0 0.0895129282
C  C195  1  0.17520000  0.54240000  0.19280000  1.0 0.020346501
C  C196  1  0.70472000  0.76241000  0.40362000  1.0 0.5197651691
C  C197  1  0.64948000  0.71918000  0.43838000  1.0 0.0125867781
C  C198  1  0.68745000  0.85276000  0.31035000  1.0 0.0895129282
C  C199  1  0.74938000  0.81980000  0.38058000  1.0 0.0125867781
C  C200  1  0.61261000  0.65618000  0.40821000  1.0 0.5107325237
C  C201  1  0.55566000  0.59327000  0.39346000  1.0 0.0125867781
C  C202  1  0.26494000  0.68979000  0.40744000  1.0 0.5197651691
C  C203  1  0.18560000  0.71892000  0.43410000  1.0 0.0807987903
C  C204  1  0.07975000  0.76481000  0.40625000  1.0 0.020346501
C  C205  1  0.02543000  0.78716000  0.33413000  1.0 0.5197651691
C  C206  1  0.99320000  0.82450000  0.27040000  1.0 0.027194119
C  C207  1  0.95570000  0.78570000  0.20740000  1.0 0.5107325237
C  C208  1  0.92320000  0.76430000  0.13430000  1.0 0.0125867781
C  C209  1  0.63050000  0.66093000  0.29580000  1.0 0.2474329968
C  C210  1  0.70490000  0.79952000  0.17730000  1.0 0.0993455271
C  C211  1  0.62526000  0.84906000  0.19376000  1.0 0.0125867781
C  C212  1  0.68450000  0.76296000  0.15110000  1.0 0.1098281762
C  C213  1  0.56250000  0.73654000  0.10530000  1.0 0.027194119
C  C214  1  0.70550000  0.85220000  0.27070000  1.0 0.0895129282
C  C215  1  0.34367000  0.95037000  0.11047000  1.0 -0.0807779996
C  C216  1  0.27373000  0.91158000  0.05353000  1.0 -0.1202396273
C  C217  1  0.18540000  0.67570000  0.44080000  1.0 0.0637237144
C  C218  1  0.30736000  0.98262000  0.09036000  1.0 -0.1762464951
C  C219  1  0.23590000  0.94274000  0.03360000  1.0 -0.2112454015
C  C220  1  0.56216000  0.56312000  0.33076000  1.0 0.5197651691
C  C221  1  0.53873000  0.52319000  0.26903000  1.0 0.020346501
C  C222  1  0.59756000  0.55228000  0.22486000  1.0 0.5107325237
C  C223  1  0.62820000  0.57336000  0.16540000  1.0 -0.0035067827
C  C224  1  0.49970000  0.68035000  0.11580000  1.0 0.5107325237
C  C225  1  0.58220000  0.63252000  0.11880000  1.0 0.0993455271
C  C226  1  0.92250000  0.69660000  0.11830000  1.0 0.5107325237
C  C227  1  0.92540000  0.63540000  0.08470000  1.0 -0.0035067827
C  C228  1  0.95120000  0.58250000  0.13460000  1.0 0.5406512727
C  C229  1  0.98800000  0.52060000  0.16920000  1.0 0.0037629375
C  C230  1  0.21200000  0.53845000  0.26830000  1.0 0.5107325237
C  C231  1  0.10610000  0.50572000  0.23000000  1.0 0.0895129282
C  C232  1  0.77170000  0.80560000  0.31660000  1.0 0.530169185
C  C233  1  0.27240000  0.62436000  0.43530000  1.0 0.020346501
C  C234  1  0.06870000  0.69501000  0.40070000  1.0 0.530169185
C  C235  1  0.75730000  0.64338000  0.33700000  1.0 0.5107325237
C  C236  1  0.76200000  0.74770000  0.21900000  1.0 0.5406512727
C  C237  1  0.79280000  0.81019000  0.25130000  1.0 0.020346501
C  C238  1  0.73880000  0.69618000  0.16800000  1.0 0.020346501
C  C239  1  0.61876000  0.67080000  0.12006000  1.0 0.0895129282
C  C240  1  0.25401000  0.97885000  0.05091000  1.0 0.2474329968
C  C241  1  0.12080000  0.50262000  0.27650000  1.0 0.0993455271
C  C242  1  0.08300000  0.62690000  0.41600000  1.0 0.020346501
C  C243  1  0.80342000  0.61215000  0.36392000  1.0 0.0037629375
C  C244  1  0.68820000  0.63592000  0.17800000  1.0 0.5487148314
C  C245  1  0.00810000  0.53130000  0.24290000  1.0 0.5487148314
C  C246  1  0.23380000  0.51789000  0.34070000  1.0 0.020346501
C  C247  1  0.26220000  0.57463000  0.38420000  1.0 0.5197651691
C  C248  1  0.16990000  0.57707000  0.40970000  1.0 0.0895129282
C  C249  1  0.78666000  0.57453000  0.35316000  1.0 -0.1365489315
C  C250  1  0.86172000  0.62195000  0.39872000  1.0 -0.130806511
C  C251  1  0.24217000  0.04541000  0.03027000  1.0 0.4588516739
C  C252  1  0.04510000  0.52460000  0.31840000  1.0 0.020346501
C  C253  1  0.15720000  0.54396000  0.37950000  1.0 0.0895129282
C  C254  1  0.05460000  0.58240000  0.35810000  1.0 0.5197651691
C  C255  1  0.82962000  0.54570000  0.37802000  1.0 -0.0203067788
C  C256  1  0.90427000  0.59397000  0.42447000  1.0 -0.0127347089
C  C257  1  0.19927000  0.07240000  0.99707000  1.0 -0.0127347089
C  C258  1  0.88809000  0.55570000  0.41409000  1.0 -0.130806511
C  C259  1  0.81727000  0.50434000  0.36827000  1.0 0.4676721377
C  C260  1  0.96960000  0.60311000  0.46220000  1.0 0.4034808824
C  C261  1  0.19774000  0.11028000  0.00764000  1.0 -0.1078065144
C  C262  1  0.16680000  0.06087000  0.95590000  1.0 -0.1625636282
C  C263  1  0.16188000  0.13659000  0.97668000  1.0 -0.0127347089
C  C264  1  0.13020000  0.08726000  0.92530000  1.0 -0.0035067827
C  C265  1  0.74041000  0.45786000  0.31691000  1.0 0.2202321042
C  C266  1  0.04230000  0.65493000  0.50760000  1.0 0.0719960362
C  C267  1  0.12777000  0.12484000  0.93597000  1.0 -0.1923849207
C  C268  1  0.16085000  0.17676000  0.99045000  1.0 0.4676721377
C  C269  1  0.09870000  0.07362000  0.88090000  1.0 0.4548040678
C  C270  1  0.75924000  0.42538000  0.34124000  1.0 -0.1923849207
C  C271  1  0.69633000  0.45467000  0.27553000  1.0 -0.1923849207
C  C272  1  0.03963000  0.69429000  0.50713000  1.0 -0.0203067788
C  C273  1  0.10380000  0.63633000  0.53380000  1.0 -0.0679603663
C  C274  1  0.73304000  0.39053000  0.32304000  1.0 -0.1078065144
C  C275  1  0.67235000  0.41995000  0.25765000  1.0 -0.0807779996
C  C276  1  0.09850000  0.71505000  0.53290000  1.0 -0.0454373087
C  C277  1  0.16270000  0.65709000  0.55960000  1.0 -0.0807779996
C  C278  1  0.18909000  0.24227000  0.97619000  1.0 0.2079884832
C  C279  1  0.99261000  0.07600000  0.81751000  1.0 0.2038319309
C  C280  1  0.69088000  0.38765000  0.28158000  1.0 -0.0298221807
C  C281  1  0.16000000  0.69646000  0.55910000  1.0 -0.100826862
C  C282  1  0.23360000  0.26207000  0.96080000  1.0 -0.2112454015
C  C283  1  0.15523000  0.26133000  0.99903000  1.0 -0.2199016973
C  C284  1  0.02014000  0.07674000  0.78614000  1.0 -0.2295906947
C  C285  1  0.92010000  0.06670000  0.80890000  1.0 -0.2112454015
C  C286  1  0.66717000  0.34935000  0.26237000  1.0 0.598224019
C  C287  1  0.22540000  0.72040000  0.58880000  1.0 0.3451214184
C  C288  1  0.24730000  0.29988000  0.96930000  1.0 -0.0807779996
C  C289  1  0.16980000  0.30014000  0.00760000  1.0 -0.100826862
C  C290  1  0.97270000  0.06674000  0.74560000  1.0 -0.1202396273
C  C291  1  0.87610000  0.05740000  0.77000000  1.0 -0.0807779996
C  C292  1  0.21630000  0.31937000  0.99320000  1.0 -0.040562522
C  C293  1  0.90090000  0.05650000  0.73890000  1.0 -0.040562522
C  C294  1  0.23320000  0.36020000  0.00420000  1.0 0.5406512727
C  C295  1  0.84990000  0.04380000  0.69580000  1.0 0.5197651691
C  C296  1  0.02050000  0.66710000  0.49340000  1.0 0.0719960362
C  C297  1  0.00630000  0.70570000  0.48700000  1.0 -0.0633576053
C  C298  1  0.06060000  0.73190000  0.50600000  1.0 -0.1078065144
C  C299  1  0.12910000  0.71960000  0.53150000  1.0 -0.0679603663
C  C300  1  0.14320000  0.68100000  0.53790000  1.0 -0.040562522
C  C301  1  0.08890000  0.65480000  0.51890000  1.0 -0.0203067788
C  C302  1  0.19170000  0.74890000  0.55050000  1.0 0.2971374442
C  C303  1  0.51314000  0.70334000  0.84647000  1.0 0.5406512727
C  C304  1  0.42559000  0.79866000  0.85399000  1.0 0.5406512727
C  C305  1  0.21770000  0.71062000  0.83040000  1.0 0.530169185
C  C306  1  0.14800000  0.70019000  0.70800000  1.0 0.5406512727
C  C307  1  0.44820000  0.77004000  0.72480000  1.0 0.4588516739
C  C308  1  0.51310000  0.79418000  0.74960000  1.0 -0.0679603663
C  C309  1  0.37980000  0.89148000  0.77090000  1.0 0.5626078297
C  C310  1  0.41220000  0.90138000  0.66760000  1.0 0.5406512727
C  C311  1  0.11640000  0.78820000  0.62610000  1.0 0.530169185
C  C312  1  0.14990000  0.89813000  0.65240000  1.0 0.5406512727
C  C313  1  0.60056000  0.71458000  0.91186000  1.0 0.0895129282
C  C314  1  0.47282000  0.74027000  0.89392000  1.0 0.020346501
C  C315  1  0.56562000  0.65257000  0.81872000  1.0 0.027194119
C  C316  1  0.62840000  0.68450000  0.88960000  1.0 0.0895129282
C  C317  1  0.52094000  0.80686000  0.91714000  1.0 0.0993455271
C  C318  1  0.49028000  0.84596000  0.89948000  1.0 0.0993455271
C  C319  1  0.38250000  0.86357000  0.83580000  1.0 0.027194119
C  C320  1  0.25421000  0.74103000  0.89881000  1.0 0.020346501
C  C321  1  0.14640000  0.69708000  0.86940000  1.0 0.0895129282
C  C322  1  0.11770000  0.67473000  0.82890000  1.0 0.0993455271
C  C323  1  0.17050000  0.66432000  0.77260000  1.0 0.020346501
C  C324  1  0.02500000  0.68980000  0.67150000  1.0 0.0993455271
C  C325  1  0.10230000  0.71980000  0.63510000  1.0 -0.0035067827
C  C326  1  0.04740000  0.67083000  0.71460000  1.0 0.0993455271
C  C327  1  0.50550000  0.81932000  0.77770000  1.0 -0.0807779996
C  C328  1  0.57650000  0.79270000  0.74170000  1.0 -0.0679603663
C  C329  1  0.57928000  0.70780000  0.65098000  1.0 0.5406512727
C  C330  1  0.58213000  0.65838000  0.75173000  1.0 0.530169185
C  C331  1  0.37018000  0.61924000  0.61348000  1.0 0.5626078297
C  C332  1  0.56390000  0.84178000  0.80040000  1.0 -0.1923849207
C  C333  1  0.63750000  0.81530000  0.76560000  1.0 -0.1549605976
C  C334  1  0.32936000  0.58510000  0.59236000  1.0 -0.0203067788
C  C335  1  0.44086000  0.94885000  0.79186000  1.0 0.0993455271
C  C336  1  0.36940000  0.93631000  0.71490000  1.0 0.020346501
C  C337  1  0.44584000  0.92538000  0.83054000  1.0 0.1098281762
C  C338  1  0.47296000  0.95765000  0.69346000  1.0 0.0993455271
C  C339  1  0.50070000  0.94121000  0.66120000  1.0 0.0993455271
C  C340  1  0.45510000  0.88543000  0.61150000  1.0 0.020346501
C  C341  1  0.99870000  0.76500000  0.59720000  1.0 0.0719960362
C  C342  1  0.99980000  0.80640000  0.58200000  1.0 0.0807987903
C  C343  1  0.10600000  0.85140000  0.59450000  1.0 0.020346501
C  C344  1  0.03410000  0.90820000  0.60290000  1.0 0.0993455271
C  C345  1  0.05710000  0.94290000  0.63240000  1.0 0.0895129282
C  C346  1  0.17520000  0.95760000  0.69280000  1.0 0.020346501
C  C347  1  0.70472000  0.73759000  0.90362000  1.0 0.5197651691
C  C348  1  0.64948000  0.78082000  0.93838000  1.0 0.0125867781
C  C349  1  0.68745000  0.64724000  0.81035000  1.0 0.0895129282
C  C350  1  0.74938000  0.68020000  0.88058000  1.0 0.0125867781
C  C351  1  0.61261000  0.84382000  0.90821000  1.0 0.5107325237
C  C352  1  0.55566000  0.90673000  0.89346000  1.0 0.0125867781
C  C353  1  0.26494000  0.81021000  0.90744000  1.0 0.5197651691
C  C354  1  0.18560000  0.78108000  0.93410000  1.0 0.0807987903
C  C355  1  0.07975000  0.73519000  0.90625000  1.0 0.020346501
C  C356  1  0.02543000  0.71284000  0.83413000  1.0 0.5197651691
C  C357  1  0.99320000  0.67550000  0.77040000  1.0 0.027194119
C  C358  1  0.95570000  0.71430000  0.70740000  1.0 0.5107325237
C  C359  1  0.92320000  0.73570000  0.63430000  1.0 0.0125867781
C  C360  1  0.63050000  0.83907000  0.79580000  1.0 0.2474329968
C  C361  1  0.70490000  0.70048000  0.67730000  1.0 0.0993455271
C  C362  1  0.62526000  0.65094000  0.69376000  1.0 0.0125867781
C  C363  1  0.68450000  0.73704000  0.65110000  1.0 0.1098281762
C  C364  1  0.56250000  0.76346000  0.60530000  1.0 0.027194119
C  C365  1  0.70550000  0.64780000  0.77070000  1.0 0.0895129282
C  C366  1  0.34367000  0.54963000  0.61047000  1.0 -0.0807779996
C  C367  1  0.27373000  0.58842000  0.55353000  1.0 -0.1202396273
C  C368  1  0.18540000  0.82430000  0.94080000  1.0 0.0637237144
C  C369  1  0.30736000  0.51738000  0.59036000  1.0 -0.1749414901
C  C370  1  0.23590000  0.55726000  0.53360000  1.0 -0.2112454015
C  C371  1  0.56216000  0.93688000  0.83076000  1.0 0.5197651691
C  C372  1  0.53873000  0.97681000  0.76903000  1.0 0.020346501
C  C373  1  0.59756000  0.94772000  0.72486000  1.0 0.5107325237
C  C374  1  0.62820000  0.92664000  0.66540000  1.0 -0.0035067827
C  C375  1  0.49970000  0.81965000  0.61580000  1.0 0.5107325237
C  C376  1  0.58220000  0.86748000  0.61880000  1.0 0.0993455271
C  C377  1  0.92250000  0.80340000  0.61830000  1.0 0.5107325237
C  C378  1  0.92540000  0.86460000  0.58470000  1.0 -0.0035067827
C  C379  1  0.95120000  0.91750000  0.63460000  1.0 0.5406512727
C  C380  1  0.98800000  0.97940000  0.66920000  1.0 0.0037629375
C  C381  1  0.21200000  0.96155000  0.76830000  1.0 0.5107325237
C  C382  1  0.10610000  0.99428000  0.73000000  1.0 0.0895129282
C  C383  1  0.77170000  0.69440000  0.81660000  1.0 0.530169185
C  C384  1  0.27240000  0.87564000  0.93530000  1.0 0.020346501
C  C385  1  0.06870000  0.80499000  0.90070000  1.0 0.530169185
C  C386  1  0.75730000  0.85662000  0.83700000  1.0 0.5107325237
C  C387  1  0.76200000  0.75230000  0.71900000  1.0 0.5406512727
C  C388  1  0.79280000  0.68981000  0.75130000  1.0 0.020346501
C  C389  1  0.73880000  0.80382000  0.66800000  1.0 0.020346501
C  C390  1  0.61876000  0.82920000  0.62006000  1.0 0.0895129282
C  C391  1  0.25401000  0.52115000  0.55091000  1.0 0.2474329968
C  C392  1  0.12080000  0.99738000  0.77650000  1.0 0.0993455271
C  C393  1  0.08300000  0.87310000  0.91600000  1.0 0.020346501
C  C394  1  0.80342000  0.88785000  0.86392000  1.0 0.0037629375
C  C395  1  0.68820000  0.86408000  0.67800000  1.0 0.5487148314
C  C396  1  0.00810000  0.96870000  0.74290000  1.0 0.5487148314
C  C397  1  0.23380000  0.98211000  0.84070000  1.0 0.020346501
C  C398  1  0.26220000  0.92537000  0.88420000  1.0 0.5197651691
C  C399  1  0.16990000  0.92293000  0.90970000  1.0 0.0895129282
C  C400  1  0.78666000  0.92547000  0.85316000  1.0 -0.1365489315
C  C401  1  0.86172000  0.87805000  0.89872000  1.0 -0.130806511
C  C402  1  0.24217000  0.45459000  0.53027000  1.0 0.4588516739
C  C403  1  0.04510000  0.97540000  0.81840000  1.0 0.020346501
C  C404  1  0.15720000  0.95604000  0.87950000  1.0 0.0895129282
C  C405  1  0.05460000  0.91760000  0.85810000  1.0 0.5197651691
C  C406  1  0.82962000  0.95430000  0.87802000  1.0 -0.0203067788
C  C407  1  0.90427000  0.90603000  0.92447000  1.0 -0.0127347089
C  C408  1  0.19927000  0.42760000  0.49707000  1.0 -0.0127347089
C  C409  1  0.88809000  0.94430000  0.91409000  1.0 -0.130806511
C  C410  1  0.81727000  0.99566000  0.86827000  1.0 0.4676721377
C  C411  1  0.96960000  0.89689000  0.96220000  1.0 0.4034808824
C  C412  1  0.19774000  0.38972000  0.50764000  1.0 -0.1078065144
C  C413  1  0.16680000  0.43913000  0.45590000  1.0 -0.1625636282
C  C414  1  0.16188000  0.36341000  0.47668000  1.0 -0.0127347089
C  C415  1  0.13020000  0.41274000  0.42530000  1.0 -0.0035067827
C  C416  1  0.74041000  0.04214000  0.81691000  1.0 0.2202321042
C  C417  1  0.04230000  0.84507000  0.00760000  1.0 0.0719960362
C  C418  1  0.12777000  0.37516000  0.43597000  1.0 -0.1923849207
C  C419  1  0.16085000  0.32324000  0.49045000  1.0 0.4676721377
C  C420  1  0.09870000  0.42638000  0.38090000  1.0 0.4548040678
C  C421  1  0.75924000  0.07462000  0.84124000  1.0 -0.1923849207
C  C422  1  0.69633000  0.04533000  0.77553000  1.0 -0.1923849207
C  C423  1  0.03963000  0.80571000  0.00713000  1.0 -0.0203067788
C  C424  1  0.10380000  0.86367000  0.03380000  1.0 -0.0679603663
C  C425  1  0.73304000  0.10947000  0.82304000  1.0 -0.1078065144
C  C426  1  0.67235000  0.08005000  0.75765000  1.0 -0.0807779996
C  C427  1  0.09850000  0.78495000  0.03290000  1.0 -0.0454373087
C  C428  1  0.16270000  0.84291000  0.05960000  1.0 -0.0807779996
C  C429  1  0.18909000  0.25773000  0.47619000  1.0 0.2079884832
C  C430  1  0.99261000  0.42400000  0.31751000  1.0 0.2038319309
C  C431  1  0.69088000  0.11235000  0.78158000  1.0 -0.0298221807
C  C432  1  0.16000000  0.80354000  0.05910000  1.0 -0.100826862
C  C433  1  0.23360000  0.23793000  0.46080000  1.0 -0.2112454015
C  C434  1  0.15523000  0.23867000  0.49903000  1.0 -0.2199016973
C  C435  1  0.02014000  0.42326000  0.28614000  1.0 -0.2295906947
C  C436  1  0.92010000  0.43330000  0.30890000  1.0 -0.2112454015
C  C437  1  0.66717000  0.15065000  0.76237000  1.0 0.598224019
C  C438  1  0.22540000  0.77960000  0.08880000  1.0 0.3451214184
C  C439  1  0.24730000  0.20012000  0.46930000  1.0 -0.0807779996
C  C440  1  0.16980000  0.19986000  0.50760000  1.0 -0.100826862
C  C441  1  0.97270000  0.43326000  0.24560000  1.0 -0.1202396273
C  C442  1  0.87610000  0.44260000  0.27000000  1.0 -0.0807779996
C  C443  1  0.21630000  0.18063000  0.49320000  1.0 -0.040562522
C  C444  1  0.90090000  0.44350000  0.23890000  1.0 -0.040562522
C  C445  1  0.23320000  0.13980000  0.50420000  1.0 0.5406512727
C  C446  1  0.84990000  0.45620000  0.19580000  1.0 0.5197651691
C  C447  1  0.02050000  0.83290000  0.99340000  1.0 0.0719960362
C  C448  1  0.00630000  0.79430000  0.98700000  1.0 -0.0633576053
C  C449  1  0.06060000  0.76810000  0.00600000  1.0 -0.1078065144
C  C450  1  0.12910000  0.78040000  0.03150000  1.0 -0.0679603663
C  C451  1  0.14320000  0.81900000  0.03790000  1.0 -0.040562522
C  C452  1  0.08890000  0.84520000  0.01890000  1.0 -0.0203067788
C  C453  1  0.19170000  0.75110000  0.05050000  1.0 0.2971374442
C  C454  1  0.48686000  0.20334000  0.65353000  1.0 0.5406512727
C  C455  1  0.57441000  0.29866000  0.64601000  1.0 0.5406512727
C  C456  1  0.78230000  0.21062000  0.66960000  1.0 0.530169185
C  C457  1  0.85200000  0.20019000  0.79200000  1.0 0.5487148314
C  C458  1  0.55180000  0.27004000  0.77520000  1.0 0.4588516739
C  C459  1  0.48690000  0.29418000  0.75040000  1.0 -0.0679603663
C  C460  1  0.62020000  0.39148000  0.72910000  1.0 0.5626078297
C  C461  1  0.58780000  0.40138000  0.83240000  1.0 0.5406512727
C  C462  1  0.88360000  0.28820000  0.87390000  1.0 0.530169185
C  C463  1  0.85010000  0.39813000  0.84760000  1.0 0.5406512727
C  C464  1  0.39944000  0.21458000  0.58814000  1.0 0.0895129282
C  C465  1  0.52718000  0.24027000  0.60608000  1.0 0.020346501
C  C466  1  0.43438000  0.15257000  0.68128000  1.0 0.027194119
C  C467  1  0.37160000  0.18450000  0.61040000  1.0 0.0895129282
C  C468  1  0.47906000  0.30686000  0.58286000  1.0 0.0993455271
C  C469  1  0.50972000  0.34596000  0.60052000  1.0 0.0993455271
C  C470  1  0.61750000  0.36357000  0.66420000  1.0 0.027194119
C  C471  1  0.74579000  0.24103000  0.60119000  1.0 0.020346501
C  C472  1  0.85360000  0.19708000  0.63060000  1.0 0.0895129282
C  C473  1  0.88230000  0.17473000  0.67110000  1.0 0.0993455271
C  C474  1  0.82950000  0.16432000  0.72740000  1.0 0.020346501
C  C475  1  0.97500000  0.18980000  0.82850000  1.0 0.0993455271
C  C476  1  0.89770000  0.21980000  0.86490000  1.0 -0.0035067827
C  C477  1  0.95260000  0.17083000  0.78540000  1.0 0.0993455271
C  C478  1  0.49450000  0.31932000  0.72230000  1.0 -0.0807779996
C  C479  1  0.42350000  0.29270000  0.75830000  1.0 -0.0679603663
C  C480  1  0.42072000  0.20780000  0.84902000  1.0 0.5406512727
C  C481  1  0.41787000  0.15838000  0.74827000  1.0 0.530169185
C  C482  1  0.62982000  0.11924000  0.88652000  1.0 0.5626078297
C  C483  1  0.43610000  0.34178000  0.69960000  1.0 -0.1923849207
C  C484  1  0.36250000  0.31530000  0.73440000  1.0 -0.1549605976
C  C485  1  0.67064000  0.08510000  0.90764000  1.0 -0.0203067788
C  C486  1  0.55914000  0.44885000  0.70814000  1.0 0.0993455271
C  C487  1  0.63060000  0.43631000  0.78510000  1.0 0.020346501
C  C488  1  0.55416000  0.42538000  0.66946000  1.0 0.1098281762
C  C489  1  0.52704000  0.45765000  0.80654000  1.0 0.0993455271
C  C490  1  0.49930000  0.44121000  0.83880000  1.0 0.0993455271
C  C491  1  0.54490000  0.38543000  0.88850000  1.0 0.020346501
C  C492  1  0.00130000  0.26500000  0.90280000  1.0 0.0719960362
C  C493  1  0.00020000  0.30640000  0.91800000  1.0 0.0807987903
C  C494  1  0.89400000  0.35140000  0.90550000  1.0 0.020346501
C  C495  1  0.96590000  0.40820000  0.89710000  1.0 0.0993455271
C  C496  1  0.94290000  0.44290000  0.86760000  1.0 0.0895129282
C  C497  1  0.82480000  0.45760000  0.80720000  1.0 0.020346501
C  C498  1  0.29528000  0.23759000  0.59638000  1.0 0.5197651691
C  C499  1  0.35052000  0.28082000  0.56162000  1.0 0.0125867781
C  C500  1  0.31255000  0.14724000  0.68965000  1.0 0.0895129282
C  C501  1  0.25062000  0.18020000  0.61942000  1.0 0.0125867781
C  C502  1  0.38739000  0.34382000  0.59179000  1.0 0.5107325237
C  C503  1  0.44434000  0.40673000  0.60654000  1.0 0.0125867781
C  C504  1  0.73506000  0.31021000  0.59256000  1.0 0.5197651691
C  C505  1  0.81440000  0.28108000  0.56590000  1.0 0.0807987903
C  C506  1  0.92025000  0.23519000  0.59375000  1.0 0.020346501
C  C507  1  0.97457000  0.21284000  0.66587000  1.0 0.5197651691
C  C508  1  0.00680000  0.17550000  0.72960000  1.0 0.027194119
C  C509  1  0.04430000  0.21430000  0.79260000  1.0 0.5107325237
C  C510  1  0.07680000  0.23570000  0.86570000  1.0 0.0125867781
C  C511  1  0.36950000  0.33907000  0.70420000  1.0 0.2474329968
C  C512  1  0.29510000  0.20048000  0.82270000  1.0 0.0993455271
C  C513  1  0.37474000  0.15094000  0.80624000  1.0 0.0125867781
C  C514  1  0.31550000  0.23704000  0.84890000  1.0 0.1098281762
C  C515  1  0.43750000  0.26346000  0.89470000  1.0 0.027194119
C  C516  1  0.29450000  0.14780000  0.72930000  1.0 0.0895129282
C  C517  1  0.65633000  0.04963000  0.88953000  1.0 -0.0807779996
C  C518  1  0.72627000  0.08842000  0.94647000  1.0 -0.1202396273
C  C519  1  0.81460000  0.32430000  0.55920000  1.0 0.0637237144
C  C520  1  0.69264000  0.01738000  0.90964000  1.0 -0.1749414901
C  C521  1  0.76410000  0.05726000  0.96640000  1.0 -0.2112454015
C  C522  1  0.43784000  0.43688000  0.66924000  1.0 0.5197651691
C  C523  1  0.46127000  0.47681000  0.73097000  1.0 0.020346501
C  C524  1  0.40244000  0.44772000  0.77514000  1.0 0.5107325237
C  C525  1  0.37180000  0.42664000  0.83460000  1.0 -0.0035067827
C  C526  1  0.50030000  0.31965000  0.88420000  1.0 0.5107325237
C  C527  1  0.41780000  0.36748000  0.88120000  1.0 0.0993455271
C  C528  1  0.07750000  0.30340000  0.88170000  1.0 0.5107325237
C  C529  1  0.07460000  0.36460000  0.91530000  1.0 -0.0035067827
C  C530  1  0.04880000  0.41750000  0.86540000  1.0 0.5406512727
C  C531  1  0.01200000  0.47940000  0.83080000  1.0 0.0037629375
C  C532  1  0.78800000  0.46155000  0.73170000  1.0 0.5107325237
C  C533  1  0.89390000  0.49428000  0.77000000  1.0 0.0895129282
C  C534  1  0.22830000  0.19440000  0.68340000  1.0 0.530169185
C  C535  1  0.72760000  0.37564000  0.56470000  1.0 0.020346501
C  C536  1  0.93130000  0.30499000  0.59930000  1.0 0.530169185
C  C537  1  0.24270000  0.35662000  0.66300000  1.0 0.5107325237
C  C538  1  0.23800000  0.25230000  0.78100000  1.0 0.5406512727
C  C539  1  0.20720000  0.18981000  0.74870000  1.0 0.020346501
C  C540  1  0.26120000  0.30382000  0.83200000  1.0 0.020346501
C  C541  1  0.38124000  0.32920000  0.87994000  1.0 0.0895129282
C  C542  1  0.74599000  0.02115000  0.94909000  1.0 0.2474329968
C  C543  1  0.87920000  0.49738000  0.72350000  1.0 0.0993455271
C  C544  1  0.91700000  0.37310000  0.58400000  1.0 0.020346501
C  C545  1  0.19658000  0.38785000  0.63608000  1.0 0.0037629375
C  C546  1  0.31180000  0.36408000  0.82200000  1.0 0.5487148314
C  C547  1  0.99190000  0.46870000  0.75710000  1.0 0.5487148314
C  C548  1  0.76620000  0.48211000  0.65930000  1.0 0.020346501
C  C549  1  0.73780000  0.42537000  0.61580000  1.0 0.5197651691
C  C550  1  0.83010000  0.42293000  0.59030000  1.0 0.0895129282
C  C551  1  0.21334000  0.42547000  0.64684000  1.0 -0.1365489315
C  C552  1  0.13828000  0.37805000  0.60128000  1.0 -0.130806511
C  C553  1  0.75783000  0.95459000  0.96973000  1.0 0.4588516739
C  C554  1  0.95490000  0.47540000  0.68160000  1.0 0.020346501
C  C555  1  0.84280000  0.45604000  0.62050000  1.0 0.0895129282
C  C556  1  0.94540000  0.41760000  0.64190000  1.0 0.5197651691
C  C557  1  0.17038000  0.45430000  0.62198000  1.0 -0.0203067788
C  C558  1  0.09573000  0.40603000  0.57553000  1.0 -0.0127347089
C  C559  1  0.80073000  0.92760000  0.00293000  1.0 -0.0127347089
C  C560  1  0.11191000  0.44430000  0.58591000  1.0 -0.130806511
C  C561  1  0.18273000  0.49566000  0.63173000  1.0 0.4676721377
C  C562  1  0.03040000  0.39689000  0.53780000  1.0 0.4034808824
C  C563  1  0.80226000  0.88972000  0.99236000  1.0 -0.1078065144
C  C564  1  0.83320000  0.93913000  0.04410000  1.0 -0.1625636282
C  C565  1  0.83812000  0.86341000  0.02332000  1.0 -0.0127347089
C  C566  1  0.86980000  0.91274000  0.07470000  1.0 -0.0035067827
C  C567  1  0.25959000  0.54214000  0.68309000  1.0 0.2202321042
C  C568  1  0.95770000  0.34507000  0.49240000  1.0 0.0719960362
C  C569  1  0.87223000  0.87516000  0.06403000  1.0 -0.1923849207
C  C570  1  0.83915000  0.82324000  0.00955000  1.0 0.4676721377
C  C571  1  0.90130000  0.92638000  0.11910000  1.0 0.4548040678
C  C572  1  0.24076000  0.57462000  0.65876000  1.0 -0.1923849207
C  C573  1  0.30367000  0.54533000  0.72447000  1.0 -0.1923849207
C  C574  1  0.96037000  0.30571000  0.49287000  1.0 -0.0203067788
C  C575  1  0.89620000  0.36367000  0.46620000  1.0 -0.0679603663
C  C576  1  0.26696000  0.60947000  0.67696000  1.0 -0.1078065144
C  C577  1  0.32765000  0.58005000  0.74235000  1.0 -0.0807779996
C  C578  1  0.90150000  0.28495000  0.46710000  1.0 -0.0454373087
C  C579  1  0.83730000  0.34291000  0.44040000  1.0 -0.0807779996
C  C580  1  0.81091000  0.75773000  0.02381000  1.0 0.2079884832
C  C581  1  0.00739000  0.92400000  0.18249000  1.0 0.2038319309
C  C582  1  0.30912000  0.61235000  0.71842000  1.0 -0.0298221807
C  C583  1  0.84000000  0.30354000  0.44090000  1.0 -0.100826862
C  C584  1  0.76640000  0.73793000  0.03920000  1.0 -0.2112454015
C  C585  1  0.84477000  0.73867000  0.00097000  1.0 -0.2199016973
C  C586  1  0.97986000  0.92326000  0.21386000  1.0 -0.2295906947
C  C587  1  0.07990000  0.93330000  0.19110000  1.0 -0.2048135053
C  C588  1  0.33283000  0.65065000  0.73763000  1.0 0.598224019
C  C589  1  0.77460000  0.27960000  0.41120000  1.0 0.3451214184
C  C590  1  0.75270000  0.70012000  0.03070000  1.0 -0.0807779996
C  C591  1  0.83020000  0.69986000  0.99240000  1.0 -0.100826862
C  C592  1  0.02730000  0.93326000  0.25440000  1.0 -0.1202396273
C  C593  1  0.12390000  0.94260000  0.23000000  1.0 -0.0807779996
C  C594  1  0.78370000  0.68063000  0.00680000  1.0 -0.040562522
C  C595  1  0.09910000  0.94350000  0.26110000  1.0 -0.040562522
C  C596  1  0.76680000  0.63980000  0.99580000  1.0 0.5406512727
C  C597  1  0.15010000  0.95620000  0.30420000  1.0 0.5197651691
C  C598  1  0.97950000  0.33290000  0.50660000  1.0 0.0719960362
C  C599  1  0.99370000  0.29430000  0.51300000  1.0 -0.0633576053
C  C600  1  0.93940000  0.26810000  0.49400000  1.0 -0.1078065144
C  C601  1  0.87090000  0.28040000  0.46850000  1.0 -0.0679603663
C  C602  1  0.85680000  0.31900000  0.46210000  1.0 -0.040562522
C  C603  1  0.91110000  0.34520000  0.48110000  1.0 -0.0203067788
C  C604  1  0.80830000  0.25110000  0.44950000  1.0 0.2971374442
N  N1  1  0.47370000  0.27984000  0.11610000  1.0 -0.2295906947
N  N2  1  0.42726000  0.31658000  0.15206000  1.0 -0.2503368386
N  N3  1  0.52743000  0.21924000  0.11243000  1.0 -0.2503368386
N  N4  1  0.56314000  0.16328000  0.14104000  1.0 -0.2602589959
N  N5  1  0.79802000  0.27850000  0.13612000  1.0 -0.2295906947
N  N6  1  0.83155000  0.31677000  0.19125000  1.0 -0.2503368386
N  N7  1  0.90779000  0.29408000  0.32879000  1.0 -0.2909959828
N  N8  1  0.87638000  0.31968000  0.26608000  1.0 -0.2295906947
N  N9  1  0.60021000  0.07570000  0.24271000  1.0 -0.2602589959
N  N10  1  0.59261000  0.10942000  0.18721000  1.0 -0.2295906947
N  N11  1  0.58240000  0.06860000  0.30700000  1.0 -0.2417981706
N  N12  1  0.53973000  0.09386000  0.35093000  1.0 -0.2112454015
N  N13  1  0.92640000  0.24269000  0.37830000  1.0 -0.2909959828
N  N14  1  0.92435000  0.18245000  0.39595000  1.0 -0.2503368386
N  N15  1  0.90181000  0.11511000  0.38271000  1.0 -0.2503368386
N  N16  1  0.87450000  0.06903000  0.33550000  1.0 -0.2417981706
N  N17  1  0.35236000  0.25328000  0.08566000  1.0 -0.2503368386
N  N18  1  0.39025000  0.34386000  0.20555000  1.0 -0.2417981706
N  N19  1  0.30369000  0.29981000  0.10859000  1.0 -0.2417981706
N  N20  1  0.40658000  0.19203000  0.08288000  1.0 -0.2295906947
N  N21  1  0.44787000  0.13392000  0.10207000  1.0 -0.2295906947
N  N22  1  0.77067000  0.22265000  0.09227000  1.0 -0.2112454015
N  N23  1  0.91635000  0.28282000  0.12965000  1.0 -0.2295906947
N  N24  1  0.95436000  0.30954000  0.19216000  1.0 -0.2417981706
N  N25  1  0.02827000  0.28193000  0.32837000  1.0 -0.2199016973
N  N26  1  0.99855000  0.31144000  0.26665000  1.0 -0.2295906947
N  N27  1  0.36483000  0.31405000  0.32523000  1.0 -0.2295906947
N  N28  1  0.39298000  0.26113000  0.36138000  1.0 -0.2295906947
N  N29  1  0.36290000  0.34571000  0.26230000  1.0 -0.2295906947
N  N30  1  0.48522000  0.04543000  0.20392000  1.0 -0.2199016973
N  N31  1  0.47662000  0.07987000  0.14832000  1.0 -0.2295906947
N  N32  1  0.46354000  0.04240000  0.26834000  1.0 -0.2417981706
N  N33  1  0.42220000  0.06390000  0.31540000  1.0 -0.2503368386
N  N34  1  0.48792000  0.14193000  0.38182000  1.0 -0.2295906947
N  N35  1  0.04872000  0.23264000  0.37902000  1.0 -0.2199016973
N  N36  1  0.05074000  0.17410000  0.40414000  1.0 -0.2112454015
N  N37  1  0.02674000  0.10666000  0.38934000  1.0 -0.2503368386
N  N38  1  0.00070000  0.05370000  0.35230000  1.0 -0.2503368386
N  N39  1  0.84034000  0.03394000  0.27064000  1.0 -0.2417981706
N  N40  1  0.26783000  0.32328000  0.16403000  1.0 -0.2199016973
N  N41  1  0.75849000  0.16235000  0.07269000  1.0 -0.2503368386
N  N42  1  0.89049000  0.22684000  0.08699000  1.0 -0.3129809648
N  N43  1  0.31258000  0.13647000  0.17888000  1.0 -0.3514360364
N  N44  1  0.24952000  0.28609000  0.28122000  1.0 -0.2417981706
N  N45  1  0.27547000  0.23381000  0.31977000  1.0 -0.2602589959
N  N46  1  0.43824000  0.19758000  0.38264000  1.0 -0.2295906947
N  N47  1  0.24246000  0.32175000  0.22116000  1.0 -0.2417981706
N  N48  1  0.88706000  0.16443000  0.08476000  1.0 -0.2909959828
N  N49  1  0.36977000  0.11385000  0.34337000  1.0 -0.2797098777
N  N50  1  0.96790000  0.01933000  0.28730000  1.0 -0.2503368386
N  N51  1  0.80972000  0.01982000  0.20372000  1.0 -0.2295906947
N  N52  1  0.76719000  0.09573000  0.09289000  1.0 -0.2199016973
N  N53  1  0.32061000  0.17060000  0.34071000  1.0 -0.2731437969
N  N54  1  0.78296000  0.50975000  0.47276000  1.0 -0.3674883685
N  N55  1  0.93970000  0.02403000  0.21860000  1.0 -0.2503368386
N  N56  1  0.89670000  0.09902000  0.10660000  1.0 -0.2199016973
N  N57  1  0.78371000  0.04616000  0.13491000  1.0 -0.2295906947
N  N58  1  0.91410000  0.05162000  0.15180000  1.0 -0.2199016973
N  N59  1  0.23713000  0.99509000  0.16743000  1.0 -0.3674883685
N  N60  1  0.02512000  0.13821000  0.02342000  1.0 -0.2731437969
N  N61  1  0.82007000  0.70315000  0.53247000  1.0 -0.3807492267
N  N62  1  0.96509000  0.58657000  0.64149000  1.0 -0.3514360364
N  N63  1  0.52630000  0.77984000  0.38390000  1.0 -0.2295906947
N  N64  1  0.57274000  0.81658000  0.34794000  1.0 -0.2503368386
N  N65  1  0.47257000  0.71924000  0.38757000  1.0 -0.2503368386
N  N66  1  0.43686000  0.66328000  0.35896000  1.0 -0.2602589959
N  N67  1  0.20198000  0.77850000  0.36388000  1.0 -0.2295906947
N  N68  1  0.16845000  0.81677000  0.30875000  1.0 -0.2503368386
N  N69  1  0.09221000  0.79408000  0.17121000  1.0 -0.2909959828
N  N70  1  0.12362000  0.81968000  0.23392000  1.0 -0.2295906947
N  N71  1  0.39979000  0.57570000  0.25729000  1.0 -0.2602589959
N  N72  1  0.40739000  0.60942000  0.31279000  1.0 -0.2295906947
N  N73  1  0.41760000  0.56860000  0.19300000  1.0 -0.2417981706
N  N74  1  0.46027000  0.59386000  0.14907000  1.0 -0.2112454015
N  N75  1  0.07360000  0.74269000  0.12170000  1.0 -0.2909959828
N  N76  1  0.07565000  0.68245000  0.10405000  1.0 -0.2503368386
N  N77  1  0.09819000  0.61511000  0.11729000  1.0 -0.2503368386
N  N78  1  0.12550000  0.56903000  0.16450000  1.0 -0.2417981706
N  N79  1  0.64764000  0.75328000  0.41434000  1.0 -0.2503368386
N  N80  1  0.60975000  0.84386000  0.29445000  1.0 -0.2503368386
N  N81  1  0.69631000  0.79981000  0.39141000  1.0 -0.2417981706
N  N82  1  0.59342000  0.69203000  0.41712000  1.0 -0.2295906947
N  N83  1  0.55213000  0.63392000  0.39793000  1.0 -0.2295906947
N  N84  1  0.22933000  0.72265000  0.40773000  1.0 -0.2112454015
N  N85  1  0.08365000  0.78282000  0.37035000  1.0 -0.2295906947
N  N86  1  0.04564000  0.80954000  0.30784000  1.0 -0.2417981706
N  N87  1  0.97173000  0.78193000  0.17163000  1.0 -0.2199016973
N  N88  1  0.00145000  0.81144000  0.23335000  1.0 -0.2295906947
N  N89  1  0.63517000  0.81405000  0.17477000  1.0 -0.2295906947
N  N90  1  0.60702000  0.76113000  0.13862000  1.0 -0.2295906947
N  N91  1  0.63710000  0.84571000  0.23770000  1.0 -0.2295906947
N  N92  1  0.51478000  0.54543000  0.29608000  1.0 -0.2199016973
N  N93  1  0.52338000  0.57987000  0.35168000  1.0 -0.2295906947
N  N94  1  0.53646000  0.54240000  0.23166000  1.0 -0.2417981706
N  N95  1  0.57780000  0.56390000  0.18460000  1.0 -0.2503368386
N  N96  1  0.51208000  0.64193000  0.11818000  1.0 -0.2295906947
N  N97  1  0.95128000  0.73264000  0.12098000  1.0 -0.2295906947
N  N98  1  0.94926000  0.67410000  0.09586000  1.0 -0.2048135053
N  N99  1  0.97326000  0.60666000  0.11066000  1.0 -0.2503368386
N  N100  1  0.99930000  0.55370000  0.14770000  1.0 -0.2602589959
N  N101  1  0.15966000  0.53394000  0.22936000  1.0 -0.2417981706
N  N102  1  0.73217000  0.82328000  0.33597000  1.0 -0.2199016973
N  N103  1  0.24151000  0.66235000  0.42731000  1.0 -0.2503368386
N  N104  1  0.10951000  0.72684000  0.41301000  1.0 -0.3153069864
N  N105  1  0.68742000  0.63647000  0.32112000  1.0 -0.3514360364
N  N106  1  0.75048000  0.78609000  0.21878000  1.0 -0.2503368386
N  N107  1  0.72453000  0.73381000  0.18023000  1.0 -0.2731437969
N  N108  1  0.56176000  0.69758000  0.11736000  1.0 -0.2295906947
N  N109  1  0.75754000  0.82175000  0.27884000  1.0 -0.2417981706
N  N110  1  0.11294000  0.66443000  0.41524000  1.0 -0.2909959828
N  N111  1  0.63023000  0.61385000  0.15663000  1.0 -0.2797098777
N  N112  1  0.03210000  0.51933000  0.21270000  1.0 -0.2503368386
N  N113  1  0.19028000  0.51982000  0.29628000  1.0 -0.2295906947
N  N114  1  0.23281000  0.59573000  0.40711000  1.0 -0.2199016973
N  N115  1  0.67939000  0.67060000  0.15929000  1.0 -0.2731437969
N  N116  1  0.21704000  0.00975000  0.02724000  1.0 -0.3674883685
N  N117  1  0.06030000  0.52403000  0.28140000  1.0 -0.2503368386
N  N118  1  0.10330000  0.59902000  0.39340000  1.0 -0.2295906947
N  N119  1  0.21629000  0.54616000  0.36509000  1.0 -0.2295906947
N  N120  1  0.08590000  0.55162000  0.34820000  1.0 -0.2199016973
N  N121  1  0.76287000  0.49509000  0.33257000  1.0 -0.3674883685
N  N122  1  0.97488000  0.63821000  0.47658000  1.0 -0.2731437969
N  N123  1  0.17993000  0.20315000  0.96753000  1.0 -0.3807492267
N  N124  1  0.03491000  0.08657000  0.85851000  1.0 -0.3514360364
N  N125  1  0.52630000  0.72016000  0.88390000  1.0 -0.2295906947
N  N126  1  0.57274000  0.68342000  0.84794000  1.0 -0.2503368386
N  N127  1  0.47257000  0.78076000  0.88757000  1.0 -0.2503368386
N  N128  1  0.43686000  0.83672000  0.85896000  1.0 -0.2602589959
N  N129  1  0.20198000  0.72150000  0.86388000  1.0 -0.2295906947
N  N130  1  0.16845000  0.68323000  0.80875000  1.0 -0.2503368386
N  N131  1  0.09221000  0.70592000  0.67121000  1.0 -0.2909959828
N  N132  1  0.12362000  0.68032000  0.73392000  1.0 -0.2295906947
N  N133  1  0.39979000  0.92430000  0.75729000  1.0 -0.2602589959
N  N134  1  0.40739000  0.89058000  0.81279000  1.0 -0.2295906947
N  N135  1  0.41760000  0.93140000  0.69300000  1.0 -0.2417981706
N  N136  1  0.46027000  0.90614000  0.64907000  1.0 -0.2112454015
N  N137  1  0.07360000  0.75731000  0.62170000  1.0 -0.2909959828
N  N138  1  0.07565000  0.81755000  0.60405000  1.0 -0.2503368386
N  N139  1  0.09819000  0.88489000  0.61729000  1.0 -0.2503368386
N  N140  1  0.12550000  0.93097000  0.66450000  1.0 -0.2417981706
N  N141  1  0.64764000  0.74672000  0.91434000  1.0 -0.2503368386
N  N142  1  0.60975000  0.65614000  0.79445000  1.0 -0.2417981706
N  N143  1  0.69631000  0.70019000  0.89141000  1.0 -0.2417981706
N  N144  1  0.59342000  0.80797000  0.91712000  1.0 -0.2295906947
N  N145  1  0.55213000  0.86608000  0.89793000  1.0 -0.2295906947
N  N146  1  0.22933000  0.77735000  0.90773000  1.0 -0.2112454015
N  N147  1  0.08365000  0.71718000  0.87035000  1.0 -0.2295906947
N  N148  1  0.04564000  0.69046000  0.80784000  1.0 -0.2417981706
N  N149  1  0.97173000  0.71807000  0.67163000  1.0 -0.2199016973
N  N150  1  0.00145000  0.68856000  0.73335000  1.0 -0.2295906947
N  N151  1  0.63517000  0.68595000  0.67477000  1.0 -0.2295906947
N  N152  1  0.60702000  0.73887000  0.63862000  1.0 -0.2295906947
N  N153  1  0.63710000  0.65429000  0.73770000  1.0 -0.2295906947
N  N154  1  0.51478000  0.95457000  0.79608000  1.0 -0.2199016973
N  N155  1  0.52338000  0.92013000  0.85168000  1.0 -0.2295906947
N  N156  1  0.53646000  0.95760000  0.73166000  1.0 -0.2417981706
N  N157  1  0.57780000  0.93610000  0.68460000  1.0 -0.2503368386
N  N158  1  0.51208000  0.85807000  0.61818000  1.0 -0.2295906947
N  N159  1  0.95128000  0.76736000  0.62098000  1.0 -0.2295906947
N  N160  1  0.94926000  0.82590000  0.59586000  1.0 -0.2048135053
N  N161  1  0.97326000  0.89334000  0.61066000  1.0 -0.2503368386
N  N162  1  0.99930000  0.94630000  0.64770000  1.0 -0.2503368386
N  N163  1  0.15966000  0.96606000  0.72936000  1.0 -0.2417981706
N  N164  1  0.73217000  0.67672000  0.83597000  1.0 -0.2199016973
N  N165  1  0.24151000  0.83765000  0.92731000  1.0 -0.2503368386
N  N166  1  0.10951000  0.77316000  0.91301000  1.0 -0.3153069864
N  N167  1  0.68742000  0.86353000  0.82112000  1.0 -0.3514360364
N  N168  1  0.75048000  0.71391000  0.71878000  1.0 -0.2503368386
N  N169  1  0.72453000  0.76619000  0.68023000  1.0 -0.2602589959
N  N170  1  0.56176000  0.80242000  0.61736000  1.0 -0.2295906947
N  N171  1  0.75754000  0.67825000  0.77884000  1.0 -0.2417981706
N  N172  1  0.11294000  0.83557000  0.91524000  1.0 -0.2909959828
N  N173  1  0.63023000  0.88615000  0.65663000  1.0 -0.2797098777
N  N174  1  0.03210000  0.98067000  0.71270000  1.0 -0.2602589959
N  N175  1  0.19028000  0.98018000  0.79628000  1.0 -0.2295906947
N  N176  1  0.23281000  0.90427000  0.90711000  1.0 -0.2199016973
N  N177  1  0.67939000  0.82940000  0.65929000  1.0 -0.2731437969
N  N178  1  0.21704000  0.49025000  0.52724000  1.0 -0.3674883685
N  N179  1  0.06030000  0.97597000  0.78140000  1.0 -0.2503368386
N  N180  1  0.10330000  0.90098000  0.89340000  1.0 -0.2295906947
N  N181  1  0.21629000  0.95384000  0.86509000  1.0 -0.2295906947
N  N182  1  0.08590000  0.94838000  0.84820000  1.0 -0.2199016973
N  N183  1  0.76287000  0.00491000  0.83257000  1.0 -0.3674883685
N  N184  1  0.97488000  0.86179000  0.97658000  1.0 -0.2797098777
N  N185  1  0.17993000  0.29685000  0.46753000  1.0 -0.3807492267
N  N186  1  0.03491000  0.41343000  0.35851000  1.0 -0.3514360364
N  N187  1  0.47370000  0.22016000  0.61610000  1.0 -0.2295906947
N  N188  1  0.42726000  0.18342000  0.65206000  1.0 -0.2503368386
N  N189  1  0.52743000  0.28076000  0.61243000  1.0 -0.2503368386
N  N190  1  0.56314000  0.33672000  0.64104000  1.0 -0.2602589959
N  N191  1  0.79802000  0.22150000  0.63612000  1.0 -0.2295906947
N  N192  1  0.83155000  0.18323000  0.69125000  1.0 -0.2503368386
N  N193  1  0.90779000  0.20592000  0.82879000  1.0 -0.2909959828
N  N194  1  0.87638000  0.18032000  0.76608000  1.0 -0.2295906947
N  N195  1  0.60021000  0.42430000  0.74271000  1.0 -0.2602589959
N  N196  1  0.59261000  0.39058000  0.68721000  1.0 -0.2295906947
N  N197  1  0.58240000  0.43140000  0.80700000  1.0 -0.2417981706
N  N198  1  0.53973000  0.40614000  0.85093000  1.0 -0.2112454015
N  N199  1  0.92640000  0.25731000  0.87830000  1.0 -0.2909959828
N  N200  1  0.92435000  0.31755000  0.89595000  1.0 -0.2503368386
N  N201  1  0.90181000  0.38489000  0.88271000  1.0 -0.2417981706
N  N202  1  0.87450000  0.43097000  0.83550000  1.0 -0.2417981706
N  N203  1  0.35236000  0.24672000  0.58566000  1.0 -0.2503368386
N  N204  1  0.39025000  0.15614000  0.70555000  1.0 -0.2503368386
N  N205  1  0.30369000  0.20019000  0.60859000  1.0 -0.2417981706
N  N206  1  0.40658000  0.30797000  0.58288000  1.0 -0.2295906947
N  N207  1  0.44787000  0.36608000  0.60207000  1.0 -0.2295906947
N  N208  1  0.77067000  0.27735000  0.59227000  1.0 -0.2112454015
N  N209  1  0.91635000  0.21718000  0.62965000  1.0 -0.2295906947
N  N210  1  0.95436000  0.19046000  0.69216000  1.0 -0.2417981706
N  N211  1  0.02827000  0.21807000  0.82837000  1.0 -0.2199016973
N  N212  1  0.99855000  0.18856000  0.76665000  1.0 -0.2295906947
N  N213  1  0.36483000  0.18595000  0.82523000  1.0 -0.2295906947
N  N214  1  0.39298000  0.23887000  0.86138000  1.0 -0.2295906947
N  N215  1  0.36290000  0.15429000  0.76230000  1.0 -0.2295906947
N  N216  1  0.48522000  0.45457000  0.70392000  1.0 -0.2199016973
N  N217  1  0.47662000  0.42013000  0.64832000  1.0 -0.2295906947
N  N218  1  0.46354000  0.45760000  0.76834000  1.0 -0.2417981706
N  N219  1  0.42220000  0.43610000  0.81540000  1.0 -0.2503368386
N  N220  1  0.48792000  0.35807000  0.88182000  1.0 -0.2295906947
N  N221  1  0.04872000  0.26736000  0.87902000  1.0 -0.2199016973
N  N222  1  0.05074000  0.32590000  0.90414000  1.0 -0.2112454015
N  N223  1  0.02674000  0.39334000  0.88934000  1.0 -0.2503368386
N  N224  1  0.00070000  0.44630000  0.85230000  1.0 -0.2503368386
N  N225  1  0.84034000  0.46606000  0.77064000  1.0 -0.2417981706
N  N226  1  0.26783000  0.17672000  0.66403000  1.0 -0.2199016973
N  N227  1  0.75849000  0.33765000  0.57269000  1.0 -0.2503368386
N  N228  1  0.89049000  0.27316000  0.58699000  1.0 -0.3129809648
N  N229  1  0.31258000  0.36353000  0.67888000  1.0 -0.3514360364
N  N230  1  0.24952000  0.21391000  0.78122000  1.0 -0.2503368386
N  N231  1  0.27547000  0.26619000  0.81977000  1.0 -0.2602589959
N  N232  1  0.43824000  0.30242000  0.88264000  1.0 -0.2295906947
N  N233  1  0.24246000  0.17825000  0.72116000  1.0 -0.2417981706
N  N234  1  0.88706000  0.33557000  0.58476000  1.0 -0.2909959828
N  N235  1  0.36977000  0.38615000  0.84337000  1.0 -0.2797098777
N  N236  1  0.96790000  0.48067000  0.78730000  1.0 -0.2602589959
N  N237  1  0.80972000  0.48018000  0.70372000  1.0 -0.2295906947
N  N238  1  0.76719000  0.40427000  0.59289000  1.0 -0.2199016973
N  N239  1  0.32061000  0.32940000  0.84071000  1.0 -0.2731437969
N  N240  1  0.78296000  0.99025000  0.97276000  1.0 -0.3674883685
N  N241  1  0.93970000  0.47597000  0.71860000  1.0 -0.2503368386
N  N242  1  0.89670000  0.40098000  0.60660000  1.0 -0.2199016973
N  N243  1  0.78371000  0.45384000  0.63491000  1.0 -0.2295906947
N  N244  1  0.91410000  0.44838000  0.65180000  1.0 -0.2199016973
N  N245  1  0.23713000  0.50491000  0.66743000  1.0 -0.3674883685
N  N246  1  0.02512000  0.36179000  0.52342000  1.0 -0.2731437969
N  N247  1  0.82007000  0.79685000  0.03247000  1.0 -0.3807492267
N  N248  1  0.96509000  0.91343000  0.14149000  1.0 -0.3514360364
O  O1  1  0.75020000  0.20863000  0.26000000  1.0 -0.3674883685
O  O2  1  0.54405000  0.29470000  0.18325000  1.0 -0.5823503236
O  O3  1  0.61962000  0.21675000  0.17640000  1.0 -0.5503124061
O  O4  1  0.73252000  0.27788000  0.17942000  1.0 -0.5682379554
O  O5  1  0.78949000  0.28904000  0.28378000  1.0 -0.5299836676
O  O6  1  0.61158000  0.22450000  0.27148000  1.0 -0.5190431725
O  O7  1  0.65188000  0.32393000  0.28330000  1.0 -0.6640428256
O  O8  1  0.66677000  0.34367000  0.22613000  1.0 -0.5985352497
O  O9  1  0.65840000  0.13317000  0.25140000  1.0 -0.5299836676
O  O10  1  0.63038000  0.12514000  0.33798000  1.0 -0.5604522392
O  O11  1  0.81843000  0.21042000  0.35443000  1.0 -0.5190431725
O  O12  1  0.79141000  0.11696000  0.32891000  1.0 -0.5604522392
O  O13  1  0.69130000  0.19400000  0.37480000  1.0 -0.2797098777
O  O14  1  0.54440000  0.25291000  0.30210000  1.0 -0.3129809648
O  O15  1  0.62450000  0.24880000  0.36550000  1.0 -0.2797098777
O  O16  1  0.48574000  0.29918000  0.35894000  1.0 -0.5604522392
O  O17  1  0.48236000  0.33748000  0.26976000  1.0 -0.5604522392
O  O18  1  0.58206000  0.38393000  0.35046000  1.0 -0.592054906
O  O19  1  0.64323000  0.34958000  0.40513000  1.0 -0.5985352497
O  O20  1  0.72850000  0.29720000  0.38040000  1.0 -0.4610877981
O  O21  1  0.24582000  0.24143000  0.09492000  1.0 -0.431079014
O  O22  1  0.32814000  0.14657000  0.09064000  1.0 -0.4812470029
O  O23  1  0.68820000  0.18589000  0.10770000  1.0 -0.5299836676
O  O24  1  0.03466000  0.27371000  0.17338000  1.0 -0.5823503236
O  O25  1  0.09130000  0.26753000  0.28580000  1.0 -0.4882698196
O  O26  1  0.37227000  0.06290000  0.15889000  1.0 -0.5190431725
O  O27  1  0.34064000  0.05085000  0.24934000  1.0 -0.4882698196
O  O28  1  0.55724000  0.19577000  0.38754000  1.0 -0.4882698196
O  O29  1  0.12299000  0.18699000  0.36699000  1.0 -0.4812470029
O  O30  1  0.10399000  0.08630000  0.35749000  1.0 -0.5190431725
O  O31  1  0.73132000  0.05533000  0.22372000  1.0 -0.5299836676
O  O32  1  0.18571000  0.27895000  0.16851000  1.0 -0.5823503236
O  O33  1  0.99709000  0.19366000  0.11899000  1.0 -0.5604522392
O  O34  1  0.21560000  0.17298000  0.16930000  1.0 -0.5299836676
O  O35  1  0.19990000  0.22955000  0.25090000  1.0 -0.5503124061
O  O36  1  0.26091000  0.12642000  0.29081000  1.0 -0.5604522392
O  O37  1  0.05130000  0.04425000  0.26330000  1.0 -0.540092508
O  O38  1  0.11499000  0.22540000  0.09709000  1.0 -0.2602589959
O  O39  1  0.04900000  0.20556000  0.22810000  1.0 0.0993455271
O  O40  1  0.67693000  0.08020000  0.11693000  1.0 -0.5604522392
O  O41  1  0.70352000  0.55592000  0.44242000  1.0 -0.431079014
O  O42  1  0.00650000  0.09366000  0.16040000  1.0 -0.4610877981
O  O43  1  0.14491000  0.98045000  0.10751000  1.0 -0.4882698196
O  O44  1  0.98246000  0.07961000  0.02226000  1.0 -0.4610877981
O  O45  1  0.85545000  0.68443000  0.47965000  1.0 -0.4417149673
O  O46  1  0.86663000  0.55234000  0.63403000  1.0 -0.5024449478
O  O47  1  0.77440000  0.25160000  0.92080000  1.0 0.0807987903
O  O48  1  0.72760000  0.87722000  0.51150000  1.0 -0.5503124061
O  O49  1  0.79660000  0.87591000  0.47370000  1.0 -0.592054906
O  O50  1  0.20860000  0.52570000  0.80750000  1.0 -0.5190431725
O  O51  1  0.13210000  0.55180000  0.83300000  1.0 -0.5503124061
O  O52  1  0.12150000  0.11290000  0.22560000  1.0 -0.1762464951
O  O53  1  0.07560000  0.14762000  0.28810000  1.0 -0.0807779996
O  O54  1  0.24510000  0.12190000  0.38590000  1.0 0.0807987903
O  O55  1  0.22890000  0.03720000  0.35920000  1.0 0.1493682761
O  O56  1  0.20420000  0.03760000  0.25340000  1.0 0.020346501
O  O57  1  0.74630000  0.23600000  0.92590000  1.0 0.0125867781
O  O58  1  0.82600000  0.27790000  0.94330000  1.0 -0.2295906947
O  O59  1  0.11810000  0.14590000  0.20030000  1.0 -0.2797098777
O  O60  1  0.71580000  0.17410000  0.40190000  1.0 0.1784221058
O  O61  1  0.54580000  0.26120000  0.26980000  1.0 0.1273501455
O  O62  1  0.24980000  0.70863000  0.24000000  1.0 -0.3807492267
O  O63  1  0.45595000  0.79470000  0.31675000  1.0 -0.5823503236
O  O64  1  0.38038000  0.71675000  0.32360000  1.0 -0.5503124061
O  O65  1  0.26748000  0.77788000  0.32058000  1.0 -0.5682379554
O  O66  1  0.21051000  0.78904000  0.21622000  1.0 -0.5299836676
O  O67  1  0.38842000  0.72450000  0.22852000  1.0 -0.5190431725
O  O68  1  0.34812000  0.82393000  0.21670000  1.0 -0.6640428256
O  O69  1  0.33323000  0.84367000  0.27387000  1.0 -0.5985352497
O  O70  1  0.34160000  0.63317000  0.24860000  1.0 -0.5299836676
O  O71  1  0.36962000  0.62514000  0.16202000  1.0 -0.5604522392
O  O72  1  0.18157000  0.71042000  0.14557000  1.0 -0.5190431725
O  O73  1  0.20859000  0.61696000  0.17109000  1.0 -0.5604522392
O  O74  1  0.30870000  0.69400000  0.12520000  1.0 -0.2797098777
O  O75  1  0.45560000  0.75291000  0.19790000  1.0 -0.3129809648
O  O76  1  0.37550000  0.74880000  0.13450000  1.0 -0.2797098777
O  O77  1  0.51426000  0.79918000  0.14106000  1.0 -0.5604522392
O  O78  1  0.51764000  0.83748000  0.23024000  1.0 -0.5604522392
O  O79  1  0.41794000  0.88393000  0.14954000  1.0 -0.592054906
O  O80  1  0.35677000  0.84958000  0.09487000  1.0 -0.5985352497
O  O81  1  0.27150000  0.79720000  0.11960000  1.0 -0.4610877981
O  O82  1  0.75418000  0.74143000  0.40508000  1.0 -0.431079014
O  O83  1  0.67186000  0.64657000  0.40936000  1.0 -0.4812470029
O  O84  1  0.31180000  0.68589000  0.39230000  1.0 -0.5299836676
O  O85  1  0.96534000  0.77371000  0.32662000  1.0 -0.5823503236
O  O86  1  0.90870000  0.76753000  0.21420000  1.0 -0.4882698196
O  O87  1  0.62773000  0.56290000  0.34111000  1.0 -0.5190431725
O  O88  1  0.65936000  0.55085000  0.25066000  1.0 -0.4882698196
O  O89  1  0.44276000  0.69577000  0.11246000  1.0 -0.4882698196
O  O90  1  0.87701000  0.68699000  0.13301000  1.0 -0.4812470029
O  O91  1  0.89601000  0.58630000  0.14251000  1.0 -0.5190431725
O  O92  1  0.26868000  0.55533000  0.27628000  1.0 -0.5299836676
O  O93  1  0.81429000  0.77895000  0.33149000  1.0 -0.5823503236
O  O94  1  0.00291000  0.69366000  0.38101000  1.0 -0.5604522392
O  O95  1  0.78440000  0.67298000  0.33070000  1.0 -0.5299836676
O  O96  1  0.80010000  0.72955000  0.24910000  1.0 -0.5503124061
O  O97  1  0.73909000  0.62642000  0.20919000  1.0 -0.5604522392
O  O98  1  0.94870000  0.54425000  0.23670000  1.0 -0.540092508
O  O99  1  0.88501000  0.72540000  0.40291000  1.0 -0.2602589959
O  O100  1  0.95100000  0.70556000  0.27190000  1.0 0.0993455271
O  O101  1  0.32307000  0.58020000  0.38307000  1.0 -0.5604522392
O  O102  1  0.29648000  0.05592000  0.05758000  1.0 -0.431079014
O  O103  1  0.99350000  0.59366000  0.33960000  1.0 -0.4610877981
O  O104  1  0.85509000  0.48045000  0.39249000  1.0 -0.4882698196
O  O105  1  0.01754000  0.57961000  0.47774000  1.0 -0.4610877981
O  O106  1  0.14455000  0.18443000  0.02035000  1.0 -0.4417149673
O  O107  1  0.13337000  0.05234000  0.86597000  1.0 -0.5024449478
O  O108  1  0.22560000  0.75160000  0.57920000  1.0 0.0807987903
O  O109  1  0.27240000  0.37722000  0.98850000  1.0 -0.5503124061
O  O110  1  0.20340000  0.37591000  0.02630000  1.0 -0.592054906
O  O111  1  0.79140000  0.02570000  0.69250000  1.0 -0.5190431725
O  O112  1  0.86790000  0.05180000  0.66700000  1.0 -0.5503124061
O  O113  1  0.87850000  0.61290000  0.27440000  1.0 -0.1749414901
O  O114  1  0.92440000  0.64762000  0.21190000  1.0 -0.0807779996
O  O115  1  0.75490000  0.62190000  0.11410000  1.0 0.0807987903
O  O116  1  0.77110000  0.53720000  0.14080000  1.0 0.157647406
O  O117  1  0.79580000  0.53760000  0.24660000  1.0 0.027194119
O  O118  1  0.25370000  0.73600000  0.57410000  1.0 0.0125867781
O  O119  1  0.17400000  0.77790000  0.55670000  1.0 -0.2295906947
O  O120  1  0.88190000  0.64590000  0.29970000  1.0 -0.2797098777
O  O121  1  0.28420000  0.67410000  0.09810000  1.0 0.1784221058
O  O122  1  0.45420000  0.76120000  0.23020000  1.0 0.1273501455
O  O123  1  0.24980000  0.79137000  0.74000000  1.0 -0.3674883685
O  O124  1  0.45595000  0.70530000  0.81675000  1.0 -0.5823503236
O  O125  1  0.38038000  0.78325000  0.82360000  1.0 -0.5503124061
O  O126  1  0.26748000  0.72212000  0.82058000  1.0 -0.5682379554
O  O127  1  0.21051000  0.71096000  0.71622000  1.0 -0.5299836676
O  O128  1  0.38842000  0.77550000  0.72852000  1.0 -0.5190431725
O  O129  1  0.34812000  0.67607000  0.71670000  1.0 -0.6640428256
O  O130  1  0.33323000  0.65633000  0.77387000  1.0 -0.5985352497
O  O131  1  0.34160000  0.86683000  0.74860000  1.0 -0.5299836676
O  O132  1  0.36962000  0.87486000  0.66202000  1.0 -0.5604522392
O  O133  1  0.18157000  0.78958000  0.64557000  1.0 -0.5190431725
O  O134  1  0.20859000  0.88304000  0.67109000  1.0 -0.5604522392
O  O135  1  0.30870000  0.80600000  0.62520000  1.0 -0.2797098777
O  O136  1  0.45560000  0.74709000  0.69790000  1.0 -0.3129809648
O  O137  1  0.37550000  0.75120000  0.63450000  1.0 -0.2797098777
O  O138  1  0.51426000  0.70082000  0.64106000  1.0 -0.5604522392
O  O139  1  0.51764000  0.66252000  0.73024000  1.0 -0.5604522392
O  O140  1  0.41794000  0.61607000  0.64954000  1.0 -0.592054906
O  O141  1  0.35677000  0.65042000  0.59487000  1.0 -0.5985352497
O  O142  1  0.27150000  0.70280000  0.61960000  1.0 -0.4610877981
O  O143  1  0.75418000  0.75857000  0.90508000  1.0 -0.431079014
O  O144  1  0.67186000  0.85343000  0.90936000  1.0 -0.4812470029
O  O145  1  0.31180000  0.81411000  0.89230000  1.0 -0.5299836676
O  O146  1  0.96534000  0.72629000  0.82662000  1.0 -0.5823503236
O  O147  1  0.90870000  0.73247000  0.71420000  1.0 -0.4882698196
O  O148  1  0.62773000  0.93710000  0.84111000  1.0 -0.5190431725
O  O149  1  0.65936000  0.94915000  0.75066000  1.0 -0.4882698196
O  O150  1  0.44276000  0.80423000  0.61246000  1.0 -0.4882698196
O  O151  1  0.87701000  0.81301000  0.63301000  1.0 -0.4812470029
O  O152  1  0.89601000  0.91370000  0.64251000  1.0 -0.5190431725
O  O153  1  0.26868000  0.94467000  0.77628000  1.0 -0.5299836676
O  O154  1  0.81429000  0.72105000  0.83149000  1.0 -0.5823503236
O  O155  1  0.00291000  0.80634000  0.88101000  1.0 -0.5604522392
O  O156  1  0.78440000  0.82702000  0.83070000  1.0 -0.5299836676
O  O157  1  0.80010000  0.77045000  0.74910000  1.0 -0.5503124061
O  O158  1  0.73909000  0.87358000  0.70919000  1.0 -0.5604522392
O  O159  1  0.94870000  0.95575000  0.73670000  1.0 -0.540092508
O  O160  1  0.88501000  0.77460000  0.90291000  1.0 -0.2602589959
O  O161  1  0.95100000  0.79444000  0.77190000  1.0 0.0993455271
O  O162  1  0.32307000  0.91980000  0.88307000  1.0 -0.5604522392
O  O163  1  0.29648000  0.44408000  0.55758000  1.0 -0.431079014
O  O164  1  0.99350000  0.90634000  0.83960000  1.0 -0.4610877981
O  O165  1  0.85509000  0.01955000  0.89249000  1.0 -0.4882698196
O  O166  1  0.01754000  0.92039000  0.97774000  1.0 -0.4610877981
O  O167  1  0.14455000  0.31557000  0.52035000  1.0 -0.4417149673
O  O168  1  0.13337000  0.44766000  0.36597000  1.0 -0.5024449478
O  O169  1  0.22560000  0.74840000  0.07920000  1.0 0.0807987903
O  O170  1  0.27240000  0.12278000  0.48850000  1.0 -0.5503124061
O  O171  1  0.20340000  0.12409000  0.52630000  1.0 -0.592054906
O  O172  1  0.79140000  0.47430000  0.19250000  1.0 -0.5190431725
O  O173  1  0.86790000  0.44820000  0.16700000  1.0 -0.5503124061
O  O174  1  0.87850000  0.88710000  0.77440000  1.0 -0.1762464951
O  O175  1  0.92440000  0.85238000  0.71190000  1.0 -0.0679603663
O  O176  1  0.75490000  0.87810000  0.61410000  1.0 0.0807987903
O  O177  1  0.77110000  0.96280000  0.64080000  1.0 0.1493682761
O  O178  1  0.79580000  0.96240000  0.74660000  1.0 0.020346501
O  O179  1  0.25370000  0.76400000  0.07410000  1.0 0.0125867781
O  O180  1  0.17400000  0.72210000  0.05670000  1.0 -0.2295906947
O  O181  1  0.88190000  0.85410000  0.79970000  1.0 -0.2797098777
O  O182  1  0.28420000  0.82590000  0.59810000  1.0 0.1784221058
O  O183  1  0.45420000  0.73880000  0.73020000  1.0 0.1273501455
O  O184  1  0.75020000  0.29137000  0.76000000  1.0 -0.3674883685
O  O185  1  0.54405000  0.20530000  0.68325000  1.0 -0.5823503236
O  O186  1  0.61962000  0.28325000  0.67640000  1.0 -0.5503124061
O  O187  1  0.73252000  0.22212000  0.67942000  1.0 -0.5682379554
O  O188  1  0.78949000  0.21096000  0.78378000  1.0 -0.5299836676
O  O189  1  0.61158000  0.27550000  0.77148000  1.0 -0.5190431725
O  O190  1  0.65188000  0.17607000  0.78330000  1.0 -0.6640428256
O  O191  1  0.66677000  0.15633000  0.72613000  1.0 -0.5985352497
O  O192  1  0.65840000  0.36683000  0.75140000  1.0 -0.5299836676
O  O193  1  0.63038000  0.37486000  0.83798000  1.0 -0.5604522392
O  O194  1  0.81843000  0.28958000  0.85443000  1.0 -0.5190431725
O  O195  1  0.79141000  0.38304000  0.82891000  1.0 -0.5604522392
O  O196  1  0.69130000  0.30600000  0.87480000  1.0 -0.2797098777
O  O197  1  0.54440000  0.24709000  0.80210000  1.0 -0.3129809648
O  O198  1  0.62450000  0.25120000  0.86550000  1.0 -0.2797098777
O  O199  1  0.48574000  0.20082000  0.85894000  1.0 -0.5604522392
O  O200  1  0.48236000  0.16252000  0.76976000  1.0 -0.5604522392
O  O201  1  0.58206000  0.11607000  0.85046000  1.0 -0.592054906
O  O202  1  0.64323000  0.15042000  0.90513000  1.0 -0.5985352497
O  O203  1  0.72850000  0.20280000  0.88040000  1.0 -0.4610877981
O  O204  1  0.24582000  0.25857000  0.59492000  1.0 -0.431079014
O  O205  1  0.32814000  0.35343000  0.59064000  1.0 -0.4812470029
O  O206  1  0.68820000  0.31411000  0.60770000  1.0 -0.5299836676
O  O207  1  0.03466000  0.22629000  0.67338000  1.0 -0.5823503236
O  O208  1  0.09130000  0.23247000  0.78580000  1.0 -0.4882698196
O  O209  1  0.37227000  0.43710000  0.65889000  1.0 -0.5190431725
O  O210  1  0.34064000  0.44915000  0.74934000  1.0 -0.4882698196
O  O211  1  0.55724000  0.30423000  0.88754000  1.0 -0.4882698196
O  O212  1  0.12299000  0.31301000  0.86699000  1.0 -0.4812470029
O  O213  1  0.10399000  0.41370000  0.85749000  1.0 -0.5190431725
O  O214  1  0.73132000  0.44467000  0.72372000  1.0 -0.5299836676
O  O215  1  0.18571000  0.22105000  0.66851000  1.0 -0.5823503236
O  O216  1  0.99709000  0.30634000  0.61899000  1.0 -0.5604522392
O  O217  1  0.21560000  0.32702000  0.66930000  1.0 -0.5299836676
O  O218  1  0.19990000  0.27045000  0.75090000  1.0 -0.5503124061
O  O219  1  0.26091000  0.37358000  0.79081000  1.0 -0.5604522392
O  O220  1  0.05130000  0.45575000  0.76330000  1.0 -0.540092508
O  O221  1  0.11499000  0.27460000  0.59709000  1.0 -0.2602589959
O  O222  1  0.04900000  0.29444000  0.72810000  1.0 0.0993455271
O  O223  1  0.67693000  0.41980000  0.61693000  1.0 -0.5604522392
O  O224  1  0.70352000  0.94408000  0.94242000  1.0 -0.431079014
O  O225  1  0.00650000  0.40634000  0.66040000  1.0 -0.4610877981
O  O226  1  0.14491000  0.51955000  0.60751000  1.0 -0.4882698196
O  O227  1  0.98246000  0.42039000  0.52226000  1.0 -0.4610877981
O  O228  1  0.85545000  0.81557000  0.97965000  1.0 -0.4417149673
O  O229  1  0.86663000  0.94766000  0.13403000  1.0 -0.5024449478
O  O230  1  0.77440000  0.24840000  0.42080000  1.0 0.0807987903
O  O231  1  0.72760000  0.62278000  0.01150000  1.0 -0.5503124061
O  O232  1  0.79660000  0.62409000  0.97370000  1.0 -0.592054906
O  O233  1  0.20860000  0.97430000  0.30750000  1.0 -0.5190431725
O  O234  1  0.13210000  0.94820000  0.33300000  1.0 -0.5503124061
O  O235  1  0.12150000  0.38710000  0.72560000  1.0 -0.1762464951
O  O236  1  0.07560000  0.35238000  0.78810000  1.0 -0.0679603663
O  O237  1  0.24510000  0.37810000  0.88590000  1.0 0.0807987903
O  O238  1  0.22890000  0.46280000  0.85920000  1.0 0.1493682761
O  O239  1  0.20420000  0.46240000  0.75340000  1.0 0.020346501
O  O240  1  0.74630000  0.26400000  0.42590000  1.0 0.0125867781
O  O241  1  0.82600000  0.22210000  0.44330000  1.0 -0.2295906947
O  O242  1  0.11810000  0.35410000  0.70030000  1.0 -0.2797098777
O  O243  1  0.71580000  0.32590000  0.90190000  1.0 0.1784221058
O  O244  1  0.54580000  0.23880000  0.76980000  1.0 0.1273501455
