# DDEC6 charges by PACMAN v1.1 (https://github.com/mtap-research/PACMAN-charge/)
data_WUPZUE_FSR_pacman
_symmetry_space_group_name_H-M   'P 1'
_cell_length_a   7.87320000
_cell_length_b   9.65710000
_cell_length_c   12.14610000
_cell_angle_alpha   103.10600000
_cell_angle_beta   89.32500000
_cell_angle_gamma   102.42500000
_symmetry_Int_Tables_number   1
_chemical_formula_structural   Zn2H4(C4O3)3
_chemical_formula_sum   'Zn4 H8 C24 O18'
_cell_volume   877.70926851
_cell_formula_units_Z   2
loop_
 _symmetry_equiv_pos_site_id
 _symmetry_equiv_pos_as_xyz
  1  'x, y, z'
loop_
 _atom_site_type_symbol
 _atom_site_label
 _atom_site_symmetry_multiplicity
 _atom_site_fract_x
 _atom_site_fract_y
 _atom_site_fract_z
 _atom_site_occupancy
 _atom_site_charge
Zn  Zn1  1  0.92846000  0.13737000  0.48392000  1.0 1.1442446946
Zn  Zn2  1  0.07154000  0.86263000  0.51608000  1.0 1.1442446946
Zn  Zn3  1  0.33344000  0.16372000  0.63213000  1.0 0.967743182
Zn  Zn4  1  0.66656000  0.83628000  0.36787000  1.0 0.967743182
H  H1  1  0.30310000  0.00170000  0.23000000  1.0 0.1299355714
H  H2  1  0.69690000  0.99830000  0.77000000  1.0 0.1299355714
H  H3  1  0.58870000  0.39090000  0.40130000  1.0 0.1299355714
H  H4  1  0.41130000  0.60910000  0.59870000  1.0 0.1299355714
H  H5  1  0.23050000  0.37570000  0.15980000  1.0 0.1167555688
H  H6  1  0.76950000  0.62430000  0.84020000  1.0 0.1167555688
H  H7  1  0.23670000  0.17470000  0.96860000  1.0 0.1299355714
H  H8  1  0.76330000  0.82530000  0.03140000  1.0 0.1299355714
C  C1  1  0.56570000  0.10730000  0.38190000  1.0 0.582294756
C  C2  1  0.43430000  0.89270000  0.61810000  1.0 0.582294756
C  C3  1  0.46150000  0.18450000  0.32380000  1.0 -0.0026332792
C  C4  1  0.53850000  0.81550000  0.67620000  1.0 -0.0026332792
C  C5  1  0.33160000  0.10500000  0.24350000  1.0 -0.1021453203
C  C6  1  0.66840000  0.89500000  0.75650000  1.0 -0.1021453203
C  C7  1  0.50220000  0.33620000  0.34500000  1.0 -0.088603905
C  C8  1  0.49780000  0.66380000  0.65500000  1.0 -0.088603905
C  C9  1  0.41610000  0.40730000  0.28390000  1.0 -0.0199454823
C  C10  1  0.58390000  0.59270000  0.71610000  1.0 -0.0199454823
C  C11  1  0.28780000  0.32670000  0.20230000  1.0 -0.1312924834
C  C12  1  0.71220000  0.67330000  0.79770000  1.0 -0.1312924834
C  C13  1  0.24250000  0.17540000  0.18230000  1.0 0.0546009442
C  C14  1  0.75750000  0.82460000  0.81770000  1.0 0.0546009442
C  C15  1  0.11170000  0.08740000  0.09200000  1.0 0.0546009442
C  C16  1  0.88830000  0.91260000  0.90800000  1.0 0.0546009442
C  C17  1  0.14040000  0.10290000  0.98170000  1.0 -0.1442680271
C  C18  1  0.85960000  0.89710000  0.01830000  1.0 -0.1442680271
C  C19  1  0.46470000  0.57040000  0.30270000  1.0 0.5497345565
C  C20  1  0.53530000  0.42960000  0.69730000  1.0 0.5497345565
C  C21  1  0.03400000  0.01760000  0.89000000  1.0 -0.0416656701
C  C22  1  0.96600000  0.98240000  0.11000000  1.0 -0.0416656701
C  C23  1  0.09330000  0.03220000  0.77360000  1.0 0.582294756
C  C24  1  0.90670000  0.96780000  0.22640000  1.0 0.582294756
O  O1  1  0.06920000  0.34540000  0.46929000  1.0 -0.0100150794
O  O2  1  0.93080000  0.65460000  0.53071000  1.0 -0.0100150794
O  O3  1  0.88720000  0.23100000  0.65431000  1.0 -0.0605946337
O  O4  1  0.11280000  0.76900000  0.34569000  1.0 -0.0605946337
O  O5  1  0.16610000  0.07703000  0.50286000  1.0 -0.8021231951
O  O6  1  0.83390000  0.92297000  0.49714000  1.0 -0.8021231951
O  O7  1  0.51340000  0.96972000  0.36300000  1.0 -0.4983975948
O  O8  1  0.48660000  0.03028000  0.63700000  1.0 -0.4983975948
O  O9  1  0.69560000  0.18210000  0.44178000  1.0 -0.5114031495
O  O10  1  0.30440000  0.81790000  0.55822000  1.0 -0.5114031495
O  O11  1  0.38760000  0.63520000  0.24968000  1.0 -0.4716021778
O  O12  1  0.61240000  0.36480000  0.75032000  1.0 -0.4716021778
O  O13  1  0.59190000  0.63429000  0.37457000  1.0 -0.5191287062
O  O14  1  0.40810000  0.36571000  0.62543000  1.0 -0.5191287062
O  O15  1  0.04190000  0.92587000  0.69263000  1.0 -0.5191287062
O  O16  1  0.95810000  0.07413000  0.30737000  1.0 -0.5191287062
O  O17  1  0.19950000  0.14915000  0.76886000  1.0 -0.5191287062
O  O18  1  0.80050000  0.85085000  0.23114000  1.0 -0.5191287062
