# DDEC6 charges by PACMAN v1.1 (https://github.com/mtap-research/PACMAN-charge/)
data_WUQRAC_FSR_pacman
_symmetry_space_group_name_H-M   'P 1'
_cell_length_a   30.44690000
_cell_length_b   30.44690000
_cell_length_c   30.44690000
_cell_angle_alpha   109.47100000
_cell_angle_beta   109.47100000
_cell_angle_gamma   109.47100000
_symmetry_Int_Tables_number   1
_chemical_formula_structural   NbFe2C52(N4O)4
_chemical_formula_sum   'Nb12 Fe24 C624 N192 O48'
_cell_volume   21727.55707098
_cell_formula_units_Z   12
loop_
 _symmetry_equiv_pos_site_id
 _symmetry_equiv_pos_as_xyz
  1  'x, y, z'
loop_
 _atom_site_type_symbol
 _atom_site_label
 _atom_site_symmetry_multiplicity
 _atom_site_fract_x
 _atom_site_fract_y
 _atom_site_fract_z
 _atom_site_occupancy
 _atom_site_charge
Nb  Nb1  1  0.37500000  0.62500000  0.75000000  1.0 0.6735872758
Nb  Nb2  1  0.62500000  0.37500000  0.25000000  1.0 0.6735872758
Nb  Nb3  1  0.12500000  0.87500000  0.25000000  1.0 0.6753521992
Nb  Nb4  1  0.75000000  0.37500000  0.62500000  1.0 0.6735872758
Nb  Nb5  1  0.87500000  0.12500000  0.75000000  1.0 0.6735872758
Nb  Nb6  1  0.37500000  0.25000000  0.62500000  1.0 0.6753521992
Nb  Nb7  1  0.25000000  0.12500000  0.87500000  1.0 0.6735872758
Nb  Nb8  1  0.12500000  0.75000000  0.87500000  1.0 0.6735872758
Nb  Nb9  1  0.62500000  0.75000000  0.37500000  1.0 0.6735872758
Nb  Nb10  1  0.25000000  0.62500000  0.37500000  1.0 0.6735872758
Nb  Nb11  1  0.75000000  0.87500000  0.12500000  1.0 0.6735872758
Nb  Nb12  1  0.87500000  0.25000000  0.12500000  1.0 0.6735872758
Fe  Fe1  1  0.25000000  0.69300000  0.80700000  1.0 0.7539767321
Fe  Fe2  1  0.69300000  0.38600000  0.44300000  1.0 0.7539767321
Fe  Fe3  1  0.25000000  0.05700000  0.44300000  1.0 0.7539767321
Fe  Fe4  1  0.80700000  0.25000000  0.69300000  1.0 0.7539767321
Fe  Fe5  1  0.38600000  0.44300000  0.69300000  1.0 0.7539767321
Fe  Fe6  1  0.05700000  0.11400000  0.80700000  1.0 0.7539767321
Fe  Fe7  1  0.44300000  0.25000000  0.05700000  1.0 0.7539767321
Fe  Fe8  1  0.11400000  0.80700000  0.05700000  1.0 0.7539767321
Fe  Fe9  1  0.69300000  0.80700000  0.25000000  1.0 0.7553568316
Fe  Fe10  1  0.44300000  0.69300000  0.38600000  1.0 0.7539767321
Fe  Fe11  1  0.80700000  0.05700000  0.11400000  1.0 0.7539767321
Fe  Fe12  1  0.05700000  0.44300000  0.25000000  1.0 0.7539767321
Fe  Fe13  1  0.75000000  0.30700000  0.19300000  1.0 0.7539767321
Fe  Fe14  1  0.30700000  0.61400000  0.55700000  1.0 0.7539767321
Fe  Fe15  1  0.75000000  0.94300000  0.55700000  1.0 0.7539767321
Fe  Fe16  1  0.19300000  0.75000000  0.30700000  1.0 0.7539767321
Fe  Fe17  1  0.61400000  0.55700000  0.30700000  1.0 0.7539767321
Fe  Fe18  1  0.94300000  0.88600000  0.19300000  1.0 0.7539767321
Fe  Fe19  1  0.55700000  0.75000000  0.94300000  1.0 0.7539767321
Fe  Fe20  1  0.88600000  0.19300000  0.94300000  1.0 0.7539767321
Fe  Fe21  1  0.30700000  0.19300000  0.75000000  1.0 0.7539767321
Fe  Fe22  1  0.55700000  0.30700000  0.61400000  1.0 0.7539767321
Fe  Fe23  1  0.19300000  0.94300000  0.88600000  1.0 0.7539767321
Fe  Fe24  1  0.94300000  0.55700000  0.75000000  1.0 0.7553568316
C  C1  1  0.32900000  0.66100000  0.76800000  1.0 0.0471095605
C  C2  1  0.66100000  0.39300000  0.33200000  1.0 0.0471095605
C  C3  1  0.17100000  0.93900000  0.33200000  1.0 0.0471095605
C  C4  1  0.76800000  0.32900000  0.66100000  1.0 0.0471095605
C  C5  1  0.39300000  0.56100000  0.73200000  1.0 0.0471095605
C  C6  1  0.93900000  0.10700000  0.76800000  1.0 0.0471095605
C  C7  1  0.32900000  0.16800000  0.56100000  1.0 0.0471095605
C  C8  1  0.56100000  0.32900000  0.16800000  1.0 0.0471095605
C  C9  1  0.10700000  0.83900000  0.16800000  1.0 0.0471095605
C  C10  1  0.16800000  0.10700000  0.83900000  1.0 0.0471095605
C  C11  1  0.83900000  0.17100000  0.73200000  1.0 0.0471095605
C  C12  1  0.10700000  0.76800000  0.93900000  1.0 0.0471095605
C  C13  1  0.73200000  0.39300000  0.56100000  1.0 0.0471095605
C  C14  1  0.17100000  0.73200000  0.83900000  1.0 0.0471095605
C  C15  1  0.33200000  0.17100000  0.93900000  1.0 0.0471095605
C  C16  1  0.39300000  0.33200000  0.66100000  1.0 0.0471095605
C  C17  1  0.66100000  0.76800000  0.32900000  1.0 0.0471095605
C  C18  1  0.33200000  0.66100000  0.39300000  1.0 0.0471095605
C  C19  1  0.76800000  0.93900000  0.10700000  1.0 0.0471095605
C  C20  1  0.16800000  0.56100000  0.32900000  1.0 0.0471095605
C  C21  1  0.83900000  0.16800000  0.10700000  1.0 0.0471095605
C  C22  1  0.73200000  0.83900000  0.17100000  1.0 0.0471095605
C  C23  1  0.56100000  0.73200000  0.39300000  1.0 0.0471095605
C  C24  1  0.93900000  0.33200000  0.17100000  1.0 0.0471095605
C  C25  1  0.67100000  0.33900000  0.23200000  1.0 0.0471095605
C  C26  1  0.33900000  0.60700000  0.66800000  1.0 0.0471095605
C  C27  1  0.82900000  0.06100000  0.66800000  1.0 0.0471095605
C  C28  1  0.23200000  0.67100000  0.33900000  1.0 0.0471095605
C  C29  1  0.60700000  0.43900000  0.26800000  1.0 0.0471095605
C  C30  1  0.06100000  0.89300000  0.23200000  1.0 0.0471095605
C  C31  1  0.67100000  0.83200000  0.43900000  1.0 0.0471095605
C  C32  1  0.43900000  0.67100000  0.83200000  1.0 0.0471095605
C  C33  1  0.89300000  0.16100000  0.83200000  1.0 0.0471095605
C  C34  1  0.83200000  0.89300000  0.16100000  1.0 0.0471095605
C  C35  1  0.16100000  0.82900000  0.26800000  1.0 0.0471095605
C  C36  1  0.89300000  0.23200000  0.06100000  1.0 0.0471095605
C  C37  1  0.26800000  0.60700000  0.43900000  1.0 0.0471095605
C  C38  1  0.82900000  0.26800000  0.16100000  1.0 0.0471095605
C  C39  1  0.66800000  0.82900000  0.06100000  1.0 0.0471095605
C  C40  1  0.60700000  0.66800000  0.33900000  1.0 0.0471095605
C  C41  1  0.33900000  0.23200000  0.67100000  1.0 0.0471095605
C  C42  1  0.66800000  0.33900000  0.60700000  1.0 0.0471095605
C  C43  1  0.23200000  0.06100000  0.89300000  1.0 0.0471095605
C  C44  1  0.83200000  0.43900000  0.67100000  1.0 0.0471095605
C  C45  1  0.16100000  0.83200000  0.89300000  1.0 0.0471095605
C  C46  1  0.26800000  0.16100000  0.82900000  1.0 0.0471095605
C  C47  1  0.43900000  0.26800000  0.60700000  1.0 0.0471095605
C  C48  1  0.06100000  0.66800000  0.82900000  1.0 0.0471095605
C  C49  1  0.39900000  0.70400000  0.75900000  1.0 -0.0282069968
C  C50  1  0.70400000  0.44500000  0.30500000  1.0 -0.0282069968
C  C51  1  0.10100000  0.86000000  0.30500000  1.0 -0.0282069968
C  C52  1  0.75900000  0.39900000  0.70400000  1.0 -0.0282069968
C  C53  1  0.44500000  0.64000000  0.74100000  1.0 -0.0282069968
C  C54  1  0.86000000  0.05500000  0.75900000  1.0 -0.0282069968
C  C55  1  0.39900000  0.19500000  0.64000000  1.0 -0.0282069968
C  C56  1  0.64000000  0.39900000  0.19500000  1.0 -0.0282069968
C  C57  1  0.05500000  0.79600000  0.19500000  1.0 -0.0282069968
C  C58  1  0.19500000  0.05500000  0.79600000  1.0 -0.0282069968
C  C59  1  0.79600000  0.10100000  0.74100000  1.0 -0.0282069968
C  C60  1  0.05500000  0.75900000  0.86000000  1.0 -0.0282069968
C  C61  1  0.74100000  0.44500000  0.64000000  1.0 -0.0282069968
C  C62  1  0.10100000  0.74100000  0.79600000  1.0 -0.0282069968
C  C63  1  0.30500000  0.10100000  0.86000000  1.0 -0.0282069968
C  C64  1  0.44500000  0.30500000  0.70400000  1.0 -0.0282069968
C  C65  1  0.70400000  0.75900000  0.39900000  1.0 -0.0282069968
C  C66  1  0.30500000  0.70400000  0.44500000  1.0 -0.0282069968
C  C67  1  0.75900000  0.86000000  0.05500000  1.0 -0.0282069968
C  C68  1  0.19500000  0.64000000  0.39900000  1.0 -0.0282069968
C  C69  1  0.79600000  0.19500000  0.05500000  1.0 -0.0282069968
C  C70  1  0.74100000  0.79600000  0.10100000  1.0 -0.0282069968
C  C71  1  0.64000000  0.74100000  0.44500000  1.0 -0.0282069968
C  C72  1  0.86000000  0.30500000  0.10100000  1.0 -0.0282069968
C  C73  1  0.60100000  0.29600000  0.24100000  1.0 -0.0282069968
C  C74  1  0.29600000  0.55500000  0.69500000  1.0 -0.0282069968
C  C75  1  0.89900000  0.14000000  0.69500000  1.0 -0.0282069968
C  C76  1  0.24100000  0.60100000  0.29600000  1.0 -0.0282069968
C  C77  1  0.55500000  0.36000000  0.25900000  1.0 -0.0282069968
C  C78  1  0.14000000  0.94500000  0.24100000  1.0 -0.0282069968
C  C79  1  0.60100000  0.80500000  0.36000000  1.0 -0.0282069968
C  C80  1  0.36000000  0.60100000  0.80500000  1.0 -0.0282069968
C  C81  1  0.94500000  0.20400000  0.80500000  1.0 -0.0282069968
C  C82  1  0.80500000  0.94500000  0.20400000  1.0 -0.0282069968
C  C83  1  0.20400000  0.89900000  0.25900000  1.0 -0.0282069968
C  C84  1  0.94500000  0.24100000  0.14000000  1.0 -0.0282069968
C  C85  1  0.25900000  0.55500000  0.36000000  1.0 -0.0282069968
C  C86  1  0.89900000  0.25900000  0.20400000  1.0 -0.0282069968
C  C87  1  0.69500000  0.89900000  0.14000000  1.0 -0.0282069968
C  C88  1  0.55500000  0.69500000  0.29600000  1.0 -0.0282069968
C  C89  1  0.29600000  0.24100000  0.60100000  1.0 -0.0282069968
C  C90  1  0.69500000  0.29600000  0.55500000  1.0 -0.0282069968
C  C91  1  0.24100000  0.14000000  0.94500000  1.0 -0.0282069968
C  C92  1  0.80500000  0.36000000  0.60100000  1.0 -0.0282069968
C  C93  1  0.20400000  0.80500000  0.94500000  1.0 -0.0282069968
C  C94  1  0.25900000  0.20400000  0.89900000  1.0 -0.0282069968
C  C95  1  0.36000000  0.25900000  0.55500000  1.0 -0.0282069968
C  C96  1  0.14000000  0.69500000  0.89900000  1.0 -0.0282069968
C  C97  1  0.31700000  0.75600000  0.94100000  1.0 0.1946713311
C  C98  1  0.75600000  0.31500000  0.43900000  1.0 0.1946713311
C  C99  1  0.18300000  0.12400000  0.43900000  1.0 0.1959177464
C  C100  1  0.94100000  0.31700000  0.75600000  1.0 0.1959177464
C  C101  1  0.31500000  0.37600000  0.55900000  1.0 0.1959177464
C  C102  1  0.12400000  0.18500000  0.94100000  1.0 0.1959177464
C  C103  1  0.31700000  0.06100000  0.37600000  1.0 0.1959177464
C  C104  1  0.37600000  0.31700000  0.06100000  1.0 0.1959177464
C  C105  1  0.18500000  0.74400000  0.06100000  1.0 0.1959177464
C  C106  1  0.06100000  0.18500000  0.74400000  1.0 0.1959177464
C  C107  1  0.74400000  0.18300000  0.55900000  1.0 0.1959177464
C  C108  1  0.18500000  0.94100000  0.12400000  1.0 0.1946713311
C  C109  1  0.55900000  0.31500000  0.37600000  1.0 0.1959177464
C  C110  1  0.18300000  0.55900000  0.74400000  1.0 0.1959177464
C  C111  1  0.43900000  0.18300000  0.12400000  1.0 0.1959177464
C  C112  1  0.31500000  0.43900000  0.75600000  1.0 0.1959177464
C  C113  1  0.75600000  0.94100000  0.31700000  1.0 0.1959177464
C  C114  1  0.43900000  0.75600000  0.31500000  1.0 0.1959177464
C  C115  1  0.94100000  0.12400000  0.18500000  1.0 0.1959177464
C  C116  1  0.06100000  0.37600000  0.31700000  1.0 0.1959177464
C  C117  1  0.74400000  0.06100000  0.18500000  1.0 0.1959177464
C  C118  1  0.55900000  0.74400000  0.18300000  1.0 0.1959177464
C  C119  1  0.37600000  0.55900000  0.31500000  1.0 0.1946713311
C  C120  1  0.12400000  0.43900000  0.18300000  1.0 0.1959177464
C  C121  1  0.68300000  0.24400000  0.05900000  1.0 0.1959177464
C  C122  1  0.24400000  0.68500000  0.56100000  1.0 0.1959177464
C  C123  1  0.81700000  0.87600000  0.56100000  1.0 0.1959177464
C  C124  1  0.05900000  0.68300000  0.24400000  1.0 0.1959177464
C  C125  1  0.68500000  0.62400000  0.44100000  1.0 0.1959177464
C  C126  1  0.87600000  0.81500000  0.05900000  1.0 0.1959177464
C  C127  1  0.68300000  0.93900000  0.62400000  1.0 0.1959177464
C  C128  1  0.62400000  0.68300000  0.93900000  1.0 0.1959177464
C  C129  1  0.81500000  0.25600000  0.93900000  1.0 0.1959177464
C  C130  1  0.93900000  0.81500000  0.25600000  1.0 0.1946713311
C  C131  1  0.25600000  0.81700000  0.44100000  1.0 0.1959177464
C  C132  1  0.81500000  0.05900000  0.87600000  1.0 0.1959177464
C  C133  1  0.44100000  0.68500000  0.62400000  1.0 0.1959177464
C  C134  1  0.81700000  0.44100000  0.25600000  1.0 0.1959177464
C  C135  1  0.56100000  0.81700000  0.87600000  1.0 0.1959177464
C  C136  1  0.68500000  0.56100000  0.24400000  1.0 0.1959177464
C  C137  1  0.24400000  0.05900000  0.68300000  1.0 0.1959177464
C  C138  1  0.56100000  0.24400000  0.68500000  1.0 0.1959177464
C  C139  1  0.05900000  0.87600000  0.81500000  1.0 0.1959177464
C  C140  1  0.93900000  0.62400000  0.68300000  1.0 0.1959177464
C  C141  1  0.25600000  0.93900000  0.81500000  1.0 0.1959177464
C  C142  1  0.44100000  0.25600000  0.81700000  1.0 0.1959177464
C  C143  1  0.62400000  0.44100000  0.68500000  1.0 0.1959177464
C  C144  1  0.87600000  0.56100000  0.81700000  1.0 0.1959177464
C  C145  1  0.34200000  0.76100000  0.98900000  1.0 -0.0199394769
C  C146  1  0.76100000  0.27200000  0.41900000  1.0 -0.0199394769
C  C147  1  0.15800000  0.14700000  0.41900000  1.0 -0.0145737143
C  C148  1  0.98900000  0.34200000  0.76100000  1.0 -0.0145737143
C  C149  1  0.27200000  0.35300000  0.51100000  1.0 -0.0145737143
C  C150  1  0.14700000  0.22800000  0.98900000  1.0 -0.0145737143
C  C151  1  0.34200000  0.08100000  0.35300000  1.0 -0.0199394769
C  C152  1  0.35300000  0.34200000  0.08100000  1.0 -0.0145737143
C  C153  1  0.22800000  0.73900000  0.08100000  1.0 -0.0145737143
C  C154  1  0.08100000  0.22800000  0.73900000  1.0 -0.0145737143
C  C155  1  0.73900000  0.15800000  0.51100000  1.0 -0.0145737143
C  C156  1  0.22800000  0.98900000  0.14700000  1.0 -0.0199394769
C  C157  1  0.51100000  0.27200000  0.35300000  1.0 -0.0145737143
C  C158  1  0.15800000  0.51100000  0.73900000  1.0 -0.0145737143
C  C159  1  0.41900000  0.15800000  0.14700000  1.0 -0.0199394769
C  C160  1  0.27200000  0.41900000  0.76100000  1.0 -0.0145737143
C  C161  1  0.76100000  0.98900000  0.34200000  1.0 -0.0199394769
C  C162  1  0.41900000  0.76100000  0.27200000  1.0 -0.0145737143
C  C163  1  0.98900000  0.14700000  0.22800000  1.0 -0.0145737143
C  C164  1  0.08100000  0.35300000  0.34200000  1.0 -0.0145737143
C  C165  1  0.73900000  0.08100000  0.22800000  1.0 -0.0145737143
C  C166  1  0.51100000  0.73900000  0.15800000  1.0 -0.0145737143
C  C167  1  0.35300000  0.51100000  0.27200000  1.0 -0.0199394769
C  C168  1  0.14700000  0.41900000  0.15800000  1.0 -0.0199394769
C  C169  1  0.65800000  0.23900000  0.01100000  1.0 -0.0145737143
C  C170  1  0.23900000  0.72800000  0.58100000  1.0 -0.0199394769
C  C171  1  0.84200000  0.85300000  0.58100000  1.0 -0.0145737143
C  C172  1  0.01100000  0.65800000  0.23900000  1.0 -0.0199394769
C  C173  1  0.72800000  0.64700000  0.48900000  1.0 -0.0199394769
C  C174  1  0.85300000  0.77200000  0.01100000  1.0 -0.0199394769
C  C175  1  0.65800000  0.91900000  0.64700000  1.0 -0.0145737143
C  C176  1  0.64700000  0.65800000  0.91900000  1.0 -0.0145737143
C  C177  1  0.77200000  0.26100000  0.91900000  1.0 -0.0145737143
C  C178  1  0.91900000  0.77200000  0.26100000  1.0 -0.0199394769
C  C179  1  0.26100000  0.84200000  0.48900000  1.0 -0.0199394769
C  C180  1  0.77200000  0.01100000  0.85300000  1.0 -0.0199394769
C  C181  1  0.48900000  0.72800000  0.64700000  1.0 -0.0145737143
C  C182  1  0.84200000  0.48900000  0.26100000  1.0 -0.0199394769
C  C183  1  0.58100000  0.84200000  0.85300000  1.0 -0.0145737143
C  C184  1  0.72800000  0.58100000  0.23900000  1.0 -0.0145737143
C  C185  1  0.23900000  0.01100000  0.65800000  1.0 -0.0145737143
C  C186  1  0.58100000  0.23900000  0.72800000  1.0 -0.0145737143
C  C187  1  0.01100000  0.85300000  0.77200000  1.0 -0.0199394769
C  C188  1  0.91900000  0.64700000  0.65800000  1.0 -0.0145737143
C  C189  1  0.26100000  0.91900000  0.77200000  1.0 -0.0199394769
C  C190  1  0.48900000  0.26100000  0.84200000  1.0 -0.0145737143
C  C191  1  0.64700000  0.48900000  0.72800000  1.0 -0.0145737143
C  C192  1  0.85300000  0.58100000  0.84200000  1.0 -0.0145737143
C  C193  1  0.35400000  0.72200000  0.98800000  1.0 0.1152193142
C  C194  1  0.72200000  0.23400000  0.36800000  1.0 0.114412686
C  C195  1  0.14600000  0.13400000  0.36800000  1.0 0.1152193142
C  C196  1  0.98800000  0.35400000  0.72200000  1.0 0.1152193142
C  C197  1  0.23400000  0.36600000  0.51200000  1.0 0.114412686
C  C198  1  0.13400000  0.26600000  0.98800000  1.0 0.1152193142
C  C199  1  0.35400000  0.13200000  0.36600000  1.0 0.1152193142
C  C200  1  0.36600000  0.35400000  0.13200000  1.0 0.1152193142
C  C201  1  0.26600000  0.77800000  0.13200000  1.0 0.1152193142
C  C202  1  0.13200000  0.26600000  0.77800000  1.0 0.1152193142
C  C203  1  0.77800000  0.14600000  0.51200000  1.0 0.1152193142
C  C204  1  0.26600000  0.98800000  0.13400000  1.0 0.114412686
C  C205  1  0.51200000  0.23400000  0.36600000  1.0 0.1152193142
C  C206  1  0.14600000  0.51200000  0.77800000  1.0 0.1152193142
C  C207  1  0.36800000  0.14600000  0.13400000  1.0 0.114412686
C  C208  1  0.23400000  0.36800000  0.72200000  1.0 0.1152193142
C  C209  1  0.72200000  0.98800000  0.35400000  1.0 0.1152193142
C  C210  1  0.36800000  0.72200000  0.23400000  1.0 0.1152193142
C  C211  1  0.98800000  0.13400000  0.26600000  1.0 0.114412686
C  C212  1  0.13200000  0.36600000  0.35400000  1.0 0.1152193142
C  C213  1  0.77800000  0.13200000  0.26600000  1.0 0.1152193142
C  C214  1  0.51200000  0.77800000  0.14600000  1.0 0.114412686
C  C215  1  0.36600000  0.51200000  0.23400000  1.0 0.1152193142
C  C216  1  0.13400000  0.36800000  0.14600000  1.0 0.1152193142
C  C217  1  0.64600000  0.27800000  0.01200000  1.0 0.1152193142
C  C218  1  0.27800000  0.76600000  0.63200000  1.0 0.1152193142
C  C219  1  0.85400000  0.86600000  0.63200000  1.0 0.1152193142
C  C220  1  0.01200000  0.64600000  0.27800000  1.0 0.1152193142
C  C221  1  0.76600000  0.63400000  0.48800000  1.0 0.1152193142
C  C222  1  0.86600000  0.73400000  0.01200000  1.0 0.1152193142
C  C223  1  0.64600000  0.86800000  0.63400000  1.0 0.1152193142
C  C224  1  0.63400000  0.64600000  0.86800000  1.0 0.1152193142
C  C225  1  0.73400000  0.22200000  0.86800000  1.0 0.1152193142
C  C226  1  0.86800000  0.73400000  0.22200000  1.0 0.114412686
C  C227  1  0.22200000  0.85400000  0.48800000  1.0 0.1152193142
C  C228  1  0.73400000  0.01200000  0.86600000  1.0 0.1152193142
C  C229  1  0.48800000  0.76600000  0.63400000  1.0 0.1152193142
C  C230  1  0.85400000  0.48800000  0.22200000  1.0 0.114412686
C  C231  1  0.63200000  0.85400000  0.86600000  1.0 0.1152193142
C  C232  1  0.76600000  0.63200000  0.27800000  1.0 0.1152193142
C  C233  1  0.27800000  0.01200000  0.64600000  1.0 0.1152193142
C  C234  1  0.63200000  0.27800000  0.76600000  1.0 0.1152193142
C  C235  1  0.01200000  0.86600000  0.73400000  1.0 0.1152193142
C  C236  1  0.86800000  0.63400000  0.64600000  1.0 0.1152193142
C  C237  1  0.22200000  0.86800000  0.73400000  1.0 0.1152193142
C  C238  1  0.48800000  0.22200000  0.85400000  1.0 0.1152193142
C  C239  1  0.63400000  0.48800000  0.76600000  1.0 0.1152193142
C  C240  1  0.86600000  0.63200000  0.85400000  1.0 0.1152193142
C  C241  1  0.34800000  0.68500000  0.94100000  1.0 -0.0835979499
C  C242  1  0.68500000  0.24400000  0.33700000  1.0 -0.0835979499
C  C243  1  0.15200000  0.09300000  0.33700000  1.0 -0.0835979499
C  C244  1  0.94100000  0.34800000  0.68500000  1.0 -0.0835979499
C  C245  1  0.24400000  0.40700000  0.55900000  1.0 -0.0835979499
C  C246  1  0.09300000  0.25600000  0.94100000  1.0 -0.0835979499
C  C247  1  0.34800000  0.16300000  0.40700000  1.0 -0.0835979499
C  C248  1  0.40700000  0.34800000  0.16300000  1.0 -0.0835979499
C  C249  1  0.25600000  0.81500000  0.16300000  1.0 -0.0835979499
C  C250  1  0.16300000  0.25600000  0.81500000  1.0 -0.0835979499
C  C251  1  0.81500000  0.15200000  0.55900000  1.0 -0.0835979499
C  C252  1  0.25600000  0.94100000  0.09300000  1.0 -0.0835979499
C  C253  1  0.55900000  0.24400000  0.40700000  1.0 -0.0835979499
C  C254  1  0.15200000  0.55900000  0.81500000  1.0 -0.0835979499
C  C255  1  0.33700000  0.15200000  0.09300000  1.0 -0.0835979499
C  C256  1  0.24400000  0.33700000  0.68500000  1.0 -0.0835979499
C  C257  1  0.68500000  0.94100000  0.34800000  1.0 -0.0835979499
C  C258  1  0.33700000  0.68500000  0.24400000  1.0 -0.0835979499
C  C259  1  0.94100000  0.09300000  0.25600000  1.0 -0.0835979499
C  C260  1  0.16300000  0.40700000  0.34800000  1.0 -0.0835979499
C  C261  1  0.81500000  0.16300000  0.25600000  1.0 -0.0835979499
C  C262  1  0.55900000  0.81500000  0.15200000  1.0 -0.0835979499
C  C263  1  0.40700000  0.55900000  0.24400000  1.0 -0.0835979499
C  C264  1  0.09300000  0.33700000  0.15200000  1.0 -0.0835979499
C  C265  1  0.65200000  0.31500000  0.05900000  1.0 -0.0835979499
C  C266  1  0.31500000  0.75600000  0.66300000  1.0 -0.0835979499
C  C267  1  0.84800000  0.90700000  0.66300000  1.0 -0.0835979499
C  C268  1  0.05900000  0.65200000  0.31500000  1.0 -0.0835979499
C  C269  1  0.75600000  0.59300000  0.44100000  1.0 -0.0835979499
C  C270  1  0.90700000  0.74400000  0.05900000  1.0 -0.0835979499
C  C271  1  0.65200000  0.83700000  0.59300000  1.0 -0.0835979499
C  C272  1  0.59300000  0.65200000  0.83700000  1.0 -0.0835979499
C  C273  1  0.74400000  0.18500000  0.83700000  1.0 -0.0835979499
C  C274  1  0.83700000  0.74400000  0.18500000  1.0 -0.0835979499
C  C275  1  0.18500000  0.84800000  0.44100000  1.0 -0.0835979499
C  C276  1  0.74400000  0.05900000  0.90700000  1.0 -0.0835979499
C  C277  1  0.44100000  0.75600000  0.59300000  1.0 -0.0835979499
C  C278  1  0.84800000  0.44100000  0.18500000  1.0 -0.0835979499
C  C279  1  0.66300000  0.84800000  0.90700000  1.0 -0.0835979499
C  C280  1  0.75600000  0.66300000  0.31500000  1.0 -0.0835979499
C  C281  1  0.31500000  0.05900000  0.65200000  1.0 -0.0835979499
C  C282  1  0.66300000  0.31500000  0.75600000  1.0 -0.0835979499
C  C283  1  0.05900000  0.90700000  0.74400000  1.0 -0.0835979499
C  C284  1  0.83700000  0.59300000  0.65200000  1.0 -0.0835979499
C  C285  1  0.18500000  0.83700000  0.74400000  1.0 -0.0835979499
C  C286  1  0.44100000  0.18500000  0.84800000  1.0 -0.0835979499
C  C287  1  0.59300000  0.44100000  0.75600000  1.0 -0.0835979499
C  C288  1  0.90700000  0.66300000  0.84800000  1.0 -0.0835979499
C  C289  1  0.32400000  0.67900000  0.89300000  1.0 0.1790382293
C  C290  1  0.67900000  0.28600000  0.35500000  1.0 0.1790382293
C  C291  1  0.17600000  0.06900000  0.35500000  1.0 0.1790382293
C  C292  1  0.89300000  0.32400000  0.67900000  1.0 0.1790382293
C  C293  1  0.28600000  0.43100000  0.60700000  1.0 0.1790382293
C  C294  1  0.06900000  0.21400000  0.89300000  1.0 0.1790382293
C  C295  1  0.32400000  0.14500000  0.43100000  1.0 0.1790382293
C  C296  1  0.43100000  0.32400000  0.14500000  1.0 0.1790382293
C  C297  1  0.21400000  0.82100000  0.14500000  1.0 0.1790382293
C  C298  1  0.14500000  0.21400000  0.82100000  1.0 0.1790382293
C  C299  1  0.82100000  0.17600000  0.60700000  1.0 0.1790382293
C  C300  1  0.21400000  0.89300000  0.06900000  1.0 0.1790382293
C  C301  1  0.60700000  0.28600000  0.43100000  1.0 0.1790382293
C  C302  1  0.17600000  0.60700000  0.82100000  1.0 0.1790382293
C  C303  1  0.35500000  0.17600000  0.06900000  1.0 0.1790382293
C  C304  1  0.28600000  0.35500000  0.67900000  1.0 0.1790382293
C  C305  1  0.67900000  0.89300000  0.32400000  1.0 0.1790382293
C  C306  1  0.35500000  0.67900000  0.28600000  1.0 0.1790382293
C  C307  1  0.89300000  0.06900000  0.21400000  1.0 0.1790382293
C  C308  1  0.14500000  0.43100000  0.32400000  1.0 0.1790382293
C  C309  1  0.82100000  0.14500000  0.21400000  1.0 0.1790382293
C  C310  1  0.60700000  0.82100000  0.17600000  1.0 0.1790382293
C  C311  1  0.43100000  0.60700000  0.28600000  1.0 0.1790382293
C  C312  1  0.06900000  0.35500000  0.17600000  1.0 0.1790382293
C  C313  1  0.67600000  0.32100000  0.10700000  1.0 0.1790382293
C  C314  1  0.32100000  0.71400000  0.64500000  1.0 0.1790382293
C  C315  1  0.82400000  0.93100000  0.64500000  1.0 0.1790382293
C  C316  1  0.10700000  0.67600000  0.32100000  1.0 0.1790382293
C  C317  1  0.71400000  0.56900000  0.39300000  1.0 0.1790382293
C  C318  1  0.93100000  0.78600000  0.10700000  1.0 0.1790382293
C  C319  1  0.67600000  0.85500000  0.56900000  1.0 0.1790382293
C  C320  1  0.56900000  0.67600000  0.85500000  1.0 0.1790382293
C  C321  1  0.78600000  0.17900000  0.85500000  1.0 0.1790382293
C  C322  1  0.85500000  0.78600000  0.17900000  1.0 0.1790382293
C  C323  1  0.17900000  0.82400000  0.39300000  1.0 0.1790382293
C  C324  1  0.78600000  0.10700000  0.93100000  1.0 0.1790382293
C  C325  1  0.39300000  0.71400000  0.56900000  1.0 0.1790382293
C  C326  1  0.82400000  0.39300000  0.17900000  1.0 0.1790382293
C  C327  1  0.64500000  0.82400000  0.93100000  1.0 0.1790382293
C  C328  1  0.71400000  0.64500000  0.32100000  1.0 0.1790382293
C  C329  1  0.32100000  0.10700000  0.67600000  1.0 0.1790382293
C  C330  1  0.64500000  0.32100000  0.71400000  1.0 0.1790382293
C  C331  1  0.10700000  0.93100000  0.78600000  1.0 0.1790382293
C  C332  1  0.85500000  0.56900000  0.67600000  1.0 0.1790382293
C  C333  1  0.17900000  0.85500000  0.78600000  1.0 0.1790382293
C  C334  1  0.39300000  0.17900000  0.82400000  1.0 0.1790382293
C  C335  1  0.56900000  0.39300000  0.71400000  1.0 0.1790382293
C  C336  1  0.93100000  0.64500000  0.82400000  1.0 0.1790382293
C  C337  1  0.28600000  0.80900000  0.81900000  1.0 0.2279785119
C  C338  1  0.80900000  0.49000000  0.52300000  1.0 0.2279785119
C  C339  1  0.21400000  0.03300000  0.52300000  1.0 0.2279785119
C  C340  1  0.81900000  0.28600000  0.80900000  1.0 0.2279785119
C  C341  1  0.49000000  0.46700000  0.68100000  1.0 0.2279785119
C  C342  1  0.03300000  0.01000000  0.81900000  1.0 0.2279785119
C  C343  1  0.28600000  0.97700000  0.46700000  1.0 0.2279785119
C  C344  1  0.46700000  0.28600000  0.97700000  1.0 0.2279785119
C  C345  1  0.01000000  0.69100000  0.97700000  1.0 0.2279785119
C  C346  1  0.97700000  0.01000000  0.69100000  1.0 0.2279785119
C  C347  1  0.69100000  0.21400000  0.68100000  1.0 0.2279785119
C  C348  1  0.01000000  0.81900000  0.03300000  1.0 0.2279785119
C  C349  1  0.68100000  0.49000000  0.46700000  1.0 0.2279785119
C  C350  1  0.21400000  0.68100000  0.69100000  1.0 0.2279785119
C  C351  1  0.52300000  0.21400000  0.03300000  1.0 0.2279785119
C  C352  1  0.49000000  0.52300000  0.80900000  1.0 0.2279785119
C  C353  1  0.80900000  0.81900000  0.28600000  1.0 0.2279785119
C  C354  1  0.52300000  0.80900000  0.49000000  1.0 0.2279785119
C  C355  1  0.81900000  0.03300000  0.01000000  1.0 0.2279785119
C  C356  1  0.97700000  0.46700000  0.28600000  1.0 0.2279785119
C  C357  1  0.69100000  0.97700000  0.01000000  1.0 0.2279785119
C  C358  1  0.68100000  0.69100000  0.21400000  1.0 0.2279785119
C  C359  1  0.46700000  0.68100000  0.49000000  1.0 0.2279785119
C  C360  1  0.03300000  0.52300000  0.21400000  1.0 0.2279785119
C  C361  1  0.71400000  0.19100000  0.18100000  1.0 0.2279785119
C  C362  1  0.19100000  0.51000000  0.47700000  1.0 0.2279785119
C  C363  1  0.78600000  0.96700000  0.47700000  1.0 0.2279785119
C  C364  1  0.18100000  0.71400000  0.19100000  1.0 0.2279785119
C  C365  1  0.51000000  0.53300000  0.31900000  1.0 0.2279785119
C  C366  1  0.96700000  0.99000000  0.18100000  1.0 0.2279785119
C  C367  1  0.71400000  0.02300000  0.53300000  1.0 0.2279785119
C  C368  1  0.53300000  0.71400000  0.02300000  1.0 0.2279785119
C  C369  1  0.99000000  0.30900000  0.02300000  1.0 0.2279785119
C  C370  1  0.02300000  0.99000000  0.30900000  1.0 0.2279785119
C  C371  1  0.30900000  0.78600000  0.31900000  1.0 0.2279785119
C  C372  1  0.99000000  0.18100000  0.96700000  1.0 0.2279785119
C  C373  1  0.31900000  0.51000000  0.53300000  1.0 0.2279785119
C  C374  1  0.78600000  0.31900000  0.30900000  1.0 0.2279785119
C  C375  1  0.47700000  0.78600000  0.96700000  1.0 0.2279785119
C  C376  1  0.51000000  0.47700000  0.19100000  1.0 0.2279785119
C  C377  1  0.19100000  0.18100000  0.71400000  1.0 0.2279785119
C  C378  1  0.47700000  0.19100000  0.51000000  1.0 0.2279785119
C  C379  1  0.18100000  0.96700000  0.99000000  1.0 0.2279785119
C  C380  1  0.02300000  0.53300000  0.71400000  1.0 0.2279785119
C  C381  1  0.30900000  0.02300000  0.99000000  1.0 0.2279785119
C  C382  1  0.31900000  0.30900000  0.78600000  1.0 0.2279785119
C  C383  1  0.53300000  0.31900000  0.51000000  1.0 0.2279785119
C  C384  1  0.96700000  0.47700000  0.78600000  1.0 0.2279785119
C  C385  1  0.32000000  0.86000000  0.84000000  1.0 -0.1270539098
C  C386  1  0.86000000  0.52000000  0.54000000  1.0 -0.1270539098
C  C387  1  0.18000000  0.02000000  0.54000000  1.0 -0.1270539098
C  C388  1  0.84000000  0.32000000  0.86000000  1.0 -0.1270539098
C  C389  1  0.52000000  0.48000000  0.66000000  1.0 -0.1270539098
C  C390  1  0.02000000  0.98000000  0.84000000  1.0 -0.1270539098
C  C391  1  0.32000000  0.96000000  0.48000000  1.0 -0.1270539098
C  C392  1  0.48000000  0.32000000  0.96000000  1.0 -0.1270539098
C  C393  1  0.98000000  0.64000000  0.96000000  1.0 -0.1247058826
C  C394  1  0.96000000  0.98000000  0.64000000  1.0 -0.1270539098
C  C395  1  0.64000000  0.18000000  0.66000000  1.0 -0.1270539098
C  C396  1  0.98000000  0.84000000  0.02000000  1.0 -0.1247058826
C  C397  1  0.66000000  0.52000000  0.48000000  1.0 -0.1270539098
C  C398  1  0.18000000  0.66000000  0.64000000  1.0 -0.1270539098
C  C399  1  0.54000000  0.18000000  0.02000000  1.0 -0.1270539098
C  C400  1  0.52000000  0.54000000  0.86000000  1.0 -0.1270539098
C  C401  1  0.86000000  0.84000000  0.32000000  1.0 -0.1270539098
C  C402  1  0.54000000  0.86000000  0.52000000  1.0 -0.1270539098
C  C403  1  0.84000000  0.02000000  0.98000000  1.0 -0.1270539098
C  C404  1  0.96000000  0.48000000  0.32000000  1.0 -0.1270539098
C  C405  1  0.64000000  0.96000000  0.98000000  1.0 -0.1270539098
C  C406  1  0.66000000  0.64000000  0.18000000  1.0 -0.1270539098
C  C407  1  0.48000000  0.66000000  0.52000000  1.0 -0.1270539098
C  C408  1  0.02000000  0.54000000  0.18000000  1.0 -0.1270539098
C  C409  1  0.68000000  0.14000000  0.16000000  1.0 -0.1247058826
C  C410  1  0.14000000  0.48000000  0.46000000  1.0 -0.1247058826
C  C411  1  0.82000000  0.98000000  0.46000000  1.0 -0.1270539098
C  C412  1  0.16000000  0.68000000  0.14000000  1.0 -0.1270539098
C  C413  1  0.48000000  0.52000000  0.34000000  1.0 -0.1270539098
C  C414  1  0.98000000  0.02000000  0.16000000  1.0 -0.1270539098
C  C415  1  0.68000000  0.04000000  0.52000000  1.0 -0.1270539098
C  C416  1  0.52000000  0.68000000  0.04000000  1.0 -0.1270539098
C  C417  1  0.02000000  0.36000000  0.04000000  1.0 -0.1270539098
C  C418  1  0.04000000  0.02000000  0.36000000  1.0 -0.1270539098
C  C419  1  0.36000000  0.82000000  0.34000000  1.0 -0.1270539098
C  C420  1  0.02000000  0.16000000  0.98000000  1.0 -0.1270539098
C  C421  1  0.34000000  0.48000000  0.52000000  1.0 -0.1270539098
C  C422  1  0.82000000  0.34000000  0.36000000  1.0 -0.1270539098
C  C423  1  0.46000000  0.82000000  0.98000000  1.0 -0.1270539098
C  C424  1  0.48000000  0.46000000  0.14000000  1.0 -0.1247058826
C  C425  1  0.14000000  0.16000000  0.68000000  1.0 -0.1270539098
C  C426  1  0.46000000  0.14000000  0.48000000  1.0 -0.1270539098
C  C427  1  0.16000000  0.98000000  0.02000000  1.0 -0.1270539098
C  C428  1  0.04000000  0.52000000  0.68000000  1.0 -0.1270539098
C  C429  1  0.36000000  0.04000000  0.02000000  1.0 -0.1270539098
C  C430  1  0.34000000  0.36000000  0.82000000  1.0 -0.1270539098
C  C431  1  0.52000000  0.34000000  0.48000000  1.0 -0.1270539098
C  C432  1  0.98000000  0.46000000  0.82000000  1.0 -0.1270539098
C  C433  1  0.37400000  0.88000000  0.85800000  1.0 0.0638393597
C  C434  1  0.88000000  0.52200000  0.50600000  1.0 0.0638393597
C  C435  1  0.12600000  0.98400000  0.50600000  1.0 0.0638393597
C  C436  1  0.85800000  0.37400000  0.88000000  1.0 0.0638393597
C  C437  1  0.52200000  0.51600000  0.64200000  1.0 0.0638393597
C  C438  1  0.98400000  0.97800000  0.85800000  1.0 0.0638393597
C  C439  1  0.37400000  0.99400000  0.51600000  1.0 0.0638393597
C  C440  1  0.51600000  0.37400000  0.99400000  1.0 0.0638393597
C  C441  1  0.97800000  0.62000000  0.99400000  1.0 0.0638393597
C  C442  1  0.99400000  0.97800000  0.62000000  1.0 0.0638393597
C  C443  1  0.62000000  0.12600000  0.64200000  1.0 0.0638393597
C  C444  1  0.97800000  0.85800000  0.98400000  1.0 0.0638393597
C  C445  1  0.64200000  0.52200000  0.51600000  1.0 0.0638393597
C  C446  1  0.12600000  0.64200000  0.62000000  1.0 0.0638393597
C  C447  1  0.50600000  0.12600000  0.98400000  1.0 0.0638393597
C  C448  1  0.52200000  0.50600000  0.88000000  1.0 0.0638393597
C  C449  1  0.88000000  0.85800000  0.37400000  1.0 0.0638393597
C  C450  1  0.50600000  0.88000000  0.52200000  1.0 0.0638393597
C  C451  1  0.85800000  0.98400000  0.97800000  1.0 0.0638393597
C  C452  1  0.99400000  0.51600000  0.37400000  1.0 0.0638393597
C  C453  1  0.62000000  0.99400000  0.97800000  1.0 0.0638393597
C  C454  1  0.64200000  0.62000000  0.12600000  1.0 0.0638393597
C  C455  1  0.51600000  0.64200000  0.52200000  1.0 0.0638393597
C  C456  1  0.98400000  0.50600000  0.12600000  1.0 0.0638393597
C  C457  1  0.62600000  0.12000000  0.14200000  1.0 0.0638393597
C  C458  1  0.12000000  0.47800000  0.49400000  1.0 0.0638393597
C  C459  1  0.87400000  0.01600000  0.49400000  1.0 0.0638393597
C  C460  1  0.14200000  0.62600000  0.12000000  1.0 0.0638393597
C  C461  1  0.47800000  0.48400000  0.35800000  1.0 0.0638393597
C  C462  1  0.01600000  0.02200000  0.14200000  1.0 0.0653128123
C  C463  1  0.62600000  0.00600000  0.48400000  1.0 0.0638393597
C  C464  1  0.48400000  0.62600000  0.00600000  1.0 0.0638393597
C  C465  1  0.02200000  0.38000000  0.00600000  1.0 0.0653128123
C  C466  1  0.00600000  0.02200000  0.38000000  1.0 0.0638393597
C  C467  1  0.38000000  0.87400000  0.35800000  1.0 0.0638393597
C  C468  1  0.02200000  0.14200000  0.01600000  1.0 0.0653128123
C  C469  1  0.35800000  0.47800000  0.48400000  1.0 0.0638393597
C  C470  1  0.87400000  0.35800000  0.38000000  1.0 0.0638393597
C  C471  1  0.49400000  0.87400000  0.01600000  1.0 0.0638393597
C  C472  1  0.47800000  0.49400000  0.12000000  1.0 0.0638393597
C  C473  1  0.12000000  0.14200000  0.62600000  1.0 0.0653128123
C  C474  1  0.49400000  0.12000000  0.47800000  1.0 0.0638393597
C  C475  1  0.14200000  0.01600000  0.02200000  1.0 0.0653128123
C  C476  1  0.00600000  0.48400000  0.62600000  1.0 0.0638393597
C  C477  1  0.38000000  0.00600000  0.02200000  1.0 0.0653128123
C  C478  1  0.35800000  0.38000000  0.87400000  1.0 0.0638393597
C  C479  1  0.48400000  0.35800000  0.47800000  1.0 0.0638393597
C  C480  1  0.01600000  0.49400000  0.87400000  1.0 0.0638393597
C  C481  1  0.39200000  0.84800000  0.86200000  1.0 -0.0199394769
C  C482  1  0.84800000  0.48600000  0.45600000  1.0 -0.0199394769
C  C483  1  0.10800000  0.97000000  0.45600000  1.0 -0.0199394769
C  C484  1  0.86200000  0.39200000  0.84800000  1.0 -0.0199394769
C  C485  1  0.48600000  0.53000000  0.63800000  1.0 -0.0199394769
C  C486  1  0.97000000  0.01400000  0.86200000  1.0 -0.0199394769
C  C487  1  0.39200000  0.04400000  0.53000000  1.0 -0.0199394769
C  C488  1  0.53000000  0.39200000  0.04400000  1.0 -0.0199394769
C  C489  1  0.01400000  0.65200000  0.04400000  1.0 -0.0199394769
C  C490  1  0.04400000  0.01400000  0.65200000  1.0 -0.0199394769
C  C491  1  0.65200000  0.10800000  0.63800000  1.0 -0.0199394769
C  C492  1  0.01400000  0.86200000  0.97000000  1.0 -0.0199394769
C  C493  1  0.63800000  0.48600000  0.53000000  1.0 -0.0199394769
C  C494  1  0.10800000  0.63800000  0.65200000  1.0 -0.0199394769
C  C495  1  0.45600000  0.10800000  0.97000000  1.0 -0.0199394769
C  C496  1  0.48600000  0.45600000  0.84800000  1.0 -0.0199394769
C  C497  1  0.84800000  0.86200000  0.39200000  1.0 -0.0199394769
C  C498  1  0.45600000  0.84800000  0.48600000  1.0 -0.0199394769
C  C499  1  0.86200000  0.97000000  0.01400000  1.0 -0.0199394769
C  C500  1  0.04400000  0.53000000  0.39200000  1.0 -0.0199394769
C  C501  1  0.65200000  0.04400000  0.01400000  1.0 -0.0199394769
C  C502  1  0.63800000  0.65200000  0.10800000  1.0 -0.0199394769
C  C503  1  0.53000000  0.63800000  0.48600000  1.0 -0.0199394769
C  C504  1  0.97000000  0.45600000  0.10800000  1.0 -0.0199394769
C  C505  1  0.60800000  0.15200000  0.13800000  1.0 -0.0199394769
C  C506  1  0.15200000  0.51400000  0.54400000  1.0 -0.0199394769
C  C507  1  0.89200000  0.03000000  0.54400000  1.0 -0.0199394769
C  C508  1  0.13800000  0.60800000  0.15200000  1.0 -0.0199394769
C  C509  1  0.51400000  0.47000000  0.36200000  1.0 -0.0199394769
C  C510  1  0.03000000  0.98600000  0.13800000  1.0 -0.0199394769
C  C511  1  0.60800000  0.95600000  0.47000000  1.0 -0.0199394769
C  C512  1  0.47000000  0.60800000  0.95600000  1.0 -0.0199394769
C  C513  1  0.98600000  0.34800000  0.95600000  1.0 -0.0199394769
C  C514  1  0.95600000  0.98600000  0.34800000  1.0 -0.0199394769
C  C515  1  0.34800000  0.89200000  0.36200000  1.0 -0.0199394769
C  C516  1  0.98600000  0.13800000  0.03000000  1.0 -0.0199394769
C  C517  1  0.36200000  0.51400000  0.47000000  1.0 -0.0199394769
C  C518  1  0.89200000  0.36200000  0.34800000  1.0 -0.0199394769
C  C519  1  0.54400000  0.89200000  0.03000000  1.0 -0.0199394769
C  C520  1  0.51400000  0.54400000  0.15200000  1.0 -0.0199394769
C  C521  1  0.15200000  0.13800000  0.60800000  1.0 -0.0199394769
C  C522  1  0.54400000  0.15200000  0.51400000  1.0 -0.0199394769
C  C523  1  0.13800000  0.03000000  0.98600000  1.0 -0.0199394769
C  C524  1  0.95600000  0.47000000  0.60800000  1.0 -0.0199394769
C  C525  1  0.34800000  0.95600000  0.98600000  1.0 -0.0199394769
C  C526  1  0.36200000  0.34800000  0.89200000  1.0 -0.0199394769
C  C527  1  0.47000000  0.36200000  0.51400000  1.0 -0.0199394769
C  C528  1  0.03000000  0.54400000  0.89200000  1.0 -0.0199394769
C  C529  1  0.35800000  0.80200000  0.85200000  1.0 0.003624684
C  C530  1  0.80200000  0.45000000  0.44400000  1.0 0.003624684
C  C531  1  0.14200000  0.99400000  0.44400000  1.0 0.003624684
C  C532  1  0.85200000  0.35800000  0.80200000  1.0 0.003624684
C  C533  1  0.45000000  0.50600000  0.64800000  1.0 0.003624684
C  C534  1  0.99400000  0.05000000  0.85200000  1.0 0.003624684
C  C535  1  0.35800000  0.05600000  0.50600000  1.0 0.003624684
C  C536  1  0.50600000  0.35800000  0.05600000  1.0 0.003624684
C  C537  1  0.05000000  0.69800000  0.05600000  1.0 0.003624684
C  C538  1  0.05600000  0.05000000  0.69800000  1.0 0.003624684
C  C539  1  0.69800000  0.14200000  0.64800000  1.0 0.003624684
C  C540  1  0.05000000  0.85200000  0.99400000  1.0 0.003624684
C  C541  1  0.64800000  0.45000000  0.50600000  1.0 0.003624684
C  C542  1  0.14200000  0.64800000  0.69800000  1.0 0.003624684
C  C543  1  0.44400000  0.14200000  0.99400000  1.0 0.003624684
C  C544  1  0.45000000  0.44400000  0.80200000  1.0 0.003624684
C  C545  1  0.80200000  0.85200000  0.35800000  1.0 0.003624684
C  C546  1  0.44400000  0.80200000  0.45000000  1.0 0.003624684
C  C547  1  0.85200000  0.99400000  0.05000000  1.0 0.003624684
C  C548  1  0.05600000  0.50600000  0.35800000  1.0 0.003624684
C  C549  1  0.69800000  0.05600000  0.05000000  1.0 0.003624684
C  C550  1  0.64800000  0.69800000  0.14200000  1.0 0.003624684
C  C551  1  0.50600000  0.64800000  0.45000000  1.0 0.003624684
C  C552  1  0.99400000  0.44400000  0.14200000  1.0 0.003624684
C  C553  1  0.64200000  0.19800000  0.14800000  1.0 0.003624684
C  C554  1  0.19800000  0.55000000  0.55600000  1.0 0.003624684
C  C555  1  0.85800000  0.00600000  0.55600000  1.0 0.003624684
C  C556  1  0.14800000  0.64200000  0.19800000  1.0 0.003624684
C  C557  1  0.55000000  0.49400000  0.35200000  1.0 0.003624684
C  C558  1  0.00600000  0.95000000  0.14800000  1.0 0.003624684
C  C559  1  0.64200000  0.94400000  0.49400000  1.0 0.003624684
C  C560  1  0.49400000  0.64200000  0.94400000  1.0 0.003624684
C  C561  1  0.95000000  0.30200000  0.94400000  1.0 0.003624684
C  C562  1  0.94400000  0.95000000  0.30200000  1.0 0.003624684
C  C563  1  0.30200000  0.85800000  0.35200000  1.0 0.003624684
C  C564  1  0.95000000  0.14800000  0.00600000  1.0 0.003624684
C  C565  1  0.35200000  0.55000000  0.49400000  1.0 0.003624684
C  C566  1  0.85800000  0.35200000  0.30200000  1.0 0.003624684
C  C567  1  0.55600000  0.85800000  0.00600000  1.0 0.003624684
C  C568  1  0.55000000  0.55600000  0.19800000  1.0 0.003624684
C  C569  1  0.19800000  0.14800000  0.64200000  1.0 0.003624684
C  C570  1  0.55600000  0.19800000  0.55000000  1.0 0.003624684
C  C571  1  0.14800000  0.00600000  0.95000000  1.0 0.003624684
C  C572  1  0.94400000  0.49400000  0.64200000  1.0 0.003624684
C  C573  1  0.30200000  0.94400000  0.95000000  1.0 0.003624684
C  C574  1  0.35200000  0.30200000  0.85800000  1.0 0.003624684
C  C575  1  0.49400000  0.35200000  0.55000000  1.0 0.003624684
C  C576  1  0.00600000  0.55600000  0.85800000  1.0 0.003624684
C  C577  1  0.44300000  0.86100000  0.87200000  1.0 0.1457189342
C  C578  1  0.86100000  0.48900000  0.41800000  1.0 0.1419043161
C  C579  1  0.05700000  0.92900000  0.41800000  1.0 0.1419043161
C  C580  1  0.87200000  0.44300000  0.86100000  1.0 0.1457189342
C  C581  1  0.48900000  0.57100000  0.62800000  1.0 0.1457189342
C  C582  1  0.92900000  0.01100000  0.87200000  1.0 0.1419043161
C  C583  1  0.44300000  0.08200000  0.57100000  1.0 0.1457189342
C  C584  1  0.57100000  0.44300000  0.08200000  1.0 0.1419043161
C  C585  1  0.01100000  0.63900000  0.08200000  1.0 0.1419043161
C  C586  1  0.08200000  0.01100000  0.63900000  1.0 0.1457189342
C  C587  1  0.63900000  0.05700000  0.62800000  1.0 0.1457189342
C  C588  1  0.01100000  0.87200000  0.92900000  1.0 0.1457189342
C  C589  1  0.62800000  0.48900000  0.57100000  1.0 0.1419043161
C  C590  1  0.05700000  0.62800000  0.63900000  1.0 0.1457189342
C  C591  1  0.41800000  0.05700000  0.92900000  1.0 0.1457189342
C  C592  1  0.48900000  0.41800000  0.86100000  1.0 0.1457189342
C  C593  1  0.86100000  0.87200000  0.44300000  1.0 0.1419043161
C  C594  1  0.41800000  0.86100000  0.48900000  1.0 0.1457189342
C  C595  1  0.87200000  0.92900000  0.01100000  1.0 0.1419043161
C  C596  1  0.08200000  0.57100000  0.44300000  1.0 0.1457189342
C  C597  1  0.63900000  0.08200000  0.01100000  1.0 0.1457189342
C  C598  1  0.62800000  0.63900000  0.05700000  1.0 0.1457189342
C  C599  1  0.57100000  0.62800000  0.48900000  1.0 0.1419043161
C  C600  1  0.92900000  0.41800000  0.05700000  1.0 0.1457189342
C  C601  1  0.55700000  0.13900000  0.12800000  1.0 0.1419043161
C  C602  1  0.13900000  0.51100000  0.58200000  1.0 0.1419043161
C  C603  1  0.94300000  0.07100000  0.58200000  1.0 0.1457189342
C  C604  1  0.12800000  0.55700000  0.13900000  1.0 0.1419043161
C  C605  1  0.51100000  0.42900000  0.37200000  1.0 0.1419043161
C  C606  1  0.07100000  0.98900000  0.12800000  1.0 0.1419043161
C  C607  1  0.55700000  0.91800000  0.42900000  1.0 0.1457189342
C  C608  1  0.42900000  0.55700000  0.91800000  1.0 0.1457189342
C  C609  1  0.98900000  0.36100000  0.91800000  1.0 0.1457189342
C  C610  1  0.91800000  0.98900000  0.36100000  1.0 0.1337743683
C  C611  1  0.36100000  0.94300000  0.37200000  1.0 0.1419043161
C  C612  1  0.98900000  0.12800000  0.07100000  1.0 0.1419043161
C  C613  1  0.37200000  0.51100000  0.42900000  1.0 0.1419043161
C  C614  1  0.94300000  0.37200000  0.36100000  1.0 0.1419043161
C  C615  1  0.58200000  0.94300000  0.07100000  1.0 0.1419043161
C  C616  1  0.51100000  0.58200000  0.13900000  1.0 0.1419043161
C  C617  1  0.13900000  0.12800000  0.55700000  1.0 0.1457189342
C  C618  1  0.58200000  0.13900000  0.51100000  1.0 0.1457189342
C  C619  1  0.12800000  0.07100000  0.98900000  1.0 0.1457189342
C  C620  1  0.91800000  0.42900000  0.55700000  1.0 0.1419043161
C  C621  1  0.36100000  0.91800000  0.98900000  1.0 0.1419043161
C  C622  1  0.37200000  0.36100000  0.94300000  1.0 0.1419043161
C  C623  1  0.42900000  0.37200000  0.51100000  1.0 0.1457189342
C  C624  1  0.07100000  0.58200000  0.94300000  1.0 0.1457189342
N  N1  1  0.30500000  0.67600000  0.77700000  1.0 -0.3180195048
N  N2  1  0.67600000  0.39900000  0.37100000  1.0 -0.3180195048
N  N3  1  0.19500000  0.97200000  0.37100000  1.0 -0.3180195048
N  N4  1  0.77700000  0.30500000  0.67600000  1.0 -0.3180195048
N  N5  1  0.39900000  0.52800000  0.72300000  1.0 -0.3180195048
N  N6  1  0.97200000  0.10100000  0.77700000  1.0 -0.3180195048
N  N7  1  0.30500000  0.12900000  0.52800000  1.0 -0.3180195048
N  N8  1  0.52800000  0.30500000  0.12900000  1.0 -0.3180195048
N  N9  1  0.10100000  0.82400000  0.12900000  1.0 -0.3180195048
N  N10  1  0.12900000  0.10100000  0.82400000  1.0 -0.3180195048
N  N11  1  0.82400000  0.19500000  0.72300000  1.0 -0.3180195048
N  N12  1  0.10100000  0.77700000  0.97200000  1.0 -0.3180195048
N  N13  1  0.72300000  0.39900000  0.52800000  1.0 -0.3180195048
N  N14  1  0.19500000  0.72300000  0.82400000  1.0 -0.3180195048
N  N15  1  0.37100000  0.19500000  0.97200000  1.0 -0.3180195048
N  N16  1  0.39900000  0.37100000  0.67600000  1.0 -0.3180195048
N  N17  1  0.67600000  0.77700000  0.30500000  1.0 -0.3180195048
N  N18  1  0.37100000  0.67600000  0.39900000  1.0 -0.3180195048
N  N19  1  0.77700000  0.97200000  0.10100000  1.0 -0.3180195048
N  N20  1  0.12900000  0.52800000  0.30500000  1.0 -0.3180195048
N  N21  1  0.82400000  0.12900000  0.10100000  1.0 -0.3180195048
N  N22  1  0.72300000  0.82400000  0.19500000  1.0 -0.3180195048
N  N23  1  0.52800000  0.72300000  0.39900000  1.0 -0.3180195048
N  N24  1  0.97200000  0.37100000  0.19500000  1.0 -0.3180195048
N  N25  1  0.69500000  0.32400000  0.22300000  1.0 -0.3180195048
N  N26  1  0.32400000  0.60100000  0.62900000  1.0 -0.3180195048
N  N27  1  0.80500000  0.02800000  0.62900000  1.0 -0.3180195048
N  N28  1  0.22300000  0.69500000  0.32400000  1.0 -0.3180195048
N  N29  1  0.60100000  0.47200000  0.27700000  1.0 -0.3180195048
N  N30  1  0.02800000  0.89900000  0.22300000  1.0 -0.3180195048
N  N31  1  0.69500000  0.87100000  0.47200000  1.0 -0.3180195048
N  N32  1  0.47200000  0.69500000  0.87100000  1.0 -0.3180195048
N  N33  1  0.89900000  0.17600000  0.87100000  1.0 -0.3180195048
N  N34  1  0.87100000  0.89900000  0.17600000  1.0 -0.3180195048
N  N35  1  0.17600000  0.80500000  0.27700000  1.0 -0.3180195048
N  N36  1  0.89900000  0.22300000  0.02800000  1.0 -0.3180195048
N  N37  1  0.27700000  0.60100000  0.47200000  1.0 -0.3180195048
N  N38  1  0.80500000  0.27700000  0.17600000  1.0 -0.3180195048
N  N39  1  0.62900000  0.80500000  0.02800000  1.0 -0.3180195048
N  N40  1  0.60100000  0.62900000  0.32400000  1.0 -0.3180195048
N  N41  1  0.32400000  0.22300000  0.69500000  1.0 -0.3180195048
N  N42  1  0.62900000  0.32400000  0.60100000  1.0 -0.3180195048
N  N43  1  0.22300000  0.02800000  0.89900000  1.0 -0.3180195048
N  N44  1  0.87100000  0.47200000  0.69500000  1.0 -0.3180195048
N  N45  1  0.17600000  0.87100000  0.89900000  1.0 -0.3180195048
N  N46  1  0.27700000  0.17600000  0.80500000  1.0 -0.3180195048
N  N47  1  0.47200000  0.27700000  0.60100000  1.0 -0.3180195048
N  N48  1  0.02800000  0.62900000  0.80500000  1.0 -0.3180195048
N  N49  1  0.41400000  0.74400000  0.76800000  1.0 -0.2057544443
N  N50  1  0.74400000  0.47600000  0.33000000  1.0 -0.2043421331
N  N51  1  0.08600000  0.85400000  0.33000000  1.0 -0.2057544443
N  N52  1  0.76800000  0.41400000  0.74400000  1.0 -0.2043421331
N  N53  1  0.47600000  0.64600000  0.73200000  1.0 -0.2043421331
N  N54  1  0.85400000  0.02400000  0.76800000  1.0 -0.2057544443
N  N55  1  0.41400000  0.17000000  0.64600000  1.0 -0.2057544443
N  N56  1  0.64600000  0.41400000  0.17000000  1.0 -0.2043421331
N  N57  1  0.02400000  0.75600000  0.17000000  1.0 -0.2057544443
N  N58  1  0.17000000  0.02400000  0.75600000  1.0 -0.2057544443
N  N59  1  0.75600000  0.08600000  0.73200000  1.0 -0.2057544443
N  N60  1  0.02400000  0.76800000  0.85400000  1.0 -0.2057544443
N  N61  1  0.73200000  0.47600000  0.64600000  1.0 -0.2043421331
N  N62  1  0.08600000  0.73200000  0.75600000  1.0 -0.2057544443
N  N63  1  0.33000000  0.08600000  0.85400000  1.0 -0.2057544443
N  N64  1  0.47600000  0.33000000  0.74400000  1.0 -0.2057544443
N  N65  1  0.74400000  0.76800000  0.41400000  1.0 -0.2043421331
N  N66  1  0.33000000  0.74400000  0.47600000  1.0 -0.2043421331
N  N67  1  0.76800000  0.85400000  0.02400000  1.0 -0.2043421331
N  N68  1  0.17000000  0.64600000  0.41400000  1.0 -0.2057544443
N  N69  1  0.75600000  0.17000000  0.02400000  1.0 -0.2043421331
N  N70  1  0.73200000  0.75600000  0.08600000  1.0 -0.2057544443
N  N71  1  0.64600000  0.73200000  0.47600000  1.0 -0.2057544443
N  N72  1  0.85400000  0.33000000  0.08600000  1.0 -0.2043421331
N  N73  1  0.58600000  0.25600000  0.23200000  1.0 -0.2043421331
N  N74  1  0.25600000  0.52400000  0.67000000  1.0 -0.2057544443
N  N75  1  0.91400000  0.14600000  0.67000000  1.0 -0.2043421331
N  N76  1  0.23200000  0.58600000  0.25600000  1.0 -0.2057544443
N  N77  1  0.52400000  0.35400000  0.26800000  1.0 -0.2057544443
N  N78  1  0.14600000  0.97600000  0.23200000  1.0 -0.2043421331
N  N79  1  0.58600000  0.83000000  0.35400000  1.0 -0.2043421331
N  N80  1  0.35400000  0.58600000  0.83000000  1.0 -0.2043421331
N  N81  1  0.97600000  0.24400000  0.83000000  1.0 -0.2043421331
N  N82  1  0.83000000  0.97600000  0.24400000  1.0 -0.2043421331
N  N83  1  0.24400000  0.91400000  0.26800000  1.0 -0.2057544443
N  N84  1  0.97600000  0.23200000  0.14600000  1.0 -0.2043421331
N  N85  1  0.26800000  0.52400000  0.35400000  1.0 -0.2043421331
N  N86  1  0.91400000  0.26800000  0.24400000  1.0 -0.2043421331
N  N87  1  0.67000000  0.91400000  0.14600000  1.0 -0.2043421331
N  N88  1  0.52400000  0.67000000  0.25600000  1.0 -0.2043421331
N  N89  1  0.25600000  0.23200000  0.58600000  1.0 -0.2057544443
N  N90  1  0.67000000  0.25600000  0.52400000  1.0 -0.2043421331
N  N91  1  0.23200000  0.14600000  0.97600000  1.0 -0.2057544443
N  N92  1  0.83000000  0.35400000  0.58600000  1.0 -0.2043421331
N  N93  1  0.24400000  0.83000000  0.97600000  1.0 -0.2057544443
N  N94  1  0.26800000  0.24400000  0.91400000  1.0 -0.2057544443
N  N95  1  0.35400000  0.26800000  0.52400000  1.0 -0.2043421331
N  N96  1  0.14600000  0.67000000  0.91400000  1.0 -0.2043421331
N  N97  1  0.29800000  0.70900000  0.88900000  1.0 -0.2334309632
N  N98  1  0.70900000  0.32000000  0.41100000  1.0 -0.2334309632
N  N99  1  0.20200000  0.09100000  0.41100000  1.0 -0.2334309632
N  N100  1  0.88900000  0.29800000  0.70900000  1.0 -0.2353988158
N  N101  1  0.32000000  0.40900000  0.61100000  1.0 -0.2334309632
N  N102  1  0.09100000  0.18000000  0.88900000  1.0 -0.2334309632
N  N103  1  0.29800000  0.08900000  0.40900000  1.0 -0.2334309632
N  N104  1  0.40900000  0.29800000  0.08900000  1.0 -0.2353988158
N  N105  1  0.18000000  0.79100000  0.08900000  1.0 -0.2353988158
N  N106  1  0.08900000  0.18000000  0.79100000  1.0 -0.2334309632
N  N107  1  0.79100000  0.20200000  0.61100000  1.0 -0.2334309632
N  N108  1  0.18000000  0.88900000  0.09100000  1.0 -0.2334309632
N  N109  1  0.61100000  0.32000000  0.40900000  1.0 -0.2353988158
N  N110  1  0.20200000  0.61100000  0.79100000  1.0 -0.2334309632
N  N111  1  0.41100000  0.20200000  0.09100000  1.0 -0.2334309632
N  N112  1  0.32000000  0.41100000  0.70900000  1.0 -0.2334309632
N  N113  1  0.70900000  0.88900000  0.29800000  1.0 -0.2334309632
N  N114  1  0.41100000  0.70900000  0.32000000  1.0 -0.2334309632
N  N115  1  0.88900000  0.09100000  0.18000000  1.0 -0.2334309632
N  N116  1  0.08900000  0.40900000  0.29800000  1.0 -0.2334309632
N  N117  1  0.79100000  0.08900000  0.18000000  1.0 -0.2334309632
N  N118  1  0.61100000  0.79100000  0.20200000  1.0 -0.2334309632
N  N119  1  0.40900000  0.61100000  0.32000000  1.0 -0.2334309632
N  N120  1  0.09100000  0.41100000  0.20200000  1.0 -0.2334309632
N  N121  1  0.70200000  0.29100000  0.11100000  1.0 -0.2353988158
N  N122  1  0.29100000  0.68000000  0.58900000  1.0 -0.2353988158
N  N123  1  0.79800000  0.90900000  0.58900000  1.0 -0.2353988158
N  N124  1  0.11100000  0.70200000  0.29100000  1.0 -0.2334309632
N  N125  1  0.68000000  0.59100000  0.38900000  1.0 -0.2353988158
N  N126  1  0.90900000  0.82000000  0.11100000  1.0 -0.2353988158
N  N127  1  0.70200000  0.91100000  0.59100000  1.0 -0.2353988158
N  N128  1  0.59100000  0.70200000  0.91100000  1.0 -0.2353988158
N  N129  1  0.82000000  0.20900000  0.91100000  1.0 -0.2334309632
N  N130  1  0.91100000  0.82000000  0.20900000  1.0 -0.2334309632
N  N131  1  0.20900000  0.79800000  0.38900000  1.0 -0.2353988158
N  N132  1  0.82000000  0.11100000  0.90900000  1.0 -0.2334309632
N  N133  1  0.38900000  0.68000000  0.59100000  1.0 -0.2334309632
N  N134  1  0.79800000  0.38900000  0.20900000  1.0 -0.2334309632
N  N135  1  0.58900000  0.79800000  0.90900000  1.0 -0.2353988158
N  N136  1  0.68000000  0.58900000  0.29100000  1.0 -0.2334309632
N  N137  1  0.29100000  0.11100000  0.70200000  1.0 -0.2334309632
N  N138  1  0.58900000  0.29100000  0.68000000  1.0 -0.2353988158
N  N139  1  0.11100000  0.90900000  0.82000000  1.0 -0.2353988158
N  N140  1  0.91100000  0.59100000  0.70200000  1.0 -0.2353988158
N  N141  1  0.20900000  0.91100000  0.82000000  1.0 -0.2353988158
N  N142  1  0.38900000  0.20900000  0.79800000  1.0 -0.2334309632
N  N143  1  0.59100000  0.38900000  0.68000000  1.0 -0.2334309632
N  N144  1  0.90900000  0.58900000  0.79800000  1.0 -0.2334309632
N  N145  1  0.30000000  0.78200000  0.83000000  1.0 -0.1069926003
N  N146  1  0.78200000  0.45200000  0.48200000  1.0 -0.1069926003
N  N147  1  0.20000000  0.03000000  0.48200000  1.0 -0.1069926003
N  N148  1  0.83000000  0.30000000  0.78200000  1.0 -0.1069926003
N  N149  1  0.45200000  0.47000000  0.67000000  1.0 -0.1069926003
N  N150  1  0.03000000  0.04800000  0.83000000  1.0 -0.1069926003
N  N151  1  0.30000000  0.01800000  0.47000000  1.0 -0.1069926003
N  N152  1  0.47000000  0.30000000  0.01800000  1.0 -0.1069926003
N  N153  1  0.04800000  0.71800000  0.01800000  1.0 -0.1069926003
N  N154  1  0.01800000  0.04800000  0.71800000  1.0 -0.1069926003
N  N155  1  0.71800000  0.20000000  0.67000000  1.0 -0.1069926003
N  N156  1  0.04800000  0.83000000  0.03000000  1.0 -0.1069926003
N  N157  1  0.67000000  0.45200000  0.47000000  1.0 -0.1069926003
N  N158  1  0.20000000  0.67000000  0.71800000  1.0 -0.1069926003
N  N159  1  0.48200000  0.20000000  0.03000000  1.0 -0.1069926003
N  N160  1  0.45200000  0.48200000  0.78200000  1.0 -0.1069926003
N  N161  1  0.78200000  0.83000000  0.30000000  1.0 -0.1069926003
N  N162  1  0.48200000  0.78200000  0.45200000  1.0 -0.1069926003
N  N163  1  0.83000000  0.03000000  0.04800000  1.0 -0.1069926003
N  N164  1  0.01800000  0.47000000  0.30000000  1.0 -0.1069926003
N  N165  1  0.71800000  0.01800000  0.04800000  1.0 -0.1069926003
N  N166  1  0.67000000  0.71800000  0.20000000  1.0 -0.1069926003
N  N167  1  0.47000000  0.67000000  0.45200000  1.0 -0.1069926003
N  N168  1  0.03000000  0.48200000  0.20000000  1.0 -0.1069926003
N  N169  1  0.70000000  0.21800000  0.17000000  1.0 -0.1069926003
N  N170  1  0.21800000  0.54800000  0.51800000  1.0 -0.1069926003
N  N171  1  0.80000000  0.97000000  0.51800000  1.0 -0.1069926003
N  N172  1  0.17000000  0.70000000  0.21800000  1.0 -0.1069926003
N  N173  1  0.54800000  0.53000000  0.33000000  1.0 -0.1069926003
N  N174  1  0.97000000  0.95200000  0.17000000  1.0 -0.1069926003
N  N175  1  0.70000000  0.98200000  0.53000000  1.0 -0.1069926003
N  N176  1  0.53000000  0.70000000  0.98200000  1.0 -0.1069926003
N  N177  1  0.95200000  0.28200000  0.98200000  1.0 -0.1069926003
N  N178  1  0.98200000  0.95200000  0.28200000  1.0 -0.1069926003
N  N179  1  0.28200000  0.80000000  0.33000000  1.0 -0.1069926003
N  N180  1  0.95200000  0.17000000  0.97000000  1.0 -0.1069926003
N  N181  1  0.33000000  0.54800000  0.53000000  1.0 -0.1069926003
N  N182  1  0.80000000  0.33000000  0.28200000  1.0 -0.1069926003
N  N183  1  0.51800000  0.80000000  0.97000000  1.0 -0.1069926003
N  N184  1  0.54800000  0.51800000  0.21800000  1.0 -0.1069926003
N  N185  1  0.21800000  0.17000000  0.70000000  1.0 -0.1069926003
N  N186  1  0.51800000  0.21800000  0.54800000  1.0 -0.1069926003
N  N187  1  0.17000000  0.97000000  0.95200000  1.0 -0.1069926003
N  N188  1  0.98200000  0.53000000  0.70000000  1.0 -0.1069926003
N  N189  1  0.28200000  0.98200000  0.95200000  1.0 -0.1069926003
N  N190  1  0.33000000  0.28200000  0.80000000  1.0 -0.1069926003
N  N191  1  0.53000000  0.33000000  0.54800000  1.0 -0.1069926003
N  N192  1  0.97000000  0.51800000  0.80000000  1.0 -0.1069926003
O  O1  1  0.48600000  0.85700000  0.85100000  1.0 -0.3856345879
O  O2  1  0.85700000  0.50600000  0.37100000  1.0 -0.3837752363
O  O3  1  0.01400000  0.86500000  0.37100000  1.0 -0.3856345879
O  O4  1  0.85100000  0.48600000  0.85700000  1.0 -0.3837752363
O  O5  1  0.50600000  0.63500000  0.64900000  1.0 -0.3837752363
O  O6  1  0.86500000  0.99400000  0.85100000  1.0 -0.372937368
O  O7  1  0.48600000  0.12900000  0.63500000  1.0 -0.3837752363
O  O8  1  0.63500000  0.48600000  0.12900000  1.0 -0.3837752363
O  O9  1  0.99400000  0.64300000  0.12900000  1.0 -0.372937368
O  O10  1  0.12900000  0.99400000  0.64300000  1.0 -0.3837752363
O  O11  1  0.64300000  0.01400000  0.64900000  1.0 -0.3837752363
O  O12  1  0.99400000  0.85100000  0.86500000  1.0 -0.3837752363
O  O13  1  0.64900000  0.50600000  0.63500000  1.0 -0.3837752363
O  O14  1  0.01400000  0.64900000  0.64300000  1.0 -0.3837752363
O  O15  1  0.37100000  0.01400000  0.86500000  1.0 -0.3837752363
O  O16  1  0.50600000  0.37100000  0.85700000  1.0 -0.3837752363
O  O17  1  0.85700000  0.85100000  0.48600000  1.0 -0.3837752363
O  O18  1  0.37100000  0.85700000  0.50600000  1.0 -0.3837752363
O  O19  1  0.85100000  0.86500000  0.99400000  1.0 -0.3837752363
O  O20  1  0.12900000  0.63500000  0.48600000  1.0 -0.3837752363
O  O21  1  0.64300000  0.12900000  0.99400000  1.0 -0.3837752363
O  O22  1  0.64900000  0.64300000  0.01400000  1.0 -0.3837752363
O  O23  1  0.63500000  0.64900000  0.50600000  1.0 -0.372937368
O  O24  1  0.86500000  0.37100000  0.01400000  1.0 -0.3837752363
O  O25  1  0.51400000  0.14300000  0.14900000  1.0 -0.3837752363
O  O26  1  0.14300000  0.49400000  0.62900000  1.0 -0.3837752363
O  O27  1  0.98600000  0.13500000  0.62900000  1.0 -0.3837752363
O  O28  1  0.14900000  0.51400000  0.14300000  1.0 -0.3837752363
O  O29  1  0.49400000  0.36500000  0.35100000  1.0 -0.3837752363
O  O30  1  0.13500000  0.00600000  0.14900000  1.0 -0.3837752363
O  O31  1  0.51400000  0.87100000  0.36500000  1.0 -0.3837752363
O  O32  1  0.36500000  0.51400000  0.87100000  1.0 -0.3837752363
O  O33  1  0.00600000  0.35700000  0.87100000  1.0 -0.3837752363
O  O34  1  0.87100000  0.00600000  0.35700000  1.0 -0.372937368
O  O35  1  0.35700000  0.98600000  0.35100000  1.0 -0.372937368
O  O36  1  0.00600000  0.14900000  0.13500000  1.0 -0.3837752363
O  O37  1  0.35100000  0.49400000  0.36500000  1.0 -0.3837752363
O  O38  1  0.98600000  0.35100000  0.35700000  1.0 -0.3837752363
O  O39  1  0.62900000  0.98600000  0.13500000  1.0 -0.3837752363
O  O40  1  0.49400000  0.62900000  0.14300000  1.0 -0.3837752363
O  O41  1  0.14300000  0.14900000  0.51400000  1.0 -0.3837752363
O  O42  1  0.62900000  0.14300000  0.49400000  1.0 -0.3837752363
O  O43  1  0.14900000  0.13500000  0.00600000  1.0 -0.3837752363
O  O44  1  0.87100000  0.36500000  0.51400000  1.0 -0.3837752363
O  O45  1  0.35700000  0.87100000  0.00600000  1.0 -0.372937368
O  O46  1  0.35100000  0.35700000  0.98600000  1.0 -0.3837752363
O  O47  1  0.36500000  0.35100000  0.49400000  1.0 -0.3837752363
O  O48  1  0.13500000  0.62900000  0.98600000  1.0 -0.3856345879
