# DDEC6 charges by PACMAN v1.1 (https://github.com/mtap-research/PACMAN-charge/)
data_WUQRAC_ASR_pacman
_symmetry_space_group_name_H-M   'P 1'
_cell_length_a   35.15710000
_cell_length_b   35.15710000
_cell_length_c   35.15710000
_cell_angle_alpha   90.00000000
_cell_angle_beta   90.00000000
_cell_angle_gamma   90.00000000
_symmetry_Int_Tables_number   1
_chemical_formula_structural   NbFe2H44(C13N4)4
_chemical_formula_sum   'Nb24 Fe48 H1056 C1248 N384'
_cell_volume   43454.93782034
_cell_formula_units_Z   24
loop_
 _symmetry_equiv_pos_site_id
 _symmetry_equiv_pos_as_xyz
  1  'x, y, z'
loop_
 _atom_site_type_symbol
 _atom_site_label
 _atom_site_symmetry_multiplicity
 _atom_site_fract_x
 _atom_site_fract_y
 _atom_site_fract_z
 _atom_site_occupancy
 _atom_site_charge
Nb  Nb1  1  0.62500000  0.50000000  0.25000000  1.0 0.7383213544
Nb  Nb2  1  0.87500000  0.50000000  0.75000000  1.0 0.7383213544
Nb  Nb3  1  0.37500000  0.00000000  0.25000000  1.0 0.7383213544
Nb  Nb4  1  0.12500000  0.00000000  0.75000000  1.0 0.7383213544
Nb  Nb5  1  0.25000000  0.62500000  0.50000000  1.0 0.7383213544
Nb  Nb6  1  0.75000000  0.87500000  0.50000000  1.0 0.7383213544
Nb  Nb7  1  0.25000000  0.37500000  0.00000000  1.0 0.7383213544
Nb  Nb8  1  0.75000000  0.12500000  0.00000000  1.0 0.7383213544
Nb  Nb9  1  0.50000000  0.25000000  0.62500000  1.0 0.7383213544
Nb  Nb10  1  0.50000000  0.75000000  0.87500000  1.0 0.7383213544
Nb  Nb11  1  0.00000000  0.25000000  0.37500000  1.0 0.7383213544
Nb  Nb12  1  0.00000000  0.75000000  0.12500000  1.0 0.7383213544
Nb  Nb13  1  0.25000000  0.87500000  0.00000000  1.0 0.7383213544
Nb  Nb14  1  0.75000000  0.37500000  0.50000000  1.0 0.7383213544
Nb  Nb15  1  0.25000000  0.12500000  0.50000000  1.0 0.7383213544
Nb  Nb16  1  0.75000000  0.62500000  0.00000000  1.0 0.7383213544
Nb  Nb17  1  0.37500000  0.50000000  0.75000000  1.0 0.7383213544
Nb  Nb18  1  0.62500000  0.00000000  0.75000000  1.0 0.7383213544
Nb  Nb19  1  0.12500000  0.50000000  0.25000000  1.0 0.7383213544
Nb  Nb20  1  0.87500000  0.00000000  0.25000000  1.0 0.7383213544
Nb  Nb21  1  0.00000000  0.75000000  0.62500000  1.0 0.7383213544
Nb  Nb22  1  0.50000000  0.75000000  0.37500000  1.0 0.7383213544
Nb  Nb23  1  0.00000000  0.25000000  0.87500000  1.0 0.7383213544
Nb  Nb24  1  0.50000000  0.25000000  0.12500000  1.0 0.7383213544
Fe  Fe1  1  0.68200000  0.43200000  0.37500000  1.0 0.6745040967
Fe  Fe2  1  0.81800000  0.56800000  0.87500000  1.0 0.6745040967
Fe  Fe3  1  0.31800000  0.93200000  0.12500000  1.0 0.6750506117
Fe  Fe4  1  0.18200000  0.06800000  0.62500000  1.0 0.6745040967
Fe  Fe5  1  0.37500000  0.68200000  0.43200000  1.0 0.6745040967
Fe  Fe6  1  0.87500000  0.81800000  0.56800000  1.0 0.6745040967
Fe  Fe7  1  0.12500000  0.31800000  0.93200000  1.0 0.6750506117
Fe  Fe8  1  0.62500000  0.18200000  0.06800000  1.0 0.6750506117
Fe  Fe9  1  0.43200000  0.37500000  0.68200000  1.0 0.6745040967
Fe  Fe10  1  0.56800000  0.87500000  0.81800000  1.0 0.6745040967
Fe  Fe11  1  0.93200000  0.12500000  0.31800000  1.0 0.6750506117
Fe  Fe12  1  0.06800000  0.62500000  0.18200000  1.0 0.6750506117
Fe  Fe13  1  0.18200000  0.93200000  0.87500000  1.0 0.6745040967
Fe  Fe14  1  0.31800000  0.06800000  0.37500000  1.0 0.6750506117
Fe  Fe15  1  0.68200000  0.56800000  0.12500000  1.0 0.6750506117
Fe  Fe16  1  0.81800000  0.43200000  0.62500000  1.0 0.6745040967
Fe  Fe17  1  0.43200000  0.62500000  0.81800000  1.0 0.6745040967
Fe  Fe18  1  0.56800000  0.12500000  0.68200000  1.0 0.6750506117
Fe  Fe19  1  0.06800000  0.37500000  0.31800000  1.0 0.6750506117
Fe  Fe20  1  0.93200000  0.87500000  0.18200000  1.0 0.6745040967
Fe  Fe21  1  0.12500000  0.68200000  0.56800000  1.0 0.6750506117
Fe  Fe22  1  0.62500000  0.81800000  0.43200000  1.0 0.6745040967
Fe  Fe23  1  0.87500000  0.18200000  0.93200000  1.0 0.6750506117
Fe  Fe24  1  0.37500000  0.31800000  0.06800000  1.0 0.6750506117
Fe  Fe25  1  0.31800000  0.56800000  0.62500000  1.0 0.6745040967
Fe  Fe26  1  0.18200000  0.43200000  0.12500000  1.0 0.6750506117
Fe  Fe27  1  0.68200000  0.06800000  0.87500000  1.0 0.6750506117
Fe  Fe28  1  0.81800000  0.93200000  0.37500000  1.0 0.6745040967
Fe  Fe29  1  0.62500000  0.31800000  0.56800000  1.0 0.6750506117
Fe  Fe30  1  0.12500000  0.18200000  0.43200000  1.0 0.6750506117
Fe  Fe31  1  0.87500000  0.68200000  0.06800000  1.0 0.6745040967
Fe  Fe32  1  0.37500000  0.81800000  0.93200000  1.0 0.6745040967
Fe  Fe33  1  0.56800000  0.62500000  0.31800000  1.0 0.6745040967
Fe  Fe34  1  0.43200000  0.12500000  0.18200000  1.0 0.6750506117
Fe  Fe35  1  0.06800000  0.87500000  0.68200000  1.0 0.6745040967
Fe  Fe36  1  0.93200000  0.37500000  0.81800000  1.0 0.6745040967
Fe  Fe37  1  0.81800000  0.06800000  0.12500000  1.0 0.6750506117
Fe  Fe38  1  0.68200000  0.93200000  0.62500000  1.0 0.6750506117
Fe  Fe39  1  0.31800000  0.43200000  0.87500000  1.0 0.6745040967
Fe  Fe40  1  0.18200000  0.56800000  0.37500000  1.0 0.6745040967
Fe  Fe41  1  0.56800000  0.37500000  0.18200000  1.0 0.6750506117
Fe  Fe42  1  0.43200000  0.87500000  0.31800000  1.0 0.6745040967
Fe  Fe43  1  0.93200000  0.62500000  0.68200000  1.0 0.6750506117
Fe  Fe44  1  0.06800000  0.12500000  0.81800000  1.0 0.6750506117
Fe  Fe45  1  0.87500000  0.31800000  0.43200000  1.0 0.6745040967
Fe  Fe46  1  0.37500000  0.18200000  0.56800000  1.0 0.6745040967
Fe  Fe47  1  0.12500000  0.81800000  0.06800000  1.0 0.6745040967
Fe  Fe48  1  0.62500000  0.68200000  0.93200000  1.0 0.6750506117
H  H1  1  0.66995000  0.47883000  0.45904000  1.0 0.0811013745
H  H2  1  0.68944000  0.54095000  0.48568000  1.0 0.1020094216
H  H3  1  0.71887000  0.58817000  0.43761000  1.0 0.0912124173
H  H4  1  0.71050000  0.57523000  0.36733000  1.0 0.1020094216
H  H5  1  0.69101000  0.51631000  0.34193000  1.0 0.0811013745
H  H6  1  0.62816000  0.36994000  0.41937000  1.0 0.0675970793
H  H7  1  0.57438000  0.37951000  0.46450000  1.0 0.1058177902
H  H8  1  0.52269000  0.42294000  0.44552000  1.0 0.1020094216
H  H9  1  0.60691000  0.47932000  0.38093000  1.0 0.1058177902
H  H10  1  0.53278000  0.48326000  0.36321000  1.0 0.1365294948
H  H11  1  0.51262000  0.49083000  0.41508000  1.0 0.1206060178
H  H12  1  0.16995000  0.97883000  0.95904000  1.0 0.0811013745
H  H13  1  0.18944000  0.04095000  0.98568000  1.0 0.1020094216
H  H14  1  0.21887000  0.08817000  0.93761000  1.0 0.0912124173
H  H15  1  0.21050000  0.07523000  0.86733000  1.0 0.1020094216
H  H16  1  0.19101000  0.01631000  0.84193000  1.0 0.0811013745
H  H17  1  0.12816000  0.86994000  0.91937000  1.0 0.0675970793
H  H18  1  0.07438000  0.87951000  0.96450000  1.0 0.1058177902
H  H19  1  0.02269000  0.92294000  0.94552000  1.0 0.1020094216
H  H20  1  0.10691000  0.97932000  0.88093000  1.0 0.1058177902
H  H21  1  0.03278000  0.98326000  0.86321000  1.0 0.1365294948
H  H22  1  0.01262000  0.99083000  0.91508000  1.0 0.1206060178
H  H23  1  0.83005000  0.52117000  0.95904000  1.0 0.0811013745
H  H24  1  0.81056000  0.45905000  0.98568000  1.0 0.1020094216
H  H25  1  0.78113000  0.41183000  0.93761000  1.0 0.0912124173
H  H26  1  0.78950000  0.42477000  0.86733000  1.0 0.1020094216
H  H27  1  0.80899000  0.48369000  0.84193000  1.0 0.0811013745
H  H28  1  0.87184000  0.63006000  0.91937000  1.0 0.0675970793
H  H29  1  0.92562000  0.62049000  0.96450000  1.0 0.1058177902
H  H30  1  0.97731000  0.57706000  0.94552000  1.0 0.1020094216
H  H31  1  0.89309000  0.52068000  0.88093000  1.0 0.1058177902
H  H32  1  0.96722000  0.51674000  0.86321000  1.0 0.1365294948
H  H33  1  0.98738000  0.50917000  0.91508000  1.0 0.1206060178
H  H34  1  0.33005000  0.02117000  0.45904000  1.0 0.0811013745
H  H35  1  0.31056000  0.95905000  0.48568000  1.0 0.1020094216
H  H36  1  0.28113000  0.91183000  0.43761000  1.0 0.0912124173
H  H37  1  0.28950000  0.92477000  0.36733000  1.0 0.1020094216
H  H38  1  0.30899000  0.98369000  0.34193000  1.0 0.0811013745
H  H39  1  0.37184000  0.13006000  0.41937000  1.0 0.0675970793
H  H40  1  0.42562000  0.12049000  0.46450000  1.0 0.1058177902
H  H41  1  0.47731000  0.07706000  0.44552000  1.0 0.1020094216
H  H42  1  0.39309000  0.02068000  0.38093000  1.0 0.1058177902
H  H43  1  0.46722000  0.01674000  0.36321000  1.0 0.1365294948
H  H44  1  0.48738000  0.00917000  0.41508000  1.0 0.1206060178
H  H45  1  0.33005000  0.97883000  0.04096000  1.0 0.0811013745
H  H46  1  0.31056000  0.04095000  0.01432000  1.0 0.1020094216
H  H47  1  0.28113000  0.08817000  0.06239000  1.0 0.0912124173
H  H48  1  0.28950000  0.07523000  0.13267000  1.0 0.1020094216
H  H49  1  0.30899000  0.01631000  0.15807000  1.0 0.0811013745
H  H50  1  0.37184000  0.86994000  0.08063000  1.0 0.0675970793
H  H51  1  0.42562000  0.87951000  0.03550000  1.0 0.1058177902
H  H52  1  0.47731000  0.92294000  0.05448000  1.0 0.1020094216
H  H53  1  0.39309000  0.97932000  0.11907000  1.0 0.1058177902
H  H54  1  0.46722000  0.98326000  0.13679000  1.0 0.1365294948
H  H55  1  0.48738000  0.99083000  0.08492000  1.0 0.1206060178
H  H56  1  0.83005000  0.47883000  0.54096000  1.0 0.0811013745
H  H57  1  0.81056000  0.54095000  0.51432000  1.0 0.1020094216
H  H58  1  0.78113000  0.58817000  0.56239000  1.0 0.0912124173
H  H59  1  0.78950000  0.57523000  0.63267000  1.0 0.1020094216
H  H60  1  0.80899000  0.51631000  0.65807000  1.0 0.0811013745
H  H61  1  0.87184000  0.36994000  0.58063000  1.0 0.0675970793
H  H62  1  0.92562000  0.37951000  0.53550000  1.0 0.1058177902
H  H63  1  0.97731000  0.42294000  0.55448000  1.0 0.1020094216
H  H64  1  0.89309000  0.47932000  0.61907000  1.0 0.1058177902
H  H65  1  0.96722000  0.48326000  0.63679000  1.0 0.1365294948
H  H66  1  0.98738000  0.49083000  0.58492000  1.0 0.1206060178
H  H67  1  0.16995000  0.02117000  0.54096000  1.0 0.0811013745
H  H68  1  0.18944000  0.95905000  0.51432000  1.0 0.1020094216
H  H69  1  0.21887000  0.91183000  0.56239000  1.0 0.0912124173
H  H70  1  0.21050000  0.92477000  0.63267000  1.0 0.1020094216
H  H71  1  0.19101000  0.98369000  0.65807000  1.0 0.0811013745
H  H72  1  0.12816000  0.13006000  0.58063000  1.0 0.0675970793
H  H73  1  0.07438000  0.12049000  0.53550000  1.0 0.1058177902
H  H74  1  0.02269000  0.07706000  0.55448000  1.0 0.1020094216
H  H75  1  0.10691000  0.02068000  0.61907000  1.0 0.1058177902
H  H76  1  0.03278000  0.01674000  0.63679000  1.0 0.1365294948
H  H77  1  0.01262000  0.00917000  0.58492000  1.0 0.1206060178
H  H78  1  0.66995000  0.52117000  0.04096000  1.0 0.0811013745
H  H79  1  0.68944000  0.45905000  0.01432000  1.0 0.1020094216
H  H80  1  0.71887000  0.41183000  0.06239000  1.0 0.0912124173
H  H81  1  0.71050000  0.42477000  0.13267000  1.0 0.1020094216
H  H82  1  0.69101000  0.48369000  0.15807000  1.0 0.0811013745
H  H83  1  0.62816000  0.63006000  0.08063000  1.0 0.0675970793
H  H84  1  0.57438000  0.62049000  0.03550000  1.0 0.1058177902
H  H85  1  0.52269000  0.57706000  0.05448000  1.0 0.1020094216
H  H86  1  0.60691000  0.52068000  0.11907000  1.0 0.1058177902
H  H87  1  0.53278000  0.51674000  0.13679000  1.0 0.1365294948
H  H88  1  0.51262000  0.50917000  0.08492000  1.0 0.1206060178
H  H89  1  0.45904000  0.66995000  0.47883000  1.0 0.0811013745
H  H90  1  0.48568000  0.68944000  0.54095000  1.0 0.1020094216
H  H91  1  0.43761000  0.71887000  0.58817000  1.0 0.0912124173
H  H92  1  0.36733000  0.71050000  0.57523000  1.0 0.1020094216
H  H93  1  0.34193000  0.69101000  0.51631000  1.0 0.0811013745
H  H94  1  0.41937000  0.62816000  0.36994000  1.0 0.0675970793
H  H95  1  0.46450000  0.57438000  0.37951000  1.0 0.1058177902
H  H96  1  0.44552000  0.52269000  0.42294000  1.0 0.1020094216
H  H97  1  0.38093000  0.60691000  0.47932000  1.0 0.1058177902
H  H98  1  0.36321000  0.53278000  0.48326000  1.0 0.1365294948
H  H99  1  0.41508000  0.51262000  0.49083000  1.0 0.1206060178
H  H100  1  0.95904000  0.16995000  0.97883000  1.0 0.0811013745
H  H101  1  0.98568000  0.18944000  0.04095000  1.0 0.1020094216
H  H102  1  0.93761000  0.21887000  0.08817000  1.0 0.0912124173
H  H103  1  0.86733000  0.21050000  0.07523000  1.0 0.1020094216
H  H104  1  0.84193000  0.19101000  0.01631000  1.0 0.0811013745
H  H105  1  0.91937000  0.12816000  0.86994000  1.0 0.0675970793
H  H106  1  0.96450000  0.07438000  0.87951000  1.0 0.1058177902
H  H107  1  0.94552000  0.02269000  0.92294000  1.0 0.1020094216
H  H108  1  0.88093000  0.10691000  0.97932000  1.0 0.1058177902
H  H109  1  0.86321000  0.03278000  0.98326000  1.0 0.1365294948
H  H110  1  0.91508000  0.01262000  0.99083000  1.0 0.1206060178
H  H111  1  0.95904000  0.83005000  0.52117000  1.0 0.0811013745
H  H112  1  0.98568000  0.81056000  0.45905000  1.0 0.1020094216
H  H113  1  0.93761000  0.78113000  0.41183000  1.0 0.0912124173
H  H114  1  0.86733000  0.78950000  0.42477000  1.0 0.1020094216
H  H115  1  0.84193000  0.80899000  0.48369000  1.0 0.0811013745
H  H116  1  0.91937000  0.87184000  0.63006000  1.0 0.0675970793
H  H117  1  0.96450000  0.92562000  0.62049000  1.0 0.1058177902
H  H118  1  0.94552000  0.97731000  0.57706000  1.0 0.1020094216
H  H119  1  0.88093000  0.89309000  0.52068000  1.0 0.1058177902
H  H120  1  0.86321000  0.96722000  0.51674000  1.0 0.1365294948
H  H121  1  0.91508000  0.98738000  0.50917000  1.0 0.1206060178
H  H122  1  0.45904000  0.33005000  0.02117000  1.0 0.0811013745
H  H123  1  0.48568000  0.31056000  0.95905000  1.0 0.1020094216
H  H124  1  0.43761000  0.28113000  0.91183000  1.0 0.0912124173
H  H125  1  0.36733000  0.28950000  0.92477000  1.0 0.1020094216
H  H126  1  0.34193000  0.30899000  0.98369000  1.0 0.0811013745
H  H127  1  0.41937000  0.37184000  0.13006000  1.0 0.0675970793
H  H128  1  0.46450000  0.42562000  0.12049000  1.0 0.1058177902
H  H129  1  0.44552000  0.47731000  0.07706000  1.0 0.1020094216
H  H130  1  0.38093000  0.39309000  0.02068000  1.0 0.1058177902
H  H131  1  0.36321000  0.46722000  0.01674000  1.0 0.1365294948
H  H132  1  0.41508000  0.48738000  0.00917000  1.0 0.1206060178
H  H133  1  0.04096000  0.33005000  0.97883000  1.0 0.0811013745
H  H134  1  0.01432000  0.31056000  0.04095000  1.0 0.1020094216
H  H135  1  0.06239000  0.28113000  0.08817000  1.0 0.0912124173
H  H136  1  0.13267000  0.28950000  0.07523000  1.0 0.1020094216
H  H137  1  0.15807000  0.30899000  0.01631000  1.0 0.0811013745
H  H138  1  0.08063000  0.37184000  0.86994000  1.0 0.0675970793
H  H139  1  0.03550000  0.42562000  0.87951000  1.0 0.1058177902
H  H140  1  0.05448000  0.47731000  0.92294000  1.0 0.1020094216
H  H141  1  0.11907000  0.39309000  0.97932000  1.0 0.1058177902
H  H142  1  0.13679000  0.46722000  0.98326000  1.0 0.1365294948
H  H143  1  0.08492000  0.48738000  0.99083000  1.0 0.1206060178
H  H144  1  0.54096000  0.83005000  0.47883000  1.0 0.0811013745
H  H145  1  0.51432000  0.81056000  0.54095000  1.0 0.1020094216
H  H146  1  0.56239000  0.78113000  0.58817000  1.0 0.0912124173
H  H147  1  0.63267000  0.78950000  0.57523000  1.0 0.1020094216
H  H148  1  0.65807000  0.80899000  0.51631000  1.0 0.0811013745
H  H149  1  0.58063000  0.87184000  0.36994000  1.0 0.0675970793
H  H150  1  0.53550000  0.92562000  0.37951000  1.0 0.1058177902
H  H151  1  0.55448000  0.97731000  0.42294000  1.0 0.1020094216
H  H152  1  0.61907000  0.89309000  0.47932000  1.0 0.1058177902
H  H153  1  0.63679000  0.96722000  0.48326000  1.0 0.1365294948
H  H154  1  0.58492000  0.98738000  0.49083000  1.0 0.1206060178
H  H155  1  0.54096000  0.16995000  0.02117000  1.0 0.0811013745
H  H156  1  0.51432000  0.18944000  0.95905000  1.0 0.1020094216
H  H157  1  0.56239000  0.21887000  0.91183000  1.0 0.0912124173
H  H158  1  0.63267000  0.21050000  0.92477000  1.0 0.1020094216
H  H159  1  0.65807000  0.19101000  0.98369000  1.0 0.0811013745
H  H160  1  0.58063000  0.12816000  0.13006000  1.0 0.0675970793
H  H161  1  0.53550000  0.07438000  0.12049000  1.0 0.1058177902
H  H162  1  0.55448000  0.02269000  0.07706000  1.0 0.1020094216
H  H163  1  0.61907000  0.10691000  0.02068000  1.0 0.1058177902
H  H164  1  0.63679000  0.03278000  0.01674000  1.0 0.1365294948
H  H165  1  0.58492000  0.01262000  0.00917000  1.0 0.1206060178
H  H166  1  0.04096000  0.66995000  0.52117000  1.0 0.0811013745
H  H167  1  0.01432000  0.68944000  0.45905000  1.0 0.1020094216
H  H168  1  0.06239000  0.71887000  0.41183000  1.0 0.0912124173
H  H169  1  0.13267000  0.71050000  0.42477000  1.0 0.1020094216
H  H170  1  0.15807000  0.69101000  0.48369000  1.0 0.0811013745
H  H171  1  0.08063000  0.62816000  0.63006000  1.0 0.0675970793
H  H172  1  0.03550000  0.57438000  0.62049000  1.0 0.1058177902
H  H173  1  0.05448000  0.52269000  0.57706000  1.0 0.1020094216
H  H174  1  0.11907000  0.60691000  0.52068000  1.0 0.1058177902
H  H175  1  0.13679000  0.53278000  0.51674000  1.0 0.1365294948
H  H176  1  0.08492000  0.51262000  0.50917000  1.0 0.1206060178
H  H177  1  0.47883000  0.45904000  0.66995000  1.0 0.0811013745
H  H178  1  0.54095000  0.48568000  0.68944000  1.0 0.1020094216
H  H179  1  0.58817000  0.43761000  0.71887000  1.0 0.0912124173
H  H180  1  0.57523000  0.36733000  0.71050000  1.0 0.1020094216
H  H181  1  0.51631000  0.34193000  0.69101000  1.0 0.0811013745
H  H182  1  0.36994000  0.41937000  0.62816000  1.0 0.0675970793
H  H183  1  0.37951000  0.46450000  0.57438000  1.0 0.1058177902
H  H184  1  0.42294000  0.44552000  0.52269000  1.0 0.1020094216
H  H185  1  0.47932000  0.38093000  0.60691000  1.0 0.1058177902
H  H186  1  0.48326000  0.36321000  0.53278000  1.0 0.1365294948
H  H187  1  0.49083000  0.41508000  0.51262000  1.0 0.1206060178
H  H188  1  0.97883000  0.95904000  0.16995000  1.0 0.0811013745
H  H189  1  0.04095000  0.98568000  0.18944000  1.0 0.1020094216
H  H190  1  0.08817000  0.93761000  0.21887000  1.0 0.0912124173
H  H191  1  0.07523000  0.86733000  0.21050000  1.0 0.1020094216
H  H192  1  0.01631000  0.84193000  0.19101000  1.0 0.0811013745
H  H193  1  0.86994000  0.91937000  0.12816000  1.0 0.0675970793
H  H194  1  0.87951000  0.96450000  0.07438000  1.0 0.1058177902
H  H195  1  0.92294000  0.94552000  0.02269000  1.0 0.1020094216
H  H196  1  0.97932000  0.88093000  0.10691000  1.0 0.1058177902
H  H197  1  0.98326000  0.86321000  0.03278000  1.0 0.1365294948
H  H198  1  0.99083000  0.91508000  0.01262000  1.0 0.1206060178
H  H199  1  0.52117000  0.95904000  0.83005000  1.0 0.0811013745
H  H200  1  0.45905000  0.98568000  0.81056000  1.0 0.1020094216
H  H201  1  0.41183000  0.93761000  0.78113000  1.0 0.0912124173
H  H202  1  0.42477000  0.86733000  0.78950000  1.0 0.1020094216
H  H203  1  0.48369000  0.84193000  0.80899000  1.0 0.0811013745
H  H204  1  0.63006000  0.91937000  0.87184000  1.0 0.0675970793
H  H205  1  0.62049000  0.96450000  0.92562000  1.0 0.1058177902
H  H206  1  0.57706000  0.94552000  0.97731000  1.0 0.1020094216
H  H207  1  0.52068000  0.88093000  0.89309000  1.0 0.1058177902
H  H208  1  0.51674000  0.86321000  0.96722000  1.0 0.1365294948
H  H209  1  0.50917000  0.91508000  0.98738000  1.0 0.1206060178
H  H210  1  0.02117000  0.45904000  0.33005000  1.0 0.0811013745
H  H211  1  0.95905000  0.48568000  0.31056000  1.0 0.1020094216
H  H212  1  0.91183000  0.43761000  0.28113000  1.0 0.0912124173
H  H213  1  0.92477000  0.36733000  0.28950000  1.0 0.1020094216
H  H214  1  0.98369000  0.34193000  0.30899000  1.0 0.0811013745
H  H215  1  0.13006000  0.41937000  0.37184000  1.0 0.0675970793
H  H216  1  0.12049000  0.46450000  0.42562000  1.0 0.1058177902
H  H217  1  0.07706000  0.44552000  0.47731000  1.0 0.1020094216
H  H218  1  0.02068000  0.38093000  0.39309000  1.0 0.1058177902
H  H219  1  0.01674000  0.36321000  0.46722000  1.0 0.1365294948
H  H220  1  0.00917000  0.41508000  0.48738000  1.0 0.1206060178
H  H221  1  0.97883000  0.04096000  0.33005000  1.0 0.0811013745
H  H222  1  0.04095000  0.01432000  0.31056000  1.0 0.1020094216
H  H223  1  0.08817000  0.06239000  0.28113000  1.0 0.0912124173
H  H224  1  0.07523000  0.13267000  0.28950000  1.0 0.1020094216
H  H225  1  0.01631000  0.15807000  0.30899000  1.0 0.0811013745
H  H226  1  0.86994000  0.08063000  0.37184000  1.0 0.0675970793
H  H227  1  0.87951000  0.03550000  0.42562000  1.0 0.1058177902
H  H228  1  0.92294000  0.05448000  0.47731000  1.0 0.1020094216
H  H229  1  0.97932000  0.11907000  0.39309000  1.0 0.1058177902
H  H230  1  0.98326000  0.13679000  0.46722000  1.0 0.1365294948
H  H231  1  0.99083000  0.08492000  0.48738000  1.0 0.1206060178
H  H232  1  0.47883000  0.54096000  0.83005000  1.0 0.0811013745
H  H233  1  0.54095000  0.51432000  0.81056000  1.0 0.1020094216
H  H234  1  0.58817000  0.56239000  0.78113000  1.0 0.0912124173
H  H235  1  0.57523000  0.63267000  0.78950000  1.0 0.1020094216
H  H236  1  0.51631000  0.65807000  0.80899000  1.0 0.0811013745
H  H237  1  0.36994000  0.58063000  0.87184000  1.0 0.0675970793
H  H238  1  0.37951000  0.53550000  0.92562000  1.0 0.1058177902
H  H239  1  0.42294000  0.55448000  0.97731000  1.0 0.1020094216
H  H240  1  0.47932000  0.61907000  0.89309000  1.0 0.1058177902
H  H241  1  0.48326000  0.63679000  0.96722000  1.0 0.1365294948
H  H242  1  0.49083000  0.58492000  0.98738000  1.0 0.1206060178
H  H243  1  0.02117000  0.54096000  0.16995000  1.0 0.0811013745
H  H244  1  0.95905000  0.51432000  0.18944000  1.0 0.1020094216
H  H245  1  0.91183000  0.56239000  0.21887000  1.0 0.0912124173
H  H246  1  0.92477000  0.63267000  0.21050000  1.0 0.1020094216
H  H247  1  0.98369000  0.65807000  0.19101000  1.0 0.0811013745
H  H248  1  0.13006000  0.58063000  0.12816000  1.0 0.0675970793
H  H249  1  0.12049000  0.53550000  0.07438000  1.0 0.1058177902
H  H250  1  0.07706000  0.55448000  0.02269000  1.0 0.1020094216
H  H251  1  0.02068000  0.61907000  0.10691000  1.0 0.1058177902
H  H252  1  0.01674000  0.63679000  0.03278000  1.0 0.1365294948
H  H253  1  0.00917000  0.58492000  0.01262000  1.0 0.1206060178
H  H254  1  0.52117000  0.04096000  0.66995000  1.0 0.0811013745
H  H255  1  0.45905000  0.01432000  0.68944000  1.0 0.1020094216
H  H256  1  0.41183000  0.06239000  0.71887000  1.0 0.0912124173
H  H257  1  0.42477000  0.13267000  0.71050000  1.0 0.1020094216
H  H258  1  0.48369000  0.15807000  0.69101000  1.0 0.0811013745
H  H259  1  0.63006000  0.08063000  0.62816000  1.0 0.0675970793
H  H260  1  0.62049000  0.03550000  0.57438000  1.0 0.1058177902
H  H261  1  0.57706000  0.05448000  0.52269000  1.0 0.1020094216
H  H262  1  0.52068000  0.11907000  0.60691000  1.0 0.1058177902
H  H263  1  0.51674000  0.13679000  0.53278000  1.0 0.1365294948
H  H264  1  0.50917000  0.08492000  0.51262000  1.0 0.1206060178
H  H265  1  0.22883000  0.91995000  0.79096000  1.0 0.0811013745
H  H266  1  0.29095000  0.93944000  0.76432000  1.0 0.1020094216
H  H267  1  0.33817000  0.96887000  0.81239000  1.0 0.0912124173
H  H268  1  0.32523000  0.96050000  0.88267000  1.0 0.1020094216
H  H269  1  0.26631000  0.94101000  0.90807000  1.0 0.0811013745
H  H270  1  0.11994000  0.87816000  0.83063000  1.0 0.0675970793
H  H271  1  0.12951000  0.82438000  0.78550000  1.0 0.1058177902
H  H272  1  0.17294000  0.77269000  0.80448000  1.0 0.1020094216
H  H273  1  0.22932000  0.85691000  0.86907000  1.0 0.1058177902
H  H274  1  0.23326000  0.78278000  0.88679000  1.0 0.1365294948
H  H275  1  0.24083000  0.76262000  0.83492000  1.0 0.1206060178
H  H276  1  0.72883000  0.41995000  0.29096000  1.0 0.0811013745
H  H277  1  0.79095000  0.43944000  0.26432000  1.0 0.1020094216
H  H278  1  0.83817000  0.46887000  0.31239000  1.0 0.0912124173
H  H279  1  0.82523000  0.46050000  0.38267000  1.0 0.1020094216
H  H280  1  0.76631000  0.44101000  0.40807000  1.0 0.0811013745
H  H281  1  0.61994000  0.37816000  0.33063000  1.0 0.0675970793
H  H282  1  0.62951000  0.32438000  0.28550000  1.0 0.1058177902
H  H283  1  0.67294000  0.27269000  0.30448000  1.0 0.1020094216
H  H284  1  0.72932000  0.35691000  0.36907000  1.0 0.1058177902
H  H285  1  0.73326000  0.28278000  0.38679000  1.0 0.1365294948
H  H286  1  0.74083000  0.26262000  0.33492000  1.0 0.1206060178
H  H287  1  0.27117000  0.08005000  0.29096000  1.0 0.0811013745
H  H288  1  0.20905000  0.06056000  0.26432000  1.0 0.1020094216
H  H289  1  0.16183000  0.03113000  0.31239000  1.0 0.0912124173
H  H290  1  0.17477000  0.03950000  0.38267000  1.0 0.1020094216
H  H291  1  0.23369000  0.05899000  0.40807000  1.0 0.0811013745
H  H292  1  0.38006000  0.12184000  0.33063000  1.0 0.0675970793
H  H293  1  0.37049000  0.17562000  0.28550000  1.0 0.1058177902
H  H294  1  0.32706000  0.22731000  0.30448000  1.0 0.1020094216
H  H295  1  0.27068000  0.14309000  0.36907000  1.0 0.1058177902
H  H296  1  0.26674000  0.21722000  0.38679000  1.0 0.1365294948
H  H297  1  0.25917000  0.23738000  0.33492000  1.0 0.1206060178
H  H298  1  0.77117000  0.58005000  0.79096000  1.0 0.0811013745
H  H299  1  0.70905000  0.56056000  0.76432000  1.0 0.1020094216
H  H300  1  0.66183000  0.53113000  0.81239000  1.0 0.0912124173
H  H301  1  0.67477000  0.53950000  0.88267000  1.0 0.1020094216
H  H302  1  0.73369000  0.55899000  0.90807000  1.0 0.0811013745
H  H303  1  0.88006000  0.62184000  0.83063000  1.0 0.0675970793
H  H304  1  0.87049000  0.67562000  0.78550000  1.0 0.1058177902
H  H305  1  0.82706000  0.72731000  0.80448000  1.0 0.1020094216
H  H306  1  0.77068000  0.64309000  0.86907000  1.0 0.1058177902
H  H307  1  0.76674000  0.71722000  0.88679000  1.0 0.1365294948
H  H308  1  0.75917000  0.73738000  0.83492000  1.0 0.1206060178
H  H309  1  0.72883000  0.58005000  0.20904000  1.0 0.0811013745
H  H310  1  0.79095000  0.56056000  0.23568000  1.0 0.1020094216
H  H311  1  0.83817000  0.53113000  0.18761000  1.0 0.0912124173
H  H312  1  0.82523000  0.53950000  0.11733000  1.0 0.1020094216
H  H313  1  0.76631000  0.55899000  0.09193000  1.0 0.0811013745
H  H314  1  0.61994000  0.62184000  0.16937000  1.0 0.0675970793
H  H315  1  0.62951000  0.67562000  0.21450000  1.0 0.1058177902
H  H316  1  0.67294000  0.72731000  0.19552000  1.0 0.1020094216
H  H317  1  0.72932000  0.64309000  0.13093000  1.0 0.1058177902
H  H318  1  0.73326000  0.71722000  0.11321000  1.0 0.1365294948
H  H319  1  0.74083000  0.73738000  0.16508000  1.0 0.1206060178
H  H320  1  0.22883000  0.08005000  0.70904000  1.0 0.0811013745
H  H321  1  0.29095000  0.06056000  0.73568000  1.0 0.1020094216
H  H322  1  0.33817000  0.03113000  0.68761000  1.0 0.0912124173
H  H323  1  0.32523000  0.03950000  0.61733000  1.0 0.1020094216
H  H324  1  0.26631000  0.05899000  0.59193000  1.0 0.0811013745
H  H325  1  0.11994000  0.12184000  0.66937000  1.0 0.0675970793
H  H326  1  0.12951000  0.17562000  0.71450000  1.0 0.1058177902
H  H327  1  0.17294000  0.22731000  0.69552000  1.0 0.1020094216
H  H328  1  0.22932000  0.14309000  0.63093000  1.0 0.1058177902
H  H329  1  0.23326000  0.21722000  0.61321000  1.0 0.1365294948
H  H330  1  0.24083000  0.23738000  0.66508000  1.0 0.1206060178
H  H331  1  0.77117000  0.41995000  0.70904000  1.0 0.0811013745
H  H332  1  0.70905000  0.43944000  0.73568000  1.0 0.1020094216
H  H333  1  0.66183000  0.46887000  0.68761000  1.0 0.0912124173
H  H334  1  0.67477000  0.46050000  0.61733000  1.0 0.1020094216
H  H335  1  0.73369000  0.44101000  0.59193000  1.0 0.0811013745
H  H336  1  0.88006000  0.37816000  0.66937000  1.0 0.0675970793
H  H337  1  0.87049000  0.32438000  0.71450000  1.0 0.1058177902
H  H338  1  0.82706000  0.27269000  0.69552000  1.0 0.1020094216
H  H339  1  0.77068000  0.35691000  0.63093000  1.0 0.1058177902
H  H340  1  0.76674000  0.28278000  0.61321000  1.0 0.1365294948
H  H341  1  0.75917000  0.26262000  0.66508000  1.0 0.1206060178
H  H342  1  0.27117000  0.91995000  0.20904000  1.0 0.0811013745
H  H343  1  0.20905000  0.93944000  0.23568000  1.0 0.1020094216
H  H344  1  0.16183000  0.96887000  0.18761000  1.0 0.0912124173
H  H345  1  0.17477000  0.96050000  0.11733000  1.0 0.1020094216
H  H346  1  0.23369000  0.94101000  0.09193000  1.0 0.0811013745
H  H347  1  0.38006000  0.87816000  0.16937000  1.0 0.0675970793
H  H348  1  0.37049000  0.82438000  0.21450000  1.0 0.1058177902
H  H349  1  0.32706000  0.77269000  0.19552000  1.0 0.1020094216
H  H350  1  0.27068000  0.85691000  0.13093000  1.0 0.1058177902
H  H351  1  0.26674000  0.78278000  0.11321000  1.0 0.1365294948
H  H352  1  0.25917000  0.76262000  0.16508000  1.0 0.1206060178
H  H353  1  0.41995000  0.70904000  0.77117000  1.0 0.0811013745
H  H354  1  0.43944000  0.73568000  0.70905000  1.0 0.1020094216
H  H355  1  0.46887000  0.68761000  0.66183000  1.0 0.0912124173
H  H356  1  0.46050000  0.61733000  0.67477000  1.0 0.1020094216
H  H357  1  0.44101000  0.59193000  0.73369000  1.0 0.0811013745
H  H358  1  0.37816000  0.66937000  0.88006000  1.0 0.0675970793
H  H359  1  0.32438000  0.71450000  0.87049000  1.0 0.1058177902
H  H360  1  0.27269000  0.69552000  0.82706000  1.0 0.1020094216
H  H361  1  0.35691000  0.63093000  0.77068000  1.0 0.1058177902
H  H362  1  0.28278000  0.61321000  0.76674000  1.0 0.1365294948
H  H363  1  0.26262000  0.66508000  0.75917000  1.0 0.1206060178
H  H364  1  0.91995000  0.20904000  0.27117000  1.0 0.0811013745
H  H365  1  0.93944000  0.23568000  0.20905000  1.0 0.1020094216
H  H366  1  0.96887000  0.18761000  0.16183000  1.0 0.0912124173
H  H367  1  0.96050000  0.11733000  0.17477000  1.0 0.1020094216
H  H368  1  0.94101000  0.09193000  0.23369000  1.0 0.0811013745
H  H369  1  0.87816000  0.16937000  0.38006000  1.0 0.0675970793
H  H370  1  0.82438000  0.21450000  0.37049000  1.0 0.1058177902
H  H371  1  0.77269000  0.19552000  0.32706000  1.0 0.1020094216
H  H372  1  0.85691000  0.13093000  0.27068000  1.0 0.1058177902
H  H373  1  0.78278000  0.11321000  0.26674000  1.0 0.1365294948
H  H374  1  0.76262000  0.16508000  0.25917000  1.0 0.1206060178
H  H375  1  0.58005000  0.20904000  0.72883000  1.0 0.0811013745
H  H376  1  0.56056000  0.23568000  0.79095000  1.0 0.1020094216
H  H377  1  0.53113000  0.18761000  0.83817000  1.0 0.0912124173
H  H378  1  0.53950000  0.11733000  0.82523000  1.0 0.1020094216
H  H379  1  0.55899000  0.09193000  0.76631000  1.0 0.0811013745
H  H380  1  0.62184000  0.16937000  0.61994000  1.0 0.0675970793
H  H381  1  0.67562000  0.21450000  0.62951000  1.0 0.1058177902
H  H382  1  0.72731000  0.19552000  0.67294000  1.0 0.1020094216
H  H383  1  0.64309000  0.13093000  0.72932000  1.0 0.1058177902
H  H384  1  0.71722000  0.11321000  0.73326000  1.0 0.1365294948
H  H385  1  0.73738000  0.16508000  0.74083000  1.0 0.1206060178
H  H386  1  0.08005000  0.70904000  0.22883000  1.0 0.0811013745
H  H387  1  0.06056000  0.73568000  0.29095000  1.0 0.1020094216
H  H388  1  0.03113000  0.68761000  0.33817000  1.0 0.0912124173
H  H389  1  0.03950000  0.61733000  0.32523000  1.0 0.1020094216
H  H390  1  0.05899000  0.59193000  0.26631000  1.0 0.0811013745
H  H391  1  0.12184000  0.66937000  0.11994000  1.0 0.0675970793
H  H392  1  0.17562000  0.71450000  0.12951000  1.0 0.1058177902
H  H393  1  0.22731000  0.69552000  0.17294000  1.0 0.1020094216
H  H394  1  0.14309000  0.63093000  0.22932000  1.0 0.1058177902
H  H395  1  0.21722000  0.61321000  0.23326000  1.0 0.1365294948
H  H396  1  0.23738000  0.66508000  0.24083000  1.0 0.1206060178
H  H397  1  0.08005000  0.29096000  0.27117000  1.0 0.0811013745
H  H398  1  0.06056000  0.26432000  0.20905000  1.0 0.1020094216
H  H399  1  0.03113000  0.31239000  0.16183000  1.0 0.0912124173
H  H400  1  0.03950000  0.38267000  0.17477000  1.0 0.1020094216
H  H401  1  0.05899000  0.40807000  0.23369000  1.0 0.0811013745
H  H402  1  0.12184000  0.33063000  0.38006000  1.0 0.0675970793
H  H403  1  0.17562000  0.28550000  0.37049000  1.0 0.1058177902
H  H404  1  0.22731000  0.30448000  0.32706000  1.0 0.1020094216
H  H405  1  0.14309000  0.36907000  0.27068000  1.0 0.1058177902
H  H406  1  0.21722000  0.38679000  0.26674000  1.0 0.1365294948
H  H407  1  0.23738000  0.33492000  0.25917000  1.0 0.1206060178
H  H408  1  0.58005000  0.79096000  0.77117000  1.0 0.0811013745
H  H409  1  0.56056000  0.76432000  0.70905000  1.0 0.1020094216
H  H410  1  0.53113000  0.81239000  0.66183000  1.0 0.0912124173
H  H411  1  0.53950000  0.88267000  0.67477000  1.0 0.1020094216
H  H412  1  0.55899000  0.90807000  0.73369000  1.0 0.0811013745
H  H413  1  0.62184000  0.83063000  0.88006000  1.0 0.0675970793
H  H414  1  0.67562000  0.78550000  0.87049000  1.0 0.1058177902
H  H415  1  0.72731000  0.80448000  0.82706000  1.0 0.1020094216
H  H416  1  0.64309000  0.86907000  0.77068000  1.0 0.1058177902
H  H417  1  0.71722000  0.88679000  0.76674000  1.0 0.1365294948
H  H418  1  0.73738000  0.83492000  0.75917000  1.0 0.1206060178
H  H419  1  0.91995000  0.79096000  0.22883000  1.0 0.0811013745
H  H420  1  0.93944000  0.76432000  0.29095000  1.0 0.1020094216
H  H421  1  0.96887000  0.81239000  0.33817000  1.0 0.0912124173
H  H422  1  0.96050000  0.88267000  0.32523000  1.0 0.1020094216
H  H423  1  0.94101000  0.90807000  0.26631000  1.0 0.0811013745
H  H424  1  0.87816000  0.83063000  0.11994000  1.0 0.0675970793
H  H425  1  0.82438000  0.78550000  0.12951000  1.0 0.1058177902
H  H426  1  0.77269000  0.80448000  0.17294000  1.0 0.1020094216
H  H427  1  0.85691000  0.86907000  0.22932000  1.0 0.1058177902
H  H428  1  0.78278000  0.88679000  0.23326000  1.0 0.1365294948
H  H429  1  0.76262000  0.83492000  0.24083000  1.0 0.1206060178
H  H430  1  0.41995000  0.29096000  0.72883000  1.0 0.0811013745
H  H431  1  0.43944000  0.26432000  0.79095000  1.0 0.1020094216
H  H432  1  0.46887000  0.31239000  0.83817000  1.0 0.0912124173
H  H433  1  0.46050000  0.38267000  0.82523000  1.0 0.1020094216
H  H434  1  0.44101000  0.40807000  0.76631000  1.0 0.0811013745
H  H435  1  0.37816000  0.33063000  0.61994000  1.0 0.0675970793
H  H436  1  0.32438000  0.28550000  0.62951000  1.0 0.1058177902
H  H437  1  0.27269000  0.30448000  0.67294000  1.0 0.1020094216
H  H438  1  0.35691000  0.36907000  0.72932000  1.0 0.1058177902
H  H439  1  0.28278000  0.38679000  0.73326000  1.0 0.1365294948
H  H440  1  0.26262000  0.33492000  0.74083000  1.0 0.1206060178
H  H441  1  0.20904000  0.72883000  0.58005000  1.0 0.0811013745
H  H442  1  0.23568000  0.79095000  0.56056000  1.0 0.1020094216
H  H443  1  0.18761000  0.83817000  0.53113000  1.0 0.0912124173
H  H444  1  0.11733000  0.82523000  0.53950000  1.0 0.1020094216
H  H445  1  0.09193000  0.76631000  0.55899000  1.0 0.0811013745
H  H446  1  0.16937000  0.61994000  0.62184000  1.0 0.0675970793
H  H447  1  0.21450000  0.62951000  0.67562000  1.0 0.1058177902
H  H448  1  0.19552000  0.67294000  0.72731000  1.0 0.1020094216
H  H449  1  0.13093000  0.72932000  0.64309000  1.0 0.1058177902
H  H450  1  0.11321000  0.73326000  0.71722000  1.0 0.1365294948
H  H451  1  0.16508000  0.74083000  0.73738000  1.0 0.1206060178
H  H452  1  0.70904000  0.22883000  0.08005000  1.0 0.0811013745
H  H453  1  0.73568000  0.29095000  0.06056000  1.0 0.1020094216
H  H454  1  0.68761000  0.33817000  0.03113000  1.0 0.0912124173
H  H455  1  0.61733000  0.32523000  0.03950000  1.0 0.1020094216
H  H456  1  0.59193000  0.26631000  0.05899000  1.0 0.0811013745
H  H457  1  0.66937000  0.11994000  0.12184000  1.0 0.0675970793
H  H458  1  0.71450000  0.12951000  0.17562000  1.0 0.1058177902
H  H459  1  0.69552000  0.17294000  0.22731000  1.0 0.1020094216
H  H460  1  0.63093000  0.22932000  0.14309000  1.0 0.1058177902
H  H461  1  0.61321000  0.23326000  0.21722000  1.0 0.1365294948
H  H462  1  0.66508000  0.24083000  0.23738000  1.0 0.1206060178
H  H463  1  0.70904000  0.77117000  0.41995000  1.0 0.0811013745
H  H464  1  0.73568000  0.70905000  0.43944000  1.0 0.1020094216
H  H465  1  0.68761000  0.66183000  0.46887000  1.0 0.0912124173
H  H466  1  0.61733000  0.67477000  0.46050000  1.0 0.1020094216
H  H467  1  0.59193000  0.73369000  0.44101000  1.0 0.0811013745
H  H468  1  0.66937000  0.88006000  0.37816000  1.0 0.0675970793
H  H469  1  0.71450000  0.87049000  0.32438000  1.0 0.1058177902
H  H470  1  0.69552000  0.82706000  0.27269000  1.0 0.1020094216
H  H471  1  0.63093000  0.77068000  0.35691000  1.0 0.1058177902
H  H472  1  0.61321000  0.76674000  0.28278000  1.0 0.1365294948
H  H473  1  0.66508000  0.75917000  0.26262000  1.0 0.1206060178
H  H474  1  0.20904000  0.27117000  0.91995000  1.0 0.0811013745
H  H475  1  0.23568000  0.20905000  0.93944000  1.0 0.1020094216
H  H476  1  0.18761000  0.16183000  0.96887000  1.0 0.0912124173
H  H477  1  0.11733000  0.17477000  0.96050000  1.0 0.1020094216
H  H478  1  0.09193000  0.23369000  0.94101000  1.0 0.0811013745
H  H479  1  0.16937000  0.38006000  0.87816000  1.0 0.0675970793
H  H480  1  0.21450000  0.37049000  0.82438000  1.0 0.1058177902
H  H481  1  0.19552000  0.32706000  0.77269000  1.0 0.1020094216
H  H482  1  0.13093000  0.27068000  0.85691000  1.0 0.1058177902
H  H483  1  0.11321000  0.26674000  0.78278000  1.0 0.1365294948
H  H484  1  0.16508000  0.25917000  0.76262000  1.0 0.1206060178
H  H485  1  0.79096000  0.22883000  0.91995000  1.0 0.0811013745
H  H486  1  0.76432000  0.29095000  0.93944000  1.0 0.1020094216
H  H487  1  0.81239000  0.33817000  0.96887000  1.0 0.0912124173
H  H488  1  0.88267000  0.32523000  0.96050000  1.0 0.1020094216
H  H489  1  0.90807000  0.26631000  0.94101000  1.0 0.0811013745
H  H490  1  0.83063000  0.11994000  0.87816000  1.0 0.0675970793
H  H491  1  0.78550000  0.12951000  0.82438000  1.0 0.1058177902
H  H492  1  0.80448000  0.17294000  0.77269000  1.0 0.1020094216
H  H493  1  0.86907000  0.22932000  0.85691000  1.0 0.1058177902
H  H494  1  0.88679000  0.23326000  0.78278000  1.0 0.1365294948
H  H495  1  0.83492000  0.24083000  0.76262000  1.0 0.1206060178
H  H496  1  0.29096000  0.72883000  0.41995000  1.0 0.0811013745
H  H497  1  0.26432000  0.79095000  0.43944000  1.0 0.1020094216
H  H498  1  0.31239000  0.83817000  0.46887000  1.0 0.0912124173
H  H499  1  0.38267000  0.82523000  0.46050000  1.0 0.1020094216
H  H500  1  0.40807000  0.76631000  0.44101000  1.0 0.0811013745
H  H501  1  0.33063000  0.61994000  0.37816000  1.0 0.0675970793
H  H502  1  0.28550000  0.62951000  0.32438000  1.0 0.1058177902
H  H503  1  0.30448000  0.67294000  0.27269000  1.0 0.1020094216
H  H504  1  0.36907000  0.72932000  0.35691000  1.0 0.1058177902
H  H505  1  0.38679000  0.73326000  0.28278000  1.0 0.1365294948
H  H506  1  0.33492000  0.74083000  0.26262000  1.0 0.1206060178
H  H507  1  0.29096000  0.27117000  0.08005000  1.0 0.0811013745
H  H508  1  0.26432000  0.20905000  0.06056000  1.0 0.1020094216
H  H509  1  0.31239000  0.16183000  0.03113000  1.0 0.0912124173
H  H510  1  0.38267000  0.17477000  0.03950000  1.0 0.1020094216
H  H511  1  0.40807000  0.23369000  0.05899000  1.0 0.0811013745
H  H512  1  0.33063000  0.38006000  0.12184000  1.0 0.0675970793
H  H513  1  0.28550000  0.37049000  0.17562000  1.0 0.1058177902
H  H514  1  0.30448000  0.32706000  0.22731000  1.0 0.1020094216
H  H515  1  0.36907000  0.27068000  0.14309000  1.0 0.1058177902
H  H516  1  0.38679000  0.26674000  0.21722000  1.0 0.1365294948
H  H517  1  0.33492000  0.25917000  0.23738000  1.0 0.1206060178
H  H518  1  0.79096000  0.77117000  0.58005000  1.0 0.0811013745
H  H519  1  0.76432000  0.70905000  0.56056000  1.0 0.1020094216
H  H520  1  0.81239000  0.66183000  0.53113000  1.0 0.0912124173
H  H521  1  0.88267000  0.67477000  0.53950000  1.0 0.1020094216
H  H522  1  0.90807000  0.73369000  0.55899000  1.0 0.0811013745
H  H523  1  0.83063000  0.88006000  0.62184000  1.0 0.0675970793
H  H524  1  0.78550000  0.87049000  0.67562000  1.0 0.1058177902
H  H525  1  0.80448000  0.82706000  0.72731000  1.0 0.1020094216
H  H526  1  0.86907000  0.77068000  0.64309000  1.0 0.1058177902
H  H527  1  0.88679000  0.76674000  0.71722000  1.0 0.1365294948
H  H528  1  0.83492000  0.75917000  0.73738000  1.0 0.1206060178
H  H529  1  0.33005000  0.52117000  0.54096000  1.0 0.0811013745
H  H530  1  0.31056000  0.45905000  0.51432000  1.0 0.1020094216
H  H531  1  0.28113000  0.41183000  0.56239000  1.0 0.0912124173
H  H532  1  0.28950000  0.42477000  0.63267000  1.0 0.1020094216
H  H533  1  0.30899000  0.48369000  0.65807000  1.0 0.0811013745
H  H534  1  0.37184000  0.63006000  0.58063000  1.0 0.0675970793
H  H535  1  0.42562000  0.62049000  0.53550000  1.0 0.1058177902
H  H536  1  0.47731000  0.57706000  0.55448000  1.0 0.1020094216
H  H537  1  0.39309000  0.52068000  0.61907000  1.0 0.1058177902
H  H538  1  0.46722000  0.51674000  0.63679000  1.0 0.1365294948
H  H539  1  0.48738000  0.50917000  0.58492000  1.0 0.1206060178
H  H540  1  0.83005000  0.02117000  0.04096000  1.0 0.0811013745
H  H541  1  0.81056000  0.95905000  0.01432000  1.0 0.1020094216
H  H542  1  0.78113000  0.91183000  0.06239000  1.0 0.0912124173
H  H543  1  0.78950000  0.92477000  0.13267000  1.0 0.1020094216
H  H544  1  0.80899000  0.98369000  0.15807000  1.0 0.0811013745
H  H545  1  0.87184000  0.13006000  0.08063000  1.0 0.0675970793
H  H546  1  0.92562000  0.12049000  0.03550000  1.0 0.1058177902
H  H547  1  0.97731000  0.07706000  0.05448000  1.0 0.1020094216
H  H548  1  0.89309000  0.02068000  0.11907000  1.0 0.1058177902
H  H549  1  0.96722000  0.01674000  0.13679000  1.0 0.1365294948
H  H550  1  0.98738000  0.00917000  0.08492000  1.0 0.1206060178
H  H551  1  0.16995000  0.47883000  0.04096000  1.0 0.0811013745
H  H552  1  0.18944000  0.54095000  0.01432000  1.0 0.1020094216
H  H553  1  0.21887000  0.58817000  0.06239000  1.0 0.0912124173
H  H554  1  0.21050000  0.57523000  0.13267000  1.0 0.1020094216
H  H555  1  0.19101000  0.51631000  0.15807000  1.0 0.0811013745
H  H556  1  0.12816000  0.36994000  0.08063000  1.0 0.0675970793
H  H557  1  0.07438000  0.37951000  0.03550000  1.0 0.1058177902
H  H558  1  0.02269000  0.42294000  0.05448000  1.0 0.1020094216
H  H559  1  0.10691000  0.47932000  0.11907000  1.0 0.1058177902
H  H560  1  0.03278000  0.48326000  0.13679000  1.0 0.1365294948
H  H561  1  0.01262000  0.49083000  0.08492000  1.0 0.1206060178
H  H562  1  0.66995000  0.97883000  0.54096000  1.0 0.0811013745
H  H563  1  0.68944000  0.04095000  0.51432000  1.0 0.1020094216
H  H564  1  0.71887000  0.08817000  0.56239000  1.0 0.0912124173
H  H565  1  0.71050000  0.07523000  0.63267000  1.0 0.1020094216
H  H566  1  0.69101000  0.01631000  0.65807000  1.0 0.0811013745
H  H567  1  0.62816000  0.86994000  0.58063000  1.0 0.0675970793
H  H568  1  0.57438000  0.87951000  0.53550000  1.0 0.1058177902
H  H569  1  0.52269000  0.92294000  0.55448000  1.0 0.1020094216
H  H570  1  0.60691000  0.97932000  0.61907000  1.0 0.1058177902
H  H571  1  0.53278000  0.98326000  0.63679000  1.0 0.1365294948
H  H572  1  0.51262000  0.99083000  0.58492000  1.0 0.1206060178
H  H573  1  0.66995000  0.02117000  0.95904000  1.0 0.0811013745
H  H574  1  0.68944000  0.95905000  0.98568000  1.0 0.1020094216
H  H575  1  0.71887000  0.91183000  0.93761000  1.0 0.0912124173
H  H576  1  0.71050000  0.92477000  0.86733000  1.0 0.1020094216
H  H577  1  0.69101000  0.98369000  0.84193000  1.0 0.0811013745
H  H578  1  0.62816000  0.13006000  0.91937000  1.0 0.0675970793
H  H579  1  0.57438000  0.12049000  0.96450000  1.0 0.1058177902
H  H580  1  0.52269000  0.07706000  0.94552000  1.0 0.1020094216
H  H581  1  0.60691000  0.02068000  0.88093000  1.0 0.1058177902
H  H582  1  0.53278000  0.01674000  0.86321000  1.0 0.1365294948
H  H583  1  0.51262000  0.00917000  0.91508000  1.0 0.1206060178
H  H584  1  0.16995000  0.52117000  0.45904000  1.0 0.0811013745
H  H585  1  0.18944000  0.45905000  0.48568000  1.0 0.1020094216
H  H586  1  0.21887000  0.41183000  0.43761000  1.0 0.0912124173
H  H587  1  0.21050000  0.42477000  0.36733000  1.0 0.1020094216
H  H588  1  0.19101000  0.48369000  0.34193000  1.0 0.0811013745
H  H589  1  0.12816000  0.63006000  0.41937000  1.0 0.0675970793
H  H590  1  0.07438000  0.62049000  0.46450000  1.0 0.1058177902
H  H591  1  0.02269000  0.57706000  0.44552000  1.0 0.1020094216
H  H592  1  0.10691000  0.52068000  0.38093000  1.0 0.1058177902
H  H593  1  0.03278000  0.51674000  0.36321000  1.0 0.1365294948
H  H594  1  0.01262000  0.50917000  0.41508000  1.0 0.1206060178
H  H595  1  0.83005000  0.97883000  0.45904000  1.0 0.0811013745
H  H596  1  0.81056000  0.04095000  0.48568000  1.0 0.1020094216
H  H597  1  0.78113000  0.08817000  0.43761000  1.0 0.0912124173
H  H598  1  0.78950000  0.07523000  0.36733000  1.0 0.1020094216
H  H599  1  0.80899000  0.01631000  0.34193000  1.0 0.0811013745
H  H600  1  0.87184000  0.86994000  0.41937000  1.0 0.0675970793
H  H601  1  0.92562000  0.87951000  0.46450000  1.0 0.1058177902
H  H602  1  0.97731000  0.92294000  0.44552000  1.0 0.1020094216
H  H603  1  0.89309000  0.97932000  0.38093000  1.0 0.1058177902
H  H604  1  0.96722000  0.98326000  0.36321000  1.0 0.1365294948
H  H605  1  0.98738000  0.99083000  0.41508000  1.0 0.1206060178
H  H606  1  0.33005000  0.47883000  0.95904000  1.0 0.0811013745
H  H607  1  0.31056000  0.54095000  0.98568000  1.0 0.1020094216
H  H608  1  0.28113000  0.58817000  0.93761000  1.0 0.0912124173
H  H609  1  0.28950000  0.57523000  0.86733000  1.0 0.1020094216
H  H610  1  0.30899000  0.51631000  0.84193000  1.0 0.0811013745
H  H611  1  0.37184000  0.36994000  0.91937000  1.0 0.0675970793
H  H612  1  0.42562000  0.37951000  0.96450000  1.0 0.1058177902
H  H613  1  0.47731000  0.42294000  0.94552000  1.0 0.1020094216
H  H614  1  0.39309000  0.47932000  0.88093000  1.0 0.1058177902
H  H615  1  0.46722000  0.48326000  0.86321000  1.0 0.1365294948
H  H616  1  0.48738000  0.49083000  0.91508000  1.0 0.1206060178
H  H617  1  0.54096000  0.33005000  0.52117000  1.0 0.0811013745
H  H618  1  0.51432000  0.31056000  0.45905000  1.0 0.1020094216
H  H619  1  0.56239000  0.28113000  0.41183000  1.0 0.0912124173
H  H620  1  0.63267000  0.28950000  0.42477000  1.0 0.1020094216
H  H621  1  0.65807000  0.30899000  0.48369000  1.0 0.0811013745
H  H622  1  0.58063000  0.37184000  0.63006000  1.0 0.0675970793
H  H623  1  0.53550000  0.42562000  0.62049000  1.0 0.1058177902
H  H624  1  0.55448000  0.47731000  0.57706000  1.0 0.1020094216
H  H625  1  0.61907000  0.39309000  0.52068000  1.0 0.1058177902
H  H626  1  0.63679000  0.46722000  0.51674000  1.0 0.1365294948
H  H627  1  0.58492000  0.48738000  0.50917000  1.0 0.1206060178
H  H628  1  0.04096000  0.83005000  0.02117000  1.0 0.0811013745
H  H629  1  0.01432000  0.81056000  0.95905000  1.0 0.1020094216
H  H630  1  0.06239000  0.78113000  0.91183000  1.0 0.0912124173
H  H631  1  0.13267000  0.78950000  0.92477000  1.0 0.1020094216
H  H632  1  0.15807000  0.80899000  0.98369000  1.0 0.0811013745
H  H633  1  0.08063000  0.87184000  0.13006000  1.0 0.0675970793
H  H634  1  0.03550000  0.92562000  0.12049000  1.0 0.1058177902
H  H635  1  0.05448000  0.97731000  0.07706000  1.0 0.1020094216
H  H636  1  0.11907000  0.89309000  0.02068000  1.0 0.1058177902
H  H637  1  0.13679000  0.96722000  0.01674000  1.0 0.1365294948
H  H638  1  0.08492000  0.98738000  0.00917000  1.0 0.1206060178
H  H639  1  0.04096000  0.16995000  0.47883000  1.0 0.0811013745
H  H640  1  0.01432000  0.18944000  0.54095000  1.0 0.1020094216
H  H641  1  0.06239000  0.21887000  0.58817000  1.0 0.0912124173
H  H642  1  0.13267000  0.21050000  0.57523000  1.0 0.1020094216
H  H643  1  0.15807000  0.19101000  0.51631000  1.0 0.0811013745
H  H644  1  0.08063000  0.12816000  0.36994000  1.0 0.0675970793
H  H645  1  0.03550000  0.07438000  0.37951000  1.0 0.1058177902
H  H646  1  0.05448000  0.02269000  0.42294000  1.0 0.1020094216
H  H647  1  0.11907000  0.10691000  0.47932000  1.0 0.1058177902
H  H648  1  0.13679000  0.03278000  0.48326000  1.0 0.1365294948
H  H649  1  0.08492000  0.01262000  0.49083000  1.0 0.1206060178
H  H650  1  0.54096000  0.66995000  0.97883000  1.0 0.0811013745
H  H651  1  0.51432000  0.68944000  0.04095000  1.0 0.1020094216
H  H652  1  0.56239000  0.71887000  0.08817000  1.0 0.0912124173
H  H653  1  0.63267000  0.71050000  0.07523000  1.0 0.1020094216
H  H654  1  0.65807000  0.69101000  0.01631000  1.0 0.0811013745
H  H655  1  0.58063000  0.62816000  0.86994000  1.0 0.0675970793
H  H656  1  0.53550000  0.57438000  0.87951000  1.0 0.1058177902
H  H657  1  0.55448000  0.52269000  0.92294000  1.0 0.1020094216
H  H658  1  0.61907000  0.60691000  0.97932000  1.0 0.1058177902
H  H659  1  0.63679000  0.53278000  0.98326000  1.0 0.1365294948
H  H660  1  0.58492000  0.51262000  0.99083000  1.0 0.1206060178
H  H661  1  0.95904000  0.66995000  0.02117000  1.0 0.0811013745
H  H662  1  0.98568000  0.68944000  0.95905000  1.0 0.1020094216
H  H663  1  0.93761000  0.71887000  0.91183000  1.0 0.0912124173
H  H664  1  0.86733000  0.71050000  0.92477000  1.0 0.1020094216
H  H665  1  0.84193000  0.69101000  0.98369000  1.0 0.0811013745
H  H666  1  0.91937000  0.62816000  0.13006000  1.0 0.0675970793
H  H667  1  0.96450000  0.57438000  0.12049000  1.0 0.1058177902
H  H668  1  0.94552000  0.52269000  0.07706000  1.0 0.1020094216
H  H669  1  0.88093000  0.60691000  0.02068000  1.0 0.1058177902
H  H670  1  0.86321000  0.53278000  0.01674000  1.0 0.1365294948
H  H671  1  0.91508000  0.51262000  0.00917000  1.0 0.1206060178
H  H672  1  0.45904000  0.16995000  0.52117000  1.0 0.0811013745
H  H673  1  0.48568000  0.18944000  0.45905000  1.0 0.1020094216
H  H674  1  0.43761000  0.21887000  0.41183000  1.0 0.0912124173
H  H675  1  0.36733000  0.21050000  0.42477000  1.0 0.1020094216
H  H676  1  0.34193000  0.19101000  0.48369000  1.0 0.0811013745
H  H677  1  0.41937000  0.12816000  0.63006000  1.0 0.0675970793
H  H678  1  0.46450000  0.07438000  0.62049000  1.0 0.1058177902
H  H679  1  0.44552000  0.02269000  0.57706000  1.0 0.1020094216
H  H680  1  0.38093000  0.10691000  0.52068000  1.0 0.1058177902
H  H681  1  0.36321000  0.03278000  0.51674000  1.0 0.1365294948
H  H682  1  0.41508000  0.01262000  0.50917000  1.0 0.1206060178
H  H683  1  0.45904000  0.83005000  0.97883000  1.0 0.0811013745
H  H684  1  0.48568000  0.81056000  0.04095000  1.0 0.1020094216
H  H685  1  0.43761000  0.78113000  0.08817000  1.0 0.0912124173
H  H686  1  0.36733000  0.78950000  0.07523000  1.0 0.1020094216
H  H687  1  0.34193000  0.80899000  0.01631000  1.0 0.0811013745
H  H688  1  0.41937000  0.87184000  0.86994000  1.0 0.0675970793
H  H689  1  0.46450000  0.92562000  0.87951000  1.0 0.1058177902
H  H690  1  0.44552000  0.97731000  0.92294000  1.0 0.1020094216
H  H691  1  0.38093000  0.89309000  0.97932000  1.0 0.1058177902
H  H692  1  0.36321000  0.96722000  0.98326000  1.0 0.1365294948
H  H693  1  0.41508000  0.98738000  0.99083000  1.0 0.1206060178
H  H694  1  0.95904000  0.33005000  0.47883000  1.0 0.0811013745
H  H695  1  0.98568000  0.31056000  0.54095000  1.0 0.1020094216
H  H696  1  0.93761000  0.28113000  0.58817000  1.0 0.0912124173
H  H697  1  0.86733000  0.28950000  0.57523000  1.0 0.1020094216
H  H698  1  0.84193000  0.30899000  0.51631000  1.0 0.0811013745
H  H699  1  0.91937000  0.37184000  0.36994000  1.0 0.0675970793
H  H700  1  0.96450000  0.42562000  0.37951000  1.0 0.1058177902
H  H701  1  0.94552000  0.47731000  0.42294000  1.0 0.1020094216
H  H702  1  0.88093000  0.39309000  0.47932000  1.0 0.1058177902
H  H703  1  0.86321000  0.46722000  0.48326000  1.0 0.1365294948
H  H704  1  0.91508000  0.48738000  0.49083000  1.0 0.1206060178
H  H705  1  0.52117000  0.54096000  0.33005000  1.0 0.0811013745
H  H706  1  0.45905000  0.51432000  0.31056000  1.0 0.1020094216
H  H707  1  0.41183000  0.56239000  0.28113000  1.0 0.0912124173
H  H708  1  0.42477000  0.63267000  0.28950000  1.0 0.1020094216
H  H709  1  0.48369000  0.65807000  0.30899000  1.0 0.0811013745
H  H710  1  0.63006000  0.58063000  0.37184000  1.0 0.0675970793
H  H711  1  0.62049000  0.53550000  0.42562000  1.0 0.1058177902
H  H712  1  0.57706000  0.55448000  0.47731000  1.0 0.1020094216
H  H713  1  0.52068000  0.61907000  0.39309000  1.0 0.1058177902
H  H714  1  0.51674000  0.63679000  0.46722000  1.0 0.1365294948
H  H715  1  0.50917000  0.58492000  0.48738000  1.0 0.1206060178
H  H716  1  0.02117000  0.04096000  0.83005000  1.0 0.0811013745
H  H717  1  0.95905000  0.01432000  0.81056000  1.0 0.1020094216
H  H718  1  0.91183000  0.06239000  0.78113000  1.0 0.0912124173
H  H719  1  0.92477000  0.13267000  0.78950000  1.0 0.1020094216
H  H720  1  0.98369000  0.15807000  0.80899000  1.0 0.0811013745
H  H721  1  0.13006000  0.08063000  0.87184000  1.0 0.0675970793
H  H722  1  0.12049000  0.03550000  0.92562000  1.0 0.1058177902
H  H723  1  0.07706000  0.05448000  0.97731000  1.0 0.1020094216
H  H724  1  0.02068000  0.11907000  0.89309000  1.0 0.1058177902
H  H725  1  0.01674000  0.13679000  0.96722000  1.0 0.1365294948
H  H726  1  0.00917000  0.08492000  0.98738000  1.0 0.1206060178
H  H727  1  0.47883000  0.04096000  0.16995000  1.0 0.0811013745
H  H728  1  0.54095000  0.01432000  0.18944000  1.0 0.1020094216
H  H729  1  0.58817000  0.06239000  0.21887000  1.0 0.0912124173
H  H730  1  0.57523000  0.13267000  0.21050000  1.0 0.1020094216
H  H731  1  0.51631000  0.15807000  0.19101000  1.0 0.0811013745
H  H732  1  0.36994000  0.08063000  0.12816000  1.0 0.0675970793
H  H733  1  0.37951000  0.03550000  0.07438000  1.0 0.1058177902
H  H734  1  0.42294000  0.05448000  0.02269000  1.0 0.1020094216
H  H735  1  0.47932000  0.11907000  0.10691000  1.0 0.1058177902
H  H736  1  0.48326000  0.13679000  0.03278000  1.0 0.1365294948
H  H737  1  0.49083000  0.08492000  0.01262000  1.0 0.1206060178
H  H738  1  0.97883000  0.54096000  0.66995000  1.0 0.0811013745
H  H739  1  0.04095000  0.51432000  0.68944000  1.0 0.1020094216
H  H740  1  0.08817000  0.56239000  0.71887000  1.0 0.0912124173
H  H741  1  0.07523000  0.63267000  0.71050000  1.0 0.1020094216
H  H742  1  0.01631000  0.65807000  0.69101000  1.0 0.0811013745
H  H743  1  0.86994000  0.58063000  0.62816000  1.0 0.0675970793
H  H744  1  0.87951000  0.53550000  0.57438000  1.0 0.1058177902
H  H745  1  0.92294000  0.55448000  0.52269000  1.0 0.1020094216
H  H746  1  0.97932000  0.61907000  0.60691000  1.0 0.1058177902
H  H747  1  0.98326000  0.63679000  0.53278000  1.0 0.1365294948
H  H748  1  0.99083000  0.58492000  0.51262000  1.0 0.1206060178
H  H749  1  0.02117000  0.95904000  0.66995000  1.0 0.0811013745
H  H750  1  0.95905000  0.98568000  0.68944000  1.0 0.1020094216
H  H751  1  0.91183000  0.93761000  0.71887000  1.0 0.0912124173
H  H752  1  0.92477000  0.86733000  0.71050000  1.0 0.1020094216
H  H753  1  0.98369000  0.84193000  0.69101000  1.0 0.0811013745
H  H754  1  0.13006000  0.91937000  0.62816000  1.0 0.0675970793
H  H755  1  0.12049000  0.96450000  0.57438000  1.0 0.1058177902
H  H756  1  0.07706000  0.94552000  0.52269000  1.0 0.1020094216
H  H757  1  0.02068000  0.88093000  0.60691000  1.0 0.1058177902
H  H758  1  0.01674000  0.86321000  0.53278000  1.0 0.1365294948
H  H759  1  0.00917000  0.91508000  0.51262000  1.0 0.1206060178
H  H760  1  0.52117000  0.45904000  0.16995000  1.0 0.0811013745
H  H761  1  0.45905000  0.48568000  0.18944000  1.0 0.1020094216
H  H762  1  0.41183000  0.43761000  0.21887000  1.0 0.0912124173
H  H763  1  0.42477000  0.36733000  0.21050000  1.0 0.1020094216
H  H764  1  0.48369000  0.34193000  0.19101000  1.0 0.0811013745
H  H765  1  0.63006000  0.41937000  0.12816000  1.0 0.0675970793
H  H766  1  0.62049000  0.46450000  0.07438000  1.0 0.1058177902
H  H767  1  0.57706000  0.44552000  0.02269000  1.0 0.1020094216
H  H768  1  0.52068000  0.38093000  0.10691000  1.0 0.1058177902
H  H769  1  0.51674000  0.36321000  0.03278000  1.0 0.1365294948
H  H770  1  0.50917000  0.41508000  0.01262000  1.0 0.1206060178
H  H771  1  0.97883000  0.45904000  0.83005000  1.0 0.0811013745
H  H772  1  0.04095000  0.48568000  0.81056000  1.0 0.1020094216
H  H773  1  0.08817000  0.43761000  0.78113000  1.0 0.0912124173
H  H774  1  0.07523000  0.36733000  0.78950000  1.0 0.1020094216
H  H775  1  0.01631000  0.34193000  0.80899000  1.0 0.0811013745
H  H776  1  0.86994000  0.41937000  0.87184000  1.0 0.0675970793
H  H777  1  0.87951000  0.46450000  0.92562000  1.0 0.1058177902
H  H778  1  0.92294000  0.44552000  0.97731000  1.0 0.1020094216
H  H779  1  0.97932000  0.38093000  0.89309000  1.0 0.1058177902
H  H780  1  0.98326000  0.36321000  0.96722000  1.0 0.1365294948
H  H781  1  0.99083000  0.41508000  0.98738000  1.0 0.1206060178
H  H782  1  0.47883000  0.95904000  0.33005000  1.0 0.0811013745
H  H783  1  0.54095000  0.98568000  0.31056000  1.0 0.1020094216
H  H784  1  0.58817000  0.93761000  0.28113000  1.0 0.0912124173
H  H785  1  0.57523000  0.86733000  0.28950000  1.0 0.1020094216
H  H786  1  0.51631000  0.84193000  0.30899000  1.0 0.0811013745
H  H787  1  0.36994000  0.91937000  0.37184000  1.0 0.0675970793
H  H788  1  0.37951000  0.96450000  0.42562000  1.0 0.1058177902
H  H789  1  0.42294000  0.94552000  0.47731000  1.0 0.1020094216
H  H790  1  0.47932000  0.88093000  0.39309000  1.0 0.1058177902
H  H791  1  0.48326000  0.86321000  0.46722000  1.0 0.1365294948
H  H792  1  0.49083000  0.91508000  0.48738000  1.0 0.1206060178
H  H793  1  0.77117000  0.08005000  0.20904000  1.0 0.0811013745
H  H794  1  0.70905000  0.06056000  0.23568000  1.0 0.1020094216
H  H795  1  0.66183000  0.03113000  0.18761000  1.0 0.0912124173
H  H796  1  0.67477000  0.03950000  0.11733000  1.0 0.1020094216
H  H797  1  0.73369000  0.05899000  0.09193000  1.0 0.0811013745
H  H798  1  0.88006000  0.12184000  0.16937000  1.0 0.0675970793
H  H799  1  0.87049000  0.17562000  0.21450000  1.0 0.1058177902
H  H800  1  0.82706000  0.22731000  0.19552000  1.0 0.1020094216
H  H801  1  0.77068000  0.14309000  0.13093000  1.0 0.1058177902
H  H802  1  0.76674000  0.21722000  0.11321000  1.0 0.1365294948
H  H803  1  0.75917000  0.23738000  0.16508000  1.0 0.1206060178
H  H804  1  0.27117000  0.58005000  0.70904000  1.0 0.0811013745
H  H805  1  0.20905000  0.56056000  0.73568000  1.0 0.1020094216
H  H806  1  0.16183000  0.53113000  0.68761000  1.0 0.0912124173
H  H807  1  0.17477000  0.53950000  0.61733000  1.0 0.1020094216
H  H808  1  0.23369000  0.55899000  0.59193000  1.0 0.0811013745
H  H809  1  0.38006000  0.62184000  0.66937000  1.0 0.0675970793
H  H810  1  0.37049000  0.67562000  0.71450000  1.0 0.1058177902
H  H811  1  0.32706000  0.72731000  0.69552000  1.0 0.1020094216
H  H812  1  0.27068000  0.64309000  0.63093000  1.0 0.1058177902
H  H813  1  0.26674000  0.71722000  0.61321000  1.0 0.1365294948
H  H814  1  0.25917000  0.73738000  0.66508000  1.0 0.1206060178
H  H815  1  0.72883000  0.91995000  0.70904000  1.0 0.0811013745
H  H816  1  0.79095000  0.93944000  0.73568000  1.0 0.1020094216
H  H817  1  0.83817000  0.96887000  0.68761000  1.0 0.0912124173
H  H818  1  0.82523000  0.96050000  0.61733000  1.0 0.1020094216
H  H819  1  0.76631000  0.94101000  0.59193000  1.0 0.0811013745
H  H820  1  0.61994000  0.87816000  0.66937000  1.0 0.0675970793
H  H821  1  0.62951000  0.82438000  0.71450000  1.0 0.1058177902
H  H822  1  0.67294000  0.77269000  0.69552000  1.0 0.1020094216
H  H823  1  0.72932000  0.85691000  0.63093000  1.0 0.1058177902
H  H824  1  0.73326000  0.78278000  0.61321000  1.0 0.1365294948
H  H825  1  0.74083000  0.76262000  0.66508000  1.0 0.1206060178
H  H826  1  0.22883000  0.41995000  0.20904000  1.0 0.0811013745
H  H827  1  0.29095000  0.43944000  0.23568000  1.0 0.1020094216
H  H828  1  0.33817000  0.46887000  0.18761000  1.0 0.0912124173
H  H829  1  0.32523000  0.46050000  0.11733000  1.0 0.1020094216
H  H830  1  0.26631000  0.44101000  0.09193000  1.0 0.0811013745
H  H831  1  0.11994000  0.37816000  0.16937000  1.0 0.0675970793
H  H832  1  0.12951000  0.32438000  0.21450000  1.0 0.1058177902
H  H833  1  0.17294000  0.27269000  0.19552000  1.0 0.1020094216
H  H834  1  0.22932000  0.35691000  0.13093000  1.0 0.1058177902
H  H835  1  0.23326000  0.28278000  0.11321000  1.0 0.1365294948
H  H836  1  0.24083000  0.26262000  0.16508000  1.0 0.1206060178
H  H837  1  0.27117000  0.41995000  0.79096000  1.0 0.0811013745
H  H838  1  0.20905000  0.43944000  0.76432000  1.0 0.1020094216
H  H839  1  0.16183000  0.46887000  0.81239000  1.0 0.0912124173
H  H840  1  0.17477000  0.46050000  0.88267000  1.0 0.1020094216
H  H841  1  0.23369000  0.44101000  0.90807000  1.0 0.0811013745
H  H842  1  0.38006000  0.37816000  0.83063000  1.0 0.0675970793
H  H843  1  0.37049000  0.32438000  0.78550000  1.0 0.1058177902
H  H844  1  0.32706000  0.27269000  0.80448000  1.0 0.1020094216
H  H845  1  0.27068000  0.35691000  0.86907000  1.0 0.1058177902
H  H846  1  0.26674000  0.28278000  0.88679000  1.0 0.1365294948
H  H847  1  0.25917000  0.26262000  0.83492000  1.0 0.1206060178
H  H848  1  0.77117000  0.91995000  0.29096000  1.0 0.0811013745
H  H849  1  0.70905000  0.93944000  0.26432000  1.0 0.1020094216
H  H850  1  0.66183000  0.96887000  0.31239000  1.0 0.0912124173
H  H851  1  0.67477000  0.96050000  0.38267000  1.0 0.1020094216
H  H852  1  0.73369000  0.94101000  0.40807000  1.0 0.0811013745
H  H853  1  0.88006000  0.87816000  0.33063000  1.0 0.0675970793
H  H854  1  0.87049000  0.82438000  0.28550000  1.0 0.1058177902
H  H855  1  0.82706000  0.77269000  0.30448000  1.0 0.1020094216
H  H856  1  0.77068000  0.85691000  0.36907000  1.0 0.1058177902
H  H857  1  0.76674000  0.78278000  0.38679000  1.0 0.1365294948
H  H858  1  0.75917000  0.76262000  0.33492000  1.0 0.1206060178
H  H859  1  0.22883000  0.58005000  0.29096000  1.0 0.0811013745
H  H860  1  0.29095000  0.56056000  0.26432000  1.0 0.1020094216
H  H861  1  0.33817000  0.53113000  0.31239000  1.0 0.0912124173
H  H862  1  0.32523000  0.53950000  0.38267000  1.0 0.1020094216
H  H863  1  0.26631000  0.55899000  0.40807000  1.0 0.0811013745
H  H864  1  0.11994000  0.62184000  0.33063000  1.0 0.0675970793
H  H865  1  0.12951000  0.67562000  0.28550000  1.0 0.1058177902
H  H866  1  0.17294000  0.72731000  0.30448000  1.0 0.1020094216
H  H867  1  0.22932000  0.64309000  0.36907000  1.0 0.1058177902
H  H868  1  0.23326000  0.71722000  0.38679000  1.0 0.1365294948
H  H869  1  0.24083000  0.73738000  0.33492000  1.0 0.1206060178
H  H870  1  0.72883000  0.08005000  0.79096000  1.0 0.0811013745
H  H871  1  0.79095000  0.06056000  0.76432000  1.0 0.1020094216
H  H872  1  0.83817000  0.03113000  0.81239000  1.0 0.0912124173
H  H873  1  0.82523000  0.03950000  0.88267000  1.0 0.1020094216
H  H874  1  0.76631000  0.05899000  0.90807000  1.0 0.0811013745
H  H875  1  0.61994000  0.12184000  0.83063000  1.0 0.0675970793
H  H876  1  0.62951000  0.17562000  0.78550000  1.0 0.1058177902
H  H877  1  0.67294000  0.22731000  0.80448000  1.0 0.1020094216
H  H878  1  0.72932000  0.14309000  0.86907000  1.0 0.1058177902
H  H879  1  0.73326000  0.21722000  0.88679000  1.0 0.1365294948
H  H880  1  0.74083000  0.23738000  0.83492000  1.0 0.1206060178
H  H881  1  0.58005000  0.29096000  0.22883000  1.0 0.0811013745
H  H882  1  0.56056000  0.26432000  0.29095000  1.0 0.1020094216
H  H883  1  0.53113000  0.31239000  0.33817000  1.0 0.0912124173
H  H884  1  0.53950000  0.38267000  0.32523000  1.0 0.1020094216
H  H885  1  0.55899000  0.40807000  0.26631000  1.0 0.0811013745
H  H886  1  0.62184000  0.33063000  0.11994000  1.0 0.0675970793
H  H887  1  0.67562000  0.28550000  0.12951000  1.0 0.1058177902
H  H888  1  0.72731000  0.30448000  0.17294000  1.0 0.1020094216
H  H889  1  0.64309000  0.36907000  0.22932000  1.0 0.1058177902
H  H890  1  0.71722000  0.38679000  0.23326000  1.0 0.1365294948
H  H891  1  0.73738000  0.33492000  0.24083000  1.0 0.1206060178
H  H892  1  0.08005000  0.79096000  0.72883000  1.0 0.0811013745
H  H893  1  0.06056000  0.76432000  0.79095000  1.0 0.1020094216
H  H894  1  0.03113000  0.81239000  0.83817000  1.0 0.0912124173
H  H895  1  0.03950000  0.88267000  0.82523000  1.0 0.1020094216
H  H896  1  0.05899000  0.90807000  0.76631000  1.0 0.0811013745
H  H897  1  0.12184000  0.83063000  0.61994000  1.0 0.0675970793
H  H898  1  0.17562000  0.78550000  0.62951000  1.0 0.1058177902
H  H899  1  0.22731000  0.80448000  0.67294000  1.0 0.1020094216
H  H900  1  0.14309000  0.86907000  0.72932000  1.0 0.1058177902
H  H901  1  0.21722000  0.88679000  0.73326000  1.0 0.1365294948
H  H902  1  0.23738000  0.83492000  0.74083000  1.0 0.1206060178
H  H903  1  0.41995000  0.79096000  0.27117000  1.0 0.0811013745
H  H904  1  0.43944000  0.76432000  0.20905000  1.0 0.1020094216
H  H905  1  0.46887000  0.81239000  0.16183000  1.0 0.0912124173
H  H906  1  0.46050000  0.88267000  0.17477000  1.0 0.1020094216
H  H907  1  0.44101000  0.90807000  0.23369000  1.0 0.0811013745
H  H908  1  0.37816000  0.83063000  0.38006000  1.0 0.0675970793
H  H909  1  0.32438000  0.78550000  0.37049000  1.0 0.1058177902
H  H910  1  0.27269000  0.80448000  0.32706000  1.0 0.1020094216
H  H911  1  0.35691000  0.86907000  0.27068000  1.0 0.1058177902
H  H912  1  0.28278000  0.88679000  0.26674000  1.0 0.1365294948
H  H913  1  0.26262000  0.83492000  0.25917000  1.0 0.1206060178
H  H914  1  0.91995000  0.29096000  0.77117000  1.0 0.0811013745
H  H915  1  0.93944000  0.26432000  0.70905000  1.0 0.1020094216
H  H916  1  0.96887000  0.31239000  0.66183000  1.0 0.0912124173
H  H917  1  0.96050000  0.38267000  0.67477000  1.0 0.1020094216
H  H918  1  0.94101000  0.40807000  0.73369000  1.0 0.0811013745
H  H919  1  0.87816000  0.33063000  0.88006000  1.0 0.0675970793
H  H920  1  0.82438000  0.28550000  0.87049000  1.0 0.1058177902
H  H921  1  0.77269000  0.30448000  0.82706000  1.0 0.1020094216
H  H922  1  0.85691000  0.36907000  0.77068000  1.0 0.1058177902
H  H923  1  0.78278000  0.38679000  0.76674000  1.0 0.1365294948
H  H924  1  0.76262000  0.33492000  0.75917000  1.0 0.1206060178
H  H925  1  0.91995000  0.70904000  0.72883000  1.0 0.0811013745
H  H926  1  0.93944000  0.73568000  0.79095000  1.0 0.1020094216
H  H927  1  0.96887000  0.68761000  0.83817000  1.0 0.0912124173
H  H928  1  0.96050000  0.61733000  0.82523000  1.0 0.1020094216
H  H929  1  0.94101000  0.59193000  0.76631000  1.0 0.0811013745
H  H930  1  0.87816000  0.66937000  0.61994000  1.0 0.0675970793
H  H931  1  0.82438000  0.71450000  0.62951000  1.0 0.1058177902
H  H932  1  0.77269000  0.69552000  0.67294000  1.0 0.1020094216
H  H933  1  0.85691000  0.63093000  0.72932000  1.0 0.1058177902
H  H934  1  0.78278000  0.61321000  0.73326000  1.0 0.1365294948
H  H935  1  0.76262000  0.66508000  0.74083000  1.0 0.1206060178
H  H936  1  0.41995000  0.20904000  0.22883000  1.0 0.0811013745
H  H937  1  0.43944000  0.23568000  0.29095000  1.0 0.1020094216
H  H938  1  0.46887000  0.18761000  0.33817000  1.0 0.0912124173
H  H939  1  0.46050000  0.11733000  0.32523000  1.0 0.1020094216
H  H940  1  0.44101000  0.09193000  0.26631000  1.0 0.0811013745
H  H941  1  0.37816000  0.16937000  0.11994000  1.0 0.0675970793
H  H942  1  0.32438000  0.21450000  0.12951000  1.0 0.1058177902
H  H943  1  0.27269000  0.19552000  0.17294000  1.0 0.1020094216
H  H944  1  0.35691000  0.13093000  0.22932000  1.0 0.1058177902
H  H945  1  0.28278000  0.11321000  0.23326000  1.0 0.1365294948
H  H946  1  0.26262000  0.16508000  0.24083000  1.0 0.1206060178
H  H947  1  0.08005000  0.20904000  0.77117000  1.0 0.0811013745
H  H948  1  0.06056000  0.23568000  0.70905000  1.0 0.1020094216
H  H949  1  0.03113000  0.18761000  0.66183000  1.0 0.0912124173
H  H950  1  0.03950000  0.11733000  0.67477000  1.0 0.1020094216
H  H951  1  0.05899000  0.09193000  0.73369000  1.0 0.0811013745
H  H952  1  0.12184000  0.16937000  0.88006000  1.0 0.0675970793
H  H953  1  0.17562000  0.21450000  0.87049000  1.0 0.1058177902
H  H954  1  0.22731000  0.19552000  0.82706000  1.0 0.1020094216
H  H955  1  0.14309000  0.13093000  0.77068000  1.0 0.1058177902
H  H956  1  0.21722000  0.11321000  0.76674000  1.0 0.1365294948
H  H957  1  0.23738000  0.16508000  0.75917000  1.0 0.1206060178
H  H958  1  0.58005000  0.70904000  0.27117000  1.0 0.0811013745
H  H959  1  0.56056000  0.73568000  0.20905000  1.0 0.1020094216
H  H960  1  0.53113000  0.68761000  0.16183000  1.0 0.0912124173
H  H961  1  0.53950000  0.61733000  0.17477000  1.0 0.1020094216
H  H962  1  0.55899000  0.59193000  0.23369000  1.0 0.0811013745
H  H963  1  0.62184000  0.66937000  0.38006000  1.0 0.0675970793
H  H964  1  0.67562000  0.71450000  0.37049000  1.0 0.1058177902
H  H965  1  0.72731000  0.69552000  0.32706000  1.0 0.1020094216
H  H966  1  0.64309000  0.63093000  0.27068000  1.0 0.1058177902
H  H967  1  0.71722000  0.61321000  0.26674000  1.0 0.1365294948
H  H968  1  0.73738000  0.66508000  0.25917000  1.0 0.1206060178
H  H969  1  0.79096000  0.27117000  0.41995000  1.0 0.0811013745
H  H970  1  0.76432000  0.20905000  0.43944000  1.0 0.1020094216
H  H971  1  0.81239000  0.16183000  0.46887000  1.0 0.0912124173
H  H972  1  0.88267000  0.17477000  0.46050000  1.0 0.1020094216
H  H973  1  0.90807000  0.23369000  0.44101000  1.0 0.0811013745
H  H974  1  0.83063000  0.38006000  0.37816000  1.0 0.0675970793
H  H975  1  0.78550000  0.37049000  0.32438000  1.0 0.1058177902
H  H976  1  0.80448000  0.32706000  0.27269000  1.0 0.1020094216
H  H977  1  0.86907000  0.27068000  0.35691000  1.0 0.1058177902
H  H978  1  0.88679000  0.26674000  0.28278000  1.0 0.1365294948
H  H979  1  0.83492000  0.25917000  0.26262000  1.0 0.1206060178
H  H980  1  0.29096000  0.77117000  0.91995000  1.0 0.0811013745
H  H981  1  0.26432000  0.70905000  0.93944000  1.0 0.1020094216
H  H982  1  0.31239000  0.66183000  0.96887000  1.0 0.0912124173
H  H983  1  0.38267000  0.67477000  0.96050000  1.0 0.1020094216
H  H984  1  0.40807000  0.73369000  0.94101000  1.0 0.0811013745
H  H985  1  0.33063000  0.88006000  0.87816000  1.0 0.0675970793
H  H986  1  0.28550000  0.87049000  0.82438000  1.0 0.1058177902
H  H987  1  0.30448000  0.82706000  0.77269000  1.0 0.1020094216
H  H988  1  0.36907000  0.77068000  0.85691000  1.0 0.1058177902
H  H989  1  0.38679000  0.76674000  0.78278000  1.0 0.1365294948
H  H990  1  0.33492000  0.75917000  0.76262000  1.0 0.1206060178
H  H991  1  0.29096000  0.22883000  0.58005000  1.0 0.0811013745
H  H992  1  0.26432000  0.29095000  0.56056000  1.0 0.1020094216
H  H993  1  0.31239000  0.33817000  0.53113000  1.0 0.0912124173
H  H994  1  0.38267000  0.32523000  0.53950000  1.0 0.1020094216
H  H995  1  0.40807000  0.26631000  0.55899000  1.0 0.0811013745
H  H996  1  0.33063000  0.11994000  0.62184000  1.0 0.0675970793
H  H997  1  0.28550000  0.12951000  0.67562000  1.0 0.1058177902
H  H998  1  0.30448000  0.17294000  0.72731000  1.0 0.1020094216
H  H999  1  0.36907000  0.22932000  0.64309000  1.0 0.1058177902
H  H1000  1  0.38679000  0.23326000  0.71722000  1.0 0.1365294948
H  H1001  1  0.33492000  0.24083000  0.73738000  1.0 0.1206060178
H  H1002  1  0.79096000  0.72883000  0.08005000  1.0 0.0811013745
H  H1003  1  0.76432000  0.79095000  0.06056000  1.0 0.1020094216
H  H1004  1  0.81239000  0.83817000  0.03113000  1.0 0.0912124173
H  H1005  1  0.88267000  0.82523000  0.03950000  1.0 0.1020094216
H  H1006  1  0.90807000  0.76631000  0.05899000  1.0 0.0811013745
H  H1007  1  0.83063000  0.61994000  0.12184000  1.0 0.0675970793
H  H1008  1  0.78550000  0.62951000  0.17562000  1.0 0.1058177902
H  H1009  1  0.80448000  0.67294000  0.22731000  1.0 0.1020094216
H  H1010  1  0.86907000  0.72932000  0.14309000  1.0 0.1058177902
H  H1011  1  0.88679000  0.73326000  0.21722000  1.0 0.1365294948
H  H1012  1  0.83492000  0.74083000  0.23738000  1.0 0.1206060178
H  H1013  1  0.20904000  0.77117000  0.08005000  1.0 0.0811013745
H  H1014  1  0.23568000  0.70905000  0.06056000  1.0 0.1020094216
H  H1015  1  0.18761000  0.66183000  0.03113000  1.0 0.0912124173
H  H1016  1  0.11733000  0.67477000  0.03950000  1.0 0.1020094216
H  H1017  1  0.09193000  0.73369000  0.05899000  1.0 0.0811013745
H  H1018  1  0.16937000  0.88006000  0.12184000  1.0 0.0675970793
H  H1019  1  0.21450000  0.87049000  0.17562000  1.0 0.1058177902
H  H1020  1  0.19552000  0.82706000  0.22731000  1.0 0.1020094216
H  H1021  1  0.13093000  0.77068000  0.14309000  1.0 0.1058177902
H  H1022  1  0.11321000  0.76674000  0.21722000  1.0 0.1365294948
H  H1023  1  0.16508000  0.75917000  0.23738000  1.0 0.1206060178
H  H1024  1  0.70904000  0.27117000  0.58005000  1.0 0.0811013745
H  H1025  1  0.73568000  0.20905000  0.56056000  1.0 0.1020094216
H  H1026  1  0.68761000  0.16183000  0.53113000  1.0 0.0912124173
H  H1027  1  0.61733000  0.17477000  0.53950000  1.0 0.1020094216
H  H1028  1  0.59193000  0.23369000  0.55899000  1.0 0.0811013745
H  H1029  1  0.66937000  0.38006000  0.62184000  1.0 0.0675970793
H  H1030  1  0.71450000  0.37049000  0.67562000  1.0 0.1058177902
H  H1031  1  0.69552000  0.32706000  0.72731000  1.0 0.1020094216
H  H1032  1  0.63093000  0.27068000  0.64309000  1.0 0.1058177902
H  H1033  1  0.61321000  0.26674000  0.71722000  1.0 0.1365294948
H  H1034  1  0.66508000  0.25917000  0.73738000  1.0 0.1206060178
H  H1035  1  0.70904000  0.72883000  0.91995000  1.0 0.0811013745
H  H1036  1  0.73568000  0.79095000  0.93944000  1.0 0.1020094216
H  H1037  1  0.68761000  0.83817000  0.96887000  1.0 0.0912124173
H  H1038  1  0.61733000  0.82523000  0.96050000  1.0 0.1020094216
H  H1039  1  0.59193000  0.76631000  0.94101000  1.0 0.0811013745
H  H1040  1  0.66937000  0.61994000  0.87816000  1.0 0.0675970793
H  H1041  1  0.71450000  0.62951000  0.82438000  1.0 0.1058177902
H  H1042  1  0.69552000  0.67294000  0.77269000  1.0 0.1020094216
H  H1043  1  0.63093000  0.72932000  0.85691000  1.0 0.1058177902
H  H1044  1  0.61321000  0.73326000  0.78278000  1.0 0.1365294948
H  H1045  1  0.66508000  0.74083000  0.76262000  1.0 0.1206060178
H  H1046  1  0.20904000  0.22883000  0.41995000  1.0 0.0811013745
H  H1047  1  0.23568000  0.29095000  0.43944000  1.0 0.1020094216
H  H1048  1  0.18761000  0.33817000  0.46887000  1.0 0.0912124173
H  H1049  1  0.11733000  0.32523000  0.46050000  1.0 0.1020094216
H  H1050  1  0.09193000  0.26631000  0.44101000  1.0 0.0811013745
H  H1051  1  0.16937000  0.11994000  0.37816000  1.0 0.0675970793
H  H1052  1  0.21450000  0.12951000  0.32438000  1.0 0.1058177902
H  H1053  1  0.19552000  0.17294000  0.27269000  1.0 0.1020094216
H  H1054  1  0.13093000  0.22932000  0.35691000  1.0 0.1058177902
H  H1055  1  0.11321000  0.23326000  0.28278000  1.0 0.1365294948
H  H1056  1  0.16508000  0.24083000  0.26262000  1.0 0.1206060178
C  C1  1  0.63900000  0.46800000  0.30000000  1.0 0.0022006497
C  C2  1  0.57800000  0.47700000  0.28200000  1.0 -0.0300465608
C  C3  1  0.68400000  0.50100000  0.44000000  1.0 0.0675970793
C  C4  1  0.69300000  0.53500000  0.45400000  1.0 -0.1275298872
C  C5  1  0.70600000  0.56000000  0.42800000  1.0 -0.0479934345
C  C6  1  0.70400000  0.55200000  0.38900000  1.0 -0.1275298872
C  C7  1  0.69500000  0.51900000  0.37400000  1.0 0.0912124173
C  C8  1  0.61200000  0.39800000  0.42100000  1.0 0.1365294948
C  C9  1  0.58000000  0.40000000  0.44000000  1.0 -0.1514460719
C  C10  1  0.55200000  0.42600000  0.43200000  1.0 -0.0802620298
C  C11  1  0.56100000  0.45300000  0.40900000  1.0 0.0912124173
C  C12  1  0.59600000  0.45400000  0.39800000  1.0 -0.0417764661
C  C13  1  0.53400000  0.47700000  0.39500000  1.0 -0.3196017895
C  C14  1  0.13900000  0.96800000  0.80000000  1.0 0.0022006497
C  C15  1  0.07800000  0.97700000  0.78200000  1.0 -0.0300465608
C  C16  1  0.18400000  0.00100000  0.94000000  1.0 0.0675970793
C  C17  1  0.19300000  0.03500000  0.95400000  1.0 -0.1275298872
C  C18  1  0.20600000  0.06000000  0.92800000  1.0 -0.0479934345
C  C19  1  0.20400000  0.05200000  0.88900000  1.0 -0.1275298872
C  C20  1  0.19500000  0.01900000  0.87400000  1.0 0.0912124173
C  C21  1  0.11200000  0.89800000  0.92100000  1.0 0.1365294948
C  C22  1  0.08000000  0.90000000  0.94000000  1.0 -0.1514460719
C  C23  1  0.05200000  0.92600000  0.93200000  1.0 -0.0802620298
C  C24  1  0.06100000  0.95300000  0.90900000  1.0 0.0912124173
C  C25  1  0.09600000  0.95400000  0.89800000  1.0 -0.0417764661
C  C26  1  0.03400000  0.97700000  0.89500000  1.0 -0.3196017895
C  C27  1  0.86100000  0.53200000  0.80000000  1.0 0.0022006497
C  C28  1  0.92200000  0.52300000  0.78200000  1.0 -0.0300465608
C  C29  1  0.81600000  0.49900000  0.94000000  1.0 0.0675970793
C  C30  1  0.80700000  0.46500000  0.95400000  1.0 -0.1275298872
C  C31  1  0.79400000  0.44000000  0.92800000  1.0 -0.0479934345
C  C32  1  0.79600000  0.44800000  0.88900000  1.0 -0.1275298872
C  C33  1  0.80500000  0.48100000  0.87400000  1.0 0.0912124173
C  C34  1  0.88800000  0.60200000  0.92100000  1.0 0.1365294948
C  C35  1  0.92000000  0.60000000  0.94000000  1.0 -0.1514460719
C  C36  1  0.94800000  0.57400000  0.93200000  1.0 -0.0802620298
C  C37  1  0.93900000  0.54700000  0.90900000  1.0 0.0912124173
C  C38  1  0.90400000  0.54600000  0.89800000  1.0 -0.0417764661
C  C39  1  0.96600000  0.52300000  0.89500000  1.0 -0.3196017895
C  C40  1  0.36100000  0.03200000  0.30000000  1.0 0.0022006497
C  C41  1  0.42200000  0.02300000  0.28200000  1.0 -0.0300465608
C  C42  1  0.31600000  0.99900000  0.44000000  1.0 0.0675970793
C  C43  1  0.30700000  0.96500000  0.45400000  1.0 -0.1275298872
C  C44  1  0.29400000  0.94000000  0.42800000  1.0 -0.0479934345
C  C45  1  0.29600000  0.94800000  0.38900000  1.0 -0.1275298872
C  C46  1  0.30500000  0.98100000  0.37400000  1.0 0.0912124173
C  C47  1  0.38800000  0.10200000  0.42100000  1.0 0.1365294948
C  C48  1  0.42000000  0.10000000  0.44000000  1.0 -0.1514460719
C  C49  1  0.44800000  0.07400000  0.43200000  1.0 -0.0802620298
C  C50  1  0.43900000  0.04700000  0.40900000  1.0 0.0912124173
C  C51  1  0.40400000  0.04600000  0.39800000  1.0 -0.0417764661
C  C52  1  0.46600000  0.02300000  0.39500000  1.0 -0.3196017895
C  C53  1  0.36100000  0.96800000  0.20000000  1.0 0.0022006497
C  C54  1  0.42200000  0.97700000  0.21800000  1.0 -0.0300465608
C  C55  1  0.31600000  0.00100000  0.06000000  1.0 0.0675970793
C  C56  1  0.30700000  0.03500000  0.04600000  1.0 -0.1275298872
C  C57  1  0.29400000  0.06000000  0.07200000  1.0 -0.0479934345
C  C58  1  0.29600000  0.05200000  0.11100000  1.0 -0.1275298872
C  C59  1  0.30500000  0.01900000  0.12600000  1.0 0.0912124173
C  C60  1  0.38800000  0.89800000  0.07900000  1.0 0.1365294948
C  C61  1  0.42000000  0.90000000  0.06000000  1.0 -0.1514460719
C  C62  1  0.44800000  0.92600000  0.06800000  1.0 -0.0802620298
C  C63  1  0.43900000  0.95300000  0.09100000  1.0 0.0912124173
C  C64  1  0.40400000  0.95400000  0.10200000  1.0 -0.0417764661
C  C65  1  0.46600000  0.97700000  0.10500000  1.0 -0.3196017895
C  C66  1  0.86100000  0.46800000  0.70000000  1.0 0.0022006497
C  C67  1  0.92200000  0.47700000  0.71800000  1.0 -0.0300465608
C  C68  1  0.81600000  0.50100000  0.56000000  1.0 0.0675970793
C  C69  1  0.80700000  0.53500000  0.54600000  1.0 -0.1275298872
C  C70  1  0.79400000  0.56000000  0.57200000  1.0 -0.0479934345
C  C71  1  0.79600000  0.55200000  0.61100000  1.0 -0.1275298872
C  C72  1  0.80500000  0.51900000  0.62600000  1.0 0.0912124173
C  C73  1  0.88800000  0.39800000  0.57900000  1.0 0.1365294948
C  C74  1  0.92000000  0.40000000  0.56000000  1.0 -0.1514460719
C  C75  1  0.94800000  0.42600000  0.56800000  1.0 -0.0802620298
C  C76  1  0.93900000  0.45300000  0.59100000  1.0 0.0912124173
C  C77  1  0.90400000  0.45400000  0.60200000  1.0 -0.0417764661
C  C78  1  0.96600000  0.47700000  0.60500000  1.0 -0.3196017895
C  C79  1  0.13900000  0.03200000  0.70000000  1.0 0.0022006497
C  C80  1  0.07800000  0.02300000  0.71800000  1.0 -0.0300465608
C  C81  1  0.18400000  0.99900000  0.56000000  1.0 0.0675970793
C  C82  1  0.19300000  0.96500000  0.54600000  1.0 -0.1275298872
C  C83  1  0.20600000  0.94000000  0.57200000  1.0 -0.0479934345
C  C84  1  0.20400000  0.94800000  0.61100000  1.0 -0.1275298872
C  C85  1  0.19500000  0.98100000  0.62600000  1.0 0.0912124173
C  C86  1  0.11200000  0.10200000  0.57900000  1.0 0.1365294948
C  C87  1  0.08000000  0.10000000  0.56000000  1.0 -0.1514460719
C  C88  1  0.05200000  0.07400000  0.56800000  1.0 -0.0802620298
C  C89  1  0.06100000  0.04700000  0.59100000  1.0 0.0912124173
C  C90  1  0.09600000  0.04600000  0.60200000  1.0 -0.0417764661
C  C91  1  0.03400000  0.02300000  0.60500000  1.0 -0.3196017895
C  C92  1  0.63900000  0.53200000  0.20000000  1.0 0.0022006497
C  C93  1  0.57800000  0.52300000  0.21800000  1.0 -0.0300465608
C  C94  1  0.68400000  0.49900000  0.06000000  1.0 0.0675970793
C  C95  1  0.69300000  0.46500000  0.04600000  1.0 -0.1275298872
C  C96  1  0.70600000  0.44000000  0.07200000  1.0 -0.0479934345
C  C97  1  0.70400000  0.44800000  0.11100000  1.0 -0.1275298872
C  C98  1  0.69500000  0.48100000  0.12600000  1.0 0.0912124173
C  C99  1  0.61200000  0.60200000  0.07900000  1.0 0.1365294948
C  C100  1  0.58000000  0.60000000  0.06000000  1.0 -0.1514460719
C  C101  1  0.55200000  0.57400000  0.06800000  1.0 -0.0802620298
C  C102  1  0.56100000  0.54700000  0.09100000  1.0 0.0912124173
C  C103  1  0.59600000  0.54600000  0.10200000  1.0 -0.0417764661
C  C104  1  0.53400000  0.52300000  0.10500000  1.0 -0.3196017895
C  C105  1  0.30000000  0.63900000  0.46800000  1.0 0.0022006497
C  C106  1  0.28200000  0.57800000  0.47700000  1.0 -0.0300465608
C  C107  1  0.44000000  0.68400000  0.50100000  1.0 0.0675970793
C  C108  1  0.45400000  0.69300000  0.53500000  1.0 -0.1275298872
C  C109  1  0.42800000  0.70600000  0.56000000  1.0 -0.0479934345
C  C110  1  0.38900000  0.70400000  0.55200000  1.0 -0.1275298872
C  C111  1  0.37400000  0.69500000  0.51900000  1.0 0.0912124173
C  C112  1  0.42100000  0.61200000  0.39800000  1.0 0.1365294948
C  C113  1  0.44000000  0.58000000  0.40000000  1.0 -0.1514460719
C  C114  1  0.43200000  0.55200000  0.42600000  1.0 -0.0802620298
C  C115  1  0.40900000  0.56100000  0.45300000  1.0 0.0912124173
C  C116  1  0.39800000  0.59600000  0.45400000  1.0 -0.0417764661
C  C117  1  0.39500000  0.53400000  0.47700000  1.0 -0.3196017895
C  C118  1  0.80000000  0.13900000  0.96800000  1.0 0.0022006497
C  C119  1  0.78200000  0.07800000  0.97700000  1.0 -0.0300465608
C  C120  1  0.94000000  0.18400000  0.00100000  1.0 0.0675970793
C  C121  1  0.95400000  0.19300000  0.03500000  1.0 -0.1275298872
C  C122  1  0.92800000  0.20600000  0.06000000  1.0 -0.0479934345
C  C123  1  0.88900000  0.20400000  0.05200000  1.0 -0.1275298872
C  C124  1  0.87400000  0.19500000  0.01900000  1.0 0.0912124173
C  C125  1  0.92100000  0.11200000  0.89800000  1.0 0.1365294948
C  C126  1  0.94000000  0.08000000  0.90000000  1.0 -0.1514460719
C  C127  1  0.93200000  0.05200000  0.92600000  1.0 -0.0802620298
C  C128  1  0.90900000  0.06100000  0.95300000  1.0 0.0912124173
C  C129  1  0.89800000  0.09600000  0.95400000  1.0 -0.0417764661
C  C130  1  0.89500000  0.03400000  0.97700000  1.0 -0.3196017895
C  C131  1  0.80000000  0.86100000  0.53200000  1.0 0.0022006497
C  C132  1  0.78200000  0.92200000  0.52300000  1.0 -0.0300465608
C  C133  1  0.94000000  0.81600000  0.49900000  1.0 0.0675970793
C  C134  1  0.95400000  0.80700000  0.46500000  1.0 -0.1275298872
C  C135  1  0.92800000  0.79400000  0.44000000  1.0 -0.0479934345
C  C136  1  0.88900000  0.79600000  0.44800000  1.0 -0.1275298872
C  C137  1  0.87400000  0.80500000  0.48100000  1.0 0.0912124173
C  C138  1  0.92100000  0.88800000  0.60200000  1.0 0.1365294948
C  C139  1  0.94000000  0.92000000  0.60000000  1.0 -0.1514460719
C  C140  1  0.93200000  0.94800000  0.57400000  1.0 -0.0802620298
C  C141  1  0.90900000  0.93900000  0.54700000  1.0 0.0912124173
C  C142  1  0.89800000  0.90400000  0.54600000  1.0 -0.0417764661
C  C143  1  0.89500000  0.96600000  0.52300000  1.0 -0.3196017895
C  C144  1  0.30000000  0.36100000  0.03200000  1.0 0.0022006497
C  C145  1  0.28200000  0.42200000  0.02300000  1.0 -0.0300465608
C  C146  1  0.44000000  0.31600000  0.99900000  1.0 0.0675970793
C  C147  1  0.45400000  0.30700000  0.96500000  1.0 -0.1275298872
C  C148  1  0.42800000  0.29400000  0.94000000  1.0 -0.0479934345
C  C149  1  0.38900000  0.29600000  0.94800000  1.0 -0.1275298872
C  C150  1  0.37400000  0.30500000  0.98100000  1.0 0.0912124173
C  C151  1  0.42100000  0.38800000  0.10200000  1.0 0.1365294948
C  C152  1  0.44000000  0.42000000  0.10000000  1.0 -0.1514460719
C  C153  1  0.43200000  0.44800000  0.07400000  1.0 -0.0802620298
C  C154  1  0.40900000  0.43900000  0.04700000  1.0 0.0912124173
C  C155  1  0.39800000  0.40400000  0.04600000  1.0 -0.0417764661
C  C156  1  0.39500000  0.46600000  0.02300000  1.0 -0.3196017895
C  C157  1  0.20000000  0.36100000  0.96800000  1.0 0.0022006497
C  C158  1  0.21800000  0.42200000  0.97700000  1.0 -0.0300465608
C  C159  1  0.06000000  0.31600000  0.00100000  1.0 0.0675970793
C  C160  1  0.04600000  0.30700000  0.03500000  1.0 -0.1275298872
C  C161  1  0.07200000  0.29400000  0.06000000  1.0 -0.0479934345
C  C162  1  0.11100000  0.29600000  0.05200000  1.0 -0.1275298872
C  C163  1  0.12600000  0.30500000  0.01900000  1.0 0.0912124173
C  C164  1  0.07900000  0.38800000  0.89800000  1.0 0.1365294948
C  C165  1  0.06000000  0.42000000  0.90000000  1.0 -0.1514460719
C  C166  1  0.06800000  0.44800000  0.92600000  1.0 -0.0802620298
C  C167  1  0.09100000  0.43900000  0.95300000  1.0 0.0912124173
C  C168  1  0.10200000  0.40400000  0.95400000  1.0 -0.0417764661
C  C169  1  0.10500000  0.46600000  0.97700000  1.0 -0.3196017895
C  C170  1  0.70000000  0.86100000  0.46800000  1.0 0.0022006497
C  C171  1  0.71800000  0.92200000  0.47700000  1.0 -0.0300465608
C  C172  1  0.56000000  0.81600000  0.50100000  1.0 0.0675970793
C  C173  1  0.54600000  0.80700000  0.53500000  1.0 -0.1275298872
C  C174  1  0.57200000  0.79400000  0.56000000  1.0 -0.0479934345
C  C175  1  0.61100000  0.79600000  0.55200000  1.0 -0.1275298872
C  C176  1  0.62600000  0.80500000  0.51900000  1.0 0.0912124173
C  C177  1  0.57900000  0.88800000  0.39800000  1.0 0.1365294948
C  C178  1  0.56000000  0.92000000  0.40000000  1.0 -0.1514460719
C  C179  1  0.56800000  0.94800000  0.42600000  1.0 -0.0802620298
C  C180  1  0.59100000  0.93900000  0.45300000  1.0 0.0912124173
C  C181  1  0.60200000  0.90400000  0.45400000  1.0 -0.0417764661
C  C182  1  0.60500000  0.96600000  0.47700000  1.0 -0.3196017895
C  C183  1  0.70000000  0.13900000  0.03200000  1.0 0.0022006497
C  C184  1  0.71800000  0.07800000  0.02300000  1.0 -0.0300465608
C  C185  1  0.56000000  0.18400000  0.99900000  1.0 0.0675970793
C  C186  1  0.54600000  0.19300000  0.96500000  1.0 -0.1275298872
C  C187  1  0.57200000  0.20600000  0.94000000  1.0 -0.0479934345
C  C188  1  0.61100000  0.20400000  0.94800000  1.0 -0.1275298872
C  C189  1  0.62600000  0.19500000  0.98100000  1.0 0.0912124173
C  C190  1  0.57900000  0.11200000  0.10200000  1.0 0.1365294948
C  C191  1  0.56000000  0.08000000  0.10000000  1.0 -0.1514460719
C  C192  1  0.56800000  0.05200000  0.07400000  1.0 -0.0802620298
C  C193  1  0.59100000  0.06100000  0.04700000  1.0 0.0912124173
C  C194  1  0.60200000  0.09600000  0.04600000  1.0 -0.0417764661
C  C195  1  0.60500000  0.03400000  0.02300000  1.0 -0.3196017895
C  C196  1  0.20000000  0.63900000  0.53200000  1.0 0.0022006497
C  C197  1  0.21800000  0.57800000  0.52300000  1.0 -0.0300465608
C  C198  1  0.06000000  0.68400000  0.49900000  1.0 0.0675970793
C  C199  1  0.04600000  0.69300000  0.46500000  1.0 -0.1275298872
C  C200  1  0.07200000  0.70600000  0.44000000  1.0 -0.0479934345
C  C201  1  0.11100000  0.70400000  0.44800000  1.0 -0.1275298872
C  C202  1  0.12600000  0.69500000  0.48100000  1.0 0.0912124173
C  C203  1  0.07900000  0.61200000  0.60200000  1.0 0.1365294948
C  C204  1  0.06000000  0.58000000  0.60000000  1.0 -0.1514460719
C  C205  1  0.06800000  0.55200000  0.57400000  1.0 -0.0802620298
C  C206  1  0.09100000  0.56100000  0.54700000  1.0 0.0912124173
C  C207  1  0.10200000  0.59600000  0.54600000  1.0 -0.0417764661
C  C208  1  0.10500000  0.53400000  0.52300000  1.0 -0.3196017895
C  C209  1  0.46800000  0.30000000  0.63900000  1.0 0.0022006497
C  C210  1  0.47700000  0.28200000  0.57800000  1.0 -0.0300465608
C  C211  1  0.50100000  0.44000000  0.68400000  1.0 0.0675970793
C  C212  1  0.53500000  0.45400000  0.69300000  1.0 -0.1275298872
C  C213  1  0.56000000  0.42800000  0.70600000  1.0 -0.0479934345
C  C214  1  0.55200000  0.38900000  0.70400000  1.0 -0.1275298872
C  C215  1  0.51900000  0.37400000  0.69500000  1.0 0.0912124173
C  C216  1  0.39800000  0.42100000  0.61200000  1.0 0.1365294948
C  C217  1  0.40000000  0.44000000  0.58000000  1.0 -0.1514460719
C  C218  1  0.42600000  0.43200000  0.55200000  1.0 -0.0802620298
C  C219  1  0.45300000  0.40900000  0.56100000  1.0 0.0912124173
C  C220  1  0.45400000  0.39800000  0.59600000  1.0 -0.0417764661
C  C221  1  0.47700000  0.39500000  0.53400000  1.0 -0.3196017895
C  C222  1  0.96800000  0.80000000  0.13900000  1.0 0.0022006497
C  C223  1  0.97700000  0.78200000  0.07800000  1.0 -0.0300465608
C  C224  1  0.00100000  0.94000000  0.18400000  1.0 0.0675970793
C  C225  1  0.03500000  0.95400000  0.19300000  1.0 -0.1275298872
C  C226  1  0.06000000  0.92800000  0.20600000  1.0 -0.0479934345
C  C227  1  0.05200000  0.88900000  0.20400000  1.0 -0.1275298872
C  C228  1  0.01900000  0.87400000  0.19500000  1.0 0.0912124173
C  C229  1  0.89800000  0.92100000  0.11200000  1.0 0.1365294948
C  C230  1  0.90000000  0.94000000  0.08000000  1.0 -0.1514460719
C  C231  1  0.92600000  0.93200000  0.05200000  1.0 -0.0802620298
C  C232  1  0.95300000  0.90900000  0.06100000  1.0 0.0912124173
C  C233  1  0.95400000  0.89800000  0.09600000  1.0 -0.0417764661
C  C234  1  0.97700000  0.89500000  0.03400000  1.0 -0.3196017895
C  C235  1  0.53200000  0.80000000  0.86100000  1.0 0.0022006497
C  C236  1  0.52300000  0.78200000  0.92200000  1.0 -0.0300465608
C  C237  1  0.49900000  0.94000000  0.81600000  1.0 0.0675970793
C  C238  1  0.46500000  0.95400000  0.80700000  1.0 -0.1275298872
C  C239  1  0.44000000  0.92800000  0.79400000  1.0 -0.0479934345
C  C240  1  0.44800000  0.88900000  0.79600000  1.0 -0.1275298872
C  C241  1  0.48100000  0.87400000  0.80500000  1.0 0.0912124173
C  C242  1  0.60200000  0.92100000  0.88800000  1.0 0.1365294948
C  C243  1  0.60000000  0.94000000  0.92000000  1.0 -0.1514460719
C  C244  1  0.57400000  0.93200000  0.94800000  1.0 -0.0802620298
C  C245  1  0.54700000  0.90900000  0.93900000  1.0 0.0912124173
C  C246  1  0.54600000  0.89800000  0.90400000  1.0 -0.0417764661
C  C247  1  0.52300000  0.89500000  0.96600000  1.0 -0.3196017895
C  C248  1  0.03200000  0.30000000  0.36100000  1.0 0.0022006497
C  C249  1  0.02300000  0.28200000  0.42200000  1.0 -0.0300465608
C  C250  1  0.99900000  0.44000000  0.31600000  1.0 0.0675970793
C  C251  1  0.96500000  0.45400000  0.30700000  1.0 -0.1275298872
C  C252  1  0.94000000  0.42800000  0.29400000  1.0 -0.0479934345
C  C253  1  0.94800000  0.38900000  0.29600000  1.0 -0.1275298872
C  C254  1  0.98100000  0.37400000  0.30500000  1.0 0.0912124173
C  C255  1  0.10200000  0.42100000  0.38800000  1.0 0.1365294948
C  C256  1  0.10000000  0.44000000  0.42000000  1.0 -0.1514460719
C  C257  1  0.07400000  0.43200000  0.44800000  1.0 -0.0802620298
C  C258  1  0.04700000  0.40900000  0.43900000  1.0 0.0912124173
C  C259  1  0.04600000  0.39800000  0.40400000  1.0 -0.0417764661
C  C260  1  0.02300000  0.39500000  0.46600000  1.0 -0.3196017895
C  C261  1  0.96800000  0.20000000  0.36100000  1.0 0.0022006497
C  C262  1  0.97700000  0.21800000  0.42200000  1.0 -0.0300465608
C  C263  1  0.00100000  0.06000000  0.31600000  1.0 0.0675970793
C  C264  1  0.03500000  0.04600000  0.30700000  1.0 -0.1275298872
C  C265  1  0.06000000  0.07200000  0.29400000  1.0 -0.0479934345
C  C266  1  0.05200000  0.11100000  0.29600000  1.0 -0.1275298872
C  C267  1  0.01900000  0.12600000  0.30500000  1.0 0.0912124173
C  C268  1  0.89800000  0.07900000  0.38800000  1.0 0.1365294948
C  C269  1  0.90000000  0.06000000  0.42000000  1.0 -0.1514460719
C  C270  1  0.92600000  0.06800000  0.44800000  1.0 -0.0802620298
C  C271  1  0.95300000  0.09100000  0.43900000  1.0 0.0912124173
C  C272  1  0.95400000  0.10200000  0.40400000  1.0 -0.0417764661
C  C273  1  0.97700000  0.10500000  0.46600000  1.0 -0.3196017895
C  C274  1  0.46800000  0.70000000  0.86100000  1.0 0.0022006497
C  C275  1  0.47700000  0.71800000  0.92200000  1.0 -0.0300465608
C  C276  1  0.50100000  0.56000000  0.81600000  1.0 0.0675970793
C  C277  1  0.53500000  0.54600000  0.80700000  1.0 -0.1275298872
C  C278  1  0.56000000  0.57200000  0.79400000  1.0 -0.0479934345
C  C279  1  0.55200000  0.61100000  0.79600000  1.0 -0.1275298872
C  C280  1  0.51900000  0.62600000  0.80500000  1.0 0.0912124173
C  C281  1  0.39800000  0.57900000  0.88800000  1.0 0.1365294948
C  C282  1  0.40000000  0.56000000  0.92000000  1.0 -0.1514460719
C  C283  1  0.42600000  0.56800000  0.94800000  1.0 -0.0802620298
C  C284  1  0.45300000  0.59100000  0.93900000  1.0 0.0912124173
C  C285  1  0.45400000  0.60200000  0.90400000  1.0 -0.0417764661
C  C286  1  0.47700000  0.60500000  0.96600000  1.0 -0.3196017895
C  C287  1  0.03200000  0.70000000  0.13900000  1.0 0.0022006497
C  C288  1  0.02300000  0.71800000  0.07800000  1.0 -0.0300465608
C  C289  1  0.99900000  0.56000000  0.18400000  1.0 0.0675970793
C  C290  1  0.96500000  0.54600000  0.19300000  1.0 -0.1275298872
C  C291  1  0.94000000  0.57200000  0.20600000  1.0 -0.0479934345
C  C292  1  0.94800000  0.61100000  0.20400000  1.0 -0.1275298872
C  C293  1  0.98100000  0.62600000  0.19500000  1.0 0.0912124173
C  C294  1  0.10200000  0.57900000  0.11200000  1.0 0.1365294948
C  C295  1  0.10000000  0.56000000  0.08000000  1.0 -0.1514460719
C  C296  1  0.07400000  0.56800000  0.05200000  1.0 -0.0802620298
C  C297  1  0.04700000  0.59100000  0.06100000  1.0 0.0912124173
C  C298  1  0.04600000  0.60200000  0.09600000  1.0 -0.0417764661
C  C299  1  0.02300000  0.60500000  0.03400000  1.0 -0.3196017895
C  C300  1  0.53200000  0.20000000  0.63900000  1.0 0.0022006497
C  C301  1  0.52300000  0.21800000  0.57800000  1.0 -0.0300465608
C  C302  1  0.49900000  0.06000000  0.68400000  1.0 0.0675970793
C  C303  1  0.46500000  0.04600000  0.69300000  1.0 -0.1275298872
C  C304  1  0.44000000  0.07200000  0.70600000  1.0 -0.0479934345
C  C305  1  0.44800000  0.11100000  0.70400000  1.0 -0.1275298872
C  C306  1  0.48100000  0.12600000  0.69500000  1.0 0.0912124173
C  C307  1  0.60200000  0.07900000  0.61200000  1.0 0.1365294948
C  C308  1  0.60000000  0.06000000  0.58000000  1.0 -0.1514460719
C  C309  1  0.57400000  0.06800000  0.55200000  1.0 -0.0802620298
C  C310  1  0.54700000  0.09100000  0.56100000  1.0 0.0912124173
C  C311  1  0.54600000  0.10200000  0.59600000  1.0 -0.0417764661
C  C312  1  0.52300000  0.10500000  0.53400000  1.0 -0.3196017895
C  C313  1  0.21800000  0.88900000  0.95000000  1.0 0.0022006497
C  C314  1  0.22700000  0.82800000  0.96800000  1.0 -0.0300465608
C  C315  1  0.25100000  0.93400000  0.81000000  1.0 0.0675970793
C  C316  1  0.28500000  0.94300000  0.79600000  1.0 -0.1275298872
C  C317  1  0.31000000  0.95600000  0.82200000  1.0 -0.0479934345
C  C318  1  0.30200000  0.95400000  0.86100000  1.0 -0.1275298872
C  C319  1  0.26900000  0.94500000  0.87600000  1.0 0.0912124173
C  C320  1  0.14800000  0.86200000  0.82900000  1.0 0.1365294948
C  C321  1  0.15000000  0.83000000  0.81000000  1.0 -0.1514460719
C  C322  1  0.17600000  0.80200000  0.81800000  1.0 -0.0802620298
C  C323  1  0.20300000  0.81100000  0.84100000  1.0 0.0912124173
C  C324  1  0.20400000  0.84600000  0.85200000  1.0 -0.0417764661
C  C325  1  0.22700000  0.78400000  0.85500000  1.0 -0.3196017895
C  C326  1  0.71800000  0.38900000  0.45000000  1.0 0.0022006497
C  C327  1  0.72700000  0.32800000  0.46800000  1.0 -0.0300465608
C  C328  1  0.75100000  0.43400000  0.31000000  1.0 0.0675970793
C  C329  1  0.78500000  0.44300000  0.29600000  1.0 -0.1275298872
C  C330  1  0.81000000  0.45600000  0.32200000  1.0 -0.0479934345
C  C331  1  0.80200000  0.45400000  0.36100000  1.0 -0.1275298872
C  C332  1  0.76900000  0.44500000  0.37600000  1.0 0.0912124173
C  C333  1  0.64800000  0.36200000  0.32900000  1.0 0.1365294948
C  C334  1  0.65000000  0.33000000  0.31000000  1.0 -0.1514460719
C  C335  1  0.67600000  0.30200000  0.31800000  1.0 -0.0802620298
C  C336  1  0.70300000  0.31100000  0.34100000  1.0 0.0912124173
C  C337  1  0.70400000  0.34600000  0.35200000  1.0 -0.0417764661
C  C338  1  0.72700000  0.28400000  0.35500000  1.0 -0.3196017895
C  C339  1  0.28200000  0.11100000  0.45000000  1.0 0.0022006497
C  C340  1  0.27300000  0.17200000  0.46800000  1.0 -0.0300465608
C  C341  1  0.24900000  0.06600000  0.31000000  1.0 0.0675970793
C  C342  1  0.21500000  0.05700000  0.29600000  1.0 -0.1275298872
C  C343  1  0.19000000  0.04400000  0.32200000  1.0 -0.0479934345
C  C344  1  0.19800000  0.04600000  0.36100000  1.0 -0.1275298872
C  C345  1  0.23100000  0.05500000  0.37600000  1.0 0.0912124173
C  C346  1  0.35200000  0.13800000  0.32900000  1.0 0.1365294948
C  C347  1  0.35000000  0.17000000  0.31000000  1.0 -0.1514460719
C  C348  1  0.32400000  0.19800000  0.31800000  1.0 -0.0802620298
C  C349  1  0.29700000  0.18900000  0.34100000  1.0 0.0912124173
C  C350  1  0.29600000  0.15400000  0.35200000  1.0 -0.0417764661
C  C351  1  0.27300000  0.21600000  0.35500000  1.0 -0.3196017895
C  C352  1  0.78200000  0.61100000  0.95000000  1.0 0.0022006497
C  C353  1  0.77300000  0.67200000  0.96800000  1.0 -0.0300465608
C  C354  1  0.74900000  0.56600000  0.81000000  1.0 0.0675970793
C  C355  1  0.71500000  0.55700000  0.79600000  1.0 -0.1275298872
C  C356  1  0.69000000  0.54400000  0.82200000  1.0 -0.0479934345
C  C357  1  0.69800000  0.54600000  0.86100000  1.0 -0.1275298872
C  C358  1  0.73100000  0.55500000  0.87600000  1.0 0.0912124173
C  C359  1  0.85200000  0.63800000  0.82900000  1.0 0.1365294948
C  C360  1  0.85000000  0.67000000  0.81000000  1.0 -0.1514460719
C  C361  1  0.82400000  0.69800000  0.81800000  1.0 -0.0802620298
C  C362  1  0.79700000  0.68900000  0.84100000  1.0 0.0912124173
C  C363  1  0.79600000  0.65400000  0.85200000  1.0 -0.0417764661
C  C364  1  0.77300000  0.71600000  0.85500000  1.0 -0.3196017895
C  C365  1  0.71800000  0.61100000  0.05000000  1.0 0.0022006497
C  C366  1  0.72700000  0.67200000  0.03200000  1.0 -0.0300465608
C  C367  1  0.75100000  0.56600000  0.19000000  1.0 0.0675970793
C  C368  1  0.78500000  0.55700000  0.20400000  1.0 -0.1275298872
C  C369  1  0.81000000  0.54400000  0.17800000  1.0 -0.0479934345
C  C370  1  0.80200000  0.54600000  0.13900000  1.0 -0.1275298872
C  C371  1  0.76900000  0.55500000  0.12400000  1.0 0.0912124173
C  C372  1  0.64800000  0.63800000  0.17100000  1.0 0.1365294948
C  C373  1  0.65000000  0.67000000  0.19000000  1.0 -0.1514460719
C  C374  1  0.67600000  0.69800000  0.18200000  1.0 -0.0802620298
C  C375  1  0.70300000  0.68900000  0.15900000  1.0 0.0912124173
C  C376  1  0.70400000  0.65400000  0.14800000  1.0 -0.0417764661
C  C377  1  0.72700000  0.71600000  0.14500000  1.0 -0.3196017895
C  C378  1  0.21800000  0.11100000  0.55000000  1.0 0.0022006497
C  C379  1  0.22700000  0.17200000  0.53200000  1.0 -0.0300465608
C  C380  1  0.25100000  0.06600000  0.69000000  1.0 0.0675970793
C  C381  1  0.28500000  0.05700000  0.70400000  1.0 -0.1275298872
C  C382  1  0.31000000  0.04400000  0.67800000  1.0 -0.0479934345
C  C383  1  0.30200000  0.04600000  0.63900000  1.0 -0.1275298872
C  C384  1  0.26900000  0.05500000  0.62400000  1.0 0.0912124173
C  C385  1  0.14800000  0.13800000  0.67100000  1.0 0.1365294948
C  C386  1  0.15000000  0.17000000  0.69000000  1.0 -0.1514460719
C  C387  1  0.17600000  0.19800000  0.68200000  1.0 -0.0802620298
C  C388  1  0.20300000  0.18900000  0.65900000  1.0 0.0912124173
C  C389  1  0.20400000  0.15400000  0.64800000  1.0 -0.0417764661
C  C390  1  0.22700000  0.21600000  0.64500000  1.0 -0.3196017895
C  C391  1  0.78200000  0.38900000  0.55000000  1.0 0.0022006497
C  C392  1  0.77300000  0.32800000  0.53200000  1.0 -0.0300465608
C  C393  1  0.74900000  0.43400000  0.69000000  1.0 0.0675970793
C  C394  1  0.71500000  0.44300000  0.70400000  1.0 -0.1275298872
C  C395  1  0.69000000  0.45600000  0.67800000  1.0 -0.0479934345
C  C396  1  0.69800000  0.45400000  0.63900000  1.0 -0.1275298872
C  C397  1  0.73100000  0.44500000  0.62400000  1.0 0.0912124173
C  C398  1  0.85200000  0.36200000  0.67100000  1.0 0.1365294948
C  C399  1  0.85000000  0.33000000  0.69000000  1.0 -0.1514460719
C  C400  1  0.82400000  0.30200000  0.68200000  1.0 -0.0802620298
C  C401  1  0.79700000  0.31100000  0.65900000  1.0 0.0912124173
C  C402  1  0.79600000  0.34600000  0.64800000  1.0 -0.0417764661
C  C403  1  0.77300000  0.28400000  0.64500000  1.0 -0.3196017895
C  C404  1  0.28200000  0.88900000  0.05000000  1.0 0.0022006497
C  C405  1  0.27300000  0.82800000  0.03200000  1.0 -0.0300465608
C  C406  1  0.24900000  0.93400000  0.19000000  1.0 0.0675970793
C  C407  1  0.21500000  0.94300000  0.20400000  1.0 -0.1275298872
C  C408  1  0.19000000  0.95600000  0.17800000  1.0 -0.0479934345
C  C409  1  0.19800000  0.95400000  0.13900000  1.0 -0.1275298872
C  C410  1  0.23100000  0.94500000  0.12400000  1.0 0.0912124173
C  C411  1  0.35200000  0.86200000  0.17100000  1.0 0.1365294948
C  C412  1  0.35000000  0.83000000  0.19000000  1.0 -0.1514460719
C  C413  1  0.32400000  0.80200000  0.18200000  1.0 -0.0802620298
C  C414  1  0.29700000  0.81100000  0.15900000  1.0 0.0912124173
C  C415  1  0.29600000  0.84600000  0.14800000  1.0 -0.0417764661
C  C416  1  0.27300000  0.78400000  0.14500000  1.0 -0.3196017895
C  C417  1  0.38900000  0.55000000  0.78200000  1.0 0.0022006497
C  C418  1  0.32800000  0.53200000  0.77300000  1.0 -0.0300465608
C  C419  1  0.43400000  0.69000000  0.74900000  1.0 0.0675970793
C  C420  1  0.44300000  0.70400000  0.71500000  1.0 -0.1275298872
C  C421  1  0.45600000  0.67800000  0.69000000  1.0 -0.0479934345
C  C422  1  0.45400000  0.63900000  0.69800000  1.0 -0.1275298872
C  C423  1  0.44500000  0.62400000  0.73100000  1.0 0.0912124173
C  C424  1  0.36200000  0.67100000  0.85200000  1.0 0.1365294948
C  C425  1  0.33000000  0.69000000  0.85000000  1.0 -0.1514460719
C  C426  1  0.30200000  0.68200000  0.82400000  1.0 -0.0802620298
C  C427  1  0.31100000  0.65900000  0.79700000  1.0 0.0912124173
C  C428  1  0.34600000  0.64800000  0.79600000  1.0 -0.0417764661
C  C429  1  0.28400000  0.64500000  0.77300000  1.0 -0.3196017895
C  C430  1  0.88900000  0.05000000  0.28200000  1.0 0.0022006497
C  C431  1  0.82800000  0.03200000  0.27300000  1.0 -0.0300465608
C  C432  1  0.93400000  0.19000000  0.24900000  1.0 0.0675970793
C  C433  1  0.94300000  0.20400000  0.21500000  1.0 -0.1275298872
C  C434  1  0.95600000  0.17800000  0.19000000  1.0 -0.0479934345
C  C435  1  0.95400000  0.13900000  0.19800000  1.0 -0.1275298872
C  C436  1  0.94500000  0.12400000  0.23100000  1.0 0.0912124173
C  C437  1  0.86200000  0.17100000  0.35200000  1.0 0.1365294948
C  C438  1  0.83000000  0.19000000  0.35000000  1.0 -0.1514460719
C  C439  1  0.80200000  0.18200000  0.32400000  1.0 -0.0802620298
C  C440  1  0.81100000  0.15900000  0.29700000  1.0 0.0912124173
C  C441  1  0.84600000  0.14800000  0.29600000  1.0 -0.0417764661
C  C442  1  0.78400000  0.14500000  0.27300000  1.0 -0.3196017895
C  C443  1  0.61100000  0.05000000  0.71800000  1.0 0.0022006497
C  C444  1  0.67200000  0.03200000  0.72700000  1.0 -0.0300465608
C  C445  1  0.56600000  0.19000000  0.75100000  1.0 0.0675970793
C  C446  1  0.55700000  0.20400000  0.78500000  1.0 -0.1275298872
C  C447  1  0.54400000  0.17800000  0.81000000  1.0 -0.0479934345
C  C448  1  0.54600000  0.13900000  0.80200000  1.0 -0.1275298872
C  C449  1  0.55500000  0.12400000  0.76900000  1.0 0.0912124173
C  C450  1  0.63800000  0.17100000  0.64800000  1.0 0.1365294948
C  C451  1  0.67000000  0.19000000  0.65000000  1.0 -0.1514460719
C  C452  1  0.69800000  0.18200000  0.67600000  1.0 -0.0802620298
C  C453  1  0.68900000  0.15900000  0.70300000  1.0 0.0912124173
C  C454  1  0.65400000  0.14800000  0.70400000  1.0 -0.0417764661
C  C455  1  0.71600000  0.14500000  0.72700000  1.0 -0.3196017895
C  C456  1  0.11100000  0.55000000  0.21800000  1.0 0.0022006497
C  C457  1  0.17200000  0.53200000  0.22700000  1.0 -0.0300465608
C  C458  1  0.06600000  0.69000000  0.25100000  1.0 0.0675970793
C  C459  1  0.05700000  0.70400000  0.28500000  1.0 -0.1275298872
C  C460  1  0.04400000  0.67800000  0.31000000  1.0 -0.0479934345
C  C461  1  0.04600000  0.63900000  0.30200000  1.0 -0.1275298872
C  C462  1  0.05500000  0.62400000  0.26900000  1.0 0.0912124173
C  C463  1  0.13800000  0.67100000  0.14800000  1.0 0.1365294948
C  C464  1  0.17000000  0.69000000  0.15000000  1.0 -0.1514460719
C  C465  1  0.19800000  0.68200000  0.17600000  1.0 -0.0802620298
C  C466  1  0.18900000  0.65900000  0.20300000  1.0 0.0912124173
C  C467  1  0.15400000  0.64800000  0.20400000  1.0 -0.0417764661
C  C468  1  0.21600000  0.64500000  0.22700000  1.0 -0.3196017895
C  C469  1  0.11100000  0.45000000  0.28200000  1.0 0.0022006497
C  C470  1  0.17200000  0.46800000  0.27300000  1.0 -0.0300465608
C  C471  1  0.06600000  0.31000000  0.24900000  1.0 0.0675970793
C  C472  1  0.05700000  0.29600000  0.21500000  1.0 -0.1275298872
C  C473  1  0.04400000  0.32200000  0.19000000  1.0 -0.0479934345
C  C474  1  0.04600000  0.36100000  0.19800000  1.0 -0.1275298872
C  C475  1  0.05500000  0.37600000  0.23100000  1.0 0.0912124173
C  C476  1  0.13800000  0.32900000  0.35200000  1.0 0.1365294948
C  C477  1  0.17000000  0.31000000  0.35000000  1.0 -0.1514460719
C  C478  1  0.19800000  0.31800000  0.32400000  1.0 -0.0802620298
C  C479  1  0.18900000  0.34100000  0.29700000  1.0 0.0912124173
C  C480  1  0.15400000  0.35200000  0.29600000  1.0 -0.0417764661
C  C481  1  0.21600000  0.35500000  0.27300000  1.0 -0.3196017895
C  C482  1  0.61100000  0.95000000  0.78200000  1.0 0.0022006497
C  C483  1  0.67200000  0.96800000  0.77300000  1.0 -0.0300465608
C  C484  1  0.56600000  0.81000000  0.74900000  1.0 0.0675970793
C  C485  1  0.55700000  0.79600000  0.71500000  1.0 -0.1275298872
C  C486  1  0.54400000  0.82200000  0.69000000  1.0 -0.0479934345
C  C487  1  0.54600000  0.86100000  0.69800000  1.0 -0.1275298872
C  C488  1  0.55500000  0.87600000  0.73100000  1.0 0.0912124173
C  C489  1  0.63800000  0.82900000  0.85200000  1.0 0.1365294948
C  C490  1  0.67000000  0.81000000  0.85000000  1.0 -0.1514460719
C  C491  1  0.69800000  0.81800000  0.82400000  1.0 -0.0802620298
C  C492  1  0.68900000  0.84100000  0.79700000  1.0 0.0912124173
C  C493  1  0.65400000  0.85200000  0.79600000  1.0 -0.0417764661
C  C494  1  0.71600000  0.85500000  0.77300000  1.0 -0.3196017895
C  C495  1  0.88900000  0.95000000  0.21800000  1.0 0.0022006497
C  C496  1  0.82800000  0.96800000  0.22700000  1.0 -0.0300465608
C  C497  1  0.93400000  0.81000000  0.25100000  1.0 0.0675970793
C  C498  1  0.94300000  0.79600000  0.28500000  1.0 -0.1275298872
C  C499  1  0.95600000  0.82200000  0.31000000  1.0 -0.0479934345
C  C500  1  0.95400000  0.86100000  0.30200000  1.0 -0.1275298872
C  C501  1  0.94500000  0.87600000  0.26900000  1.0 0.0912124173
C  C502  1  0.86200000  0.82900000  0.14800000  1.0 0.1365294948
C  C503  1  0.83000000  0.81000000  0.15000000  1.0 -0.1514460719
C  C504  1  0.80200000  0.81800000  0.17600000  1.0 -0.0802620298
C  C505  1  0.81100000  0.84100000  0.20300000  1.0 0.0912124173
C  C506  1  0.84600000  0.85200000  0.20400000  1.0 -0.0417764661
C  C507  1  0.78400000  0.85500000  0.22700000  1.0 -0.3196017895
C  C508  1  0.38900000  0.45000000  0.71800000  1.0 0.0022006497
C  C509  1  0.32800000  0.46800000  0.72700000  1.0 -0.0300465608
C  C510  1  0.43400000  0.31000000  0.75100000  1.0 0.0675970793
C  C511  1  0.44300000  0.29600000  0.78500000  1.0 -0.1275298872
C  C512  1  0.45600000  0.32200000  0.81000000  1.0 -0.0479934345
C  C513  1  0.45400000  0.36100000  0.80200000  1.0 -0.1275298872
C  C514  1  0.44500000  0.37600000  0.76900000  1.0 0.0912124173
C  C515  1  0.36200000  0.32900000  0.64800000  1.0 0.1365294948
C  C516  1  0.33000000  0.31000000  0.65000000  1.0 -0.1514460719
C  C517  1  0.30200000  0.31800000  0.67600000  1.0 -0.0802620298
C  C518  1  0.31100000  0.34100000  0.70300000  1.0 0.0912124173
C  C519  1  0.34600000  0.35200000  0.70400000  1.0 -0.0417764661
C  C520  1  0.28400000  0.35500000  0.72700000  1.0 -0.3196017895
C  C521  1  0.05000000  0.71800000  0.61100000  1.0 0.0022006497
C  C522  1  0.03200000  0.72700000  0.67200000  1.0 -0.0300465608
C  C523  1  0.19000000  0.75100000  0.56600000  1.0 0.0675970793
C  C524  1  0.20400000  0.78500000  0.55700000  1.0 -0.1275298872
C  C525  1  0.17800000  0.81000000  0.54400000  1.0 -0.0479934345
C  C526  1  0.13900000  0.80200000  0.54600000  1.0 -0.1275298872
C  C527  1  0.12400000  0.76900000  0.55500000  1.0 0.0912124173
C  C528  1  0.17100000  0.64800000  0.63800000  1.0 0.1365294948
C  C529  1  0.19000000  0.65000000  0.67000000  1.0 -0.1514460719
C  C530  1  0.18200000  0.67600000  0.69800000  1.0 -0.0802620298
C  C531  1  0.15900000  0.70300000  0.68900000  1.0 0.0912124173
C  C532  1  0.14800000  0.70400000  0.65400000  1.0 -0.0417764661
C  C533  1  0.14500000  0.72700000  0.71600000  1.0 -0.3196017895
C  C534  1  0.55000000  0.21800000  0.11100000  1.0 0.0022006497
C  C535  1  0.53200000  0.22700000  0.17200000  1.0 -0.0300465608
C  C536  1  0.69000000  0.25100000  0.06600000  1.0 0.0675970793
C  C537  1  0.70400000  0.28500000  0.05700000  1.0 -0.1275298872
C  C538  1  0.67800000  0.31000000  0.04400000  1.0 -0.0479934345
C  C539  1  0.63900000  0.30200000  0.04600000  1.0 -0.1275298872
C  C540  1  0.62400000  0.26900000  0.05500000  1.0 0.0912124173
C  C541  1  0.67100000  0.14800000  0.13800000  1.0 0.1365294948
C  C542  1  0.69000000  0.15000000  0.17000000  1.0 -0.1514460719
C  C543  1  0.68200000  0.17600000  0.19800000  1.0 -0.0802620298
C  C544  1  0.65900000  0.20300000  0.18900000  1.0 0.0912124173
C  C545  1  0.64800000  0.20400000  0.15400000  1.0 -0.0417764661
C  C546  1  0.64500000  0.22700000  0.21600000  1.0 -0.3196017895
C  C547  1  0.55000000  0.78200000  0.38900000  1.0 0.0022006497
C  C548  1  0.53200000  0.77300000  0.32800000  1.0 -0.0300465608
C  C549  1  0.69000000  0.74900000  0.43400000  1.0 0.0675970793
C  C550  1  0.70400000  0.71500000  0.44300000  1.0 -0.1275298872
C  C551  1  0.67800000  0.69000000  0.45600000  1.0 -0.0479934345
C  C552  1  0.63900000  0.69800000  0.45400000  1.0 -0.1275298872
C  C553  1  0.62400000  0.73100000  0.44500000  1.0 0.0912124173
C  C554  1  0.67100000  0.85200000  0.36200000  1.0 0.1365294948
C  C555  1  0.69000000  0.85000000  0.33000000  1.0 -0.1514460719
C  C556  1  0.68200000  0.82400000  0.30200000  1.0 -0.0802620298
C  C557  1  0.65900000  0.79700000  0.31100000  1.0 0.0912124173
C  C558  1  0.64800000  0.79600000  0.34600000  1.0 -0.0417764661
C  C559  1  0.64500000  0.77300000  0.28400000  1.0 -0.3196017895
C  C560  1  0.05000000  0.28200000  0.88900000  1.0 0.0022006497
C  C561  1  0.03200000  0.27300000  0.82800000  1.0 -0.0300465608
C  C562  1  0.19000000  0.24900000  0.93400000  1.0 0.0675970793
C  C563  1  0.20400000  0.21500000  0.94300000  1.0 -0.1275298872
C  C564  1  0.17800000  0.19000000  0.95600000  1.0 -0.0479934345
C  C565  1  0.13900000  0.19800000  0.95400000  1.0 -0.1275298872
C  C566  1  0.12400000  0.23100000  0.94500000  1.0 0.0912124173
C  C567  1  0.17100000  0.35200000  0.86200000  1.0 0.1365294948
C  C568  1  0.19000000  0.35000000  0.83000000  1.0 -0.1514460719
C  C569  1  0.18200000  0.32400000  0.80200000  1.0 -0.0802620298
C  C570  1  0.15900000  0.29700000  0.81100000  1.0 0.0912124173
C  C571  1  0.14800000  0.29600000  0.84600000  1.0 -0.0417764661
C  C572  1  0.14500000  0.27300000  0.78400000  1.0 -0.3196017895
C  C573  1  0.95000000  0.21800000  0.88900000  1.0 0.0022006497
C  C574  1  0.96800000  0.22700000  0.82800000  1.0 -0.0300465608
C  C575  1  0.81000000  0.25100000  0.93400000  1.0 0.0675970793
C  C576  1  0.79600000  0.28500000  0.94300000  1.0 -0.1275298872
C  C577  1  0.82200000  0.31000000  0.95600000  1.0 -0.0479934345
C  C578  1  0.86100000  0.30200000  0.95400000  1.0 -0.1275298872
C  C579  1  0.87600000  0.26900000  0.94500000  1.0 0.0912124173
C  C580  1  0.82900000  0.14800000  0.86200000  1.0 0.1365294948
C  C581  1  0.81000000  0.15000000  0.83000000  1.0 -0.1514460719
C  C582  1  0.81800000  0.17600000  0.80200000  1.0 -0.0802620298
C  C583  1  0.84100000  0.20300000  0.81100000  1.0 0.0912124173
C  C584  1  0.85200000  0.20400000  0.84600000  1.0 -0.0417764661
C  C585  1  0.85500000  0.22700000  0.78400000  1.0 -0.3196017895
C  C586  1  0.45000000  0.71800000  0.38900000  1.0 0.0022006497
C  C587  1  0.46800000  0.72700000  0.32800000  1.0 -0.0300465608
C  C588  1  0.31000000  0.75100000  0.43400000  1.0 0.0675970793
C  C589  1  0.29600000  0.78500000  0.44300000  1.0 -0.1275298872
C  C590  1  0.32200000  0.81000000  0.45600000  1.0 -0.0479934345
C  C591  1  0.36100000  0.80200000  0.45400000  1.0 -0.1275298872
C  C592  1  0.37600000  0.76900000  0.44500000  1.0 0.0912124173
C  C593  1  0.32900000  0.64800000  0.36200000  1.0 0.1365294948
C  C594  1  0.31000000  0.65000000  0.33000000  1.0 -0.1514460719
C  C595  1  0.31800000  0.67600000  0.30200000  1.0 -0.0802620298
C  C596  1  0.34100000  0.70300000  0.31100000  1.0 0.0912124173
C  C597  1  0.35200000  0.70400000  0.34600000  1.0 -0.0417764661
C  C598  1  0.35500000  0.72700000  0.28400000  1.0 -0.3196017895
C  C599  1  0.45000000  0.28200000  0.11100000  1.0 0.0022006497
C  C600  1  0.46800000  0.27300000  0.17200000  1.0 -0.0300465608
C  C601  1  0.31000000  0.24900000  0.06600000  1.0 0.0675970793
C  C602  1  0.29600000  0.21500000  0.05700000  1.0 -0.1275298872
C  C603  1  0.32200000  0.19000000  0.04400000  1.0 -0.0479934345
C  C604  1  0.36100000  0.19800000  0.04600000  1.0 -0.1275298872
C  C605  1  0.37600000  0.23100000  0.05500000  1.0 0.0912124173
C  C606  1  0.32900000  0.35200000  0.13800000  1.0 0.1365294948
C  C607  1  0.31000000  0.35000000  0.17000000  1.0 -0.1514460719
C  C608  1  0.31800000  0.32400000  0.19800000  1.0 -0.0802620298
C  C609  1  0.34100000  0.29700000  0.18900000  1.0 0.0912124173
C  C610  1  0.35200000  0.29600000  0.15400000  1.0 -0.0417764661
C  C611  1  0.35500000  0.27300000  0.21600000  1.0 -0.3196017895
C  C612  1  0.95000000  0.78200000  0.61100000  1.0 0.0022006497
C  C613  1  0.96800000  0.77300000  0.67200000  1.0 -0.0300465608
C  C614  1  0.81000000  0.74900000  0.56600000  1.0 0.0675970793
C  C615  1  0.79600000  0.71500000  0.55700000  1.0 -0.1275298872
C  C616  1  0.82200000  0.69000000  0.54400000  1.0 -0.0479934345
C  C617  1  0.86100000  0.69800000  0.54600000  1.0 -0.1275298872
C  C618  1  0.87600000  0.73100000  0.55500000  1.0 0.0912124173
C  C619  1  0.82900000  0.85200000  0.63800000  1.0 0.1365294948
C  C620  1  0.81000000  0.85000000  0.67000000  1.0 -0.1514460719
C  C621  1  0.81800000  0.82400000  0.69800000  1.0 -0.0802620298
C  C622  1  0.84100000  0.79700000  0.68900000  1.0 0.0912124173
C  C623  1  0.85200000  0.79600000  0.65400000  1.0 -0.0417764661
C  C624  1  0.85500000  0.77300000  0.71600000  1.0 -0.3196017895
C  C625  1  0.36100000  0.53200000  0.70000000  1.0 0.0022006497
C  C626  1  0.42200000  0.52300000  0.71800000  1.0 -0.0300465608
C  C627  1  0.31600000  0.49900000  0.56000000  1.0 0.0675970793
C  C628  1  0.30700000  0.46500000  0.54600000  1.0 -0.1275298872
C  C629  1  0.29400000  0.44000000  0.57200000  1.0 -0.0479934345
C  C630  1  0.29600000  0.44800000  0.61100000  1.0 -0.1275298872
C  C631  1  0.30500000  0.48100000  0.62600000  1.0 0.0912124173
C  C632  1  0.38800000  0.60200000  0.57900000  1.0 0.1365294948
C  C633  1  0.42000000  0.60000000  0.56000000  1.0 -0.1514460719
C  C634  1  0.44800000  0.57400000  0.56800000  1.0 -0.0802620298
C  C635  1  0.43900000  0.54700000  0.59100000  1.0 0.0912124173
C  C636  1  0.40400000  0.54600000  0.60200000  1.0 -0.0417764661
C  C637  1  0.46600000  0.52300000  0.60500000  1.0 -0.3196017895
C  C638  1  0.86100000  0.03200000  0.20000000  1.0 0.0022006497
C  C639  1  0.92200000  0.02300000  0.21800000  1.0 -0.0300465608
C  C640  1  0.81600000  0.99900000  0.06000000  1.0 0.0675970793
C  C641  1  0.80700000  0.96500000  0.04600000  1.0 -0.1275298872
C  C642  1  0.79400000  0.94000000  0.07200000  1.0 -0.0479934345
C  C643  1  0.79600000  0.94800000  0.11100000  1.0 -0.1275298872
C  C644  1  0.80500000  0.98100000  0.12600000  1.0 0.0912124173
C  C645  1  0.88800000  0.10200000  0.07900000  1.0 0.1365294948
C  C646  1  0.92000000  0.10000000  0.06000000  1.0 -0.1514460719
C  C647  1  0.94800000  0.07400000  0.06800000  1.0 -0.0802620298
C  C648  1  0.93900000  0.04700000  0.09100000  1.0 0.0912124173
C  C649  1  0.90400000  0.04600000  0.10200000  1.0 -0.0417764661
C  C650  1  0.96600000  0.02300000  0.10500000  1.0 -0.3196017895
C  C651  1  0.13900000  0.46800000  0.20000000  1.0 0.0022006497
C  C652  1  0.07800000  0.47700000  0.21800000  1.0 -0.0300465608
C  C653  1  0.18400000  0.50100000  0.06000000  1.0 0.0675970793
C  C654  1  0.19300000  0.53500000  0.04600000  1.0 -0.1275298872
C  C655  1  0.20600000  0.56000000  0.07200000  1.0 -0.0479934345
C  C656  1  0.20400000  0.55200000  0.11100000  1.0 -0.1275298872
C  C657  1  0.19500000  0.51900000  0.12600000  1.0 0.0912124173
C  C658  1  0.11200000  0.39800000  0.07900000  1.0 0.1365294948
C  C659  1  0.08000000  0.40000000  0.06000000  1.0 -0.1514460719
C  C660  1  0.05200000  0.42600000  0.06800000  1.0 -0.0802620298
C  C661  1  0.06100000  0.45300000  0.09100000  1.0 0.0912124173
C  C662  1  0.09600000  0.45400000  0.10200000  1.0 -0.0417764661
C  C663  1  0.03400000  0.47700000  0.10500000  1.0 -0.3196017895
C  C664  1  0.63900000  0.96800000  0.70000000  1.0 0.0022006497
C  C665  1  0.57800000  0.97700000  0.71800000  1.0 -0.0300465608
C  C666  1  0.68400000  0.00100000  0.56000000  1.0 0.0675970793
C  C667  1  0.69300000  0.03500000  0.54600000  1.0 -0.1275298872
C  C668  1  0.70600000  0.06000000  0.57200000  1.0 -0.0479934345
C  C669  1  0.70400000  0.05200000  0.61100000  1.0 -0.1275298872
C  C670  1  0.69500000  0.01900000  0.62600000  1.0 0.0912124173
C  C671  1  0.61200000  0.89800000  0.57900000  1.0 0.1365294948
C  C672  1  0.58000000  0.90000000  0.56000000  1.0 -0.1514460719
C  C673  1  0.55200000  0.92600000  0.56800000  1.0 -0.0802620298
C  C674  1  0.56100000  0.95300000  0.59100000  1.0 0.0912124173
C  C675  1  0.59600000  0.95400000  0.60200000  1.0 -0.0417764661
C  C676  1  0.53400000  0.97700000  0.60500000  1.0 -0.3196017895
C  C677  1  0.63900000  0.03200000  0.80000000  1.0 0.0022006497
C  C678  1  0.57800000  0.02300000  0.78200000  1.0 -0.0300465608
C  C679  1  0.68400000  0.99900000  0.94000000  1.0 0.0675970793
C  C680  1  0.69300000  0.96500000  0.95400000  1.0 -0.1275298872
C  C681  1  0.70600000  0.94000000  0.92800000  1.0 -0.0479934345
C  C682  1  0.70400000  0.94800000  0.88900000  1.0 -0.1275298872
C  C683  1  0.69500000  0.98100000  0.87400000  1.0 0.0912124173
C  C684  1  0.61200000  0.10200000  0.92100000  1.0 0.1365294948
C  C685  1  0.58000000  0.10000000  0.94000000  1.0 -0.1514460719
C  C686  1  0.55200000  0.07400000  0.93200000  1.0 -0.0802620298
C  C687  1  0.56100000  0.04700000  0.90900000  1.0 0.0912124173
C  C688  1  0.59600000  0.04600000  0.89800000  1.0 -0.0417764661
C  C689  1  0.53400000  0.02300000  0.89500000  1.0 -0.3196017895
C  C690  1  0.13900000  0.53200000  0.30000000  1.0 0.0022006497
C  C691  1  0.07800000  0.52300000  0.28200000  1.0 -0.0300465608
C  C692  1  0.18400000  0.49900000  0.44000000  1.0 0.0675970793
C  C693  1  0.19300000  0.46500000  0.45400000  1.0 -0.1275298872
C  C694  1  0.20600000  0.44000000  0.42800000  1.0 -0.0479934345
C  C695  1  0.20400000  0.44800000  0.38900000  1.0 -0.1275298872
C  C696  1  0.19500000  0.48100000  0.37400000  1.0 0.0912124173
C  C697  1  0.11200000  0.60200000  0.42100000  1.0 0.1365294948
C  C698  1  0.08000000  0.60000000  0.44000000  1.0 -0.1514460719
C  C699  1  0.05200000  0.57400000  0.43200000  1.0 -0.0802620298
C  C700  1  0.06100000  0.54700000  0.40900000  1.0 0.0912124173
C  C701  1  0.09600000  0.54600000  0.39800000  1.0 -0.0417764661
C  C702  1  0.03400000  0.52300000  0.39500000  1.0 -0.3196017895
C  C703  1  0.86100000  0.96800000  0.30000000  1.0 0.0022006497
C  C704  1  0.92200000  0.97700000  0.28200000  1.0 -0.0300465608
C  C705  1  0.81600000  0.00100000  0.44000000  1.0 0.0675970793
C  C706  1  0.80700000  0.03500000  0.45400000  1.0 -0.1275298872
C  C707  1  0.79400000  0.06000000  0.42800000  1.0 -0.0479934345
C  C708  1  0.79600000  0.05200000  0.38900000  1.0 -0.1275298872
C  C709  1  0.80500000  0.01900000  0.37400000  1.0 0.0912124173
C  C710  1  0.88800000  0.89800000  0.42100000  1.0 0.1365294948
C  C711  1  0.92000000  0.90000000  0.44000000  1.0 -0.1514460719
C  C712  1  0.94800000  0.92600000  0.43200000  1.0 -0.0802620298
C  C713  1  0.93900000  0.95300000  0.40900000  1.0 0.0912124173
C  C714  1  0.90400000  0.95400000  0.39800000  1.0 -0.0417764661
C  C715  1  0.96600000  0.97700000  0.39500000  1.0 -0.3196017895
C  C716  1  0.36100000  0.46800000  0.80000000  1.0 0.0022006497
C  C717  1  0.42200000  0.47700000  0.78200000  1.0 -0.0300465608
C  C718  1  0.31600000  0.50100000  0.94000000  1.0 0.0675970793
C  C719  1  0.30700000  0.53500000  0.95400000  1.0 -0.1275298872
C  C720  1  0.29400000  0.56000000  0.92800000  1.0 -0.0479934345
C  C721  1  0.29600000  0.55200000  0.88900000  1.0 -0.1275298872
C  C722  1  0.30500000  0.51900000  0.87400000  1.0 0.0912124173
C  C723  1  0.38800000  0.39800000  0.92100000  1.0 0.1365294948
C  C724  1  0.42000000  0.40000000  0.94000000  1.0 -0.1514460719
C  C725  1  0.44800000  0.42600000  0.93200000  1.0 -0.0802620298
C  C726  1  0.43900000  0.45300000  0.90900000  1.0 0.0912124173
C  C727  1  0.40400000  0.45400000  0.89800000  1.0 -0.0417764661
C  C728  1  0.46600000  0.47700000  0.89500000  1.0 -0.3196017895
C  C729  1  0.70000000  0.36100000  0.53200000  1.0 0.0022006497
C  C730  1  0.71800000  0.42200000  0.52300000  1.0 -0.0300465608
C  C731  1  0.56000000  0.31600000  0.49900000  1.0 0.0675970793
C  C732  1  0.54600000  0.30700000  0.46500000  1.0 -0.1275298872
C  C733  1  0.57200000  0.29400000  0.44000000  1.0 -0.0479934345
C  C734  1  0.61100000  0.29600000  0.44800000  1.0 -0.1275298872
C  C735  1  0.62600000  0.30500000  0.48100000  1.0 0.0912124173
C  C736  1  0.57900000  0.38800000  0.60200000  1.0 0.1365294948
C  C737  1  0.56000000  0.42000000  0.60000000  1.0 -0.1514460719
C  C738  1  0.56800000  0.44800000  0.57400000  1.0 -0.0802620298
C  C739  1  0.59100000  0.43900000  0.54700000  1.0 0.0912124173
C  C740  1  0.60200000  0.40400000  0.54600000  1.0 -0.0417764661
C  C741  1  0.60500000  0.46600000  0.52300000  1.0 -0.3196017895
C  C742  1  0.20000000  0.86100000  0.03200000  1.0 0.0022006497
C  C743  1  0.21800000  0.92200000  0.02300000  1.0 -0.0300465608
C  C744  1  0.06000000  0.81600000  0.99900000  1.0 0.0675970793
C  C745  1  0.04600000  0.80700000  0.96500000  1.0 -0.1275298872
C  C746  1  0.07200000  0.79400000  0.94000000  1.0 -0.0479934345
C  C747  1  0.11100000  0.79600000  0.94800000  1.0 -0.1275298872
C  C748  1  0.12600000  0.80500000  0.98100000  1.0 0.0912124173
C  C749  1  0.07900000  0.88800000  0.10200000  1.0 0.1365294948
C  C750  1  0.06000000  0.92000000  0.10000000  1.0 -0.1514460719
C  C751  1  0.06800000  0.94800000  0.07400000  1.0 -0.0802620298
C  C752  1  0.09100000  0.93900000  0.04700000  1.0 0.0912124173
C  C753  1  0.10200000  0.90400000  0.04600000  1.0 -0.0417764661
C  C754  1  0.10500000  0.96600000  0.02300000  1.0 -0.3196017895
C  C755  1  0.20000000  0.13900000  0.46800000  1.0 0.0022006497
C  C756  1  0.21800000  0.07800000  0.47700000  1.0 -0.0300465608
C  C757  1  0.06000000  0.18400000  0.50100000  1.0 0.0675970793
C  C758  1  0.04600000  0.19300000  0.53500000  1.0 -0.1275298872
C  C759  1  0.07200000  0.20600000  0.56000000  1.0 -0.0479934345
C  C760  1  0.11100000  0.20400000  0.55200000  1.0 -0.1275298872
C  C761  1  0.12600000  0.19500000  0.51900000  1.0 0.0912124173
C  C762  1  0.07900000  0.11200000  0.39800000  1.0 0.1365294948
C  C763  1  0.06000000  0.08000000  0.40000000  1.0 -0.1514460719
C  C764  1  0.06800000  0.05200000  0.42600000  1.0 -0.0802620298
C  C765  1  0.09100000  0.06100000  0.45300000  1.0 0.0912124173
C  C766  1  0.10200000  0.09600000  0.45400000  1.0 -0.0417764661
C  C767  1  0.10500000  0.03400000  0.47700000  1.0 -0.3196017895
C  C768  1  0.70000000  0.63900000  0.96800000  1.0 0.0022006497
C  C769  1  0.71800000  0.57800000  0.97700000  1.0 -0.0300465608
C  C770  1  0.56000000  0.68400000  0.00100000  1.0 0.0675970793
C  C771  1  0.54600000  0.69300000  0.03500000  1.0 -0.1275298872
C  C772  1  0.57200000  0.70600000  0.06000000  1.0 -0.0479934345
C  C773  1  0.61100000  0.70400000  0.05200000  1.0 -0.1275298872
C  C774  1  0.62600000  0.69500000  0.01900000  1.0 0.0912124173
C  C775  1  0.57900000  0.61200000  0.89800000  1.0 0.1365294948
C  C776  1  0.56000000  0.58000000  0.90000000  1.0 -0.1514460719
C  C777  1  0.56800000  0.55200000  0.92600000  1.0 -0.0802620298
C  C778  1  0.59100000  0.56100000  0.95300000  1.0 0.0912124173
C  C779  1  0.60200000  0.59600000  0.95400000  1.0 -0.0417764661
C  C780  1  0.60500000  0.53400000  0.97700000  1.0 -0.3196017895
C  C781  1  0.80000000  0.63900000  0.03200000  1.0 0.0022006497
C  C782  1  0.78200000  0.57800000  0.02300000  1.0 -0.0300465608
C  C783  1  0.94000000  0.68400000  0.99900000  1.0 0.0675970793
C  C784  1  0.95400000  0.69300000  0.96500000  1.0 -0.1275298872
C  C785  1  0.92800000  0.70600000  0.94000000  1.0 -0.0479934345
C  C786  1  0.88900000  0.70400000  0.94800000  1.0 -0.1275298872
C  C787  1  0.87400000  0.69500000  0.98100000  1.0 0.0912124173
C  C788  1  0.92100000  0.61200000  0.10200000  1.0 0.1365294948
C  C789  1  0.94000000  0.58000000  0.10000000  1.0 -0.1514460719
C  C790  1  0.93200000  0.55200000  0.07400000  1.0 -0.0802620298
C  C791  1  0.90900000  0.56100000  0.04700000  1.0 0.0912124173
C  C792  1  0.89800000  0.59600000  0.04600000  1.0 -0.0417764661
C  C793  1  0.89500000  0.53400000  0.02300000  1.0 -0.3196017895
C  C794  1  0.30000000  0.13900000  0.53200000  1.0 0.0022006497
C  C795  1  0.28200000  0.07800000  0.52300000  1.0 -0.0300465608
C  C796  1  0.44000000  0.18400000  0.49900000  1.0 0.0675970793
C  C797  1  0.45400000  0.19300000  0.46500000  1.0 -0.1275298872
C  C798  1  0.42800000  0.20600000  0.44000000  1.0 -0.0479934345
C  C799  1  0.38900000  0.20400000  0.44800000  1.0 -0.1275298872
C  C800  1  0.37400000  0.19500000  0.48100000  1.0 0.0912124173
C  C801  1  0.42100000  0.11200000  0.60200000  1.0 0.1365294948
C  C802  1  0.44000000  0.08000000  0.60000000  1.0 -0.1514460719
C  C803  1  0.43200000  0.05200000  0.57400000  1.0 -0.0802620298
C  C804  1  0.40900000  0.06100000  0.54700000  1.0 0.0912124173
C  C805  1  0.39800000  0.09600000  0.54600000  1.0 -0.0417764661
C  C806  1  0.39500000  0.03400000  0.52300000  1.0 -0.3196017895
C  C807  1  0.30000000  0.86100000  0.96800000  1.0 0.0022006497
C  C808  1  0.28200000  0.92200000  0.97700000  1.0 -0.0300465608
C  C809  1  0.44000000  0.81600000  0.00100000  1.0 0.0675970793
C  C810  1  0.45400000  0.80700000  0.03500000  1.0 -0.1275298872
C  C811  1  0.42800000  0.79400000  0.06000000  1.0 -0.0479934345
C  C812  1  0.38900000  0.79600000  0.05200000  1.0 -0.1275298872
C  C813  1  0.37400000  0.80500000  0.01900000  1.0 0.0912124173
C  C814  1  0.42100000  0.88800000  0.89800000  1.0 0.1365294948
C  C815  1  0.44000000  0.92000000  0.90000000  1.0 -0.1514460719
C  C816  1  0.43200000  0.94800000  0.92600000  1.0 -0.0802620298
C  C817  1  0.40900000  0.93900000  0.95300000  1.0 0.0912124173
C  C818  1  0.39800000  0.90400000  0.95400000  1.0 -0.0417764661
C  C819  1  0.39500000  0.96600000  0.97700000  1.0 -0.3196017895
C  C820  1  0.80000000  0.36100000  0.46800000  1.0 0.0022006497
C  C821  1  0.78200000  0.42200000  0.47700000  1.0 -0.0300465608
C  C822  1  0.94000000  0.31600000  0.50100000  1.0 0.0675970793
C  C823  1  0.95400000  0.30700000  0.53500000  1.0 -0.1275298872
C  C824  1  0.92800000  0.29400000  0.56000000  1.0 -0.0479934345
C  C825  1  0.88900000  0.29600000  0.55200000  1.0 -0.1275298872
C  C826  1  0.87400000  0.30500000  0.51900000  1.0 0.0912124173
C  C827  1  0.92100000  0.38800000  0.39800000  1.0 0.1365294948
C  C828  1  0.94000000  0.42000000  0.40000000  1.0 -0.1514460719
C  C829  1  0.93200000  0.44800000  0.42600000  1.0 -0.0802620298
C  C830  1  0.90900000  0.43900000  0.45300000  1.0 0.0912124173
C  C831  1  0.89800000  0.40400000  0.45400000  1.0 -0.0417764661
C  C832  1  0.89500000  0.46600000  0.47700000  1.0 -0.3196017895
C  C833  1  0.53200000  0.70000000  0.36100000  1.0 0.0022006497
C  C834  1  0.52300000  0.71800000  0.42200000  1.0 -0.0300465608
C  C835  1  0.49900000  0.56000000  0.31600000  1.0 0.0675970793
C  C836  1  0.46500000  0.54600000  0.30700000  1.0 -0.1275298872
C  C837  1  0.44000000  0.57200000  0.29400000  1.0 -0.0479934345
C  C838  1  0.44800000  0.61100000  0.29600000  1.0 -0.1275298872
C  C839  1  0.48100000  0.62600000  0.30500000  1.0 0.0912124173
C  C840  1  0.60200000  0.57900000  0.38800000  1.0 0.1365294948
C  C841  1  0.60000000  0.56000000  0.42000000  1.0 -0.1514460719
C  C842  1  0.57400000  0.56800000  0.44800000  1.0 -0.0802620298
C  C843  1  0.54700000  0.59100000  0.43900000  1.0 0.0912124173
C  C844  1  0.54600000  0.60200000  0.40400000  1.0 -0.0417764661
C  C845  1  0.52300000  0.60500000  0.46600000  1.0 -0.3196017895
C  C846  1  0.03200000  0.20000000  0.86100000  1.0 0.0022006497
C  C847  1  0.02300000  0.21800000  0.92200000  1.0 -0.0300465608
C  C848  1  0.99900000  0.06000000  0.81600000  1.0 0.0675970793
C  C849  1  0.96500000  0.04600000  0.80700000  1.0 -0.1275298872
C  C850  1  0.94000000  0.07200000  0.79400000  1.0 -0.0479934345
C  C851  1  0.94800000  0.11100000  0.79600000  1.0 -0.1275298872
C  C852  1  0.98100000  0.12600000  0.80500000  1.0 0.0912124173
C  C853  1  0.10200000  0.07900000  0.88800000  1.0 0.1365294948
C  C854  1  0.10000000  0.06000000  0.92000000  1.0 -0.1514460719
C  C855  1  0.07400000  0.06800000  0.94800000  1.0 -0.0802620298
C  C856  1  0.04700000  0.09100000  0.93900000  1.0 0.0912124173
C  C857  1  0.04600000  0.10200000  0.90400000  1.0 -0.0417764661
C  C858  1  0.02300000  0.10500000  0.96600000  1.0 -0.3196017895
C  C859  1  0.46800000  0.20000000  0.13900000  1.0 0.0022006497
C  C860  1  0.47700000  0.21800000  0.07800000  1.0 -0.0300465608
C  C861  1  0.50100000  0.06000000  0.18400000  1.0 0.0675970793
C  C862  1  0.53500000  0.04600000  0.19300000  1.0 -0.1275298872
C  C863  1  0.56000000  0.07200000  0.20600000  1.0 -0.0479934345
C  C864  1  0.55200000  0.11100000  0.20400000  1.0 -0.1275298872
C  C865  1  0.51900000  0.12600000  0.19500000  1.0 0.0912124173
C  C866  1  0.39800000  0.07900000  0.11200000  1.0 0.1365294948
C  C867  1  0.40000000  0.06000000  0.08000000  1.0 -0.1514460719
C  C868  1  0.42600000  0.06800000  0.05200000  1.0 -0.0802620298
C  C869  1  0.45300000  0.09100000  0.06100000  1.0 0.0912124173
C  C870  1  0.45400000  0.10200000  0.09600000  1.0 -0.0417764661
C  C871  1  0.47700000  0.10500000  0.03400000  1.0 -0.3196017895
C  C872  1  0.96800000  0.70000000  0.63900000  1.0 0.0022006497
C  C873  1  0.97700000  0.71800000  0.57800000  1.0 -0.0300465608
C  C874  1  0.00100000  0.56000000  0.68400000  1.0 0.0675970793
C  C875  1  0.03500000  0.54600000  0.69300000  1.0 -0.1275298872
C  C876  1  0.06000000  0.57200000  0.70600000  1.0 -0.0479934345
C  C877  1  0.05200000  0.61100000  0.70400000  1.0 -0.1275298872
C  C878  1  0.01900000  0.62600000  0.69500000  1.0 0.0912124173
C  C879  1  0.89800000  0.57900000  0.61200000  1.0 0.1365294948
C  C880  1  0.90000000  0.56000000  0.58000000  1.0 -0.1514460719
C  C881  1  0.92600000  0.56800000  0.55200000  1.0 -0.0802620298
C  C882  1  0.95300000  0.59100000  0.56100000  1.0 0.0912124173
C  C883  1  0.95400000  0.60200000  0.59600000  1.0 -0.0417764661
C  C884  1  0.97700000  0.60500000  0.53400000  1.0 -0.3196017895
C  C885  1  0.03200000  0.80000000  0.63900000  1.0 0.0022006497
C  C886  1  0.02300000  0.78200000  0.57800000  1.0 -0.0300465608
C  C887  1  0.99900000  0.94000000  0.68400000  1.0 0.0675970793
C  C888  1  0.96500000  0.95400000  0.69300000  1.0 -0.1275298872
C  C889  1  0.94000000  0.92800000  0.70600000  1.0 -0.0479934345
C  C890  1  0.94800000  0.88900000  0.70400000  1.0 -0.1275298872
C  C891  1  0.98100000  0.87400000  0.69500000  1.0 0.0912124173
C  C892  1  0.10200000  0.92100000  0.61200000  1.0 0.1365294948
C  C893  1  0.10000000  0.94000000  0.58000000  1.0 -0.1514460719
C  C894  1  0.07400000  0.93200000  0.55200000  1.0 -0.0802620298
C  C895  1  0.04700000  0.90900000  0.56100000  1.0 0.0912124173
C  C896  1  0.04600000  0.89800000  0.59600000  1.0 -0.0417764661
C  C897  1  0.02300000  0.89500000  0.53400000  1.0 -0.3196017895
C  C898  1  0.53200000  0.30000000  0.13900000  1.0 0.0022006497
C  C899  1  0.52300000  0.28200000  0.07800000  1.0 -0.0300465608
C  C900  1  0.49900000  0.44000000  0.18400000  1.0 0.0675970793
C  C901  1  0.46500000  0.45400000  0.19300000  1.0 -0.1275298872
C  C902  1  0.44000000  0.42800000  0.20600000  1.0 -0.0479934345
C  C903  1  0.44800000  0.38900000  0.20400000  1.0 -0.1275298872
C  C904  1  0.48100000  0.37400000  0.19500000  1.0 0.0912124173
C  C905  1  0.60200000  0.42100000  0.11200000  1.0 0.1365294948
C  C906  1  0.60000000  0.44000000  0.08000000  1.0 -0.1514460719
C  C907  1  0.57400000  0.43200000  0.05200000  1.0 -0.0802620298
C  C908  1  0.54700000  0.40900000  0.06100000  1.0 0.0912124173
C  C909  1  0.54600000  0.39800000  0.09600000  1.0 -0.0417764661
C  C910  1  0.52300000  0.39500000  0.03400000  1.0 -0.3196017895
C  C911  1  0.96800000  0.30000000  0.86100000  1.0 0.0022006497
C  C912  1  0.97700000  0.28200000  0.92200000  1.0 -0.0300465608
C  C913  1  0.00100000  0.44000000  0.81600000  1.0 0.0675970793
C  C914  1  0.03500000  0.45400000  0.80700000  1.0 -0.1275298872
C  C915  1  0.06000000  0.42800000  0.79400000  1.0 -0.0479934345
C  C916  1  0.05200000  0.38900000  0.79600000  1.0 -0.1275298872
C  C917  1  0.01900000  0.37400000  0.80500000  1.0 0.0912124173
C  C918  1  0.89800000  0.42100000  0.88800000  1.0 0.1365294948
C  C919  1  0.90000000  0.44000000  0.92000000  1.0 -0.1514460719
C  C920  1  0.92600000  0.43200000  0.94800000  1.0 -0.0802620298
C  C921  1  0.95300000  0.40900000  0.93900000  1.0 0.0912124173
C  C922  1  0.95400000  0.39800000  0.90400000  1.0 -0.0417764661
C  C923  1  0.97700000  0.39500000  0.96600000  1.0 -0.3196017895
C  C924  1  0.46800000  0.80000000  0.36100000  1.0 0.0022006497
C  C925  1  0.47700000  0.78200000  0.42200000  1.0 -0.0300465608
C  C926  1  0.50100000  0.94000000  0.31600000  1.0 0.0675970793
C  C927  1  0.53500000  0.95400000  0.30700000  1.0 -0.1275298872
C  C928  1  0.56000000  0.92800000  0.29400000  1.0 -0.0479934345
C  C929  1  0.55200000  0.88900000  0.29600000  1.0 -0.1275298872
C  C930  1  0.51900000  0.87400000  0.30500000  1.0 0.0912124173
C  C931  1  0.39800000  0.92100000  0.38800000  1.0 0.1365294948
C  C932  1  0.40000000  0.94000000  0.42000000  1.0 -0.1514460719
C  C933  1  0.42600000  0.93200000  0.44800000  1.0 -0.0802620298
C  C934  1  0.45300000  0.90900000  0.43900000  1.0 0.0912124173
C  C935  1  0.45400000  0.89800000  0.40400000  1.0 -0.0417764661
C  C936  1  0.47700000  0.89500000  0.46600000  1.0 -0.3196017895
C  C937  1  0.78200000  0.11100000  0.05000000  1.0 0.0022006497
C  C938  1  0.77300000  0.17200000  0.03200000  1.0 -0.0300465608
C  C939  1  0.74900000  0.06600000  0.19000000  1.0 0.0675970793
C  C940  1  0.71500000  0.05700000  0.20400000  1.0 -0.1275298872
C  C941  1  0.69000000  0.04400000  0.17800000  1.0 -0.0479934345
C  C942  1  0.69800000  0.04600000  0.13900000  1.0 -0.1275298872
C  C943  1  0.73100000  0.05500000  0.12400000  1.0 0.0912124173
C  C944  1  0.85200000  0.13800000  0.17100000  1.0 0.1365294948
C  C945  1  0.85000000  0.17000000  0.19000000  1.0 -0.1514460719
C  C946  1  0.82400000  0.19800000  0.18200000  1.0 -0.0802620298
C  C947  1  0.79700000  0.18900000  0.15900000  1.0 0.0912124173
C  C948  1  0.79600000  0.15400000  0.14800000  1.0 -0.0417764661
C  C949  1  0.77300000  0.21600000  0.14500000  1.0 -0.3196017895
C  C950  1  0.28200000  0.61100000  0.55000000  1.0 0.0022006497
C  C951  1  0.27300000  0.67200000  0.53200000  1.0 -0.0300465608
C  C952  1  0.24900000  0.56600000  0.69000000  1.0 0.0675970793
C  C953  1  0.21500000  0.55700000  0.70400000  1.0 -0.1275298872
C  C954  1  0.19000000  0.54400000  0.67800000  1.0 -0.0479934345
C  C955  1  0.19800000  0.54600000  0.63900000  1.0 -0.1275298872
C  C956  1  0.23100000  0.55500000  0.62400000  1.0 0.0912124173
C  C957  1  0.35200000  0.63800000  0.67100000  1.0 0.1365294948
C  C958  1  0.35000000  0.67000000  0.69000000  1.0 -0.1514460719
C  C959  1  0.32400000  0.69800000  0.68200000  1.0 -0.0802620298
C  C960  1  0.29700000  0.68900000  0.65900000  1.0 0.0912124173
C  C961  1  0.29600000  0.65400000  0.64800000  1.0 -0.0417764661
C  C962  1  0.27300000  0.71600000  0.64500000  1.0 -0.3196017895
C  C963  1  0.71800000  0.88900000  0.55000000  1.0 0.0022006497
C  C964  1  0.72700000  0.82800000  0.53200000  1.0 -0.0300465608
C  C965  1  0.75100000  0.93400000  0.69000000  1.0 0.0675970793
C  C966  1  0.78500000  0.94300000  0.70400000  1.0 -0.1275298872
C  C967  1  0.81000000  0.95600000  0.67800000  1.0 -0.0479934345
C  C968  1  0.80200000  0.95400000  0.63900000  1.0 -0.1275298872
C  C969  1  0.76900000  0.94500000  0.62400000  1.0 0.0912124173
C  C970  1  0.64800000  0.86200000  0.67100000  1.0 0.1365294948
C  C971  1  0.65000000  0.83000000  0.69000000  1.0 -0.1514460719
C  C972  1  0.67600000  0.80200000  0.68200000  1.0 -0.0802620298
C  C973  1  0.70300000  0.81100000  0.65900000  1.0 0.0912124173
C  C974  1  0.70400000  0.84600000  0.64800000  1.0 -0.0417764661
C  C975  1  0.72700000  0.78400000  0.64500000  1.0 -0.3196017895
C  C976  1  0.21800000  0.38900000  0.05000000  1.0 0.0022006497
C  C977  1  0.22700000  0.32800000  0.03200000  1.0 -0.0300465608
C  C978  1  0.25100000  0.43400000  0.19000000  1.0 0.0675970793
C  C979  1  0.28500000  0.44300000  0.20400000  1.0 -0.1275298872
C  C980  1  0.31000000  0.45600000  0.17800000  1.0 -0.0479934345
C  C981  1  0.30200000  0.45400000  0.13900000  1.0 -0.1275298872
C  C982  1  0.26900000  0.44500000  0.12400000  1.0 0.0912124173
C  C983  1  0.14800000  0.36200000  0.17100000  1.0 0.1365294948
C  C984  1  0.15000000  0.33000000  0.19000000  1.0 -0.1514460719
C  C985  1  0.17600000  0.30200000  0.18200000  1.0 -0.0802620298
C  C986  1  0.20300000  0.31100000  0.15900000  1.0 0.0912124173
C  C987  1  0.20400000  0.34600000  0.14800000  1.0 -0.0417764661
C  C988  1  0.22700000  0.28400000  0.14500000  1.0 -0.3196017895
C  C989  1  0.28200000  0.38900000  0.95000000  1.0 0.0022006497
C  C990  1  0.27300000  0.32800000  0.96800000  1.0 -0.0300465608
C  C991  1  0.24900000  0.43400000  0.81000000  1.0 0.0675970793
C  C992  1  0.21500000  0.44300000  0.79600000  1.0 -0.1275298872
C  C993  1  0.19000000  0.45600000  0.82200000  1.0 -0.0479934345
C  C994  1  0.19800000  0.45400000  0.86100000  1.0 -0.1275298872
C  C995  1  0.23100000  0.44500000  0.87600000  1.0 0.0912124173
C  C996  1  0.35200000  0.36200000  0.82900000  1.0 0.1365294948
C  C997  1  0.35000000  0.33000000  0.81000000  1.0 -0.1514460719
C  C998  1  0.32400000  0.30200000  0.81800000  1.0 -0.0802620298
C  C999  1  0.29700000  0.31100000  0.84100000  1.0 0.0912124173
C  C1000  1  0.29600000  0.34600000  0.85200000  1.0 -0.0417764661
C  C1001  1  0.27300000  0.28400000  0.85500000  1.0 -0.3196017895
C  C1002  1  0.78200000  0.88900000  0.45000000  1.0 0.0022006497
C  C1003  1  0.77300000  0.82800000  0.46800000  1.0 -0.0300465608
C  C1004  1  0.74900000  0.93400000  0.31000000  1.0 0.0675970793
C  C1005  1  0.71500000  0.94300000  0.29600000  1.0 -0.1275298872
C  C1006  1  0.69000000  0.95600000  0.32200000  1.0 -0.0479934345
C  C1007  1  0.69800000  0.95400000  0.36100000  1.0 -0.1275298872
C  C1008  1  0.73100000  0.94500000  0.37600000  1.0 0.0912124173
C  C1009  1  0.85200000  0.86200000  0.32900000  1.0 0.1365294948
C  C1010  1  0.85000000  0.83000000  0.31000000  1.0 -0.1514460719
C  C1011  1  0.82400000  0.80200000  0.31800000  1.0 -0.0802620298
C  C1012  1  0.79700000  0.81100000  0.34100000  1.0 0.0912124173
C  C1013  1  0.79600000  0.84600000  0.35200000  1.0 -0.0417764661
C  C1014  1  0.77300000  0.78400000  0.35500000  1.0 -0.3196017895
C  C1015  1  0.21800000  0.61100000  0.45000000  1.0 0.0022006497
C  C1016  1  0.22700000  0.67200000  0.46800000  1.0 -0.0300465608
C  C1017  1  0.25100000  0.56600000  0.31000000  1.0 0.0675970793
C  C1018  1  0.28500000  0.55700000  0.29600000  1.0 -0.1275298872
C  C1019  1  0.31000000  0.54400000  0.32200000  1.0 -0.0479934345
C  C1020  1  0.30200000  0.54600000  0.36100000  1.0 -0.1275298872
C  C1021  1  0.26900000  0.55500000  0.37600000  1.0 0.0912124173
C  C1022  1  0.14800000  0.63800000  0.32900000  1.0 0.1365294948
C  C1023  1  0.15000000  0.67000000  0.31000000  1.0 -0.1514460719
C  C1024  1  0.17600000  0.69800000  0.31800000  1.0 -0.0802620298
C  C1025  1  0.20300000  0.68900000  0.34100000  1.0 0.0912124173
C  C1026  1  0.20400000  0.65400000  0.35200000  1.0 -0.0417764661
C  C1027  1  0.22700000  0.71600000  0.35500000  1.0 -0.3196017895
C  C1028  1  0.71800000  0.11100000  0.95000000  1.0 0.0022006497
C  C1029  1  0.72700000  0.17200000  0.96800000  1.0 -0.0300465608
C  C1030  1  0.75100000  0.06600000  0.81000000  1.0 0.0675970793
C  C1031  1  0.78500000  0.05700000  0.79600000  1.0 -0.1275298872
C  C1032  1  0.81000000  0.04400000  0.82200000  1.0 -0.0479934345
C  C1033  1  0.80200000  0.04600000  0.86100000  1.0 -0.1275298872
C  C1034  1  0.76900000  0.05500000  0.87600000  1.0 0.0912124173
C  C1035  1  0.64800000  0.13800000  0.82900000  1.0 0.1365294948
C  C1036  1  0.65000000  0.17000000  0.81000000  1.0 -0.1514460719
C  C1037  1  0.67600000  0.19800000  0.81800000  1.0 -0.0802620298
C  C1038  1  0.70300000  0.18900000  0.84100000  1.0 0.0912124173
C  C1039  1  0.70400000  0.15400000  0.85200000  1.0 -0.0417764661
C  C1040  1  0.72700000  0.21600000  0.85500000  1.0 -0.3196017895
C  C1041  1  0.61100000  0.45000000  0.21800000  1.0 0.0022006497
C  C1042  1  0.67200000  0.46800000  0.22700000  1.0 -0.0300465608
C  C1043  1  0.56600000  0.31000000  0.25100000  1.0 0.0675970793
C  C1044  1  0.55700000  0.29600000  0.28500000  1.0 -0.1275298872
C  C1045  1  0.54400000  0.32200000  0.31000000  1.0 -0.0479934345
C  C1046  1  0.54600000  0.36100000  0.30200000  1.0 -0.1275298872
C  C1047  1  0.55500000  0.37600000  0.26900000  1.0 0.0912124173
C  C1048  1  0.63800000  0.32900000  0.14800000  1.0 0.1365294948
C  C1049  1  0.67000000  0.31000000  0.15000000  1.0 -0.1514460719
C  C1050  1  0.69800000  0.31800000  0.17600000  1.0 -0.0802620298
C  C1051  1  0.68900000  0.34100000  0.20300000  1.0 0.0912124173
C  C1052  1  0.65400000  0.35200000  0.20400000  1.0 -0.0417764661
C  C1053  1  0.71600000  0.35500000  0.22700000  1.0 -0.3196017895
C  C1054  1  0.11100000  0.95000000  0.71800000  1.0 0.0022006497
C  C1055  1  0.17200000  0.96800000  0.72700000  1.0 -0.0300465608
C  C1056  1  0.06600000  0.81000000  0.75100000  1.0 0.0675970793
C  C1057  1  0.05700000  0.79600000  0.78500000  1.0 -0.1275298872
C  C1058  1  0.04400000  0.82200000  0.81000000  1.0 -0.0479934345
C  C1059  1  0.04600000  0.86100000  0.80200000  1.0 -0.1275298872
C  C1060  1  0.05500000  0.87600000  0.76900000  1.0 0.0912124173
C  C1061  1  0.13800000  0.82900000  0.64800000  1.0 0.1365294948
C  C1062  1  0.17000000  0.81000000  0.65000000  1.0 -0.1514460719
C  C1063  1  0.19800000  0.81800000  0.67600000  1.0 -0.0802620298
C  C1064  1  0.18900000  0.84100000  0.70300000  1.0 0.0912124173
C  C1065  1  0.15400000  0.85200000  0.70400000  1.0 -0.0417764661
C  C1066  1  0.21600000  0.85500000  0.72700000  1.0 -0.3196017895
C  C1067  1  0.38900000  0.95000000  0.28200000  1.0 0.0022006497
C  C1068  1  0.32800000  0.96800000  0.27300000  1.0 -0.0300465608
C  C1069  1  0.43400000  0.81000000  0.24900000  1.0 0.0675970793
C  C1070  1  0.44300000  0.79600000  0.21500000  1.0 -0.1275298872
C  C1071  1  0.45600000  0.82200000  0.19000000  1.0 -0.0479934345
C  C1072  1  0.45400000  0.86100000  0.19800000  1.0 -0.1275298872
C  C1073  1  0.44500000  0.87600000  0.23100000  1.0 0.0912124173
C  C1074  1  0.36200000  0.82900000  0.35200000  1.0 0.1365294948
C  C1075  1  0.33000000  0.81000000  0.35000000  1.0 -0.1514460719
C  C1076  1  0.30200000  0.81800000  0.32400000  1.0 -0.0802620298
C  C1077  1  0.31100000  0.84100000  0.29700000  1.0 0.0912124173
C  C1078  1  0.34600000  0.85200000  0.29600000  1.0 -0.0417764661
C  C1079  1  0.28400000  0.85500000  0.27300000  1.0 -0.3196017895
C  C1080  1  0.88900000  0.45000000  0.78200000  1.0 0.0022006497
C  C1081  1  0.82800000  0.46800000  0.77300000  1.0 -0.0300465608
C  C1082  1  0.93400000  0.31000000  0.74900000  1.0 0.0675970793
C  C1083  1  0.94300000  0.29600000  0.71500000  1.0 -0.1275298872
C  C1084  1  0.95600000  0.32200000  0.69000000  1.0 -0.0479934345
C  C1085  1  0.95400000  0.36100000  0.69800000  1.0 -0.1275298872
C  C1086  1  0.94500000  0.37600000  0.73100000  1.0 0.0912124173
C  C1087  1  0.86200000  0.32900000  0.85200000  1.0 0.1365294948
C  C1088  1  0.83000000  0.31000000  0.85000000  1.0 -0.1514460719
C  C1089  1  0.80200000  0.31800000  0.82400000  1.0 -0.0802620298
C  C1090  1  0.81100000  0.34100000  0.79700000  1.0 0.0912124173
C  C1091  1  0.84600000  0.35200000  0.79600000  1.0 -0.0417764661
C  C1092  1  0.78400000  0.35500000  0.77300000  1.0 -0.3196017895
C  C1093  1  0.88900000  0.55000000  0.71800000  1.0 0.0022006497
C  C1094  1  0.82800000  0.53200000  0.72700000  1.0 -0.0300465608
C  C1095  1  0.93400000  0.69000000  0.75100000  1.0 0.0675970793
C  C1096  1  0.94300000  0.70400000  0.78500000  1.0 -0.1275298872
C  C1097  1  0.95600000  0.67800000  0.81000000  1.0 -0.0479934345
C  C1098  1  0.95400000  0.63900000  0.80200000  1.0 -0.1275298872
C  C1099  1  0.94500000  0.62400000  0.76900000  1.0 0.0912124173
C  C1100  1  0.86200000  0.67100000  0.64800000  1.0 0.1365294948
C  C1101  1  0.83000000  0.69000000  0.65000000  1.0 -0.1514460719
C  C1102  1  0.80200000  0.68200000  0.67600000  1.0 -0.0802620298
C  C1103  1  0.81100000  0.65900000  0.70300000  1.0 0.0912124173
C  C1104  1  0.84600000  0.64800000  0.70400000  1.0 -0.0417764661
C  C1105  1  0.78400000  0.64500000  0.72700000  1.0 -0.3196017895
C  C1106  1  0.38900000  0.05000000  0.21800000  1.0 0.0022006497
C  C1107  1  0.32800000  0.03200000  0.22700000  1.0 -0.0300465608
C  C1108  1  0.43400000  0.19000000  0.25100000  1.0 0.0675970793
C  C1109  1  0.44300000  0.20400000  0.28500000  1.0 -0.1275298872
C  C1110  1  0.45600000  0.17800000  0.31000000  1.0 -0.0479934345
C  C1111  1  0.45400000  0.13900000  0.30200000  1.0 -0.1275298872
C  C1112  1  0.44500000  0.12400000  0.26900000  1.0 0.0912124173
C  C1113  1  0.36200000  0.17100000  0.14800000  1.0 0.1365294948
C  C1114  1  0.33000000  0.19000000  0.15000000  1.0 -0.1514460719
C  C1115  1  0.30200000  0.18200000  0.17600000  1.0 -0.0802620298
C  C1116  1  0.31100000  0.15900000  0.20300000  1.0 0.0912124173
C  C1117  1  0.34600000  0.14800000  0.20400000  1.0 -0.0417764661
C  C1118  1  0.28400000  0.14500000  0.22700000  1.0 -0.3196017895
C  C1119  1  0.11100000  0.05000000  0.78200000  1.0 0.0022006497
C  C1120  1  0.17200000  0.03200000  0.77300000  1.0 -0.0300465608
C  C1121  1  0.06600000  0.19000000  0.74900000  1.0 0.0675970793
C  C1122  1  0.05700000  0.20400000  0.71500000  1.0 -0.1275298872
C  C1123  1  0.04400000  0.17800000  0.69000000  1.0 -0.0479934345
C  C1124  1  0.04600000  0.13900000  0.69800000  1.0 -0.1275298872
C  C1125  1  0.05500000  0.12400000  0.73100000  1.0 0.0912124173
C  C1126  1  0.13800000  0.17100000  0.85200000  1.0 0.1365294948
C  C1127  1  0.17000000  0.19000000  0.85000000  1.0 -0.1514460719
C  C1128  1  0.19800000  0.18200000  0.82400000  1.0 -0.0802620298
C  C1129  1  0.18900000  0.15900000  0.79700000  1.0 0.0912124173
C  C1130  1  0.15400000  0.14800000  0.79600000  1.0 -0.0417764661
C  C1131  1  0.21600000  0.14500000  0.77300000  1.0 -0.3196017895
C  C1132  1  0.61100000  0.55000000  0.28200000  1.0 0.0022006497
C  C1133  1  0.67200000  0.53200000  0.27300000  1.0 -0.0300465608
C  C1134  1  0.56600000  0.69000000  0.24900000  1.0 0.0675970793
C  C1135  1  0.55700000  0.70400000  0.21500000  1.0 -0.1275298872
C  C1136  1  0.54400000  0.67800000  0.19000000  1.0 -0.0479934345
C  C1137  1  0.54600000  0.63900000  0.19800000  1.0 -0.1275298872
C  C1138  1  0.55500000  0.62400000  0.23100000  1.0 0.0912124173
C  C1139  1  0.63800000  0.67100000  0.35200000  1.0 0.1365294948
C  C1140  1  0.67000000  0.69000000  0.35000000  1.0 -0.1514460719
C  C1141  1  0.69800000  0.68200000  0.32400000  1.0 -0.0802620298
C  C1142  1  0.68900000  0.65900000  0.29700000  1.0 0.0912124173
C  C1143  1  0.65400000  0.64800000  0.29600000  1.0 -0.0417764661
C  C1144  1  0.71600000  0.64500000  0.27300000  1.0 -0.3196017895
C  C1145  1  0.95000000  0.28200000  0.38900000  1.0 0.0022006497
C  C1146  1  0.96800000  0.27300000  0.32800000  1.0 -0.0300465608
C  C1147  1  0.81000000  0.24900000  0.43400000  1.0 0.0675970793
C  C1148  1  0.79600000  0.21500000  0.44300000  1.0 -0.1275298872
C  C1149  1  0.82200000  0.19000000  0.45600000  1.0 -0.0479934345
C  C1150  1  0.86100000  0.19800000  0.45400000  1.0 -0.1275298872
C  C1151  1  0.87600000  0.23100000  0.44500000  1.0 0.0912124173
C  C1152  1  0.82900000  0.35200000  0.36200000  1.0 0.1365294948
C  C1153  1  0.81000000  0.35000000  0.33000000  1.0 -0.1514460719
C  C1154  1  0.81800000  0.32400000  0.30200000  1.0 -0.0802620298
C  C1155  1  0.84100000  0.29700000  0.31100000  1.0 0.0912124173
C  C1156  1  0.85200000  0.29600000  0.34600000  1.0 -0.0417764661
C  C1157  1  0.85500000  0.27300000  0.28400000  1.0 -0.3196017895
C  C1158  1  0.45000000  0.78200000  0.88900000  1.0 0.0022006497
C  C1159  1  0.46800000  0.77300000  0.82800000  1.0 -0.0300465608
C  C1160  1  0.31000000  0.74900000  0.93400000  1.0 0.0675970793
C  C1161  1  0.29600000  0.71500000  0.94300000  1.0 -0.1275298872
C  C1162  1  0.32200000  0.69000000  0.95600000  1.0 -0.0479934345
C  C1163  1  0.36100000  0.69800000  0.95400000  1.0 -0.1275298872
C  C1164  1  0.37600000  0.73100000  0.94500000  1.0 0.0912124173
C  C1165  1  0.32900000  0.85200000  0.86200000  1.0 0.1365294948
C  C1166  1  0.31000000  0.85000000  0.83000000  1.0 -0.1514460719
C  C1167  1  0.31800000  0.82400000  0.80200000  1.0 -0.0802620298
C  C1168  1  0.34100000  0.79700000  0.81100000  1.0 0.0912124173
C  C1169  1  0.35200000  0.79600000  0.84600000  1.0 -0.0417764661
C  C1170  1  0.35500000  0.77300000  0.78400000  1.0 -0.3196017895
C  C1171  1  0.45000000  0.21800000  0.61100000  1.0 0.0022006497
C  C1172  1  0.46800000  0.22700000  0.67200000  1.0 -0.0300465608
C  C1173  1  0.31000000  0.25100000  0.56600000  1.0 0.0675970793
C  C1174  1  0.29600000  0.28500000  0.55700000  1.0 -0.1275298872
C  C1175  1  0.32200000  0.31000000  0.54400000  1.0 -0.0479934345
C  C1176  1  0.36100000  0.30200000  0.54600000  1.0 -0.1275298872
C  C1177  1  0.37600000  0.26900000  0.55500000  1.0 0.0912124173
C  C1178  1  0.32900000  0.14800000  0.63800000  1.0 0.1365294948
C  C1179  1  0.31000000  0.15000000  0.67000000  1.0 -0.1514460719
C  C1180  1  0.31800000  0.17600000  0.69800000  1.0 -0.0802620298
C  C1181  1  0.34100000  0.20300000  0.68900000  1.0 0.0912124173
C  C1182  1  0.35200000  0.20400000  0.65400000  1.0 -0.0417764661
C  C1183  1  0.35500000  0.22700000  0.71600000  1.0 -0.3196017895
C  C1184  1  0.95000000  0.71800000  0.11100000  1.0 0.0022006497
C  C1185  1  0.96800000  0.72700000  0.17200000  1.0 -0.0300465608
C  C1186  1  0.81000000  0.75100000  0.06600000  1.0 0.0675970793
C  C1187  1  0.79600000  0.78500000  0.05700000  1.0 -0.1275298872
C  C1188  1  0.82200000  0.81000000  0.04400000  1.0 -0.0479934345
C  C1189  1  0.86100000  0.80200000  0.04600000  1.0 -0.1275298872
C  C1190  1  0.87600000  0.76900000  0.05500000  1.0 0.0912124173
C  C1191  1  0.82900000  0.64800000  0.13800000  1.0 0.1365294948
C  C1192  1  0.81000000  0.65000000  0.17000000  1.0 -0.1514460719
C  C1193  1  0.81800000  0.67600000  0.19800000  1.0 -0.0802620298
C  C1194  1  0.84100000  0.70300000  0.18900000  1.0 0.0912124173
C  C1195  1  0.85200000  0.70400000  0.15400000  1.0 -0.0417764661
C  C1196  1  0.85500000  0.72700000  0.21600000  1.0 -0.3196017895
C  C1197  1  0.05000000  0.78200000  0.11100000  1.0 0.0022006497
C  C1198  1  0.03200000  0.77300000  0.17200000  1.0 -0.0300465608
C  C1199  1  0.19000000  0.74900000  0.06600000  1.0 0.0675970793
C  C1200  1  0.20400000  0.71500000  0.05700000  1.0 -0.1275298872
C  C1201  1  0.17800000  0.69000000  0.04400000  1.0 -0.0479934345
C  C1202  1  0.13900000  0.69800000  0.04600000  1.0 -0.1275298872
C  C1203  1  0.12400000  0.73100000  0.05500000  1.0 0.0912124173
C  C1204  1  0.17100000  0.85200000  0.13800000  1.0 0.1365294948
C  C1205  1  0.19000000  0.85000000  0.17000000  1.0 -0.1514460719
C  C1206  1  0.18200000  0.82400000  0.19800000  1.0 -0.0802620298
C  C1207  1  0.15900000  0.79700000  0.18900000  1.0 0.0912124173
C  C1208  1  0.14800000  0.79600000  0.15400000  1.0 -0.0417764661
C  C1209  1  0.14500000  0.77300000  0.21600000  1.0 -0.3196017895
C  C1210  1  0.55000000  0.28200000  0.61100000  1.0 0.0022006497
C  C1211  1  0.53200000  0.27300000  0.67200000  1.0 -0.0300465608
C  C1212  1  0.69000000  0.24900000  0.56600000  1.0 0.0675970793
C  C1213  1  0.70400000  0.21500000  0.55700000  1.0 -0.1275298872
C  C1214  1  0.67800000  0.19000000  0.54400000  1.0 -0.0479934345
C  C1215  1  0.63900000  0.19800000  0.54600000  1.0 -0.1275298872
C  C1216  1  0.62400000  0.23100000  0.55500000  1.0 0.0912124173
C  C1217  1  0.67100000  0.35200000  0.63800000  1.0 0.1365294948
C  C1218  1  0.69000000  0.35000000  0.67000000  1.0 -0.1514460719
C  C1219  1  0.68200000  0.32400000  0.69800000  1.0 -0.0802620298
C  C1220  1  0.65900000  0.29700000  0.68900000  1.0 0.0912124173
C  C1221  1  0.64800000  0.29600000  0.65400000  1.0 -0.0417764661
C  C1222  1  0.64500000  0.27300000  0.71600000  1.0 -0.3196017895
C  C1223  1  0.55000000  0.71800000  0.88900000  1.0 0.0022006497
C  C1224  1  0.53200000  0.72700000  0.82800000  1.0 -0.0300465608
C  C1225  1  0.69000000  0.75100000  0.93400000  1.0 0.0675970793
C  C1226  1  0.70400000  0.78500000  0.94300000  1.0 -0.1275298872
C  C1227  1  0.67800000  0.81000000  0.95600000  1.0 -0.0479934345
C  C1228  1  0.63900000  0.80200000  0.95400000  1.0 -0.1275298872
C  C1229  1  0.62400000  0.76900000  0.94500000  1.0 0.0912124173
C  C1230  1  0.67100000  0.64800000  0.86200000  1.0 0.1365294948
C  C1231  1  0.69000000  0.65000000  0.83000000  1.0 -0.1514460719
C  C1232  1  0.68200000  0.67600000  0.80200000  1.0 -0.0802620298
C  C1233  1  0.65900000  0.70300000  0.81100000  1.0 0.0912124173
C  C1234  1  0.64800000  0.70400000  0.84600000  1.0 -0.0417764661
C  C1235  1  0.64500000  0.72700000  0.78400000  1.0 -0.3196017895
C  C1236  1  0.05000000  0.21800000  0.38900000  1.0 0.0022006497
C  C1237  1  0.03200000  0.22700000  0.32800000  1.0 -0.0300465608
C  C1238  1  0.19000000  0.25100000  0.43400000  1.0 0.0675970793
C  C1239  1  0.20400000  0.28500000  0.44300000  1.0 -0.1275298872
C  C1240  1  0.17800000  0.31000000  0.45600000  1.0 -0.0479934345
C  C1241  1  0.13900000  0.30200000  0.45400000  1.0 -0.1275298872
C  C1242  1  0.12400000  0.26900000  0.44500000  1.0 0.0912124173
C  C1243  1  0.17100000  0.14800000  0.36200000  1.0 0.1365294948
C  C1244  1  0.19000000  0.15000000  0.33000000  1.0 -0.1514460719
C  C1245  1  0.18200000  0.17600000  0.30200000  1.0 -0.0802620298
C  C1246  1  0.15900000  0.20300000  0.31100000  1.0 0.0912124173
C  C1247  1  0.14800000  0.20400000  0.34600000  1.0 -0.0417764661
C  C1248  1  0.14500000  0.22700000  0.28400000  1.0 -0.3196017895
N  N1  1  0.64800000  0.45300000  0.32400000  1.0 -0.3196017895
N  N2  1  0.55500000  0.46900000  0.29900000  1.0 -0.3100663994
N  N3  1  0.69100000  0.48900000  0.40000000  1.0 -0.3100663994
N  N4  1  0.62400000  0.42400000  0.40600000  1.0 -0.1406062695
N  N5  1  0.14800000  0.95300000  0.82400000  1.0 -0.3196017895
N  N6  1  0.05500000  0.96900000  0.79900000  1.0 -0.3100663994
N  N7  1  0.19100000  0.98900000  0.90000000  1.0 -0.3100663994
N  N8  1  0.12400000  0.92400000  0.90600000  1.0 -0.1406062695
N  N9  1  0.85200000  0.54700000  0.82400000  1.0 -0.3196017895
N  N10  1  0.94500000  0.53100000  0.79900000  1.0 -0.3100663994
N  N11  1  0.80900000  0.51100000  0.90000000  1.0 -0.3100663994
N  N12  1  0.87600000  0.57600000  0.90600000  1.0 -0.1406062695
N  N13  1  0.35200000  0.04700000  0.32400000  1.0 -0.3196017895
N  N14  1  0.44500000  0.03100000  0.29900000  1.0 -0.3100663994
N  N15  1  0.30900000  0.01100000  0.40000000  1.0 -0.3100663994
N  N16  1  0.37600000  0.07600000  0.40600000  1.0 -0.1406062695
N  N17  1  0.35200000  0.95300000  0.17600000  1.0 -0.3196017895
N  N18  1  0.44500000  0.96900000  0.20100000  1.0 -0.3100663994
N  N19  1  0.30900000  0.98900000  0.10000000  1.0 -0.3100663994
N  N20  1  0.37600000  0.92400000  0.09400000  1.0 -0.1406062695
N  N21  1  0.85200000  0.45300000  0.67600000  1.0 -0.3196017895
N  N22  1  0.94500000  0.46900000  0.70100000  1.0 -0.3100663994
N  N23  1  0.80900000  0.48900000  0.60000000  1.0 -0.3100663994
N  N24  1  0.87600000  0.42400000  0.59400000  1.0 -0.1406062695
N  N25  1  0.14800000  0.04700000  0.67600000  1.0 -0.3196017895
N  N26  1  0.05500000  0.03100000  0.70100000  1.0 -0.3100663994
N  N27  1  0.19100000  0.01100000  0.60000000  1.0 -0.3100663994
N  N28  1  0.12400000  0.07600000  0.59400000  1.0 -0.1406062695
N  N29  1  0.64800000  0.54700000  0.17600000  1.0 -0.3196017895
N  N30  1  0.55500000  0.53100000  0.20100000  1.0 -0.3100663994
N  N31  1  0.69100000  0.51100000  0.10000000  1.0 -0.3100663994
N  N32  1  0.62400000  0.57600000  0.09400000  1.0 -0.1406062695
N  N33  1  0.32400000  0.64800000  0.45300000  1.0 -0.3196017895
N  N34  1  0.29900000  0.55500000  0.46900000  1.0 -0.3100663994
N  N35  1  0.40000000  0.69100000  0.48900000  1.0 -0.3100663994
N  N36  1  0.40600000  0.62400000  0.42400000  1.0 -0.1406062695
N  N37  1  0.82400000  0.14800000  0.95300000  1.0 -0.3196017895
N  N38  1  0.79900000  0.05500000  0.96900000  1.0 -0.3100663994
N  N39  1  0.90000000  0.19100000  0.98900000  1.0 -0.3100663994
N  N40  1  0.90600000  0.12400000  0.92400000  1.0 -0.1406062695
N  N41  1  0.82400000  0.85200000  0.54700000  1.0 -0.3196017895
N  N42  1  0.79900000  0.94500000  0.53100000  1.0 -0.3100663994
N  N43  1  0.90000000  0.80900000  0.51100000  1.0 -0.3100663994
N  N44  1  0.90600000  0.87600000  0.57600000  1.0 -0.1406062695
N  N45  1  0.32400000  0.35200000  0.04700000  1.0 -0.3196017895
N  N46  1  0.29900000  0.44500000  0.03100000  1.0 -0.3100663994
N  N47  1  0.40000000  0.30900000  0.01100000  1.0 -0.3100663994
N  N48  1  0.40600000  0.37600000  0.07600000  1.0 -0.1406062695
N  N49  1  0.17600000  0.35200000  0.95300000  1.0 -0.3196017895
N  N50  1  0.20100000  0.44500000  0.96900000  1.0 -0.3100663994
N  N51  1  0.10000000  0.30900000  0.98900000  1.0 -0.3100663994
N  N52  1  0.09400000  0.37600000  0.92400000  1.0 -0.1406062695
N  N53  1  0.67600000  0.85200000  0.45300000  1.0 -0.3196017895
N  N54  1  0.70100000  0.94500000  0.46900000  1.0 -0.3100663994
N  N55  1  0.60000000  0.80900000  0.48900000  1.0 -0.3100663994
N  N56  1  0.59400000  0.87600000  0.42400000  1.0 -0.1406062695
N  N57  1  0.67600000  0.14800000  0.04700000  1.0 -0.3196017895
N  N58  1  0.70100000  0.05500000  0.03100000  1.0 -0.3100663994
N  N59  1  0.60000000  0.19100000  0.01100000  1.0 -0.3100663994
N  N60  1  0.59400000  0.12400000  0.07600000  1.0 -0.1406062695
N  N61  1  0.17600000  0.64800000  0.54700000  1.0 -0.3196017895
N  N62  1  0.20100000  0.55500000  0.53100000  1.0 -0.3100663994
N  N63  1  0.10000000  0.69100000  0.51100000  1.0 -0.3100663994
N  N64  1  0.09400000  0.62400000  0.57600000  1.0 -0.1406062695
N  N65  1  0.45300000  0.32400000  0.64800000  1.0 -0.3196017895
N  N66  1  0.46900000  0.29900000  0.55500000  1.0 -0.3100663994
N  N67  1  0.48900000  0.40000000  0.69100000  1.0 -0.3100663994
N  N68  1  0.42400000  0.40600000  0.62400000  1.0 -0.1406062695
N  N69  1  0.95300000  0.82400000  0.14800000  1.0 -0.3196017895
N  N70  1  0.96900000  0.79900000  0.05500000  1.0 -0.3100663994
N  N71  1  0.98900000  0.90000000  0.19100000  1.0 -0.3100663994
N  N72  1  0.92400000  0.90600000  0.12400000  1.0 -0.1406062695
N  N73  1  0.54700000  0.82400000  0.85200000  1.0 -0.3196017895
N  N74  1  0.53100000  0.79900000  0.94500000  1.0 -0.3100663994
N  N75  1  0.51100000  0.90000000  0.80900000  1.0 -0.3100663994
N  N76  1  0.57600000  0.90600000  0.87600000  1.0 -0.1406062695
N  N77  1  0.04700000  0.32400000  0.35200000  1.0 -0.3196017895
N  N78  1  0.03100000  0.29900000  0.44500000  1.0 -0.3100663994
N  N79  1  0.01100000  0.40000000  0.30900000  1.0 -0.3100663994
N  N80  1  0.07600000  0.40600000  0.37600000  1.0 -0.1406062695
N  N81  1  0.95300000  0.17600000  0.35200000  1.0 -0.3196017895
N  N82  1  0.96900000  0.20100000  0.44500000  1.0 -0.3100663994
N  N83  1  0.98900000  0.10000000  0.30900000  1.0 -0.3100663994
N  N84  1  0.92400000  0.09400000  0.37600000  1.0 -0.1406062695
N  N85  1  0.45300000  0.67600000  0.85200000  1.0 -0.3196017895
N  N86  1  0.46900000  0.70100000  0.94500000  1.0 -0.3100663994
N  N87  1  0.48900000  0.60000000  0.80900000  1.0 -0.3100663994
N  N88  1  0.42400000  0.59400000  0.87600000  1.0 -0.1406062695
N  N89  1  0.04700000  0.67600000  0.14800000  1.0 -0.3196017895
N  N90  1  0.03100000  0.70100000  0.05500000  1.0 -0.3100663994
N  N91  1  0.01100000  0.60000000  0.19100000  1.0 -0.3100663994
N  N92  1  0.07600000  0.59400000  0.12400000  1.0 -0.1406062695
N  N93  1  0.54700000  0.17600000  0.64800000  1.0 -0.3196017895
N  N94  1  0.53100000  0.20100000  0.55500000  1.0 -0.3100663994
N  N95  1  0.51100000  0.10000000  0.69100000  1.0 -0.3100663994
N  N96  1  0.57600000  0.09400000  0.62400000  1.0 -0.1406062695
N  N97  1  0.20300000  0.89800000  0.92600000  1.0 -0.3196017895
N  N98  1  0.21900000  0.80500000  0.95100000  1.0 -0.3100663994
N  N99  1  0.23900000  0.94100000  0.85000000  1.0 -0.3100663994
N  N100  1  0.17400000  0.87400000  0.84400000  1.0 -0.1406062695
N  N101  1  0.70300000  0.39800000  0.42600000  1.0 -0.3196017895
N  N102  1  0.71900000  0.30500000  0.45100000  1.0 -0.3100663994
N  N103  1  0.73900000  0.44100000  0.35000000  1.0 -0.3100663994
N  N104  1  0.67400000  0.37400000  0.34400000  1.0 -0.1406062695
N  N105  1  0.29700000  0.10200000  0.42600000  1.0 -0.3196017895
N  N106  1  0.28100000  0.19500000  0.45100000  1.0 -0.3100663994
N  N107  1  0.26100000  0.05900000  0.35000000  1.0 -0.3100663994
N  N108  1  0.32600000  0.12600000  0.34400000  1.0 -0.1406062695
N  N109  1  0.79700000  0.60200000  0.92600000  1.0 -0.3196017895
N  N110  1  0.78100000  0.69500000  0.95100000  1.0 -0.3100663994
N  N111  1  0.76100000  0.55900000  0.85000000  1.0 -0.3100663994
N  N112  1  0.82600000  0.62600000  0.84400000  1.0 -0.1406062695
N  N113  1  0.70300000  0.60200000  0.07400000  1.0 -0.3196017895
N  N114  1  0.71900000  0.69500000  0.04900000  1.0 -0.3100663994
N  N115  1  0.73900000  0.55900000  0.15000000  1.0 -0.3100663994
N  N116  1  0.67400000  0.62600000  0.15600000  1.0 -0.1406062695
N  N117  1  0.20300000  0.10200000  0.57400000  1.0 -0.3196017895
N  N118  1  0.21900000  0.19500000  0.54900000  1.0 -0.3100663994
N  N119  1  0.23900000  0.05900000  0.65000000  1.0 -0.3100663994
N  N120  1  0.17400000  0.12600000  0.65600000  1.0 -0.1406062695
N  N121  1  0.79700000  0.39800000  0.57400000  1.0 -0.3196017895
N  N122  1  0.78100000  0.30500000  0.54900000  1.0 -0.3100663994
N  N123  1  0.76100000  0.44100000  0.65000000  1.0 -0.3100663994
N  N124  1  0.82600000  0.37400000  0.65600000  1.0 -0.1406062695
N  N125  1  0.29700000  0.89800000  0.07400000  1.0 -0.3196017895
N  N126  1  0.28100000  0.80500000  0.04900000  1.0 -0.3100663994
N  N127  1  0.26100000  0.94100000  0.15000000  1.0 -0.3100663994
N  N128  1  0.32600000  0.87400000  0.15600000  1.0 -0.1406062695
N  N129  1  0.39800000  0.57400000  0.79700000  1.0 -0.3196017895
N  N130  1  0.30500000  0.54900000  0.78100000  1.0 -0.3100663994
N  N131  1  0.44100000  0.65000000  0.76100000  1.0 -0.3100663994
N  N132  1  0.37400000  0.65600000  0.82600000  1.0 -0.1406062695
N  N133  1  0.89800000  0.07400000  0.29700000  1.0 -0.3196017895
N  N134  1  0.80500000  0.04900000  0.28100000  1.0 -0.3100663994
N  N135  1  0.94100000  0.15000000  0.26100000  1.0 -0.3100663994
N  N136  1  0.87400000  0.15600000  0.32600000  1.0 -0.1406062695
N  N137  1  0.60200000  0.07400000  0.70300000  1.0 -0.3196017895
N  N138  1  0.69500000  0.04900000  0.71900000  1.0 -0.3100663994
N  N139  1  0.55900000  0.15000000  0.73900000  1.0 -0.3100663994
N  N140  1  0.62600000  0.15600000  0.67400000  1.0 -0.1406062695
N  N141  1  0.10200000  0.57400000  0.20300000  1.0 -0.3196017895
N  N142  1  0.19500000  0.54900000  0.21900000  1.0 -0.3100663994
N  N143  1  0.05900000  0.65000000  0.23900000  1.0 -0.3100663994
N  N144  1  0.12600000  0.65600000  0.17400000  1.0 -0.1406062695
N  N145  1  0.10200000  0.42600000  0.29700000  1.0 -0.3196017895
N  N146  1  0.19500000  0.45100000  0.28100000  1.0 -0.3100663994
N  N147  1  0.05900000  0.35000000  0.26100000  1.0 -0.3100663994
N  N148  1  0.12600000  0.34400000  0.32600000  1.0 -0.1406062695
N  N149  1  0.60200000  0.92600000  0.79700000  1.0 -0.3196017895
N  N150  1  0.69500000  0.95100000  0.78100000  1.0 -0.3100663994
N  N151  1  0.55900000  0.85000000  0.76100000  1.0 -0.3100663994
N  N152  1  0.62600000  0.84400000  0.82600000  1.0 -0.1406062695
N  N153  1  0.89800000  0.92600000  0.20300000  1.0 -0.3196017895
N  N154  1  0.80500000  0.95100000  0.21900000  1.0 -0.3100663994
N  N155  1  0.94100000  0.85000000  0.23900000  1.0 -0.3100663994
N  N156  1  0.87400000  0.84400000  0.17400000  1.0 -0.1406062695
N  N157  1  0.39800000  0.42600000  0.70300000  1.0 -0.3196017895
N  N158  1  0.30500000  0.45100000  0.71900000  1.0 -0.3100663994
N  N159  1  0.44100000  0.35000000  0.73900000  1.0 -0.3100663994
N  N160  1  0.37400000  0.34400000  0.67400000  1.0 -0.1406062695
N  N161  1  0.07400000  0.70300000  0.60200000  1.0 -0.3196017895
N  N162  1  0.04900000  0.71900000  0.69500000  1.0 -0.3100663994
N  N163  1  0.15000000  0.73900000  0.55900000  1.0 -0.3100663994
N  N164  1  0.15600000  0.67400000  0.62600000  1.0 -0.1406062695
N  N165  1  0.57400000  0.20300000  0.10200000  1.0 -0.3196017895
N  N166  1  0.54900000  0.21900000  0.19500000  1.0 -0.3100663994
N  N167  1  0.65000000  0.23900000  0.05900000  1.0 -0.3100663994
N  N168  1  0.65600000  0.17400000  0.12600000  1.0 -0.1406062695
N  N169  1  0.57400000  0.79700000  0.39800000  1.0 -0.3196017895
N  N170  1  0.54900000  0.78100000  0.30500000  1.0 -0.3100663994
N  N171  1  0.65000000  0.76100000  0.44100000  1.0 -0.3100663994
N  N172  1  0.65600000  0.82600000  0.37400000  1.0 -0.1406062695
N  N173  1  0.07400000  0.29700000  0.89800000  1.0 -0.3196017895
N  N174  1  0.04900000  0.28100000  0.80500000  1.0 -0.3100663994
N  N175  1  0.15000000  0.26100000  0.94100000  1.0 -0.3100663994
N  N176  1  0.15600000  0.32600000  0.87400000  1.0 -0.1406062695
N  N177  1  0.92600000  0.20300000  0.89800000  1.0 -0.3196017895
N  N178  1  0.95100000  0.21900000  0.80500000  1.0 -0.3100663994
N  N179  1  0.85000000  0.23900000  0.94100000  1.0 -0.3100663994
N  N180  1  0.84400000  0.17400000  0.87400000  1.0 -0.1406062695
N  N181  1  0.42600000  0.70300000  0.39800000  1.0 -0.3196017895
N  N182  1  0.45100000  0.71900000  0.30500000  1.0 -0.3100663994
N  N183  1  0.35000000  0.73900000  0.44100000  1.0 -0.3100663994
N  N184  1  0.34400000  0.67400000  0.37400000  1.0 -0.1406062695
N  N185  1  0.42600000  0.29700000  0.10200000  1.0 -0.3196017895
N  N186  1  0.45100000  0.28100000  0.19500000  1.0 -0.3100663994
N  N187  1  0.35000000  0.26100000  0.05900000  1.0 -0.3100663994
N  N188  1  0.34400000  0.32600000  0.12600000  1.0 -0.1406062695
N  N189  1  0.92600000  0.79700000  0.60200000  1.0 -0.3196017895
N  N190  1  0.95100000  0.78100000  0.69500000  1.0 -0.3100663994
N  N191  1  0.85000000  0.76100000  0.55900000  1.0 -0.3100663994
N  N192  1  0.84400000  0.82600000  0.62600000  1.0 -0.1406062695
N  N193  1  0.35200000  0.54700000  0.67600000  1.0 -0.3196017895
N  N194  1  0.44500000  0.53100000  0.70100000  1.0 -0.3100663994
N  N195  1  0.30900000  0.51100000  0.60000000  1.0 -0.3100663994
N  N196  1  0.37600000  0.57600000  0.59400000  1.0 -0.1406062695
N  N197  1  0.85200000  0.04700000  0.17600000  1.0 -0.3196017895
N  N198  1  0.94500000  0.03100000  0.20100000  1.0 -0.3100663994
N  N199  1  0.80900000  0.01100000  0.10000000  1.0 -0.3100663994
N  N200  1  0.87600000  0.07600000  0.09400000  1.0 -0.1406062695
N  N201  1  0.14800000  0.45300000  0.17600000  1.0 -0.3196017895
N  N202  1  0.05500000  0.46900000  0.20100000  1.0 -0.3100663994
N  N203  1  0.19100000  0.48900000  0.10000000  1.0 -0.3100663994
N  N204  1  0.12400000  0.42400000  0.09400000  1.0 -0.1406062695
N  N205  1  0.64800000  0.95300000  0.67600000  1.0 -0.3196017895
N  N206  1  0.55500000  0.96900000  0.70100000  1.0 -0.3100663994
N  N207  1  0.69100000  0.98900000  0.60000000  1.0 -0.3100663994
N  N208  1  0.62400000  0.92400000  0.59400000  1.0 -0.1406062695
N  N209  1  0.64800000  0.04700000  0.82400000  1.0 -0.3196017895
N  N210  1  0.55500000  0.03100000  0.79900000  1.0 -0.3100663994
N  N211  1  0.69100000  0.01100000  0.90000000  1.0 -0.3100663994
N  N212  1  0.62400000  0.07600000  0.90600000  1.0 -0.1406062695
N  N213  1  0.14800000  0.54700000  0.32400000  1.0 -0.3196017895
N  N214  1  0.05500000  0.53100000  0.29900000  1.0 -0.3100663994
N  N215  1  0.19100000  0.51100000  0.40000000  1.0 -0.3100663994
N  N216  1  0.12400000  0.57600000  0.40600000  1.0 -0.1406062695
N  N217  1  0.85200000  0.95300000  0.32400000  1.0 -0.3196017895
N  N218  1  0.94500000  0.96900000  0.29900000  1.0 -0.3100663994
N  N219  1  0.80900000  0.98900000  0.40000000  1.0 -0.3100663994
N  N220  1  0.87600000  0.92400000  0.40600000  1.0 -0.1406062695
N  N221  1  0.35200000  0.45300000  0.82400000  1.0 -0.3196017895
N  N222  1  0.44500000  0.46900000  0.79900000  1.0 -0.3100663994
N  N223  1  0.30900000  0.48900000  0.90000000  1.0 -0.3100663994
N  N224  1  0.37600000  0.42400000  0.90600000  1.0 -0.1406062695
N  N225  1  0.67600000  0.35200000  0.54700000  1.0 -0.3196017895
N  N226  1  0.70100000  0.44500000  0.53100000  1.0 -0.3100663994
N  N227  1  0.60000000  0.30900000  0.51100000  1.0 -0.3100663994
N  N228  1  0.59400000  0.37600000  0.57600000  1.0 -0.1406062695
N  N229  1  0.17600000  0.85200000  0.04700000  1.0 -0.3196017895
N  N230  1  0.20100000  0.94500000  0.03100000  1.0 -0.3100663994
N  N231  1  0.10000000  0.80900000  0.01100000  1.0 -0.3100663994
N  N232  1  0.09400000  0.87600000  0.07600000  1.0 -0.1406062695
N  N233  1  0.17600000  0.14800000  0.45300000  1.0 -0.3196017895
N  N234  1  0.20100000  0.05500000  0.46900000  1.0 -0.3100663994
N  N235  1  0.10000000  0.19100000  0.48900000  1.0 -0.3100663994
N  N236  1  0.09400000  0.12400000  0.42400000  1.0 -0.1406062695
N  N237  1  0.67600000  0.64800000  0.95300000  1.0 -0.3196017895
N  N238  1  0.70100000  0.55500000  0.96900000  1.0 -0.3100663994
N  N239  1  0.60000000  0.69100000  0.98900000  1.0 -0.3100663994
N  N240  1  0.59400000  0.62400000  0.92400000  1.0 -0.1406062695
N  N241  1  0.82400000  0.64800000  0.04700000  1.0 -0.3196017895
N  N242  1  0.79900000  0.55500000  0.03100000  1.0 -0.3100663994
N  N243  1  0.90000000  0.69100000  0.01100000  1.0 -0.3100663994
N  N244  1  0.90600000  0.62400000  0.07600000  1.0 -0.1406062695
N  N245  1  0.32400000  0.14800000  0.54700000  1.0 -0.3196017895
N  N246  1  0.29900000  0.05500000  0.53100000  1.0 -0.3100663994
N  N247  1  0.40000000  0.19100000  0.51100000  1.0 -0.3100663994
N  N248  1  0.40600000  0.12400000  0.57600000  1.0 -0.1406062695
N  N249  1  0.32400000  0.85200000  0.95300000  1.0 -0.3196017895
N  N250  1  0.29900000  0.94500000  0.96900000  1.0 -0.3100663994
N  N251  1  0.40000000  0.80900000  0.98900000  1.0 -0.3100663994
N  N252  1  0.40600000  0.87600000  0.92400000  1.0 -0.1406062695
N  N253  1  0.82400000  0.35200000  0.45300000  1.0 -0.3196017895
N  N254  1  0.79900000  0.44500000  0.46900000  1.0 -0.3100663994
N  N255  1  0.90000000  0.30900000  0.48900000  1.0 -0.3100663994
N  N256  1  0.90600000  0.37600000  0.42400000  1.0 -0.1406062695
N  N257  1  0.54700000  0.67600000  0.35200000  1.0 -0.3196017895
N  N258  1  0.53100000  0.70100000  0.44500000  1.0 -0.3100663994
N  N259  1  0.51100000  0.60000000  0.30900000  1.0 -0.3100663994
N  N260  1  0.57600000  0.59400000  0.37600000  1.0 -0.1406062695
N  N261  1  0.04700000  0.17600000  0.85200000  1.0 -0.3196017895
N  N262  1  0.03100000  0.20100000  0.94500000  1.0 -0.3100663994
N  N263  1  0.01100000  0.10000000  0.80900000  1.0 -0.3100663994
N  N264  1  0.07600000  0.09400000  0.87600000  1.0 -0.1406062695
N  N265  1  0.45300000  0.17600000  0.14800000  1.0 -0.3196017895
N  N266  1  0.46900000  0.20100000  0.05500000  1.0 -0.3100663994
N  N267  1  0.48900000  0.10000000  0.19100000  1.0 -0.3100663994
N  N268  1  0.42400000  0.09400000  0.12400000  1.0 -0.1406062695
N  N269  1  0.95300000  0.67600000  0.64800000  1.0 -0.3196017895
N  N270  1  0.96900000  0.70100000  0.55500000  1.0 -0.3100663994
N  N271  1  0.98900000  0.60000000  0.69100000  1.0 -0.3100663994
N  N272  1  0.92400000  0.59400000  0.62400000  1.0 -0.1406062695
N  N273  1  0.04700000  0.82400000  0.64800000  1.0 -0.3196017895
N  N274  1  0.03100000  0.79900000  0.55500000  1.0 -0.3100663994
N  N275  1  0.01100000  0.90000000  0.69100000  1.0 -0.3100663994
N  N276  1  0.07600000  0.90600000  0.62400000  1.0 -0.1406062695
N  N277  1  0.54700000  0.32400000  0.14800000  1.0 -0.3196017895
N  N278  1  0.53100000  0.29900000  0.05500000  1.0 -0.3100663994
N  N279  1  0.51100000  0.40000000  0.19100000  1.0 -0.3100663994
N  N280  1  0.57600000  0.40600000  0.12400000  1.0 -0.1406062695
N  N281  1  0.95300000  0.32400000  0.85200000  1.0 -0.3196017895
N  N282  1  0.96900000  0.29900000  0.94500000  1.0 -0.3100663994
N  N283  1  0.98900000  0.40000000  0.80900000  1.0 -0.3100663994
N  N284  1  0.92400000  0.40600000  0.87600000  1.0 -0.1406062695
N  N285  1  0.45300000  0.82400000  0.35200000  1.0 -0.3196017895
N  N286  1  0.46900000  0.79900000  0.44500000  1.0 -0.3100663994
N  N287  1  0.48900000  0.90000000  0.30900000  1.0 -0.3100663994
N  N288  1  0.42400000  0.90600000  0.37600000  1.0 -0.1406062695
N  N289  1  0.79700000  0.10200000  0.07400000  1.0 -0.3196017895
N  N290  1  0.78100000  0.19500000  0.04900000  1.0 -0.3100663994
N  N291  1  0.76100000  0.05900000  0.15000000  1.0 -0.3100663994
N  N292  1  0.82600000  0.12600000  0.15600000  1.0 -0.1406062695
N  N293  1  0.29700000  0.60200000  0.57400000  1.0 -0.3196017895
N  N294  1  0.28100000  0.69500000  0.54900000  1.0 -0.3100663994
N  N295  1  0.26100000  0.55900000  0.65000000  1.0 -0.3100663994
N  N296  1  0.32600000  0.62600000  0.65600000  1.0 -0.1406062695
N  N297  1  0.70300000  0.89800000  0.57400000  1.0 -0.3196017895
N  N298  1  0.71900000  0.80500000  0.54900000  1.0 -0.3100663994
N  N299  1  0.73900000  0.94100000  0.65000000  1.0 -0.3100663994
N  N300  1  0.67400000  0.87400000  0.65600000  1.0 -0.1406062695
N  N301  1  0.20300000  0.39800000  0.07400000  1.0 -0.3196017895
N  N302  1  0.21900000  0.30500000  0.04900000  1.0 -0.3100663994
N  N303  1  0.23900000  0.44100000  0.15000000  1.0 -0.3100663994
N  N304  1  0.17400000  0.37400000  0.15600000  1.0 -0.1406062695
N  N305  1  0.29700000  0.39800000  0.92600000  1.0 -0.3196017895
N  N306  1  0.28100000  0.30500000  0.95100000  1.0 -0.3100663994
N  N307  1  0.26100000  0.44100000  0.85000000  1.0 -0.3100663994
N  N308  1  0.32600000  0.37400000  0.84400000  1.0 -0.1406062695
N  N309  1  0.79700000  0.89800000  0.42600000  1.0 -0.3196017895
N  N310  1  0.78100000  0.80500000  0.45100000  1.0 -0.3100663994
N  N311  1  0.76100000  0.94100000  0.35000000  1.0 -0.3100663994
N  N312  1  0.82600000  0.87400000  0.34400000  1.0 -0.1406062695
N  N313  1  0.20300000  0.60200000  0.42600000  1.0 -0.3196017895
N  N314  1  0.21900000  0.69500000  0.45100000  1.0 -0.3100663994
N  N315  1  0.23900000  0.55900000  0.35000000  1.0 -0.3100663994
N  N316  1  0.17400000  0.62600000  0.34400000  1.0 -0.1406062695
N  N317  1  0.70300000  0.10200000  0.92600000  1.0 -0.3196017895
N  N318  1  0.71900000  0.19500000  0.95100000  1.0 -0.3100663994
N  N319  1  0.73900000  0.05900000  0.85000000  1.0 -0.3100663994
N  N320  1  0.67400000  0.12600000  0.84400000  1.0 -0.1406062695
N  N321  1  0.60200000  0.42600000  0.20300000  1.0 -0.3196017895
N  N322  1  0.69500000  0.45100000  0.21900000  1.0 -0.3100663994
N  N323  1  0.55900000  0.35000000  0.23900000  1.0 -0.3100663994
N  N324  1  0.62600000  0.34400000  0.17400000  1.0 -0.1406062695
N  N325  1  0.10200000  0.92600000  0.70300000  1.0 -0.3196017895
N  N326  1  0.19500000  0.95100000  0.71900000  1.0 -0.3100663994
N  N327  1  0.05900000  0.85000000  0.73900000  1.0 -0.3100663994
N  N328  1  0.12600000  0.84400000  0.67400000  1.0 -0.1406062695
N  N329  1  0.39800000  0.92600000  0.29700000  1.0 -0.3196017895
N  N330  1  0.30500000  0.95100000  0.28100000  1.0 -0.3100663994
N  N331  1  0.44100000  0.85000000  0.26100000  1.0 -0.3100663994
N  N332  1  0.37400000  0.84400000  0.32600000  1.0 -0.1406062695
N  N333  1  0.89800000  0.42600000  0.79700000  1.0 -0.3196017895
N  N334  1  0.80500000  0.45100000  0.78100000  1.0 -0.3100663994
N  N335  1  0.94100000  0.35000000  0.76100000  1.0 -0.3100663994
N  N336  1  0.87400000  0.34400000  0.82600000  1.0 -0.1406062695
N  N337  1  0.89800000  0.57400000  0.70300000  1.0 -0.3196017895
N  N338  1  0.80500000  0.54900000  0.71900000  1.0 -0.3100663994
N  N339  1  0.94100000  0.65000000  0.73900000  1.0 -0.3100663994
N  N340  1  0.87400000  0.65600000  0.67400000  1.0 -0.1406062695
N  N341  1  0.39800000  0.07400000  0.20300000  1.0 -0.3196017895
N  N342  1  0.30500000  0.04900000  0.21900000  1.0 -0.3100663994
N  N343  1  0.44100000  0.15000000  0.23900000  1.0 -0.3100663994
N  N344  1  0.37400000  0.15600000  0.17400000  1.0 -0.1406062695
N  N345  1  0.10200000  0.07400000  0.79700000  1.0 -0.3196017895
N  N346  1  0.19500000  0.04900000  0.78100000  1.0 -0.3100663994
N  N347  1  0.05900000  0.15000000  0.76100000  1.0 -0.3100663994
N  N348  1  0.12600000  0.15600000  0.82600000  1.0 -0.1406062695
N  N349  1  0.60200000  0.57400000  0.29700000  1.0 -0.3196017895
N  N350  1  0.69500000  0.54900000  0.28100000  1.0 -0.3100663994
N  N351  1  0.55900000  0.65000000  0.26100000  1.0 -0.3100663994
N  N352  1  0.62600000  0.65600000  0.32600000  1.0 -0.1406062695
N  N353  1  0.92600000  0.29700000  0.39800000  1.0 -0.3196017895
N  N354  1  0.95100000  0.28100000  0.30500000  1.0 -0.3100663994
N  N355  1  0.85000000  0.26100000  0.44100000  1.0 -0.3100663994
N  N356  1  0.84400000  0.32600000  0.37400000  1.0 -0.1406062695
N  N357  1  0.42600000  0.79700000  0.89800000  1.0 -0.3196017895
N  N358  1  0.45100000  0.78100000  0.80500000  1.0 -0.3100663994
N  N359  1  0.35000000  0.76100000  0.94100000  1.0 -0.3100663994
N  N360  1  0.34400000  0.82600000  0.87400000  1.0 -0.1406062695
N  N361  1  0.42600000  0.20300000  0.60200000  1.0 -0.3196017895
N  N362  1  0.45100000  0.21900000  0.69500000  1.0 -0.3100663994
N  N363  1  0.35000000  0.23900000  0.55900000  1.0 -0.3100663994
N  N364  1  0.34400000  0.17400000  0.62600000  1.0 -0.1406062695
N  N365  1  0.92600000  0.70300000  0.10200000  1.0 -0.3196017895
N  N366  1  0.95100000  0.71900000  0.19500000  1.0 -0.3100663994
N  N367  1  0.85000000  0.73900000  0.05900000  1.0 -0.3100663994
N  N368  1  0.84400000  0.67400000  0.12600000  1.0 -0.1406062695
N  N369  1  0.07400000  0.79700000  0.10200000  1.0 -0.3196017895
N  N370  1  0.04900000  0.78100000  0.19500000  1.0 -0.3100663994
N  N371  1  0.15000000  0.76100000  0.05900000  1.0 -0.3100663994
N  N372  1  0.15600000  0.82600000  0.12600000  1.0 -0.1406062695
N  N373  1  0.57400000  0.29700000  0.60200000  1.0 -0.3196017895
N  N374  1  0.54900000  0.28100000  0.69500000  1.0 -0.3100663994
N  N375  1  0.65000000  0.26100000  0.55900000  1.0 -0.3100663994
N  N376  1  0.65600000  0.32600000  0.62600000  1.0 -0.1406062695
N  N377  1  0.57400000  0.70300000  0.89800000  1.0 -0.3196017895
N  N378  1  0.54900000  0.71900000  0.80500000  1.0 -0.3100663994
N  N379  1  0.65000000  0.73900000  0.94100000  1.0 -0.3100663994
N  N380  1  0.65600000  0.67400000  0.87400000  1.0 -0.1406062695
N  N381  1  0.07400000  0.20300000  0.39800000  1.0 -0.3196017895
N  N382  1  0.04900000  0.21900000  0.30500000  1.0 -0.3100663994
N  N383  1  0.15000000  0.23900000  0.44100000  1.0 -0.3100663994
N  N384  1  0.15600000  0.17400000  0.37400000  1.0 -0.1406062695
