# DDEC6 charges by PACMAN v1.1 (https://github.com/mtap-research/PACMAN-charge/)
data_WUTCET_ASR_pacman
_symmetry_space_group_name_H-M   'P 1'
_cell_length_a   14.19500000
_cell_length_b   18.21000000
_cell_length_c   25.64500000
_cell_angle_alpha   90.00000000
_cell_angle_beta   90.00000000
_cell_angle_gamma   90.00000000
_symmetry_Int_Tables_number   1
_chemical_formula_structural   Co3H32C52(NO8)2
_chemical_formula_sum   'Co12 H128 C208 N8 O64'
_cell_volume   6629.00041275
_cell_formula_units_Z   4
loop_
 _symmetry_equiv_pos_site_id
 _symmetry_equiv_pos_as_xyz
  1  'x, y, z'
loop_
 _atom_site_type_symbol
 _atom_site_label
 _atom_site_symmetry_multiplicity
 _atom_site_fract_x
 _atom_site_fract_y
 _atom_site_fract_z
 _atom_site_occupancy
 _atom_site_charge
Co  Co1  1  0.00000000  0.75000000  0.14477000  1.0 0.8887598299
Co  Co2  1  0.50000000  0.75000000  0.64477000  1.0 0.8887598299
Co  Co3  1  0.03142000  0.55727000  0.14513000  1.0 0.8056477093
Co  Co4  1  0.96858000  0.94273000  0.14513000  1.0 0.8056477093
Co  Co5  1  0.53142000  0.94273000  0.64513000  1.0 0.8056477093
Co  Co6  1  0.46858000  0.55727000  0.64513000  1.0 0.8056477093
Co  Co7  1  0.50000000  0.25000000  0.35523000  1.0 0.8887598299
Co  Co8  1  0.00000000  0.25000000  0.85523000  1.0 0.8887598299
Co  Co9  1  0.46858000  0.05727000  0.35487000  1.0 0.8056477093
Co  Co10  1  0.53142000  0.44273000  0.35487000  1.0 0.8056477093
Co  Co11  1  0.96858000  0.44273000  0.85487000  1.0 0.8056477093
Co  Co12  1  0.03142000  0.05727000  0.85487000  1.0 0.8056477093
H  H1  1  0.84070000  0.74090000  0.01570000  1.0 0.1172151871
H  H2  1  0.15930000  0.75910000  0.01570000  1.0 0.1172151871
H  H3  1  0.34070000  0.75910000  0.51570000  1.0 0.1172151871
H  H4  1  0.65930000  0.74090000  0.51570000  1.0 0.1172151871
H  H5  1  0.75960000  0.74230000  0.93800000  1.0 0.1121377984
H  H6  1  0.24040000  0.75770000  0.93800000  1.0 0.1121377984
H  H7  1  0.25960000  0.75770000  0.43800000  1.0 0.1121377984
H  H8  1  0.74040000  0.74230000  0.43800000  1.0 0.1121377984
H  H9  1  0.78280000  0.52370000  0.92860000  1.0 0.1172151871
H  H10  1  0.21720000  0.97630000  0.92860000  1.0 0.1172151871
H  H11  1  0.28280000  0.97630000  0.42860000  1.0 0.1172151871
H  H12  1  0.71720000  0.52370000  0.42860000  1.0 0.1172151871
H  H13  1  0.86930000  0.52320000  0.00480000  1.0 0.1172151871
H  H14  1  0.13070000  0.97680000  0.00480000  1.0 0.1172151871
H  H15  1  0.36930000  0.97680000  0.50480000  1.0 0.1172151871
H  H16  1  0.63070000  0.52320000  0.50480000  1.0 0.1172151871
H  H17  1  0.75460000  0.73270000  0.85000000  1.0 0.1121377984
H  H18  1  0.24540000  0.76730000  0.85000000  1.0 0.1121377984
H  H19  1  0.25460000  0.76730000  0.35000000  1.0 0.1121377984
H  H20  1  0.74540000  0.73270000  0.35000000  1.0 0.1121377984
H  H21  1  0.67630000  0.73520000  0.77150000  1.0 0.1172151871
H  H22  1  0.32370000  0.76480000  0.77150000  1.0 0.1172151871
H  H23  1  0.17630000  0.76480000  0.27150000  1.0 0.1172151871
H  H24  1  0.82370000  0.73520000  0.27150000  1.0 0.1172151871
H  H25  1  0.58440000  0.53390000  0.79760000  1.0 0.1121377984
H  H26  1  0.41560000  0.96610000  0.79760000  1.0 0.1121377984
H  H27  1  0.08440000  0.96610000  0.29760000  1.0 0.1121377984
H  H28  1  0.91560000  0.53390000  0.29760000  1.0 0.1121377984
H  H29  1  0.65910000  0.53300000  0.87650000  1.0 0.1172151871
H  H30  1  0.34090000  0.96700000  0.87650000  1.0 0.1172151871
H  H31  1  0.15910000  0.96700000  0.37650000  1.0 0.1172151871
H  H32  1  0.84090000  0.53300000  0.37650000  1.0 0.1172151871
H  H33  1  0.23190000  0.77420000  0.14170000  1.0 0.1020376262
H  H34  1  0.76810000  0.72580000  0.14170000  1.0 0.1020376262
H  H35  1  0.73190000  0.72580000  0.64170000  1.0 0.1020376262
H  H36  1  0.26810000  0.77420000  0.64170000  1.0 0.1020376262
H  H37  1  0.38030000  0.82510000  0.14530000  1.0 0.1121377984
H  H38  1  0.61970000  0.67490000  0.14530000  1.0 0.1121377984
H  H39  1  0.88030000  0.67490000  0.64530000  1.0 0.1121377984
H  H40  1  0.11970000  0.82510000  0.64530000  1.0 0.1121377984
H  H41  1  0.48950000  0.63100000  0.18180000  1.0 0.1121377984
H  H42  1  0.51050000  0.86900000  0.18180000  1.0 0.1121377984
H  H43  1  0.98950000  0.86900000  0.68180000  1.0 0.1121377984
H  H44  1  0.01050000  0.63100000  0.68180000  1.0 0.1121377984
H  H45  1  0.34310000  0.57870000  0.17710000  1.0 0.1121377984
H  H46  1  0.65690000  0.92130000  0.17710000  1.0 0.1121377984
H  H47  1  0.84310000  0.92130000  0.67710000  1.0 0.1121377984
H  H48  1  0.15690000  0.57870000  0.67710000  1.0 0.1121377984
H  H49  1  0.05990000  0.42990000  0.21650000  1.0 0.1020376262
H  H50  1  0.94010000  0.07010000  0.21650000  1.0 0.1020376262
H  H51  1  0.55990000  0.07010000  0.71650000  1.0 0.1020376262
H  H52  1  0.44010000  0.42990000  0.71650000  1.0 0.1020376262
H  H53  1  0.05100000  0.30390000  0.21920000  1.0 0.1256114774
H  H54  1  0.94900000  0.19610000  0.21920000  1.0 0.1256114774
H  H55  1  0.55100000  0.19610000  0.71920000  1.0 0.1256114774
H  H56  1  0.44900000  0.30390000  0.71920000  1.0 0.1256114774
H  H57  1  0.95860000  0.30750000  0.07150000  1.0 0.1256114774
H  H58  1  0.04140000  0.19250000  0.07150000  1.0 0.1256114774
H  H59  1  0.45860000  0.19250000  0.57150000  1.0 0.1256114774
H  H60  1  0.54140000  0.30750000  0.57150000  1.0 0.1256114774
H  H61  1  0.96730000  0.43380000  0.07380000  1.0 0.1020376262
H  H62  1  0.03270000  0.06620000  0.07380000  1.0 0.1020376262
H  H63  1  0.46730000  0.06620000  0.57380000  1.0 0.1020376262
H  H64  1  0.53270000  0.43380000  0.57380000  1.0 0.1020376262
H  H65  1  0.65930000  0.24090000  0.48430000  1.0 0.1172151871
H  H66  1  0.34070000  0.25910000  0.48430000  1.0 0.1172151871
H  H67  1  0.15930000  0.25910000  0.98430000  1.0 0.1172151871
H  H68  1  0.84070000  0.24090000  0.98430000  1.0 0.1172151871
H  H69  1  0.74040000  0.24230000  0.56200000  1.0 0.1121377984
H  H70  1  0.25960000  0.25770000  0.56200000  1.0 0.1121377984
H  H71  1  0.24040000  0.25770000  0.06200000  1.0 0.1121377984
H  H72  1  0.75960000  0.24230000  0.06200000  1.0 0.1121377984
H  H73  1  0.71720000  0.02370000  0.57140000  1.0 0.1172151871
H  H74  1  0.28280000  0.47630000  0.57140000  1.0 0.1172151871
H  H75  1  0.21720000  0.47630000  0.07140000  1.0 0.1172151871
H  H76  1  0.78280000  0.02370000  0.07140000  1.0 0.1172151871
H  H77  1  0.63070000  0.02320000  0.49520000  1.0 0.1172151871
H  H78  1  0.36930000  0.47680000  0.49520000  1.0 0.1172151871
H  H79  1  0.13070000  0.47680000  0.99520000  1.0 0.1172151871
H  H80  1  0.86930000  0.02320000  0.99520000  1.0 0.1172151871
H  H81  1  0.74540000  0.23270000  0.65000000  1.0 0.1121377984
H  H82  1  0.25460000  0.26730000  0.65000000  1.0 0.1121377984
H  H83  1  0.24540000  0.26730000  0.15000000  1.0 0.1121377984
H  H84  1  0.75460000  0.23270000  0.15000000  1.0 0.1121377984
H  H85  1  0.82370000  0.23520000  0.72850000  1.0 0.1172151871
H  H86  1  0.17630000  0.26480000  0.72850000  1.0 0.1172151871
H  H87  1  0.32370000  0.26480000  0.22850000  1.0 0.1172151871
H  H88  1  0.67630000  0.23520000  0.22850000  1.0 0.1172151871
H  H89  1  0.91560000  0.03390000  0.70240000  1.0 0.1121377984
H  H90  1  0.08440000  0.46610000  0.70240000  1.0 0.1121377984
H  H91  1  0.41560000  0.46610000  0.20240000  1.0 0.1121377984
H  H92  1  0.58440000  0.03390000  0.20240000  1.0 0.1121377984
H  H93  1  0.84090000  0.03300000  0.62350000  1.0 0.1172151871
H  H94  1  0.15910000  0.46700000  0.62350000  1.0 0.1172151871
H  H95  1  0.34090000  0.46700000  0.12350000  1.0 0.1172151871
H  H96  1  0.65910000  0.03300000  0.12350000  1.0 0.1172151871
H  H97  1  0.26810000  0.27420000  0.35830000  1.0 0.1020376262
H  H98  1  0.73190000  0.22580000  0.35830000  1.0 0.1020376262
H  H99  1  0.76810000  0.22580000  0.85830000  1.0 0.1020376262
H  H100  1  0.23190000  0.27420000  0.85830000  1.0 0.1020376262
H  H101  1  0.11970000  0.32510000  0.35470000  1.0 0.1121377984
H  H102  1  0.88030000  0.17490000  0.35470000  1.0 0.1121377984
H  H103  1  0.61970000  0.17490000  0.85470000  1.0 0.1121377984
H  H104  1  0.38030000  0.32510000  0.85470000  1.0 0.1121377984
H  H105  1  0.01050000  0.13100000  0.31820000  1.0 0.1121377984
H  H106  1  0.98950000  0.36900000  0.31820000  1.0 0.1121377984
H  H107  1  0.51050000  0.36900000  0.81820000  1.0 0.1121377984
H  H108  1  0.48950000  0.13100000  0.81820000  1.0 0.1121377984
H  H109  1  0.15690000  0.07870000  0.32290000  1.0 0.1121377984
H  H110  1  0.84310000  0.42130000  0.32290000  1.0 0.1121377984
H  H111  1  0.65690000  0.42130000  0.82290000  1.0 0.1121377984
H  H112  1  0.34310000  0.07870000  0.82290000  1.0 0.1121377984
H  H113  1  0.44010000  0.92990000  0.28350000  1.0 0.1020376262
H  H114  1  0.55990000  0.57010000  0.28350000  1.0 0.1020376262
H  H115  1  0.94010000  0.57010000  0.78350000  1.0 0.1020376262
H  H116  1  0.05990000  0.92990000  0.78350000  1.0 0.1020376262
H  H117  1  0.44900000  0.80390000  0.28080000  1.0 0.1256114774
H  H118  1  0.55100000  0.69610000  0.28080000  1.0 0.1256114774
H  H119  1  0.94900000  0.69610000  0.78080000  1.0 0.1256114774
H  H120  1  0.05100000  0.80390000  0.78080000  1.0 0.1256114774
H  H121  1  0.54140000  0.80750000  0.42850000  1.0 0.1256114774
H  H122  1  0.45860000  0.69250000  0.42850000  1.0 0.1256114774
H  H123  1  0.04140000  0.69250000  0.92850000  1.0 0.1256114774
H  H124  1  0.95860000  0.80750000  0.92850000  1.0 0.1256114774
H  H125  1  0.53270000  0.93380000  0.42620000  1.0 0.1020376262
H  H126  1  0.46730000  0.56620000  0.42620000  1.0 0.1020376262
H  H127  1  0.03270000  0.56620000  0.92620000  1.0 0.1020376262
H  H128  1  0.96730000  0.93380000  0.92620000  1.0 0.1020376262
C  C1  1  0.92380000  0.63380000  0.06600000  1.0 0.4926777862
C  C2  1  0.07620000  0.86620000  0.06600000  1.0 0.4926777862
C  C3  1  0.42380000  0.86620000  0.56600000  1.0 0.4926777862
C  C4  1  0.57620000  0.63380000  0.56600000  1.0 0.4926777862
C  C5  1  0.86580000  0.63250000  0.01720000  1.0 -0.070471137
C  C6  1  0.13420000  0.86750000  0.01720000  1.0 -0.070471137
C  C7  1  0.36580000  0.86750000  0.51720000  1.0 -0.070471137
C  C8  1  0.63420000  0.63250000  0.51720000  1.0 -0.070471137
C  C9  1  0.83090000  0.69720000  0.99770000  1.0 -0.1401583293
C  C10  1  0.16910000  0.80280000  0.99770000  1.0 -0.1401583293
C  C11  1  0.33090000  0.80280000  0.49770000  1.0 -0.1401583293
C  C12  1  0.66910000  0.69720000  0.49770000  1.0 -0.1401583293
C  C13  1  0.78110000  0.69780000  0.95140000  1.0 -0.1511790658
C  C14  1  0.21890000  0.80220000  0.95140000  1.0 -0.1511790658
C  C15  1  0.28110000  0.80220000  0.45140000  1.0 -0.1511790658
C  C16  1  0.71890000  0.69780000  0.45140000  1.0 -0.1511790658
C  C17  1  0.76240000  0.63330000  0.92450000  1.0 0.0719252212
C  C18  1  0.23760000  0.86670000  0.92450000  1.0 0.0719252212
C  C19  1  0.26240000  0.86670000  0.42450000  1.0 0.0719252212
C  C20  1  0.73760000  0.63330000  0.42450000  1.0 0.0719252212
C  C21  1  0.79550000  0.56770000  0.94550000  1.0 -0.1511790658
C  C22  1  0.20450000  0.93230000  0.94550000  1.0 -0.1511790658
C  C23  1  0.29550000  0.93230000  0.44550000  1.0 -0.1511790658
C  C24  1  0.70450000  0.56770000  0.44550000  1.0 -0.1511790658
C  C25  1  0.84710000  0.56730000  0.99130000  1.0 -0.1085067654
C  C26  1  0.15290000  0.93270000  0.99130000  1.0 -0.1085067654
C  C27  1  0.34710000  0.93270000  0.49130000  1.0 -0.1085067654
C  C28  1  0.65290000  0.56730000  0.49130000  1.0 -0.1085067654
C  C29  1  0.71090000  0.63420000  0.87390000  1.0 0.0719252212
C  C30  1  0.28910000  0.86580000  0.87390000  1.0 0.0719252212
C  C31  1  0.21090000  0.86580000  0.37390000  1.0 0.0719252212
C  C32  1  0.78910000  0.63420000  0.37390000  1.0 0.0719252212
C  C33  1  0.71760000  0.69270000  0.84050000  1.0 -0.1583756117
C  C34  1  0.28240000  0.80730000  0.84050000  1.0 -0.1583756117
C  C35  1  0.21760000  0.80730000  0.34050000  1.0 -0.1583756117
C  C36  1  0.78240000  0.69270000  0.34050000  1.0 -0.1583756117
C  C37  1  0.67120000  0.69420000  0.79300000  1.0 -0.133330377
C  C38  1  0.32880000  0.80580000  0.79300000  1.0 -0.133330377
C  C39  1  0.17120000  0.80580000  0.29300000  1.0 -0.133330377
C  C40  1  0.82880000  0.69420000  0.29300000  1.0 -0.133330377
C  C41  1  0.61740000  0.63520000  0.77760000  1.0 -0.061195624
C  C42  1  0.38260000  0.86480000  0.77760000  1.0 -0.061195624
C  C43  1  0.11740000  0.86480000  0.27760000  1.0 -0.061195624
C  C44  1  0.88260000  0.63520000  0.27760000  1.0 -0.061195624
C  C45  1  0.61650000  0.57570000  0.80850000  1.0 -0.1014508248
C  C46  1  0.38350000  0.92430000  0.80850000  1.0 -0.1014508248
C  C47  1  0.11650000  0.92430000  0.30850000  1.0 -0.1014508248
C  C48  1  0.88350000  0.57570000  0.30850000  1.0 -0.1014508248
C  C49  1  0.66200000  0.57510000  0.85600000  1.0 -0.1511790658
C  C50  1  0.33800000  0.92490000  0.85600000  1.0 -0.1511790658
C  C51  1  0.16200000  0.92490000  0.35600000  1.0 -0.1511790658
C  C52  1  0.83800000  0.57510000  0.35600000  1.0 -0.1511790658
C  C53  1  0.56970000  0.63710000  0.72600000  1.0 0.5008868657
C  C54  1  0.43030000  0.86290000  0.72600000  1.0 0.5008868657
C  C55  1  0.06970000  0.86290000  0.22600000  1.0 0.5008868657
C  C56  1  0.93030000  0.63710000  0.22600000  1.0 0.5008868657
C  C57  1  0.17870000  0.63460000  0.15180000  1.0 0.536999055
C  C58  1  0.82130000  0.86540000  0.15180000  1.0 0.536999055
C  C59  1  0.67870000  0.86540000  0.65180000  1.0 0.536999055
C  C60  1  0.32130000  0.63460000  0.65180000  1.0 0.536999055
C  C61  1  0.27160000  0.67020000  0.15720000  1.0 -0.0325467528
C  C62  1  0.72840000  0.82980000  0.15720000  1.0 -0.0325467528
C  C63  1  0.77160000  0.82980000  0.65720000  1.0 -0.0325467528
C  C64  1  0.22840000  0.67020000  0.65720000  1.0 -0.0325467528
C  C65  1  0.28370000  0.74460000  0.14900000  1.0 -0.1179111518
C  C66  1  0.71630000  0.75540000  0.14900000  1.0 -0.1179111518
C  C67  1  0.78370000  0.75540000  0.64900000  1.0 -0.1179111518
C  C68  1  0.21630000  0.74460000  0.64900000  1.0 -0.1179111518
C  C69  1  0.37310000  0.77510000  0.15160000  1.0 -0.1583756117
C  C70  1  0.62690000  0.72490000  0.15160000  1.0 -0.1583756117
C  C71  1  0.87310000  0.72490000  0.65160000  1.0 -0.1583756117
C  C72  1  0.12690000  0.77510000  0.65160000  1.0 -0.1583756117
C  C73  1  0.45190000  0.73370000  0.16310000  1.0 0.0719252212
C  C74  1  0.54810000  0.76630000  0.16310000  1.0 0.0719252212
C  C75  1  0.95190000  0.76630000  0.66310000  1.0 0.0719252212
C  C76  1  0.04810000  0.73370000  0.66310000  1.0 0.0719252212
C  C77  1  0.43810000  0.66010000  0.17300000  1.0 -0.1669681381
C  C78  1  0.56190000  0.83990000  0.17300000  1.0 -0.1669681381
C  C79  1  0.93810000  0.83990000  0.67300000  1.0 -0.1669681381
C  C80  1  0.06190000  0.66010000  0.67300000  1.0 -0.1669681381
C  C81  1  0.35010000  0.62850000  0.17020000  1.0 -0.1014508248
C  C82  1  0.64990000  0.87150000  0.17020000  1.0 -0.1014508248
C  C83  1  0.85010000  0.87150000  0.67020000  1.0 -0.1014508248
C  C84  1  0.14990000  0.62850000  0.67020000  1.0 -0.1014508248
C  C85  1  0.03900000  0.40500000  0.18700000  1.0 0.0792789206
C  C86  1  0.96100000  0.09500000  0.18700000  1.0 0.0792789206
C  C87  1  0.53900000  0.09500000  0.68700000  1.0 0.0792789206
C  C88  1  0.46100000  0.40500000  0.68700000  1.0 0.0792789206
C  C89  1  0.03400000  0.32900000  0.18910000  1.0 -0.1983040936
C  C90  1  0.96600000  0.17100000  0.18910000  1.0 -0.1983040936
C  C91  1  0.53400000  0.17100000  0.68910000  1.0 -0.1983040936
C  C92  1  0.46600000  0.32900000  0.68910000  1.0 -0.1983040936
C  C93  1  0.00310000  0.29100000  0.14530000  1.0 0.1020376262
C  C94  1  0.99690000  0.20900000  0.14530000  1.0 0.1020376262
C  C95  1  0.50310000  0.20900000  0.64530000  1.0 0.1020376262
C  C96  1  0.49690000  0.29100000  0.64530000  1.0 0.1020376262
C  C97  1  0.97890000  0.33120000  0.10160000  1.0 -0.1947965763
C  C98  1  0.02110000  0.16880000  0.10160000  1.0 -0.1947965763
C  C99  1  0.47890000  0.16880000  0.60160000  1.0 -0.1947965763
C  C100  1  0.52110000  0.33120000  0.60160000  1.0 -0.1947965763
C  C101  1  0.98510000  0.40720000  0.10310000  1.0 0.0909306229
C  C102  1  0.01490000  0.09280000  0.10310000  1.0 0.0909306229
C  C103  1  0.48510000  0.09280000  0.60310000  1.0 0.0909306229
C  C104  1  0.51490000  0.40720000  0.60310000  1.0 0.0909306229
C  C105  1  0.57620000  0.13380000  0.43400000  1.0 0.4926777862
C  C106  1  0.42380000  0.36620000  0.43400000  1.0 0.4926777862
C  C107  1  0.07620000  0.36620000  0.93400000  1.0 0.4926777862
C  C108  1  0.92380000  0.13380000  0.93400000  1.0 0.4926777862
C  C109  1  0.63420000  0.13250000  0.48280000  1.0 -0.070471137
C  C110  1  0.36580000  0.36750000  0.48280000  1.0 -0.070471137
C  C111  1  0.13420000  0.36750000  0.98280000  1.0 -0.070471137
C  C112  1  0.86580000  0.13250000  0.98280000  1.0 -0.070471137
C  C113  1  0.66910000  0.19720000  0.50230000  1.0 -0.1401583293
C  C114  1  0.33090000  0.30280000  0.50230000  1.0 -0.1401583293
C  C115  1  0.16910000  0.30280000  0.00230000  1.0 -0.1401583293
C  C116  1  0.83090000  0.19720000  0.00230000  1.0 -0.1401583293
C  C117  1  0.71890000  0.19780000  0.54860000  1.0 -0.1511790658
C  C118  1  0.28110000  0.30220000  0.54860000  1.0 -0.1511790658
C  C119  1  0.21890000  0.30220000  0.04860000  1.0 -0.1511790658
C  C120  1  0.78110000  0.19780000  0.04860000  1.0 -0.1511790658
C  C121  1  0.73760000  0.13330000  0.57550000  1.0 0.0719252212
C  C122  1  0.26240000  0.36670000  0.57550000  1.0 0.0719252212
C  C123  1  0.23760000  0.36670000  0.07550000  1.0 0.0719252212
C  C124  1  0.76240000  0.13330000  0.07550000  1.0 0.0719252212
C  C125  1  0.70450000  0.06770000  0.55450000  1.0 -0.1511790658
C  C126  1  0.29550000  0.43230000  0.55450000  1.0 -0.1511790658
C  C127  1  0.20450000  0.43230000  0.05450000  1.0 -0.1511790658
C  C128  1  0.79550000  0.06770000  0.05450000  1.0 -0.1511790658
C  C129  1  0.65290000  0.06730000  0.50870000  1.0 -0.1085067654
C  C130  1  0.34710000  0.43270000  0.50870000  1.0 -0.1085067654
C  C131  1  0.15290000  0.43270000  0.00870000  1.0 -0.1085067654
C  C132  1  0.84710000  0.06730000  0.00870000  1.0 -0.1085067654
C  C133  1  0.78910000  0.13420000  0.62610000  1.0 0.0719252212
C  C134  1  0.21090000  0.36580000  0.62610000  1.0 0.0719252212
C  C135  1  0.28910000  0.36580000  0.12610000  1.0 0.0719252212
C  C136  1  0.71090000  0.13420000  0.12610000  1.0 0.0719252212
C  C137  1  0.78240000  0.19270000  0.65950000  1.0 -0.1583756117
C  C138  1  0.21760000  0.30730000  0.65950000  1.0 -0.1583756117
C  C139  1  0.28240000  0.30730000  0.15950000  1.0 -0.1583756117
C  C140  1  0.71760000  0.19270000  0.15950000  1.0 -0.1583756117
C  C141  1  0.82880000  0.19420000  0.70700000  1.0 -0.133330377
C  C142  1  0.17120000  0.30580000  0.70700000  1.0 -0.133330377
C  C143  1  0.32880000  0.30580000  0.20700000  1.0 -0.133330377
C  C144  1  0.67120000  0.19420000  0.20700000  1.0 -0.133330377
C  C145  1  0.88260000  0.13520000  0.72240000  1.0 -0.061195624
C  C146  1  0.11740000  0.36480000  0.72240000  1.0 -0.061195624
C  C147  1  0.38260000  0.36480000  0.22240000  1.0 -0.061195624
C  C148  1  0.61740000  0.13520000  0.22240000  1.0 -0.061195624
C  C149  1  0.88350000  0.07570000  0.69150000  1.0 -0.1014508248
C  C150  1  0.11650000  0.42430000  0.69150000  1.0 -0.1014508248
C  C151  1  0.38350000  0.42430000  0.19150000  1.0 -0.1014508248
C  C152  1  0.61650000  0.07570000  0.19150000  1.0 -0.1014508248
C  C153  1  0.83800000  0.07510000  0.64400000  1.0 -0.1511790658
C  C154  1  0.16200000  0.42490000  0.64400000  1.0 -0.1511790658
C  C155  1  0.33800000  0.42490000  0.14400000  1.0 -0.1511790658
C  C156  1  0.66200000  0.07510000  0.14400000  1.0 -0.1511790658
C  C157  1  0.93030000  0.13710000  0.77400000  1.0 0.5008868657
C  C158  1  0.06970000  0.36290000  0.77400000  1.0 0.5008868657
C  C159  1  0.43030000  0.36290000  0.27400000  1.0 0.5008868657
C  C160  1  0.56970000  0.13710000  0.27400000  1.0 0.5008868657
C  C161  1  0.32130000  0.13460000  0.34820000  1.0 0.536999055
C  C162  1  0.67870000  0.36540000  0.34820000  1.0 0.536999055
C  C163  1  0.82130000  0.36540000  0.84820000  1.0 0.536999055
C  C164  1  0.17870000  0.13460000  0.84820000  1.0 0.536999055
C  C165  1  0.22840000  0.17020000  0.34280000  1.0 -0.0325467528
C  C166  1  0.77160000  0.32980000  0.34280000  1.0 -0.0325467528
C  C167  1  0.72840000  0.32980000  0.84280000  1.0 -0.0325467528
C  C168  1  0.27160000  0.17020000  0.84280000  1.0 -0.0325467528
C  C169  1  0.21630000  0.24460000  0.35100000  1.0 -0.1179111518
C  C170  1  0.78370000  0.25540000  0.35100000  1.0 -0.1179111518
C  C171  1  0.71630000  0.25540000  0.85100000  1.0 -0.1179111518
C  C172  1  0.28370000  0.24460000  0.85100000  1.0 -0.1179111518
C  C173  1  0.12690000  0.27510000  0.34840000  1.0 -0.1583756117
C  C174  1  0.87310000  0.22490000  0.34840000  1.0 -0.1583756117
C  C175  1  0.62690000  0.22490000  0.84840000  1.0 -0.1583756117
C  C176  1  0.37310000  0.27510000  0.84840000  1.0 -0.1583756117
C  C177  1  0.04810000  0.23370000  0.33690000  1.0 0.0719252212
C  C178  1  0.95190000  0.26630000  0.33690000  1.0 0.0719252212
C  C179  1  0.54810000  0.26630000  0.83690000  1.0 0.0719252212
C  C180  1  0.45190000  0.23370000  0.83690000  1.0 0.0719252212
C  C181  1  0.06190000  0.16010000  0.32700000  1.0 -0.1669681381
C  C182  1  0.93810000  0.33990000  0.32700000  1.0 -0.1669681381
C  C183  1  0.56190000  0.33990000  0.82700000  1.0 -0.1669681381
C  C184  1  0.43810000  0.16010000  0.82700000  1.0 -0.1669681381
C  C185  1  0.14990000  0.12850000  0.32980000  1.0 -0.1014508248
C  C186  1  0.85010000  0.37150000  0.32980000  1.0 -0.1014508248
C  C187  1  0.64990000  0.37150000  0.82980000  1.0 -0.1014508248
C  C188  1  0.35010000  0.12850000  0.82980000  1.0 -0.1014508248
C  C189  1  0.46100000  0.90500000  0.31300000  1.0 0.0792789206
C  C190  1  0.53900000  0.59500000  0.31300000  1.0 0.0792789206
C  C191  1  0.96100000  0.59500000  0.81300000  1.0 0.0792789206
C  C192  1  0.03900000  0.90500000  0.81300000  1.0 0.0792789206
C  C193  1  0.46600000  0.82900000  0.31090000  1.0 -0.1983040936
C  C194  1  0.53400000  0.67100000  0.31090000  1.0 -0.1983040936
C  C195  1  0.96600000  0.67100000  0.81090000  1.0 -0.1983040936
C  C196  1  0.03400000  0.82900000  0.81090000  1.0 -0.1983040936
C  C197  1  0.49690000  0.79100000  0.35470000  1.0 0.1020376262
C  C198  1  0.50310000  0.70900000  0.35470000  1.0 0.1020376262
C  C199  1  0.99690000  0.70900000  0.85470000  1.0 0.1020376262
C  C200  1  0.00310000  0.79100000  0.85470000  1.0 0.1020376262
C  C201  1  0.52110000  0.83120000  0.39840000  1.0 -0.1947965763
C  C202  1  0.47890000  0.66880000  0.39840000  1.0 -0.1947965763
C  C203  1  0.02110000  0.66880000  0.89840000  1.0 -0.1947965763
C  C204  1  0.97890000  0.83120000  0.89840000  1.0 -0.1947965763
C  C205  1  0.51490000  0.90720000  0.39690000  1.0 0.0909306229
C  C206  1  0.48510000  0.59280000  0.39690000  1.0 0.0909306229
C  C207  1  0.01490000  0.59280000  0.89690000  1.0 0.0909306229
C  C208  1  0.98510000  0.90720000  0.89690000  1.0 0.0909306229
N  N1  1  0.01560000  0.44400000  0.14509000  1.0 -0.2523605294
N  N2  1  0.98440000  0.05600000  0.14509000  1.0 -0.2523605294
N  N3  1  0.51560000  0.05600000  0.64509000  1.0 -0.2523605294
N  N4  1  0.48440000  0.44400000  0.64509000  1.0 -0.2523605294
N  N5  1  0.48440000  0.94400000  0.35491000  1.0 -0.2523605294
N  N6  1  0.51560000  0.55600000  0.35491000  1.0 -0.2523605294
N  N7  1  0.98440000  0.55600000  0.85491000  1.0 -0.2523605294
N  N8  1  0.01560000  0.94400000  0.85491000  1.0 -0.2523605294
O  O1  1  0.92300000  0.69060000  0.09120000  1.0 -0.061195624
O  O2  1  0.07700000  0.80940000  0.09120000  1.0 -0.061195624
O  O3  1  0.42300000  0.80940000  0.59120000  1.0 -0.061195624
O  O4  1  0.57700000  0.69060000  0.59120000  1.0 -0.061195624
O  O5  1  0.96070000  0.57394000  0.08071000  1.0 -0.5459659688
O  O6  1  0.03930000  0.92606000  0.08071000  1.0 -0.5459659688
O  O7  1  0.46070000  0.92606000  0.58071000  1.0 -0.5459659688
O  O8  1  0.53930000  0.57394000  0.58071000  1.0 -0.5459659688
O  O9  1  0.57880000  0.69360000  0.69920000  1.0 -0.1401583293
O  O10  1  0.42120000  0.80640000  0.69920000  1.0 -0.1401583293
O  O11  1  0.07880000  0.80640000  0.19920000  1.0 -0.1401583293
O  O12  1  0.92120000  0.69360000  0.19920000  1.0 -0.1401583293
O  O13  1  0.53250000  0.57742000  0.71066000  1.0 -0.5338006087
O  O14  1  0.46750000  0.92258000  0.71066000  1.0 -0.5338006087
O  O15  1  0.03250000  0.92258000  0.21066000  1.0 -0.5338006087
O  O16  1  0.96750000  0.57742000  0.21066000  1.0 -0.5338006087
O  O17  1  0.10670000  0.67069000  0.14254000  1.0 -0.5944538928
O  O18  1  0.89330000  0.82931000  0.14254000  1.0 -0.5944538928
O  O19  1  0.60670000  0.82931000  0.64254000  1.0 -0.5944538928
O  O20  1  0.39330000  0.67069000  0.64254000  1.0 -0.5944538928
O  O21  1  0.17140000  0.56586000  0.15501000  1.0 -0.5082972265
O  O22  1  0.82860000  0.93414000  0.15501000  1.0 -0.5082972265
O  O23  1  0.67140000  0.93414000  0.65501000  1.0 -0.5082972265
O  O24  1  0.32860000  0.56586000  0.65501000  1.0 -0.5082972265
O  O25  1  0.95300000  0.70200000  0.07870000  1.0 -0.133330377
O  O26  1  0.04700000  0.79800000  0.07870000  1.0 -0.133330377
O  O27  1  0.45300000  0.79800000  0.57870000  1.0 -0.133330377
O  O28  1  0.54700000  0.70200000  0.57870000  1.0 -0.133330377
O  O29  1  0.53820000  0.69900000  0.71070000  1.0 -0.1179111518
O  O30  1  0.46180000  0.80100000  0.71070000  1.0 -0.1179111518
O  O31  1  0.03820000  0.80100000  0.21070000  1.0 -0.1179111518
O  O32  1  0.96180000  0.69900000  0.21070000  1.0 -0.1179111518
O  O33  1  0.57700000  0.19060000  0.40880000  1.0 -0.061195624
O  O34  1  0.42300000  0.30940000  0.40880000  1.0 -0.061195624
O  O35  1  0.07700000  0.30940000  0.90880000  1.0 -0.061195624
O  O36  1  0.92300000  0.19060000  0.90880000  1.0 -0.061195624
O  O37  1  0.53930000  0.07394000  0.41929000  1.0 -0.5459659688
O  O38  1  0.46070000  0.42606000  0.41929000  1.0 -0.5459659688
O  O39  1  0.03930000  0.42606000  0.91929000  1.0 -0.5459659688
O  O40  1  0.96070000  0.07394000  0.91929000  1.0 -0.5459659688
O  O41  1  0.92120000  0.19360000  0.80080000  1.0 -0.1401583293
O  O42  1  0.07880000  0.30640000  0.80080000  1.0 -0.1401583293
O  O43  1  0.42120000  0.30640000  0.30080000  1.0 -0.1401583293
O  O44  1  0.57880000  0.19360000  0.30080000  1.0 -0.1401583293
O  O45  1  0.96750000  0.07742000  0.78934000  1.0 -0.5338006087
O  O46  1  0.03250000  0.42258000  0.78934000  1.0 -0.5338006087
O  O47  1  0.46750000  0.42258000  0.28934000  1.0 -0.5338006087
O  O48  1  0.53250000  0.07742000  0.28934000  1.0 -0.5338006087
O  O49  1  0.39330000  0.17069000  0.35746000  1.0 -0.5944538928
O  O50  1  0.60670000  0.32931000  0.35746000  1.0 -0.5944538928
O  O51  1  0.89330000  0.32931000  0.85746000  1.0 -0.5944538928
O  O52  1  0.10670000  0.17069000  0.85746000  1.0 -0.5944538928
O  O53  1  0.32860000  0.06586000  0.34499000  1.0 -0.5082972265
O  O54  1  0.67140000  0.43414000  0.34499000  1.0 -0.5082972265
O  O55  1  0.82860000  0.43414000  0.84499000  1.0 -0.5082972265
O  O56  1  0.17140000  0.06586000  0.84499000  1.0 -0.5082972265
O  O57  1  0.54700000  0.20200000  0.42130000  1.0 -0.133330377
O  O58  1  0.45300000  0.29800000  0.42130000  1.0 -0.133330377
O  O59  1  0.04700000  0.29800000  0.92130000  1.0 -0.133330377
O  O60  1  0.95300000  0.20200000  0.92130000  1.0 -0.133330377
O  O61  1  0.96180000  0.19900000  0.78930000  1.0 -0.1179111518
O  O62  1  0.03820000  0.30100000  0.78930000  1.0 -0.1179111518
O  O63  1  0.46180000  0.30100000  0.28930000  1.0 -0.1179111518
O  O64  1  0.53820000  0.19900000  0.28930000  1.0 -0.1179111518
