# DDEC6 charges by PACMAN v1.1 (https://github.com/mtap-research/PACMAN-charge/)
data_WUTGEA_ASR_pacman
_symmetry_space_group_name_H-M   'P 1'
_cell_length_a   33.44950000
_cell_length_b   33.44950000
_cell_length_c   35.14900000
_cell_angle_alpha   60.26790000
_cell_angle_beta   119.73200000
_cell_angle_gamma   92.90840000
_symmetry_Int_Tables_number   1
_chemical_formula_structural   U2H27(C17O4)3
_chemical_formula_sum   'U16 H216 C408 O96'
_cell_volume   28643.09669396
_cell_formula_units_Z   8
loop_
 _symmetry_equiv_pos_site_id
 _symmetry_equiv_pos_as_xyz
  1  'x, y, z'
loop_
 _atom_site_type_symbol
 _atom_site_label
 _atom_site_symmetry_multiplicity
 _atom_site_fract_x
 _atom_site_fract_y
 _atom_site_fract_z
 _atom_site_occupancy
 _atom_site_charge
U  U1  1  0.50537000  0.53417000  0.07950000  1.0 2.0592016315
U  U2  1  0.85461000  0.19947000  0.06669000  1.0 1.9862731631
U  U3  1  0.87556000  0.88246000  0.40706000  1.0 2.0484105285
U  U4  1  0.53674000  0.19742000  0.41890000  1.0 2.0182044442
U  U5  1  0.53417000  0.50537000  0.42050000  1.0 2.0592016315
U  U6  1  0.19947000  0.85461000  0.43331000  1.0 1.9792166089
U  U7  1  0.88246000  0.87556000  0.09294000  1.0 2.0484105285
U  U8  1  0.19742000  0.53674000  0.08110000  1.0 2.0182044442
U  U9  1  0.49463000  0.46583000  0.92050000  1.0 2.0592016315
U  U10  1  0.14539000  0.80053000  0.93331000  1.0 1.9792166089
U  U11  1  0.12444000  0.11754000  0.59294000  1.0 2.0592016315
U  U12  1  0.46326000  0.80258000  0.58110000  1.0 2.0182044442
U  U13  1  0.46583000  0.49463000  0.57950000  1.0 2.0592016315
U  U14  1  0.80053000  0.14539000  0.56669000  1.0 1.9792166089
U  U15  1  0.11754000  0.12444000  0.90706000  1.0 2.0592016315
U  U16  1  0.80258000  0.46326000  0.91890000  1.0 2.0182044442
H  H1  1  0.62770000  0.38770000  0.20400000  1.0 0.1279119552
H  H2  1  0.66610000  0.30870000  0.24760000  1.0 0.1108487125
H  H3  1  0.57840000  0.31260000  0.11390000  1.0 0.1194019795
H  H4  1  0.53990000  0.39130000  0.07490000  1.0 0.1194019795
H  H5  1  0.67330000  0.18670000  0.40140000  1.0 0.1194019795
H  H6  1  0.70810000  0.19350000  0.35410000  1.0 0.1108487125
H  H7  1  0.57750000  0.24170000  0.22150000  1.0 0.1108487125
H  H8  1  0.54430000  0.23770000  0.26520000  1.0 0.1194019795
H  H9  1  0.83870000  0.18650000  0.19930000  1.0 0.1194019795
H  H10  1  0.80000000  0.18680000  0.24000000  1.0 0.1108487125
H  H11  1  0.66910000  0.22890000  0.10780000  1.0 0.1108487125
H  H12  1  0.70850000  0.22530000  0.06980000  1.0 0.1194019795
H  H13  1  0.84090000  0.03190000  0.39810000  1.0 0.1194019795
H  H14  1  0.79660000  0.11140000  0.35040000  1.0 0.1028960227
H  H15  1  0.71150000  0.11410000  0.21860000  1.0 0.1108487125
H  H16  1  0.75630000  0.03350000  0.26240000  1.0 0.1108487125
H  H17  1  0.70610000  0.14570000  0.31380000  1.0 0.1108487125
H  H18  1  0.66520000  0.27400000  0.14870000  1.0 0.1028960227
H  H19  1  0.00370000  0.86010000  0.57510000  1.0 0.1108487125
H  H20  1  0.08170000  0.81930000  0.65680000  1.0 0.1108487125
H  H21  1  0.10330000  0.72530000  0.62330000  1.0 0.1108487125
H  H22  1  0.02540000  0.76020000  0.54940000  1.0 0.1108487125
H  H23  1  0.23450000  0.72250000  0.60970000  1.0 0.1279119552
H  H24  1  0.21630000  0.69110000  0.67460000  1.0 0.1194019795
H  H25  1  0.16760000  0.81940000  0.63260000  1.0 0.1108487125
H  H26  1  0.18210000  0.85030000  0.56570000  1.0 0.1279119552
H  H27  1  0.36310000  0.56610000  0.91300000  1.0 0.1194019795
H  H28  1  0.29040000  0.61320000  0.83470000  1.0 0.1108487125
H  H29  1  0.26880000  0.68580000  0.88870000  1.0 0.1108487125
H  H30  1  0.34220000  0.64720000  0.96090000  1.0 0.1194019795
H  H31  1  0.15440000  0.68400000  0.91160000  1.0 0.1279119552
H  H32  1  0.16250000  0.72450000  0.84090000  1.0 0.1108487125
H  H33  1  0.20060000  0.60100000  0.85880000  1.0 0.1108487125
H  H34  1  0.19430000  0.55990000  0.93450000  1.0 0.1194019795
H  H35  1  0.11570000  0.73150000  0.74340000  1.0 0.1108487125
H  H36  1  0.25830000  0.69470000  0.76060000  1.0 0.1028960227
H  H37  1  0.73520000  0.84860000  0.10010000  1.0 0.1108487125
H  H38  1  0.69510000  0.80090000  0.13610000  1.0 0.1108487125
H  H39  1  0.82110000  0.72490000  0.27260000  1.0 0.1108487125
H  H40  1  0.85920000  0.75560000  0.23120000  1.0 0.1194019795
H  H41  1  0.64450000  0.55190000  0.21030000  1.0 0.1194019795
H  H42  1  0.68960000  0.58900000  0.25060000  1.0 0.1194019795
H  H43  1  0.58520000  0.70920000  0.14020000  1.0 0.1194019795
H  H44  1  0.53630000  0.66750000  0.11000000  1.0 0.1108487125
H  H45  1  0.01420000  0.19280000  0.09600000  1.0 0.1108487125
H  H46  1  0.09030000  0.20910000  0.13030000  1.0 0.1108487125
H  H47  1  0.09750000  0.15810000  0.26750000  1.0 0.1108487125
H  H48  1  0.01400000  0.16500000  0.22160000  1.0 0.1194019795
H  H49  1  0.23530000  0.37190000  0.23080000  1.0 0.1194019795
H  H50  1  0.23850000  0.29330000  0.27070000  1.0 0.1108487125
H  H51  1  0.18340000  0.30340000  0.13340000  1.0 0.1108487125
H  H52  1  0.18190000  0.38630000  0.09160000  1.0 0.1194019795
H  H53  1  0.13280000  0.25740000  0.17510000  1.0 0.1108487125
H  H54  1  0.68910000  0.70950000  0.17380000  1.0 0.1108487125
H  H55  1  0.38770000  0.62770000  0.29600000  1.0 0.1279119552
H  H56  1  0.30870000  0.66610000  0.25240000  1.0 0.1108487125
H  H57  1  0.31260000  0.57840000  0.38610000  1.0 0.1194019795
H  H58  1  0.39130000  0.53990000  0.42510000  1.0 0.1194019795
H  H59  1  0.18670000  0.67330000  0.09860000  1.0 0.1194019795
H  H60  1  0.19350000  0.70810000  0.14590000  1.0 0.1108487125
H  H61  1  0.24170000  0.57750000  0.27850000  1.0 0.1108487125
H  H62  1  0.23770000  0.54430000  0.23480000  1.0 0.1194019795
H  H63  1  0.18650000  0.83870000  0.30070000  1.0 0.1194019795
H  H64  1  0.18680000  0.80000000  0.26000000  1.0 0.1108487125
H  H65  1  0.22890000  0.66910000  0.39220000  1.0 0.1108487125
H  H66  1  0.22530000  0.70850000  0.43020000  1.0 0.1194019795
H  H67  1  0.03190000  0.84090000  0.10190000  1.0 0.1194019795
H  H68  1  0.11140000  0.79660000  0.14960000  1.0 0.1028960227
H  H69  1  0.11410000  0.71150000  0.28140000  1.0 0.1108487125
H  H70  1  0.03350000  0.75630000  0.23760000  1.0 0.1108487125
H  H71  1  0.14570000  0.70610000  0.18620000  1.0 0.1108487125
H  H72  1  0.27400000  0.66520000  0.35130000  1.0 0.1028960227
H  H73  1  0.86010000  0.00370000  0.92490000  1.0 0.1108487125
H  H74  1  0.81930000  0.08170000  0.84320000  1.0 0.1108487125
H  H75  1  0.72530000  0.10330000  0.87670000  1.0 0.1108487125
H  H76  1  0.76020000  0.02540000  0.95060000  1.0 0.1108487125
H  H77  1  0.72250000  0.23450000  0.89030000  1.0 0.1279119552
H  H78  1  0.69110000  0.21630000  0.82540000  1.0 0.1194019795
H  H79  1  0.81940000  0.16760000  0.86740000  1.0 0.1108487125
H  H80  1  0.85030000  0.18210000  0.93430000  1.0 0.1279119552
H  H81  1  0.56610000  0.36310000  0.58700000  1.0 0.1194019795
H  H82  1  0.61320000  0.29040000  0.66530000  1.0 0.1108487125
H  H83  1  0.68580000  0.26880000  0.61130000  1.0 0.1108487125
H  H84  1  0.64720000  0.34220000  0.53910000  1.0 0.1194019795
H  H85  1  0.68400000  0.15440000  0.58840000  1.0 0.1279119552
H  H86  1  0.72450000  0.16250000  0.65910000  1.0 0.1108487125
H  H87  1  0.60100000  0.20060000  0.64120000  1.0 0.1108487125
H  H88  1  0.55990000  0.19430000  0.56550000  1.0 0.1194019795
H  H89  1  0.73150000  0.11570000  0.75660000  1.0 0.1108487125
H  H90  1  0.69470000  0.25830000  0.73940000  1.0 0.1028960227
H  H91  1  0.84860000  0.73520000  0.39990000  1.0 0.1108487125
H  H92  1  0.80090000  0.69510000  0.36390000  1.0 0.1108487125
H  H93  1  0.72490000  0.82110000  0.22740000  1.0 0.1108487125
H  H94  1  0.75560000  0.85920000  0.26880000  1.0 0.1194019795
H  H95  1  0.55190000  0.64450000  0.28970000  1.0 0.1194019795
H  H96  1  0.58900000  0.68960000  0.24940000  1.0 0.1194019795
H  H97  1  0.70920000  0.58520000  0.35980000  1.0 0.1194019795
H  H98  1  0.66750000  0.53630000  0.39000000  1.0 0.1108487125
H  H99  1  0.19280000  0.01420000  0.40400000  1.0 0.1108487125
H  H100  1  0.20910000  0.09030000  0.36970000  1.0 0.1108487125
H  H101  1  0.15810000  0.09750000  0.23250000  1.0 0.1108487125
H  H102  1  0.16500000  0.01400000  0.27840000  1.0 0.1194019795
H  H103  1  0.37190000  0.23530000  0.26920000  1.0 0.1194019795
H  H104  1  0.29330000  0.23850000  0.22930000  1.0 0.1108487125
H  H105  1  0.30340000  0.18340000  0.36660000  1.0 0.1108487125
H  H106  1  0.38630000  0.18190000  0.40840000  1.0 0.1194019795
H  H107  1  0.25740000  0.13280000  0.32490000  1.0 0.1108487125
H  H108  1  0.70950000  0.68910000  0.32620000  1.0 0.1108487125
H  H109  1  0.37230000  0.61230000  0.79600000  1.0 0.1279119552
H  H110  1  0.33390000  0.69130000  0.75240000  1.0 0.1108487125
H  H111  1  0.42160000  0.68740000  0.88610000  1.0 0.1194019795
H  H112  1  0.46010000  0.60870000  0.92510000  1.0 0.1194019795
H  H113  1  0.32670000  0.81330000  0.59860000  1.0 0.1194019795
H  H114  1  0.29190000  0.80650000  0.64590000  1.0 0.1108487125
H  H115  1  0.42250000  0.75830000  0.77850000  1.0 0.1108487125
H  H116  1  0.45570000  0.76230000  0.73480000  1.0 0.1194019795
H  H117  1  0.16130000  0.81350000  0.80070000  1.0 0.1194019795
H  H118  1  0.20000000  0.81320000  0.76000000  1.0 0.1108487125
H  H119  1  0.33090000  0.77110000  0.89220000  1.0 0.1108487125
H  H120  1  0.29150000  0.77470000  0.93020000  1.0 0.1194019795
H  H121  1  0.15910000  0.96810000  0.60190000  1.0 0.1194019795
H  H122  1  0.20340000  0.88860000  0.64960000  1.0 0.1028960227
H  H123  1  0.28850000  0.88590000  0.78140000  1.0 0.1108487125
H  H124  1  0.24370000  0.96650000  0.73760000  1.0 0.1194019795
H  H125  1  0.29390000  0.85430000  0.68620000  1.0 0.1108487125
H  H126  1  0.33480000  0.72600000  0.85130000  1.0 0.1028960227
H  H127  1  0.99630000  0.13990000  0.42490000  1.0 0.1108487125
H  H128  1  0.91830000  0.18070000  0.34320000  1.0 0.1108487125
H  H129  1  0.89670000  0.27470000  0.37670000  1.0 0.1108487125
H  H130  1  0.97460000  0.23980000  0.45060000  1.0 0.1108487125
H  H131  1  0.76550000  0.27750000  0.39030000  1.0 0.1279119552
H  H132  1  0.78370000  0.30890000  0.32540000  1.0 0.1194019795
H  H133  1  0.83240000  0.18060000  0.36740000  1.0 0.1108487125
H  H134  1  0.81790000  0.14970000  0.43430000  1.0 0.1279119552
H  H135  1  0.63690000  0.43390000  0.08700000  1.0 0.1194019795
H  H136  1  0.70960000  0.38680000  0.16530000  1.0 0.1108487125
H  H137  1  0.73120000  0.31420000  0.11130000  1.0 0.1108487125
H  H138  1  0.65780000  0.35280000  0.03910000  1.0 0.1194019795
H  H139  1  0.84560000  0.31600000  0.08840000  1.0 0.1279119552
H  H140  1  0.83750000  0.27550000  0.15910000  1.0 0.1108487125
H  H141  1  0.79940000  0.39900000  0.14120000  1.0 0.1108487125
H  H142  1  0.80570000  0.44010000  0.06550000  1.0 0.1194019795
H  H143  1  0.88430000  0.26850000  0.25660000  1.0 0.1108487125
H  H144  1  0.74170000  0.30530000  0.23940000  1.0 0.1028960227
H  H145  1  0.26480000  0.15140000  0.89990000  1.0 0.1108487125
H  H146  1  0.30490000  0.19910000  0.86390000  1.0 0.1108487125
H  H147  1  0.17890000  0.27510000  0.72740000  1.0 0.1194019795
H  H148  1  0.14080000  0.24440000  0.76880000  1.0 0.1194019795
H  H149  1  0.35550000  0.44810000  0.78970000  1.0 0.1194019795
H  H150  1  0.31040000  0.41100000  0.74940000  1.0 0.1194019795
H  H151  1  0.41480000  0.29080000  0.85980000  1.0 0.1194019795
H  H152  1  0.46370000  0.33250000  0.89000000  1.0 0.1108487125
H  H153  1  0.98580000  0.80720000  0.90400000  1.0 0.1108487125
H  H154  1  0.90970000  0.79090000  0.86970000  1.0 0.1108487125
H  H155  1  0.90250000  0.84190000  0.73250000  1.0 0.1108487125
H  H156  1  0.98600000  0.83500000  0.77840000  1.0 0.1194019795
H  H157  1  0.76470000  0.62810000  0.76920000  1.0 0.1194019795
H  H158  1  0.76150000  0.70670000  0.72930000  1.0 0.1108487125
H  H159  1  0.81660000  0.69660000  0.86660000  1.0 0.1108487125
H  H160  1  0.81810000  0.61370000  0.90840000  1.0 0.1194019795
H  H161  1  0.86720000  0.74260000  0.82490000  1.0 0.1108487125
H  H162  1  0.31090000  0.29050000  0.82620000  1.0 0.1108487125
H  H163  1  0.61230000  0.37230000  0.70400000  1.0 0.1279119552
H  H164  1  0.69130000  0.33390000  0.74760000  1.0 0.1108487125
H  H165  1  0.68740000  0.42160000  0.61390000  1.0 0.1194019795
H  H166  1  0.60870000  0.46010000  0.57490000  1.0 0.1194019795
H  H167  1  0.81330000  0.32670000  0.90140000  1.0 0.1194019795
H  H168  1  0.80650000  0.29190000  0.85410000  1.0 0.1108487125
H  H169  1  0.75830000  0.42250000  0.72150000  1.0 0.1108487125
H  H170  1  0.76230000  0.45570000  0.76520000  1.0 0.1194019795
H  H171  1  0.81350000  0.16130000  0.69930000  1.0 0.1194019795
H  H172  1  0.81320000  0.20000000  0.74000000  1.0 0.1108487125
H  H173  1  0.77110000  0.33090000  0.60780000  1.0 0.1108487125
H  H174  1  0.77470000  0.29150000  0.56980000  1.0 0.1194019795
H  H175  1  0.96810000  0.15910000  0.89810000  1.0 0.1194019795
H  H176  1  0.88860000  0.20340000  0.85040000  1.0 0.1028960227
H  H177  1  0.88590000  0.28850000  0.71860000  1.0 0.1108487125
H  H178  1  0.96650000  0.24370000  0.76240000  1.0 0.1194019795
H  H179  1  0.85430000  0.29390000  0.81380000  1.0 0.1108487125
H  H180  1  0.72600000  0.33480000  0.64870000  1.0 0.1028960227
H  H181  1  0.13990000  0.99630000  0.07510000  1.0 0.1108487125
H  H182  1  0.18070000  0.91830000  0.15680000  1.0 0.1108487125
H  H183  1  0.27470000  0.89670000  0.12330000  1.0 0.1108487125
H  H184  1  0.23980000  0.97460000  0.04940000  1.0 0.1108487125
H  H185  1  0.27750000  0.76550000  0.10970000  1.0 0.1279119552
H  H186  1  0.30890000  0.78370000  0.17460000  1.0 0.1194019795
H  H187  1  0.18060000  0.83240000  0.13260000  1.0 0.1108487125
H  H188  1  0.14970000  0.81790000  0.06570000  1.0 0.1279119552
H  H189  1  0.43390000  0.63690000  0.41300000  1.0 0.1194019795
H  H190  1  0.38680000  0.70960000  0.33470000  1.0 0.1108487125
H  H191  1  0.31420000  0.73120000  0.38870000  1.0 0.1108487125
H  H192  1  0.35280000  0.65780000  0.46090000  1.0 0.1194019795
H  H193  1  0.31600000  0.84560000  0.41160000  1.0 0.1279119552
H  H194  1  0.27550000  0.83750000  0.34090000  1.0 0.1108487125
H  H195  1  0.39900000  0.79940000  0.35880000  1.0 0.1108487125
H  H196  1  0.44010000  0.80570000  0.43450000  1.0 0.1194019795
H  H197  1  0.26850000  0.88430000  0.24340000  1.0 0.1108487125
H  H198  1  0.30530000  0.74170000  0.26060000  1.0 0.1028960227
H  H199  1  0.15140000  0.26480000  0.60010000  1.0 0.1108487125
H  H200  1  0.19910000  0.30490000  0.63610000  1.0 0.1108487125
H  H201  1  0.27510000  0.17890000  0.77260000  1.0 0.1194019795
H  H202  1  0.24440000  0.14080000  0.73120000  1.0 0.1194019795
H  H203  1  0.44810000  0.35550000  0.71030000  1.0 0.1194019795
H  H204  1  0.41100000  0.31040000  0.75060000  1.0 0.1194019795
H  H205  1  0.29080000  0.41480000  0.64020000  1.0 0.1194019795
H  H206  1  0.33250000  0.46370000  0.61000000  1.0 0.1108487125
H  H207  1  0.80720000  0.98580000  0.59600000  1.0 0.1108487125
H  H208  1  0.79090000  0.90970000  0.63030000  1.0 0.1108487125
H  H209  1  0.84190000  0.90250000  0.76750000  1.0 0.1108487125
H  H210  1  0.83500000  0.98600000  0.72160000  1.0 0.1194019795
H  H211  1  0.62810000  0.76470000  0.73080000  1.0 0.1194019795
H  H212  1  0.70670000  0.76150000  0.77070000  1.0 0.1108487125
H  H213  1  0.69660000  0.81660000  0.63340000  1.0 0.1108487125
H  H214  1  0.61370000  0.81810000  0.59160000  1.0 0.1194019795
H  H215  1  0.74260000  0.86720000  0.67510000  1.0 0.1108487125
H  H216  1  0.29050000  0.31090000  0.67380000  1.0 0.1108487125
C  C1  1  0.55200000  0.44400000  0.11640000  1.0 0.5228658675
C  C2  1  0.57900000  0.39500000  0.14040000  1.0 -0.0088894191
C  C3  1  0.61590000  0.37190000  0.18600000  1.0 -0.0986567496
C  C4  1  0.64060000  0.32520000  0.21200000  1.0 -0.1429462646
C  C5  1  0.62640000  0.30240000  0.18290000  1.0 0.0696150118
C  C6  1  0.58900000  0.32700000  0.13350000  1.0 -0.1602854197
C  C7  1  0.56530000  0.37370000  0.11060000  1.0 -0.0986567496
C  C8  1  0.58380000  0.20440000  0.36940000  1.0 0.5228658675
C  C9  1  0.60490000  0.21110000  0.33690000  1.0 0.0197774296
C  C10  1  0.65430000  0.19750000  0.36540000  1.0 -0.1162352117
C  C11  1  0.67440000  0.20120000  0.33690000  1.0 -0.1602854197
C  C12  1  0.64730000  0.21510000  0.28640000  1.0 0.0609318732
C  C13  1  0.59670000  0.23030000  0.25750000  1.0 -0.1429462646
C  C14  1  0.57800000  0.22780000  0.28350000  1.0 -0.0986567496
C  C15  1  0.80780000  0.20380000  0.11250000  1.0 0.5030032571
C  C16  1  0.77400000  0.20620000  0.12910000  1.0 -0.0088894191
C  C17  1  0.80490000  0.19410000  0.18170000  1.0 -0.1264435415
C  C18  1  0.78110000  0.19450000  0.20510000  1.0 -0.1518801114
C  C19  1  0.73380000  0.20480000  0.18200000  1.0 0.0696150118
C  C20  1  0.70290000  0.21930000  0.12670000  1.0 -0.1602854197
C  C21  1  0.72690000  0.21770000  0.10460000  1.0 -0.0986567496
C  C22  1  0.82680000  0.97840000  0.35510000  1.0 0.5372851095
C  C23  1  0.80120000  0.02640000  0.33110000  1.0 -0.0333029184
C  C24  1  0.81570000  0.04790000  0.36240000  1.0 -0.0986567496
C  C25  1  0.78790000  0.09490000  0.33300000  1.0 -0.1686818308
C  C26  1  0.74900000  0.12000000  0.28140000  1.0 0.0609318732
C  C27  1  0.73710000  0.09790000  0.25420000  1.0 -0.1602854197
C  C28  1  0.76440000  0.04900000  0.28070000  1.0 -0.0986567496
C  C29  1  0.72010000  0.16930000  0.25490000  1.0 0.0313600138
C  C30  1  0.69930000  0.17230000  0.28130000  1.0 -0.2013348927
C  C31  1  0.66830000  0.21690000  0.25630000  1.0 0.0313600138
C  C32  1  0.65730000  0.25570000  0.20830000  1.0 0.0116258054
C  C33  1  0.67550000  0.24890000  0.18330000  1.0 -0.1937694539
C  C34  1  0.70820000  0.20740000  0.20640000  1.0 0.0116258054
C  C35  1  0.96620000  0.83820000  0.50670000  1.0 0.5290357645
C  C36  1  0.01010000  0.81510000  0.55420000  1.0 -0.0776621473
C  C37  1  0.02350000  0.83310000  0.58500000  1.0 -0.062573196
C  C38  1  0.07030000  0.80790000  0.63430000  1.0 -0.1686818308
C  C39  1  0.09800000  0.76720000  0.64850000  1.0 0.0696150118
C  C40  1  0.08320000  0.75100000  0.61530000  1.0 -0.1602854197
C  C41  1  0.03800000  0.77340000  0.57020000  1.0 -0.0657735028
C  C42  1  0.20770000  0.80890000  0.53060000  1.0 0.5290357645
C  C43  1  0.20240000  0.78940000  0.57570000  1.0 -0.0088894191
C  C44  1  0.21810000  0.74330000  0.61150000  1.0 -0.1162352117
C  C45  1  0.21040000  0.72460000  0.65330000  1.0 -0.1779026453
C  C46  1  0.19520000  0.75220000  0.66400000  1.0 0.0696150118
C  C47  1  0.18170000  0.79830000  0.62940000  1.0 -0.1602854197
C  C48  1  0.18820000  0.81680000  0.58710000  1.0 -0.1162352117
C  C49  1  0.40920000  0.58000000  0.99250000  1.0 0.5228658675
C  C50  1  0.36080000  0.60460000  0.94400000  1.0 -0.01986772
C  C51  1  0.34480000  0.59160000  0.90710000  1.0 -0.0986567496
C  C52  1  0.30050000  0.61890000  0.86170000  1.0 -0.1686818308
C  C53  1  0.26850000  0.65450000  0.85190000  1.0 0.0609318732
C  C54  1  0.28790000  0.66250000  0.89220000  1.0 -0.1518801114
C  C55  1  0.33130000  0.63950000  0.93540000  1.0 -0.0986567496
C  C56  1  0.17390000  0.59270000  0.97800000  1.0 0.5372851095
C  C57  1  0.17200000  0.62040000  0.92730000  1.0 -0.0003149332
C  C58  1  0.16340000  0.66666667  0.90120000  1.0 -0.0920908315
C  C59  1  0.16750000  0.69090000  0.85790000  1.0 -0.1602854197
C  C60  1  0.17800000  0.66920000  0.83900000  1.0 0.0609318732
C  C61  1  0.19030000  0.61830000  0.86850000  1.0 -0.1686818308
C  C62  1  0.18670000  0.59370000  0.91420000  1.0 -0.0986567496
C  C63  1  0.18420000  0.69260000  0.79480000  1.0 0.0197774296
C  C64  1  0.14400000  0.72340000  0.74590000  1.0 -0.2013348927
C  C65  1  0.14340000  0.74360000  0.69890000  1.0 0.0197774296
C  C66  1  0.18680000  0.73280000  0.70630000  1.0 0.0197774296
C  C67  1  0.22910000  0.70210000  0.75690000  1.0 -0.2013348927
C  C68  1  0.22610000  0.68330000  0.80090000  1.0 0.0116258054
C  C69  1  0.83350000  0.83030000  0.13910000  1.0 0.5228658675
C  C70  1  0.80330000  0.80870000  0.16010000  1.0 -0.01986772
C  C71  1  0.75320000  0.82080000  0.13430000  1.0 -0.0920908315
C  C72  1  0.72890000  0.79330000  0.15700000  1.0 -0.1602854197
C  C73  1  0.75330000  0.75450000  0.21030000  1.0 0.0609318732
C  C74  1  0.80260000  0.74680000  0.23590000  1.0 -0.1518801114
C  C75  1  0.82570000  0.76830000  0.21210000  1.0 -0.0920908315
C  C76  1  0.55530000  0.58110000  0.12950000  1.0 0.5072849243
C  C77  1  0.58360000  0.60420000  0.15400000  1.0 -0.0776621473
C  C78  1  0.63030000  0.58370000  0.19650000  1.0 -0.0776621473
C  C79  1  0.65830000  0.60650000  0.22070000  1.0 -0.1602854197
C  C80  1  0.64230000  0.65330000  0.20290000  1.0 0.0776046301
C  C81  1  0.59710000  0.67590000  0.15780000  1.0 -0.1686818308
C  C82  1  0.56860000  0.65100000  0.13750000  1.0 -0.0776621473
C  C83  1  0.95410000  0.18410000  0.12160000  1.0 0.5072849243
C  C84  1  0.00440000  0.18500000  0.15130000  1.0 -0.0377868755
C  C85  1  0.02890000  0.19170000  0.12770000  1.0 -0.0920908315
C  C86  1  0.07680000  0.19680000  0.15080000  1.0 -0.1686818308
C  C87  1  0.10320000  0.18480000  0.20120000  1.0 0.0696150118
C  C88  1  0.07990000  0.16930000  0.23150000  1.0 -0.1602854197
C  C89  1  0.03030000  0.17210000  0.20410000  1.0 -0.0986567496
C  C90  1  0.20770000  0.43790000  0.13270000  1.0 0.5290357645
C  C91  1  0.21060000  0.38680000  0.15760000  1.0 -0.0377868755
C  C92  1  0.22550000  0.35770000  0.21100000  1.0 -0.0776621473
C  C93  1  0.22630000  0.31190000  0.23440000  1.0 -0.1602854197
C  C94  1  0.20860000  0.29060000  0.20440000  1.0 0.0696150118
C  C95  1  0.19390000  0.31770000  0.15310000  1.0 -0.1686818308
C  C96  1  0.19350000  0.36750000  0.12780000  1.0 -0.0920908315
C  C97  1  0.20260000  0.24120000  0.22780000  1.0 0.0116258054
C  C98  1  0.15890000  0.23150000  0.20650000  1.0 -0.1686818308
C  C99  1  0.15070000  0.18930000  0.22650000  1.0 0.0116258054
C  C100  1  0.72330000  0.73090000  0.22620000  1.0 0.0197774296
C  C101  1  0.69380000  0.70580000  0.20440000  1.0 -0.2013348927
C  C102  1  0.67150000  0.67550000  0.22940000  1.0 0.0021160842
C  C103  1  0.44400000  0.55200000  0.38360000  1.0 0.5228658675
C  C104  1  0.39500000  0.57900000  0.35960000  1.0 -0.0088894191
C  C105  1  0.37190000  0.61590000  0.31400000  1.0 -0.0986567496
C  C106  1  0.32520000  0.64060000  0.28800000  1.0 -0.1429462646
C  C107  1  0.30240000  0.62640000  0.31710000  1.0 0.0696150118
C  C108  1  0.32700000  0.58900000  0.36650000  1.0 -0.1602854197
C  C109  1  0.37370000  0.56530000  0.38940000  1.0 -0.0986567496
C  C110  1  0.20440000  0.58380000  0.13060000  1.0 0.5228658675
C  C111  1  0.21110000  0.60490000  0.16310000  1.0 0.0197774296
C  C112  1  0.19750000  0.65430000  0.13460000  1.0 -0.1162352117
C  C113  1  0.20120000  0.67440000  0.16310000  1.0 -0.1602854197
C  C114  1  0.21510000  0.64730000  0.21360000  1.0 0.0609318732
C  C115  1  0.23030000  0.59670000  0.24250000  1.0 -0.1429462646
C  C116  1  0.22780000  0.57800000  0.21650000  1.0 -0.0986567496
C  C117  1  0.20380000  0.80780000  0.38750000  1.0 0.5030032571
C  C118  1  0.20620000  0.77400000  0.37090000  1.0 -0.0088894191
C  C119  1  0.19410000  0.80490000  0.31830000  1.0 -0.1264435415
C  C120  1  0.19450000  0.78110000  0.29490000  1.0 -0.1518801114
C  C121  1  0.20480000  0.73380000  0.31800000  1.0 0.0696150118
C  C122  1  0.21930000  0.70290000  0.37330000  1.0 -0.1602854197
C  C123  1  0.21770000  0.72690000  0.39540000  1.0 -0.0986567496
C  C124  1  0.97840000  0.82680000  0.14490000  1.0 0.5372851095
C  C125  1  0.02640000  0.80120000  0.16890000  1.0 -0.0333029184
C  C126  1  0.04790000  0.81570000  0.13760000  1.0 -0.0986567496
C  C127  1  0.09490000  0.78790000  0.16700000  1.0 -0.1686818308
C  C128  1  0.12000000  0.74900000  0.21860000  1.0 0.0609318732
C  C129  1  0.09790000  0.73710000  0.24580000  1.0 -0.1602854197
C  C130  1  0.04900000  0.76440000  0.21930000  1.0 -0.0986567496
C  C131  1  0.16930000  0.72010000  0.24510000  1.0 0.0313600138
C  C132  1  0.17230000  0.69930000  0.21870000  1.0 -0.2013348927
C  C133  1  0.21690000  0.66830000  0.24370000  1.0 0.0313600138
C  C134  1  0.25570000  0.65730000  0.29170000  1.0 0.0116258054
C  C135  1  0.24890000  0.67550000  0.31670000  1.0 -0.1937694539
C  C136  1  0.20740000  0.70820000  0.29360000  1.0 0.0116258054
C  C137  1  0.83820000  0.96620000  0.99330000  1.0 0.5290357645
C  C138  1  0.81510000  0.01010000  0.94580000  1.0 -0.0776621473
C  C139  1  0.83310000  0.02350000  0.91500000  1.0 -0.062573196
C  C140  1  0.80790000  0.07030000  0.86570000  1.0 -0.1686818308
C  C141  1  0.76720000  0.09800000  0.85150000  1.0 0.0696150118
C  C142  1  0.75100000  0.08320000  0.88470000  1.0 -0.1602854197
C  C143  1  0.77340000  0.03800000  0.92980000  1.0 -0.062573196
C  C144  1  0.80890000  0.20770000  0.96940000  1.0 0.5290357645
C  C145  1  0.78940000  0.20240000  0.92430000  1.0 -0.0088894191
C  C146  1  0.74330000  0.21810000  0.88850000  1.0 -0.1162352117
C  C147  1  0.72460000  0.21040000  0.84670000  1.0 -0.1779026453
C  C148  1  0.75220000  0.19520000  0.83600000  1.0 0.0696150118
C  C149  1  0.79830000  0.18170000  0.87060000  1.0 -0.1602854197
C  C150  1  0.81680000  0.18820000  0.91290000  1.0 -0.1162352117
C  C151  1  0.58000000  0.40920000  0.50750000  1.0 0.5228658675
C  C152  1  0.60460000  0.36080000  0.55600000  1.0 -0.01986772
C  C153  1  0.59160000  0.34480000  0.59290000  1.0 -0.0986567496
C  C154  1  0.61890000  0.30050000  0.63830000  1.0 -0.1686818308
C  C155  1  0.65450000  0.26850000  0.64810000  1.0 0.0609318732
C  C156  1  0.66250000  0.28790000  0.60780000  1.0 -0.1518801114
C  C157  1  0.63950000  0.33130000  0.56460000  1.0 -0.0986567496
C  C158  1  0.59270000  0.17390000  0.52200000  1.0 0.5372851095
C  C159  1  0.62040000  0.17200000  0.57270000  1.0 -0.0003149332
C  C160  1  0.66666667  0.16340000  0.59880000  1.0 -0.0920908315
C  C161  1  0.69090000  0.16750000  0.64210000  1.0 -0.1602854197
C  C162  1  0.66920000  0.17800000  0.66100000  1.0 0.0609318732
C  C163  1  0.61830000  0.19030000  0.63150000  1.0 -0.1686818308
C  C164  1  0.59370000  0.18670000  0.58580000  1.0 -0.0986567496
C  C165  1  0.69260000  0.18420000  0.70520000  1.0 0.0197774296
C  C166  1  0.72340000  0.14400000  0.75410000  1.0 -0.2013348927
C  C167  1  0.74360000  0.14340000  0.80110000  1.0 0.0197774296
C  C168  1  0.73280000  0.18680000  0.79370000  1.0 0.0197774296
C  C169  1  0.70210000  0.22910000  0.74310000  1.0 -0.2013348927
C  C170  1  0.68330000  0.22610000  0.69910000  1.0 0.0116258054
C  C171  1  0.83030000  0.83350000  0.36090000  1.0 0.5228658675
C  C172  1  0.80870000  0.80330000  0.33990000  1.0 -0.01986772
C  C173  1  0.82080000  0.75320000  0.36570000  1.0 -0.0920908315
C  C174  1  0.79330000  0.72890000  0.34300000  1.0 -0.1602854197
C  C175  1  0.75450000  0.75330000  0.28970000  1.0 0.0609318732
C  C176  1  0.74680000  0.80260000  0.26410000  1.0 -0.1518801114
C  C177  1  0.76830000  0.82570000  0.28790000  1.0 -0.0920908315
C  C178  1  0.58110000  0.55530000  0.37050000  1.0 0.5072849243
C  C179  1  0.60420000  0.58360000  0.34600000  1.0 -0.0776621473
C  C180  1  0.58370000  0.63030000  0.30350000  1.0 -0.0776621473
C  C181  1  0.60650000  0.65830000  0.27930000  1.0 -0.1602854197
C  C182  1  0.65330000  0.64230000  0.29710000  1.0 0.0776046301
C  C183  1  0.67590000  0.59710000  0.34220000  1.0 -0.1686818308
C  C184  1  0.65100000  0.56860000  0.36250000  1.0 -0.0776621473
C  C185  1  0.18410000  0.95410000  0.37840000  1.0 0.5072849243
C  C186  1  0.18500000  0.00440000  0.34870000  1.0 -0.0377868755
C  C187  1  0.19170000  0.02890000  0.37230000  1.0 -0.0920908315
C  C188  1  0.19680000  0.07680000  0.34920000  1.0 -0.1686818308
C  C189  1  0.18480000  0.10320000  0.29880000  1.0 0.0696150118
C  C190  1  0.16930000  0.07990000  0.26850000  1.0 -0.1602854197
C  C191  1  0.17210000  0.03030000  0.29590000  1.0 -0.0986567496
C  C192  1  0.43790000  0.20770000  0.36730000  1.0 0.5290357645
C  C193  1  0.38680000  0.21060000  0.34240000  1.0 -0.0377868755
C  C194  1  0.35770000  0.22550000  0.28900000  1.0 -0.0776621473
C  C195  1  0.31190000  0.22630000  0.26560000  1.0 -0.1602854197
C  C196  1  0.29060000  0.20860000  0.29560000  1.0 0.0696150118
C  C197  1  0.31770000  0.19390000  0.34690000  1.0 -0.1686818308
C  C198  1  0.36750000  0.19350000  0.37220000  1.0 -0.0920908315
C  C199  1  0.24120000  0.20260000  0.27220000  1.0 0.0116258054
C  C200  1  0.23150000  0.15890000  0.29350000  1.0 -0.1686818308
C  C201  1  0.18930000  0.15070000  0.27350000  1.0 0.0116258054
C  C202  1  0.73090000  0.72330000  0.27380000  1.0 0.0197774296
C  C203  1  0.70580000  0.69380000  0.29560000  1.0 -0.2013348927
C  C204  1  0.67550000  0.67150000  0.27060000  1.0 0.0021160842
C  C205  1  0.44800000  0.55600000  0.88360000  1.0 0.5228658675
C  C206  1  0.42100000  0.60500000  0.85960000  1.0 -0.0088894191
C  C207  1  0.38410000  0.62810000  0.81400000  1.0 -0.0986567496
C  C208  1  0.35940000  0.67480000  0.78800000  1.0 -0.1429462646
C  C209  1  0.37360000  0.69760000  0.81710000  1.0 0.0696150118
C  C210  1  0.41100000  0.67300000  0.86650000  1.0 -0.1602854197
C  C211  1  0.43470000  0.62630000  0.88940000  1.0 -0.0986567496
C  C212  1  0.41620000  0.79560000  0.63060000  1.0 0.5228658675
C  C213  1  0.39510000  0.78890000  0.66310000  1.0 0.0197774296
C  C214  1  0.34570000  0.80250000  0.63460000  1.0 -0.1162352117
C  C215  1  0.32560000  0.79880000  0.66310000  1.0 -0.1602854197
C  C216  1  0.35270000  0.78490000  0.71360000  1.0 0.0609318732
C  C217  1  0.40330000  0.76970000  0.74250000  1.0 -0.1429462646
C  C218  1  0.42200000  0.77220000  0.71650000  1.0 -0.0986567496
C  C219  1  0.19220000  0.79620000  0.88750000  1.0 0.5030032571
C  C220  1  0.22600000  0.79380000  0.87090000  1.0 -0.0088894191
C  C221  1  0.19510000  0.80590000  0.81830000  1.0 -0.1264435415
C  C222  1  0.21890000  0.80550000  0.79490000  1.0 -0.1518801114
C  C223  1  0.26620000  0.79520000  0.81800000  1.0 0.0696150118
C  C224  1  0.29710000  0.78070000  0.87330000  1.0 -0.1602854197
C  C225  1  0.27310000  0.78230000  0.89540000  1.0 -0.0986567496
C  C226  1  0.17320000  0.02160000  0.64490000  1.0 0.5372851095
C  C227  1  0.19880000  0.97360000  0.66890000  1.0 -0.0333029184
C  C228  1  0.18430000  0.95210000  0.63760000  1.0 -0.0986567496
C  C229  1  0.21210000  0.90510000  0.66700000  1.0 -0.1686818308
C  C230  1  0.25100000  0.88000000  0.71860000  1.0 0.0609318732
C  C231  1  0.26290000  0.90210000  0.74580000  1.0 -0.1602854197
C  C232  1  0.23560000  0.95100000  0.71930000  1.0 -0.0986567496
C  C233  1  0.27990000  0.83070000  0.74510000  1.0 0.0313600138
C  C234  1  0.30070000  0.82770000  0.71870000  1.0 -0.2013348927
C  C235  1  0.33170000  0.78310000  0.74370000  1.0 0.0313600138
C  C236  1  0.34270000  0.74430000  0.79170000  1.0 0.0116258054
C  C237  1  0.32450000  0.75110000  0.81670000  1.0 -0.1937694539
C  C238  1  0.29180000  0.79260000  0.79360000  1.0 0.0116258054
C  C239  1  0.03380000  0.16180000  0.49330000  1.0 0.5372851095
C  C240  1  0.98990000  0.18490000  0.44580000  1.0 -0.0776621473
C  C241  1  0.97650000  0.16690000  0.41500000  1.0 -0.062573196
C  C242  1  0.92970000  0.19210000  0.36570000  1.0 -0.1686818308
C  C243  1  0.90200000  0.23280000  0.35150000  1.0 0.0696150118
C  C244  1  0.91680000  0.24900000  0.38470000  1.0 -0.1602854197
C  C245  1  0.96200000  0.22660000  0.42980000  1.0 -0.062573196
C  C246  1  0.79230000  0.19110000  0.46940000  1.0 0.5290357645
C  C247  1  0.79760000  0.21060000  0.42430000  1.0 -0.0088894191
C  C248  1  0.78190000  0.25670000  0.38850000  1.0 -0.1162352117
C  C249  1  0.78960000  0.27540000  0.34670000  1.0 -0.1779026453
C  C250  1  0.80480000  0.24780000  0.33600000  1.0 0.0696150118
C  C251  1  0.81830000  0.20170000  0.37060000  1.0 -0.1602854197
C  C252  1  0.81180000  0.18320000  0.41290000  1.0 -0.1162352117
C  C253  1  0.59080000  0.42000000  0.00750000  1.0 0.5228658675
C  C254  1  0.63920000  0.39540000  0.05600000  1.0 -0.01986772
C  C255  1  0.65520000  0.40840000  0.09290000  1.0 -0.0986567496
C  C256  1  0.69950000  0.38110000  0.13830000  1.0 -0.1686818308
C  C257  1  0.73150000  0.34550000  0.14810000  1.0 0.0609318732
C  C258  1  0.71210000  0.33750000  0.10780000  1.0 -0.1518801114
C  C259  1  0.66870000  0.36050000  0.06460000  1.0 -0.0986567496
C  C260  1  0.82610000  0.40730000  0.02200000  1.0 0.5372851095
C  C261  1  0.82800000  0.37960000  0.07270000  1.0 -0.0003149332
C  C262  1  0.83660000  0.33340000  0.09880000  1.0 -0.0920908315
C  C263  1  0.83250000  0.30910000  0.14210000  1.0 -0.1518801114
C  C264  1  0.82200000  0.33080000  0.16100000  1.0 0.0609318732
C  C265  1  0.80970000  0.38170000  0.13150000  1.0 -0.1602854197
C  C266  1  0.81330000  0.40630000  0.08580000  1.0 -0.0986567496
C  C267  1  0.81580000  0.30740000  0.20520000  1.0 0.0197774296
C  C268  1  0.85600000  0.27660000  0.25410000  1.0 -0.2013348927
C  C269  1  0.85660000  0.25640000  0.30110000  1.0 0.0197774296
C  C270  1  0.81320000  0.26720000  0.29370000  1.0 0.0197774296
C  C271  1  0.77090000  0.29790000  0.24310000  1.0 -0.2013348927
C  C272  1  0.77390000  0.31670000  0.19910000  1.0 0.0116258054
C  C273  1  0.16650000  0.16970000  0.86090000  1.0 0.5228658675
C  C274  1  0.19670000  0.19130000  0.83990000  1.0 -0.01986772
C  C275  1  0.24680000  0.17920000  0.86570000  1.0 -0.0986567496
C  C276  1  0.27110000  0.20670000  0.84300000  1.0 -0.1602854197
C  C277  1  0.24670000  0.24550000  0.78970000  1.0 0.0609318732
C  C278  1  0.19740000  0.25320000  0.76410000  1.0 -0.1518801114
C  C279  1  0.17430000  0.23170000  0.78790000  1.0 -0.0920908315
C  C280  1  0.44470000  0.41890000  0.87050000  1.0 0.5072849243
C  C281  1  0.41640000  0.39580000  0.84600000  1.0 -0.0776621473
C  C282  1  0.36970000  0.41630000  0.80350000  1.0 -0.0776621473
C  C283  1  0.34170000  0.39350000  0.77930000  1.0 -0.1602854197
C  C284  1  0.35770000  0.34670000  0.79710000  1.0 0.0776046301
C  C285  1  0.40290000  0.32410000  0.84220000  1.0 -0.1686818308
C  C286  1  0.43140000  0.34900000  0.86250000  1.0 -0.0776621473
C  C287  1  0.04590000  0.81590000  0.87840000  1.0 0.5072849243
C  C288  1  0.99560000  0.81500000  0.84870000  1.0 -0.0377868755
C  C289  1  0.97110000  0.80830000  0.87230000  1.0 -0.0920908315
C  C290  1  0.92320000  0.80320000  0.84920000  1.0 -0.1686818308
C  C291  1  0.89680000  0.81520000  0.79880000  1.0 0.0696150118
C  C292  1  0.92010000  0.83070000  0.76850000  1.0 -0.1602854197
C  C293  1  0.96970000  0.82790000  0.79590000  1.0 -0.0986567496
C  C294  1  0.79230000  0.56210000  0.86730000  1.0 0.5290357645
C  C295  1  0.78940000  0.61320000  0.84240000  1.0 -0.0377868755
C  C296  1  0.77450000  0.64230000  0.78900000  1.0 -0.0776621473
C  C297  1  0.77370000  0.68810000  0.76560000  1.0 -0.1602854197
C  C298  1  0.79140000  0.70940000  0.79560000  1.0 0.0696150118
C  C299  1  0.80610000  0.68230000  0.84690000  1.0 -0.1686818308
C  C300  1  0.80650000  0.63250000  0.87220000  1.0 -0.0920908315
C  C301  1  0.79740000  0.75880000  0.77220000  1.0 0.0116258054
C  C302  1  0.84110000  0.76850000  0.79350000  1.0 -0.1686818308
C  C303  1  0.84930000  0.81070000  0.77350000  1.0 0.0116258054
C  C304  1  0.27670000  0.26910000  0.77380000  1.0 0.0197774296
C  C305  1  0.30620000  0.29420000  0.79560000  1.0 -0.2013348927
C  C306  1  0.32850000  0.32450000  0.77060000  1.0 0.0021160842
C  C307  1  0.55600000  0.44800000  0.61640000  1.0 0.5228658675
C  C308  1  0.60500000  0.42100000  0.64040000  1.0 -0.0088894191
C  C309  1  0.62810000  0.38410000  0.68600000  1.0 -0.0986567496
C  C310  1  0.67480000  0.35940000  0.71200000  1.0 -0.1429462646
C  C311  1  0.69760000  0.37360000  0.68290000  1.0 0.0696150118
C  C312  1  0.67300000  0.41100000  0.63350000  1.0 -0.1602854197
C  C313  1  0.62630000  0.43470000  0.61060000  1.0 -0.0986567496
C  C314  1  0.79560000  0.41620000  0.86940000  1.0 0.5228658675
C  C315  1  0.78890000  0.39510000  0.83690000  1.0 0.0313600138
C  C316  1  0.80250000  0.34570000  0.86540000  1.0 -0.1162352117
C  C317  1  0.79880000  0.32560000  0.83690000  1.0 -0.1602854197
C  C318  1  0.78490000  0.35270000  0.78640000  1.0 0.0609318732
C  C319  1  0.76970000  0.40330000  0.75750000  1.0 -0.1429462646
C  C320  1  0.77220000  0.42200000  0.78350000  1.0 -0.0986567496
C  C321  1  0.79620000  0.19220000  0.61250000  1.0 0.5030032571
C  C322  1  0.79380000  0.22600000  0.62910000  1.0 -0.0088894191
C  C323  1  0.80590000  0.19510000  0.68170000  1.0 -0.1264435415
C  C324  1  0.80550000  0.21890000  0.70510000  1.0 -0.1518801114
C  C325  1  0.79520000  0.26620000  0.68200000  1.0 0.0696150118
C  C326  1  0.78070000  0.29710000  0.62670000  1.0 -0.1602854197
C  C327  1  0.78230000  0.27310000  0.60460000  1.0 -0.0986567496
C  C328  1  0.02160000  0.17320000  0.85510000  1.0 0.5372851095
C  C329  1  0.97360000  0.19880000  0.83110000  1.0 -0.0333029184
C  C330  1  0.95210000  0.18430000  0.86240000  1.0 -0.0986567496
C  C331  1  0.90510000  0.21210000  0.83300000  1.0 -0.1686818308
C  C332  1  0.88000000  0.25100000  0.78140000  1.0 0.0609318732
C  C333  1  0.90210000  0.26290000  0.75420000  1.0 -0.1602854197
C  C334  1  0.95100000  0.23560000  0.78070000  1.0 -0.0986567496
C  C335  1  0.83070000  0.27990000  0.75490000  1.0 0.0313600138
C  C336  1  0.82770000  0.30070000  0.78130000  1.0 -0.2013348927
C  C337  1  0.78310000  0.33170000  0.75630000  1.0 0.0313600138
C  C338  1  0.74430000  0.34270000  0.70830000  1.0 0.0116258054
C  C339  1  0.75110000  0.32450000  0.68330000  1.0 -0.1937694539
C  C340  1  0.79260000  0.29180000  0.70640000  1.0 0.0116258054
C  C341  1  0.16180000  0.03380000  0.00670000  1.0 0.5290357645
C  C342  1  0.18490000  0.98990000  0.05420000  1.0 -0.0776621473
C  C343  1  0.16690000  0.97650000  0.08500000  1.0 -0.062573196
C  C344  1  0.19210000  0.92970000  0.13430000  1.0 -0.1686818308
C  C345  1  0.23280000  0.90200000  0.14850000  1.0 0.0696150118
C  C346  1  0.24900000  0.91680000  0.11530000  1.0 -0.1602854197
C  C347  1  0.22660000  0.96200000  0.07020000  1.0 -0.0657735028
C  C348  1  0.19110000  0.79230000  0.03060000  1.0 0.5228658675
C  C349  1  0.21060000  0.79760000  0.07570000  1.0 -0.0088894191
C  C350  1  0.25670000  0.78190000  0.11150000  1.0 -0.1162352117
C  C351  1  0.27540000  0.78960000  0.15330000  1.0 -0.1779026453
C  C352  1  0.24780000  0.80480000  0.16400000  1.0 0.0696150118
C  C353  1  0.20170000  0.81830000  0.12940000  1.0 -0.1602854197
C  C354  1  0.18320000  0.81180000  0.08710000  1.0 -0.1162352117
C  C355  1  0.42000000  0.59080000  0.49250000  1.0 0.5228658675
C  C356  1  0.39540000  0.63920000  0.44400000  1.0 -0.01986772
C  C357  1  0.40840000  0.65520000  0.40710000  1.0 -0.0986567496
C  C358  1  0.38110000  0.69950000  0.36170000  1.0 -0.1686818308
C  C359  1  0.34550000  0.73150000  0.35190000  1.0 0.0609318732
C  C360  1  0.33750000  0.71210000  0.39220000  1.0 -0.1518801114
C  C361  1  0.36050000  0.66870000  0.43540000  1.0 -0.0986567496
C  C362  1  0.40730000  0.82610000  0.47800000  1.0 0.5372851095
C  C363  1  0.37960000  0.82800000  0.42730000  1.0 -0.0003149332
C  C364  1  0.33340000  0.83660000  0.40120000  1.0 -0.0920908315
C  C365  1  0.30910000  0.83250000  0.35790000  1.0 -0.1602854197
C  C366  1  0.33080000  0.82200000  0.33900000  1.0 0.0609318732
C  C367  1  0.38170000  0.80970000  0.36850000  1.0 -0.1686818308
C  C368  1  0.40630000  0.81330000  0.41420000  1.0 -0.0986567496
C  C369  1  0.30740000  0.81580000  0.29480000  1.0 0.0197774296
C  C370  1  0.27660000  0.85600000  0.24590000  1.0 -0.2013348927
C  C371  1  0.25640000  0.85660000  0.19890000  1.0 0.0197774296
C  C372  1  0.26720000  0.81320000  0.20630000  1.0 0.0197774296
C  C373  1  0.29790000  0.77090000  0.25690000  1.0 -0.2013348927
C  C374  1  0.31670000  0.77390000  0.30090000  1.0 0.0116258054
C  C375  1  0.16970000  0.16650000  0.63910000  1.0 0.5228658675
C  C376  1  0.19130000  0.19670000  0.66010000  1.0 -0.01986772
C  C377  1  0.17920000  0.24680000  0.63430000  1.0 -0.0920908315
C  C378  1  0.20670000  0.27110000  0.65700000  1.0 -0.1602854197
C  C379  1  0.24550000  0.24670000  0.71030000  1.0 0.0609318732
C  C380  1  0.25320000  0.19740000  0.73590000  1.0 -0.1518801114
C  C381  1  0.23170000  0.17430000  0.71210000  1.0 -0.0920908315
C  C382  1  0.41890000  0.44470000  0.62950000  1.0 0.5072849243
C  C383  1  0.39580000  0.41640000  0.65400000  1.0 -0.0776621473
C  C384  1  0.41630000  0.36970000  0.69650000  1.0 -0.0776621473
C  C385  1  0.39350000  0.34170000  0.72070000  1.0 -0.1602854197
C  C386  1  0.34670000  0.35770000  0.70290000  1.0 0.0776046301
C  C387  1  0.32410000  0.40290000  0.65780000  1.0 -0.1686818308
C  C388  1  0.34900000  0.43140000  0.63750000  1.0 -0.0776621473
C  C389  1  0.81590000  0.04590000  0.62160000  1.0 0.5030032571
C  C390  1  0.81500000  0.99560000  0.65130000  1.0 -0.0377868755
C  C391  1  0.80830000  0.97110000  0.62770000  1.0 -0.0920908315
C  C392  1  0.80320000  0.92320000  0.65080000  1.0 -0.1686818308
C  C393  1  0.81520000  0.89680000  0.70120000  1.0 0.0696150118
C  C394  1  0.83070000  0.92010000  0.73150000  1.0 -0.1602854197
C  C395  1  0.82790000  0.96970000  0.70410000  1.0 -0.0986567496
C  C396  1  0.56210000  0.79230000  0.63270000  1.0 0.5290357645
C  C397  1  0.61320000  0.78940000  0.65760000  1.0 -0.0377868755
C  C398  1  0.64230000  0.77450000  0.71100000  1.0 -0.0776621473
C  C399  1  0.68810000  0.77370000  0.73440000  1.0 -0.1602854197
C  C400  1  0.70940000  0.79140000  0.70440000  1.0 0.0696150118
C  C401  1  0.68230000  0.80610000  0.65310000  1.0 -0.1686818308
C  C402  1  0.63250000  0.80650000  0.62780000  1.0 -0.0920908315
C  C403  1  0.75880000  0.79740000  0.72780000  1.0 0.0116258054
C  C404  1  0.76850000  0.84110000  0.70650000  1.0 -0.1686818308
C  C405  1  0.81070000  0.84930000  0.72650000  1.0 0.0116258054
C  C406  1  0.26910000  0.27670000  0.72620000  1.0 0.0197774296
C  C407  1  0.29420000  0.30620000  0.70440000  1.0 -0.2013348927
C  C408  1  0.32450000  0.32850000  0.72940000  1.0 0.0021160842
O  O1  1  0.57390000  0.46490000  0.13810000  1.0 -0.5606579845
O  O2  1  0.51120000  0.46240000  0.07440000  1.0 -0.5706822191
O  O3  1  0.53800000  0.21340000  0.34130000  1.0 -0.6169723878
O  O4  1  0.60790000  0.19510000  0.41390000  1.0 -0.5892911159
O  O5  1  0.77950000  0.21170000  0.06510000  1.0 -0.6106322663
O  O6  1  0.84890000  0.19710000  0.13570000  1.0 -0.4926618402
O  O7  1  0.81000000  0.95620000  0.33240000  1.0 -0.5892911159
O  O8  1  0.86550000  0.95890000  0.40150000  1.0 -0.6106322663
O  O9  1  0.94920000  0.81640000  0.48250000  1.0 -0.6106322663
O  O10  1  0.94150000  0.87870000  0.48690000  1.0 -0.5830608551
O  O11  1  0.21370000  0.78430000  0.51730000  1.0 -0.5200486588
O  O12  1  0.19910000  0.85530000  0.50380000  1.0 -0.5892911159
O  O13  1  0.42860000  0.59720000  0.01890000  1.0 -0.5494101946
O  O14  1  0.43020000  0.53940000  0.00510000  1.0 -0.6106322663
O  O15  1  0.17930000  0.54730000  0.99890000  1.0 -0.6169723878
O  O16  1  0.17740000  0.61360000  0.99920000  1.0 -0.5706822191
O  O17  1  0.80940000  0.87080000  0.09580000  1.0 -0.6169723878
O  O18  1  0.87670000  0.81310000  0.16530000  1.0 -0.5830608551
O  O19  1  0.51020000  0.60280000  0.09120000  1.0 -0.6106322663
O  O20  1  0.57400000  0.54200000  0.14690000  1.0 -0.5494101946
O  O21  1  0.21810000  0.45630000  0.15800000  1.0 -0.5830608551
O  O22  1  0.20210000  0.45850000  0.08740000  1.0 -0.6106322663
O  O23  1  0.93440000  0.18920000  0.08040000  1.0 -0.5200486588
O  O24  1  0.93320000  0.18400000  0.14340000  1.0 -0.5830608551
O  O25  1  0.46490000  0.57390000  0.36190000  1.0 -0.5606579845
O  O26  1  0.46240000  0.51120000  0.42560000  1.0 -0.5706822191
O  O27  1  0.21340000  0.53800000  0.15870000  1.0 -0.6169723878
O  O28  1  0.19510000  0.60790000  0.08610000  1.0 -0.5892911159
O  O29  1  0.21170000  0.77950000  0.43490000  1.0 -0.6106322663
O  O30  1  0.19710000  0.84890000  0.36430000  1.0 -0.4926618402
O  O31  1  0.95620000  0.81000000  0.16760000  1.0 -0.5892911159
O  O32  1  0.95890000  0.86550000  0.09850000  1.0 -0.6106322663
O  O33  1  0.81640000  0.94920000  0.01750000  1.0 -0.6106322663
O  O34  1  0.87870000  0.94150000  0.01310000  1.0 -0.5830608551
O  O35  1  0.78430000  0.21370000  0.98270000  1.0 -0.5200486588
O  O36  1  0.85530000  0.19910000  0.99620000  1.0 -0.5892911159
O  O37  1  0.59720000  0.42860000  0.48110000  1.0 -0.5606579845
O  O38  1  0.53940000  0.43020000  0.49490000  1.0 -0.6106322663
O  O39  1  0.54730000  0.17930000  0.50110000  1.0 -0.6169723878
O  O40  1  0.61360000  0.17740000  0.50080000  1.0 -0.5706822191
O  O41  1  0.87080000  0.80940000  0.40420000  1.0 -0.6106322663
O  O42  1  0.81310000  0.87670000  0.33470000  1.0 -0.5830608551
O  O43  1  0.60280000  0.51020000  0.40880000  1.0 -0.6106322663
O  O44  1  0.54200000  0.57400000  0.35310000  1.0 -0.5494101946
O  O45  1  0.45630000  0.21810000  0.34200000  1.0 -0.5892911159
O  O46  1  0.45850000  0.20210000  0.41260000  1.0 -0.6106322663
O  O47  1  0.18920000  0.93440000  0.41960000  1.0 -0.5200486588
O  O48  1  0.18400000  0.93320000  0.35660000  1.0 -0.5830608551
O  O49  1  0.42610000  0.53510000  0.86190000  1.0 -0.5606579845
O  O50  1  0.48880000  0.53760000  0.92560000  1.0 -0.5706822191
O  O51  1  0.46200000  0.78660000  0.65870000  1.0 -0.6169723878
O  O52  1  0.39210000  0.80490000  0.58610000  1.0 -0.5830608551
O  O53  1  0.22050000  0.78830000  0.93490000  1.0 -0.6106322663
O  O54  1  0.15110000  0.80290000  0.86430000  1.0 -0.4926618402
O  O55  1  0.19000000  0.04380000  0.66760000  1.0 -0.5892911159
O  O56  1  0.13450000  0.04110000  0.59850000  1.0 -0.6106322663
O  O57  1  0.05080000  0.18360000  0.51750000  1.0 -0.6106322663
O  O58  1  0.05850000  0.12130000  0.51310000  1.0 -0.5892911159
O  O59  1  0.78630000  0.21570000  0.48270000  1.0 -0.5200486588
O  O60  1  0.80090000  0.14470000  0.49620000  1.0 -0.5892911159
O  O61  1  0.57140000  0.40280000  0.98110000  1.0 -0.5606579845
O  O62  1  0.56980000  0.46060000  0.99490000  1.0 -0.6106322663
O  O63  1  0.82070000  0.45270000  0.00110000  1.0 -0.6169723878
O  O64  1  0.82260000  0.38640000  0.00080000  1.0 -0.5706822191
O  O65  1  0.19060000  0.12920000  0.90420000  1.0 -0.6169723878
O  O66  1  0.12330000  0.18690000  0.83470000  1.0 -0.5830608551
O  O67  1  0.48980000  0.39720000  0.90880000  1.0 -0.6106322663
O  O68  1  0.42600000  0.45800000  0.85310000  1.0 -0.5494101946
O  O69  1  0.78190000  0.54370000  0.84200000  1.0 -0.5830608551
O  O70  1  0.79790000  0.54150000  0.91260000  1.0 -0.6106322663
O  O71  1  0.06560000  0.81080000  0.91960000  1.0 -0.5262676542
O  O72  1  0.06680000  0.81600000  0.85660000  1.0 -0.5830608551
O  O73  1  0.53510000  0.42610000  0.63810000  1.0 -0.5606579845
O  O74  1  0.53760000  0.48880000  0.57440000  1.0 -0.5706822191
O  O75  1  0.78660000  0.46200000  0.84130000  1.0 -0.6169723878
O  O76  1  0.80490000  0.39210000  0.91390000  1.0 -0.5830608551
O  O77  1  0.78830000  0.22050000  0.56510000  1.0 -0.6106322663
O  O78  1  0.80290000  0.15110000  0.63570000  1.0 -0.4926618402
O  O79  1  0.04380000  0.19000000  0.83240000  1.0 -0.5892911159
O  O80  1  0.04110000  0.13450000  0.90150000  1.0 -0.6106322663
O  O81  1  0.18360000  0.05080000  0.98250000  1.0 -0.6106322663
O  O82  1  0.12130000  0.05850000  0.98690000  1.0 -0.5892911159
O  O83  1  0.21570000  0.78630000  0.01730000  1.0 -0.5200486588
O  O84  1  0.14470000  0.80090000  0.00380000  1.0 -0.5892911159
O  O85  1  0.40280000  0.57140000  0.51890000  1.0 -0.5606579845
O  O86  1  0.46060000  0.56980000  0.50510000  1.0 -0.6106322663
O  O87  1  0.45270000  0.82070000  0.49890000  1.0 -0.6169723878
O  O88  1  0.38640000  0.82260000  0.49920000  1.0 -0.5706822191
O  O89  1  0.12920000  0.19060000  0.59580000  1.0 -0.6169723878
O  O90  1  0.18690000  0.12330000  0.66530000  1.0 -0.5830608551
O  O91  1  0.39720000  0.48980000  0.59120000  1.0 -0.6106322663
O  O92  1  0.45800000  0.42600000  0.64690000  1.0 -0.5494101946
O  O93  1  0.54370000  0.78190000  0.65800000  1.0 -0.5830608551
O  O94  1  0.54150000  0.79790000  0.58740000  1.0 -0.6106322663
O  O95  1  0.81080000  0.06560000  0.58040000  1.0 -0.5200486588
O  O96  1  0.81600000  0.06680000  0.64340000  1.0 -0.5830608551
