# DDEC6 charges by PACMAN v1.1 (https://github.com/mtap-research/PACMAN-charge/)
data_WUWQUB_ion_pacman
_symmetry_space_group_name_H-M   'P 1'
_cell_length_a   27.12980000
_cell_length_b   27.12980000
_cell_length_c   27.12980000
_cell_angle_alpha   109.47100000
_cell_angle_beta   109.47100000
_cell_angle_gamma   109.47100000
_symmetry_Int_Tables_number   1
_chemical_formula_structural   ZnB2H32C38(N2F)8
_chemical_formula_sum   'Zn12 B24 H384 C456 N192 F96'
_cell_volume   15371.68348279
_cell_formula_units_Z   12
loop_
 _symmetry_equiv_pos_site_id
 _symmetry_equiv_pos_as_xyz
  1  'x, y, z'
loop_
 _atom_site_type_symbol
 _atom_site_label
 _atom_site_symmetry_multiplicity
 _atom_site_fract_x
 _atom_site_fract_y
 _atom_site_fract_z
 _atom_site_occupancy
 _atom_site_charge
Zn  Zn1  1  0.87500000  0.12500000  0.75000000  1.0 0.6700734126
Zn  Zn2  1  0.62500000  0.37500000  0.25000000  1.0 0.6700734126
Zn  Zn3  1  0.75000000  0.87500000  0.12500000  1.0 0.6700734126
Zn  Zn4  1  0.25000000  0.62500000  0.37500000  1.0 0.6700734126
Zn  Zn5  1  0.12500000  0.75000000  0.87500000  1.0 0.6700734126
Zn  Zn6  1  0.37500000  0.25000000  0.62500000  1.0 0.6700734126
Zn  Zn7  1  0.37500000  0.62500000  0.75000000  1.0 0.6700734126
Zn  Zn8  1  0.12500000  0.87500000  0.25000000  1.0 0.6700734126
Zn  Zn9  1  0.87500000  0.25000000  0.12500000  1.0 0.6700734126
Zn  Zn10  1  0.62500000  0.75000000  0.37500000  1.0 0.6700734126
Zn  Zn11  1  0.25000000  0.12500000  0.87500000  1.0 0.6700734126
Zn  Zn12  1  0.75000000  0.37500000  0.62500000  1.0 0.6700734126
B  B1  1  0.37714000  0.43857000  0.18857000  1.0 1.0387196817
B  B2  1  0.75000000  0.06143000  0.43857000  1.0 1.0387196817
B  B3  1  0.12286000  0.31143000  0.06143000  1.0 1.0387196817
B  B4  1  0.75000000  0.18857000  0.31143000  1.0 1.0387196817
B  B5  1  0.43857000  0.18857000  0.37714000  1.0 1.0387196817
B  B6  1  0.06143000  0.43857000  0.75000000  1.0 1.0387196817
B  B7  1  0.31143000  0.06143000  0.12286000  1.0 1.0387196817
B  B8  1  0.18857000  0.31143000  0.75000000  1.0 1.0387196817
B  B9  1  0.18857000  0.37714000  0.43857000  1.0 1.0387196817
B  B10  1  0.43857000  0.75000000  0.06143000  1.0 1.0387196817
B  B11  1  0.06143000  0.12286000  0.31143000  1.0 1.0387196817
B  B12  1  0.31143000  0.75000000  0.18857000  1.0 1.0387196817
B  B13  1  0.62286000  0.56143000  0.81143000  1.0 1.0387196817
B  B14  1  0.25000000  0.93857000  0.56143000  1.0 1.0387196817
B  B15  1  0.87714000  0.68857000  0.93857000  1.0 1.0387196817
B  B16  1  0.25000000  0.81143000  0.68857000  1.0 1.0387196817
B  B17  1  0.56143000  0.81143000  0.62286000  1.0 1.0387196817
B  B18  1  0.93857000  0.56143000  0.25000000  1.0 1.0387196817
B  B19  1  0.68857000  0.93857000  0.87714000  1.0 1.0387196817
B  B20  1  0.81143000  0.68857000  0.25000000  1.0 1.0387196817
B  B21  1  0.81143000  0.62286000  0.56143000  1.0 1.0387196817
B  B22  1  0.56143000  0.25000000  0.93857000  1.0 1.0387196817
B  B23  1  0.93857000  0.87714000  0.68857000  1.0 1.0387196817
B  B24  1  0.68857000  0.25000000  0.81143000  1.0 1.0387196817
H  H1  1  0.79490000  0.23110000  0.86380000  1.0 0.1379456561
H  H2  1  0.86730000  0.93110000  0.63620000  1.0 0.1379456561
H  H3  1  0.63270000  0.26890000  0.06380000  1.0 0.1379456561
H  H4  1  0.70510000  0.56890000  0.43620000  1.0 0.1379456561
H  H5  1  0.86380000  0.79490000  0.23110000  1.0 0.1379456561
H  H6  1  0.63620000  0.86730000  0.93110000  1.0 0.1379456561
H  H7  1  0.06380000  0.63270000  0.26890000  1.0 0.1379456561
H  H8  1  0.43620000  0.70510000  0.56890000  1.0 0.1379456561
H  H9  1  0.23110000  0.86380000  0.79490000  1.0 0.1379456561
H  H10  1  0.93110000  0.63620000  0.86730000  1.0 0.1379456561
H  H11  1  0.26890000  0.06380000  0.63270000  1.0 0.1379456561
H  H12  1  0.56890000  0.43620000  0.70510000  1.0 0.1379456561
H  H13  1  0.56890000  0.63270000  0.86380000  1.0 0.1379456561
H  H14  1  0.26890000  0.70510000  0.63620000  1.0 0.1379456561
H  H15  1  0.93110000  0.79490000  0.06380000  1.0 0.1379456561
H  H16  1  0.23110000  0.86730000  0.43620000  1.0 0.1379456561
H  H17  1  0.86730000  0.43620000  0.23110000  1.0 0.1379456561
H  H18  1  0.79490000  0.06380000  0.93110000  1.0 0.1379456561
H  H19  1  0.70510000  0.63620000  0.26890000  1.0 0.1379456561
H  H20  1  0.63270000  0.86380000  0.56890000  1.0 0.1379456561
H  H21  1  0.06380000  0.93110000  0.79490000  1.0 0.1379456561
H  H22  1  0.43620000  0.23110000  0.86730000  1.0 0.1379456561
H  H23  1  0.86380000  0.56890000  0.63270000  1.0 0.1379456561
H  H24  1  0.63620000  0.26890000  0.70510000  1.0 0.1379456561
H  H25  1  0.20510000  0.76890000  0.13620000  1.0 0.1379456561
H  H26  1  0.13270000  0.06890000  0.36380000  1.0 0.1379456561
H  H27  1  0.36730000  0.73110000  0.93620000  1.0 0.1379456561
H  H28  1  0.29490000  0.43110000  0.56380000  1.0 0.1379456561
H  H29  1  0.13620000  0.20510000  0.76890000  1.0 0.1379456561
H  H30  1  0.36380000  0.13270000  0.06890000  1.0 0.1379456561
H  H31  1  0.93620000  0.36730000  0.73110000  1.0 0.1379456561
H  H32  1  0.56380000  0.29490000  0.43110000  1.0 0.1379456561
H  H33  1  0.76890000  0.13620000  0.20510000  1.0 0.1379456561
H  H34  1  0.06890000  0.36380000  0.13270000  1.0 0.1379456561
H  H35  1  0.73110000  0.93620000  0.36730000  1.0 0.1379456561
H  H36  1  0.43110000  0.56380000  0.29490000  1.0 0.1379456561
H  H37  1  0.43110000  0.36730000  0.13620000  1.0 0.1379456561
H  H38  1  0.73110000  0.29490000  0.36380000  1.0 0.1379456561
H  H39  1  0.06890000  0.20510000  0.93620000  1.0 0.1379456561
H  H40  1  0.76890000  0.13270000  0.56380000  1.0 0.1379456561
H  H41  1  0.13270000  0.56380000  0.76890000  1.0 0.1379456561
H  H42  1  0.20510000  0.93620000  0.06890000  1.0 0.1379456561
H  H43  1  0.29490000  0.36380000  0.73110000  1.0 0.1379456561
H  H44  1  0.36730000  0.13620000  0.43110000  1.0 0.1379456561
H  H45  1  0.93620000  0.06890000  0.20510000  1.0 0.1379456561
H  H46  1  0.56380000  0.76890000  0.13270000  1.0 0.1379456561
H  H47  1  0.13620000  0.43110000  0.36730000  1.0 0.1379456561
H  H48  1  0.36380000  0.73110000  0.29490000  1.0 0.1379456561
H  H49  1  0.74770000  0.96320000  0.80110000  1.0 0.128274237
H  H50  1  0.66210000  0.94660000  0.69890000  1.0 0.128274237
H  H51  1  0.83790000  0.53680000  0.28450000  1.0 0.128274237
H  H52  1  0.75230000  0.55340000  0.21550000  1.0 0.128274237
H  H53  1  0.80110000  0.74770000  0.96320000  1.0 0.128274237
H  H54  1  0.69890000  0.66210000  0.94660000  1.0 0.128274237
H  H55  1  0.28450000  0.83790000  0.53680000  1.0 0.128274237
H  H56  1  0.21550000  0.75230000  0.55340000  1.0 0.128274237
H  H57  1  0.96320000  0.80110000  0.74770000  1.0 0.128274237
H  H58  1  0.94660000  0.69890000  0.66210000  1.0 0.128274237
H  H59  1  0.53680000  0.28450000  0.83790000  1.0 0.128274237
H  H60  1  0.55340000  0.21550000  0.75230000  1.0 0.128274237
H  H61  1  0.55340000  0.83790000  0.80110000  1.0 0.128274237
H  H62  1  0.53680000  0.75230000  0.69890000  1.0 0.128274237
H  H63  1  0.94660000  0.74770000  0.28450000  1.0 0.128274237
H  H64  1  0.96320000  0.66210000  0.21550000  1.0 0.128274237
H  H65  1  0.66210000  0.21550000  0.96320000  1.0 0.128274237
H  H66  1  0.74770000  0.28450000  0.94660000  1.0 0.128274237
H  H67  1  0.75230000  0.69890000  0.53680000  1.0 0.128274237
H  H68  1  0.83790000  0.80110000  0.55340000  1.0 0.128274237
H  H69  1  0.28450000  0.94660000  0.74770000  1.0 0.128274237
H  H70  1  0.21550000  0.96320000  0.66210000  1.0 0.128274237
H  H71  1  0.80110000  0.55340000  0.83790000  1.0 0.128274237
H  H72  1  0.69890000  0.53680000  0.75230000  1.0 0.128274237
H  H73  1  0.25230000  0.03680000  0.19890000  1.0 0.128274237
H  H74  1  0.33790000  0.05340000  0.30110000  1.0 0.128274237
H  H75  1  0.16210000  0.46320000  0.71550000  1.0 0.128274237
H  H76  1  0.24770000  0.44660000  0.78450000  1.0 0.128274237
H  H77  1  0.19890000  0.25230000  0.03680000  1.0 0.128274237
H  H78  1  0.30110000  0.33790000  0.05340000  1.0 0.128274237
H  H79  1  0.71550000  0.16210000  0.46320000  1.0 0.128274237
H  H80  1  0.78450000  0.24770000  0.44660000  1.0 0.128274237
H  H81  1  0.03680000  0.19890000  0.25230000  1.0 0.128274237
H  H82  1  0.05340000  0.30110000  0.33790000  1.0 0.128274237
H  H83  1  0.46320000  0.71550000  0.16210000  1.0 0.128274237
H  H84  1  0.44660000  0.78450000  0.24770000  1.0 0.128274237
H  H85  1  0.44660000  0.16210000  0.19890000  1.0 0.128274237
H  H86  1  0.46320000  0.24770000  0.30110000  1.0 0.128274237
H  H87  1  0.05340000  0.25230000  0.71550000  1.0 0.128274237
H  H88  1  0.03680000  0.33790000  0.78450000  1.0 0.128274237
H  H89  1  0.33790000  0.78450000  0.03680000  1.0 0.128274237
H  H90  1  0.25230000  0.71550000  0.05340000  1.0 0.128274237
H  H91  1  0.24770000  0.30110000  0.46320000  1.0 0.128274237
H  H92  1  0.16210000  0.19890000  0.44660000  1.0 0.128274237
H  H93  1  0.71550000  0.05340000  0.25230000  1.0 0.128274237
H  H94  1  0.78450000  0.03680000  0.33790000  1.0 0.128274237
H  H95  1  0.19890000  0.44660000  0.16210000  1.0 0.128274237
H  H96  1  0.30110000  0.46320000  0.24770000  1.0 0.128274237
H  H97  1  0.85530000  0.23320000  0.81270000  1.0 0.128274237
H  H98  1  0.92050000  0.04260000  0.68730000  1.0 0.128274237
H  H99  1  0.57950000  0.26680000  0.12210000  1.0 0.128274237
H  H100  1  0.64470000  0.45740000  0.37790000  1.0 0.128274237
H  H101  1  0.81270000  0.85530000  0.23320000  1.0 0.128274237
H  H102  1  0.68730000  0.92050000  0.04260000  1.0 0.128274237
H  H103  1  0.12210000  0.57950000  0.26680000  1.0 0.128274237
H  H104  1  0.37790000  0.64470000  0.45740000  1.0 0.128274237
H  H105  1  0.23320000  0.81270000  0.85530000  1.0 0.128274237
H  H106  1  0.04260000  0.68730000  0.92050000  1.0 0.128274237
H  H107  1  0.26680000  0.12210000  0.57950000  1.0 0.128274237
H  H108  1  0.45740000  0.37790000  0.64470000  1.0 0.128274237
H  H109  1  0.45740000  0.57950000  0.81270000  1.0 0.128274237
H  H110  1  0.26680000  0.64470000  0.68730000  1.0 0.128274237
H  H111  1  0.04260000  0.85530000  0.12210000  1.0 0.128274237
H  H112  1  0.23320000  0.92050000  0.37790000  1.0 0.128274237
H  H113  1  0.92050000  0.37790000  0.23320000  1.0 0.128274237
H  H114  1  0.85530000  0.12210000  0.04260000  1.0 0.128274237
H  H115  1  0.64470000  0.68730000  0.26680000  1.0 0.128274237
H  H116  1  0.57950000  0.81270000  0.45740000  1.0 0.128274237
H  H117  1  0.12210000  0.04260000  0.85530000  1.0 0.128274237
H  H118  1  0.37790000  0.23320000  0.92050000  1.0 0.128274237
H  H119  1  0.81270000  0.45740000  0.57950000  1.0 0.128274237
H  H120  1  0.68730000  0.26680000  0.64470000  1.0 0.128274237
H  H121  1  0.14470000  0.76680000  0.18730000  1.0 0.128274237
H  H122  1  0.07950000  0.95740000  0.31270000  1.0 0.128274237
H  H123  1  0.42050000  0.73320000  0.87790000  1.0 0.128274237
H  H124  1  0.35530000  0.54260000  0.62210000  1.0 0.128274237
H  H125  1  0.18730000  0.14470000  0.76680000  1.0 0.128274237
H  H126  1  0.31270000  0.07950000  0.95740000  1.0 0.128274237
H  H127  1  0.87790000  0.42050000  0.73320000  1.0 0.128274237
H  H128  1  0.62210000  0.35530000  0.54260000  1.0 0.128274237
H  H129  1  0.76680000  0.18730000  0.14470000  1.0 0.128274237
H  H130  1  0.95740000  0.31270000  0.07950000  1.0 0.128274237
H  H131  1  0.73320000  0.87790000  0.42050000  1.0 0.128274237
H  H132  1  0.54260000  0.62210000  0.35530000  1.0 0.128274237
H  H133  1  0.54260000  0.42050000  0.18730000  1.0 0.128274237
H  H134  1  0.73320000  0.35530000  0.31270000  1.0 0.128274237
H  H135  1  0.95740000  0.14470000  0.87790000  1.0 0.128274237
H  H136  1  0.76680000  0.07950000  0.62210000  1.0 0.128274237
H  H137  1  0.07950000  0.62210000  0.76680000  1.0 0.128274237
H  H138  1  0.14470000  0.87790000  0.95740000  1.0 0.128274237
H  H139  1  0.35530000  0.31270000  0.73320000  1.0 0.128274237
H  H140  1  0.42050000  0.18730000  0.54260000  1.0 0.128274237
H  H141  1  0.87790000  0.95740000  0.14470000  1.0 0.128274237
H  H142  1  0.62210000  0.76680000  0.07950000  1.0 0.128274237
H  H143  1  0.18730000  0.54260000  0.42050000  1.0 0.128274237
H  H144  1  0.31270000  0.73320000  0.35530000  1.0 0.128274237
H  H145  1  0.72810000  0.14530000  0.87700000  1.0 0.1379456561
H  H146  1  0.76830000  0.85110000  0.62300000  1.0 0.1379456561
H  H147  1  0.73170000  0.35470000  0.08280000  1.0 0.1379456561
H  H148  1  0.77190000  0.64890000  0.41720000  1.0 0.1379456561
H  H149  1  0.87700000  0.72810000  0.14530000  1.0 0.1379456561
H  H150  1  0.62300000  0.76830000  0.85110000  1.0 0.1379456561
H  H151  1  0.08280000  0.73170000  0.35470000  1.0 0.1379456561
H  H152  1  0.41720000  0.77190000  0.64890000  1.0 0.1379456561
H  H153  1  0.14530000  0.87700000  0.72810000  1.0 0.1379456561
H  H154  1  0.85110000  0.62300000  0.76830000  1.0 0.1379456561
H  H155  1  0.35470000  0.08280000  0.73170000  1.0 0.1379456561
H  H156  1  0.64890000  0.41720000  0.77190000  1.0 0.1379456561
H  H157  1  0.64890000  0.73170000  0.87700000  1.0 0.1379456561
H  H158  1  0.35470000  0.77190000  0.62300000  1.0 0.1379456561
H  H159  1  0.85110000  0.72810000  0.08280000  1.0 0.1379456561
H  H160  1  0.14530000  0.76830000  0.41720000  1.0 0.1379456561
H  H161  1  0.76830000  0.41720000  0.14530000  1.0 0.1379456561
H  H162  1  0.72810000  0.08280000  0.85110000  1.0 0.1379456561
H  H163  1  0.77190000  0.62300000  0.35470000  1.0 0.1379456561
H  H164  1  0.73170000  0.87700000  0.64890000  1.0 0.1379456561
H  H165  1  0.08280000  0.85110000  0.72810000  1.0 0.1379456561
H  H166  1  0.41720000  0.14530000  0.76830000  1.0 0.1379456561
H  H167  1  0.87700000  0.64890000  0.73170000  1.0 0.1379456561
H  H168  1  0.62300000  0.35470000  0.77190000  1.0 0.1379456561
H  H169  1  0.27190000  0.85470000  0.12300000  1.0 0.1379456561
H  H170  1  0.23170000  0.14890000  0.37700000  1.0 0.1379456561
H  H171  1  0.26830000  0.64530000  0.91720000  1.0 0.1379456561
H  H172  1  0.22810000  0.35110000  0.58280000  1.0 0.1379456561
H  H173  1  0.12300000  0.27190000  0.85470000  1.0 0.1379456561
H  H174  1  0.37700000  0.23170000  0.14890000  1.0 0.1379456561
H  H175  1  0.91720000  0.26830000  0.64530000  1.0 0.1379456561
H  H176  1  0.58280000  0.22810000  0.35110000  1.0 0.1379456561
H  H177  1  0.85470000  0.12300000  0.27190000  1.0 0.1379456561
H  H178  1  0.14890000  0.37700000  0.23170000  1.0 0.1379456561
H  H179  1  0.64530000  0.91720000  0.26830000  1.0 0.1379456561
H  H180  1  0.35110000  0.58280000  0.22810000  1.0 0.1379456561
H  H181  1  0.35110000  0.26830000  0.12300000  1.0 0.1379456561
H  H182  1  0.64530000  0.22810000  0.37700000  1.0 0.1379456561
H  H183  1  0.14890000  0.27190000  0.91720000  1.0 0.1379456561
H  H184  1  0.85470000  0.23170000  0.58280000  1.0 0.1379456561
H  H185  1  0.23170000  0.58280000  0.85470000  1.0 0.1379456561
H  H186  1  0.27190000  0.91720000  0.14890000  1.0 0.1379456561
H  H187  1  0.22810000  0.37700000  0.64530000  1.0 0.1379456561
H  H188  1  0.26830000  0.12300000  0.35110000  1.0 0.1379456561
H  H189  1  0.91720000  0.14890000  0.27190000  1.0 0.1379456561
H  H190  1  0.58280000  0.85470000  0.23170000  1.0 0.1379456561
H  H191  1  0.12300000  0.35110000  0.26830000  1.0 0.1379456561
H  H192  1  0.37700000  0.64530000  0.22810000  1.0 0.1379456561
H  H193  1  0.90300000  0.00100000  0.79440000  1.0 0.128274237
H  H194  1  0.70660000  0.10860000  0.70560000  1.0 0.128274237
H  H195  1  0.79340000  0.49900000  0.40200000  1.0 0.128274237
H  H196  1  0.59700000  0.39140000  0.09800000  1.0 0.128274237
H  H197  1  0.79440000  0.90300000  0.00100000  1.0 0.128274237
H  H198  1  0.70560000  0.70660000  0.10860000  1.0 0.128274237
H  H199  1  0.40200000  0.79340000  0.49900000  1.0 0.128274237
H  H200  1  0.09800000  0.59700000  0.39140000  1.0 0.128274237
H  H201  1  0.00100000  0.79440000  0.90300000  1.0 0.128274237
H  H202  1  0.10860000  0.70560000  0.70660000  1.0 0.128274237
H  H203  1  0.49900000  0.40200000  0.79340000  1.0 0.128274237
H  H204  1  0.39140000  0.09800000  0.59700000  1.0 0.128274237
H  H205  1  0.39140000  0.79340000  0.79440000  1.0 0.128274237
H  H206  1  0.49900000  0.59700000  0.70560000  1.0 0.128274237
H  H207  1  0.10860000  0.90300000  0.40200000  1.0 0.128274237
H  H208  1  0.00100000  0.70660000  0.09800000  1.0 0.128274237
H  H209  1  0.70660000  0.09800000  0.00100000  1.0 0.128274237
H  H210  1  0.90300000  0.40200000  0.10860000  1.0 0.128274237
H  H211  1  0.59700000  0.70560000  0.49900000  1.0 0.128274237
H  H212  1  0.79340000  0.79440000  0.39140000  1.0 0.128274237
H  H213  1  0.40200000  0.10860000  0.90300000  1.0 0.128274237
H  H214  1  0.09800000  0.00100000  0.70660000  1.0 0.128274237
H  H215  1  0.79440000  0.39140000  0.79340000  1.0 0.128274237
H  H216  1  0.70560000  0.49900000  0.59700000  1.0 0.128274237
H  H217  1  0.09700000  0.99900000  0.20560000  1.0 0.128274237
H  H218  1  0.29340000  0.89140000  0.29440000  1.0 0.128274237
H  H219  1  0.20660000  0.50100000  0.59800000  1.0 0.128274237
H  H220  1  0.40300000  0.60860000  0.90200000  1.0 0.128274237
H  H221  1  0.20560000  0.09700000  0.99900000  1.0 0.128274237
H  H222  1  0.29440000  0.29340000  0.89140000  1.0 0.128274237
H  H223  1  0.59800000  0.20660000  0.50100000  1.0 0.128274237
H  H224  1  0.90200000  0.40300000  0.60860000  1.0 0.128274237
H  H225  1  0.99900000  0.20560000  0.09700000  1.0 0.128274237
H  H226  1  0.89140000  0.29440000  0.29340000  1.0 0.128274237
H  H227  1  0.50100000  0.59800000  0.20660000  1.0 0.128274237
H  H228  1  0.60860000  0.90200000  0.40300000  1.0 0.128274237
H  H229  1  0.60860000  0.20660000  0.20560000  1.0 0.128274237
H  H230  1  0.50100000  0.40300000  0.29440000  1.0 0.128274237
H  H231  1  0.89140000  0.09700000  0.59800000  1.0 0.128274237
H  H232  1  0.99900000  0.29340000  0.90200000  1.0 0.128274237
H  H233  1  0.29340000  0.90200000  0.99900000  1.0 0.128274237
H  H234  1  0.09700000  0.59800000  0.89140000  1.0 0.128274237
H  H235  1  0.40300000  0.29440000  0.50100000  1.0 0.128274237
H  H236  1  0.20660000  0.20560000  0.60860000  1.0 0.128274237
H  H237  1  0.59800000  0.89140000  0.09700000  1.0 0.128274237
H  H238  1  0.90200000  0.99900000  0.29340000  1.0 0.128274237
H  H239  1  0.20560000  0.60860000  0.20660000  1.0 0.128274237
H  H240  1  0.29440000  0.50100000  0.40300000  1.0 0.128274237
H  H241  1  0.88440000  0.90340000  0.77360000  1.0 0.1232825396
H  H242  1  0.62980000  0.11080000  0.72640000  1.0 0.1232825396
H  H243  1  0.87020000  0.59660000  0.48100000  1.0 0.1232825396
H  H244  1  0.61560000  0.38920000  0.01900000  1.0 0.1232825396
H  H245  1  0.77360000  0.88440000  0.90340000  1.0 0.1232825396
H  H246  1  0.72640000  0.62980000  0.11080000  1.0 0.1232825396
H  H247  1  0.48100000  0.87020000  0.59660000  1.0 0.1232825396
H  H248  1  0.01900000  0.61560000  0.38920000  1.0 0.1232825396
H  H249  1  0.90340000  0.77360000  0.88440000  1.0 0.1232825396
H  H250  1  0.11080000  0.72640000  0.62980000  1.0 0.1232825396
H  H251  1  0.59660000  0.48100000  0.87020000  1.0 0.1232825396
H  H252  1  0.38920000  0.01900000  0.61560000  1.0 0.1232825396
H  H253  1  0.38920000  0.87020000  0.77360000  1.0 0.1232825396
H  H254  1  0.59660000  0.61560000  0.72640000  1.0 0.1232825396
H  H255  1  0.11080000  0.88440000  0.48100000  1.0 0.1232825396
H  H256  1  0.90340000  0.62980000  0.01900000  1.0 0.1232825396
H  H257  1  0.62980000  0.01900000  0.90340000  1.0 0.1232825396
H  H258  1  0.88440000  0.48100000  0.11080000  1.0 0.1232825396
H  H259  1  0.61560000  0.72640000  0.59660000  1.0 0.1232825396
H  H260  1  0.87020000  0.77360000  0.38920000  1.0 0.1232825396
H  H261  1  0.48100000  0.11080000  0.88440000  1.0 0.1232825396
H  H262  1  0.01900000  0.90340000  0.62980000  1.0 0.1232825396
H  H263  1  0.77360000  0.38920000  0.87020000  1.0 0.1232825396
H  H264  1  0.72640000  0.59660000  0.61560000  1.0 0.1232825396
H  H265  1  0.11560000  0.09660000  0.22640000  1.0 0.1232825396
H  H266  1  0.37020000  0.88920000  0.27360000  1.0 0.1232825396
H  H267  1  0.12980000  0.40340000  0.51900000  1.0 0.1232825396
H  H268  1  0.38440000  0.61080000  0.98100000  1.0 0.1232825396
H  H269  1  0.22640000  0.11560000  0.09660000  1.0 0.1232825396
H  H270  1  0.27360000  0.37020000  0.88920000  1.0 0.1232825396
H  H271  1  0.51900000  0.12980000  0.40340000  1.0 0.1232825396
H  H272  1  0.98100000  0.38440000  0.61080000  1.0 0.1232825396
H  H273  1  0.09660000  0.22640000  0.11560000  1.0 0.1232825396
H  H274  1  0.88920000  0.27360000  0.37020000  1.0 0.1232825396
H  H275  1  0.40340000  0.51900000  0.12980000  1.0 0.1232825396
H  H276  1  0.61080000  0.98100000  0.38440000  1.0 0.1232825396
H  H277  1  0.61080000  0.12980000  0.22640000  1.0 0.1232825396
H  H278  1  0.40340000  0.38440000  0.27360000  1.0 0.1232825396
H  H279  1  0.88920000  0.11560000  0.51900000  1.0 0.1232825396
H  H280  1  0.09660000  0.37020000  0.98100000  1.0 0.1232825396
H  H281  1  0.37020000  0.98100000  0.09660000  1.0 0.1232825396
H  H282  1  0.11560000  0.51900000  0.88920000  1.0 0.1232825396
H  H283  1  0.38440000  0.27360000  0.40340000  1.0 0.1232825396
H  H284  1  0.12980000  0.22640000  0.61080000  1.0 0.1232825396
H  H285  1  0.51900000  0.88920000  0.11560000  1.0 0.1232825396
H  H286  1  0.98100000  0.09660000  0.37020000  1.0 0.1232825396
H  H287  1  0.22640000  0.61080000  0.12980000  1.0 0.1232825396
H  H288  1  0.27360000  0.40340000  0.38440000  1.0 0.1232825396
H  H289  1  0.79840000  0.83710000  0.76750000  1.0 0.1083196429
H  H290  1  0.56960000  0.03090000  0.73250000  1.0 0.1083196429
H  H291  1  0.93040000  0.66290000  0.46130000  1.0 0.1083196429
H  H292  1  0.70160000  0.46910000  0.03870000  1.0 0.1083196429
H  H293  1  0.76750000  0.79840000  0.83710000  1.0 0.1083196429
H  H294  1  0.73250000  0.56960000  0.03090000  1.0 0.1083196429
H  H295  1  0.46130000  0.93040000  0.66290000  1.0 0.1083196429
H  H296  1  0.03870000  0.70160000  0.46910000  1.0 0.1083196429
H  H297  1  0.83710000  0.76750000  0.79840000  1.0 0.1083196429
H  H298  1  0.03090000  0.73250000  0.56960000  1.0 0.1083196429
H  H299  1  0.66290000  0.46130000  0.93040000  1.0 0.1083196429
H  H300  1  0.46910000  0.03870000  0.70160000  1.0 0.1083196429
H  H301  1  0.46910000  0.93040000  0.76750000  1.0 0.1083196429
H  H302  1  0.66290000  0.70160000  0.73250000  1.0 0.1083196429
H  H303  1  0.03090000  0.79840000  0.46130000  1.0 0.1083196429
H  H304  1  0.83710000  0.56960000  0.03870000  1.0 0.1083196429
H  H305  1  0.56960000  0.03870000  0.83710000  1.0 0.1083196429
H  H306  1  0.79840000  0.46130000  0.03090000  1.0 0.1083196429
H  H307  1  0.70160000  0.73250000  0.66290000  1.0 0.1083196429
H  H308  1  0.93040000  0.76750000  0.46910000  1.0 0.1083196429
H  H309  1  0.46130000  0.03090000  0.79840000  1.0 0.1083196429
H  H310  1  0.03870000  0.83710000  0.56960000  1.0 0.1083196429
H  H311  1  0.76750000  0.46910000  0.93040000  1.0 0.1083196429
H  H312  1  0.73250000  0.66290000  0.70160000  1.0 0.1083196429
H  H313  1  0.20160000  0.16290000  0.23250000  1.0 0.1083196429
H  H314  1  0.43040000  0.96910000  0.26750000  1.0 0.1083196429
H  H315  1  0.06960000  0.33710000  0.53870000  1.0 0.1083196429
H  H316  1  0.29840000  0.53090000  0.96130000  1.0 0.1083196429
H  H317  1  0.23250000  0.20160000  0.16290000  1.0 0.1083196429
H  H318  1  0.26750000  0.43040000  0.96910000  1.0 0.1083196429
H  H319  1  0.53870000  0.06960000  0.33710000  1.0 0.1083196429
H  H320  1  0.96130000  0.29840000  0.53090000  1.0 0.1083196429
H  H321  1  0.16290000  0.23250000  0.20160000  1.0 0.1083196429
H  H322  1  0.96910000  0.26750000  0.43040000  1.0 0.1083196429
H  H323  1  0.33710000  0.53870000  0.06960000  1.0 0.1083196429
H  H324  1  0.53090000  0.96130000  0.29840000  1.0 0.1083196429
H  H325  1  0.53090000  0.06960000  0.23250000  1.0 0.1083196429
H  H326  1  0.33710000  0.29840000  0.26750000  1.0 0.1083196429
H  H327  1  0.96910000  0.20160000  0.53870000  1.0 0.1083196429
H  H328  1  0.16290000  0.43040000  0.96130000  1.0 0.1083196429
H  H329  1  0.43040000  0.96130000  0.16290000  1.0 0.1083196429
H  H330  1  0.20160000  0.53870000  0.96910000  1.0 0.1083196429
H  H331  1  0.29840000  0.26750000  0.33710000  1.0 0.1083196429
H  H332  1  0.06960000  0.23250000  0.53090000  1.0 0.1083196429
H  H333  1  0.53870000  0.96910000  0.20160000  1.0 0.1083196429
H  H334  1  0.96130000  0.16290000  0.43040000  1.0 0.1083196429
H  H335  1  0.23250000  0.53090000  0.06960000  1.0 0.1083196429
H  H336  1  0.26750000  0.33710000  0.29840000  1.0 0.1083196429
H  H337  1  0.73140000  0.86710000  0.78210000  1.0 0.128274237
H  H338  1  0.58500000  0.94930000  0.71790000  1.0 0.128274237
H  H339  1  0.91500000  0.63290000  0.36430000  1.0 0.128274237
H  H340  1  0.76860000  0.55070000  0.13570000  1.0 0.128274237
H  H341  1  0.78210000  0.73140000  0.86710000  1.0 0.128274237
H  H342  1  0.71790000  0.58500000  0.94930000  1.0 0.128274237
H  H343  1  0.36430000  0.91500000  0.63290000  1.0 0.128274237
H  H344  1  0.13570000  0.76860000  0.55070000  1.0 0.128274237
H  H345  1  0.86710000  0.78210000  0.73140000  1.0 0.128274237
H  H346  1  0.94930000  0.71790000  0.58500000  1.0 0.128274237
H  H347  1  0.63290000  0.36430000  0.91500000  1.0 0.128274237
H  H348  1  0.55070000  0.13570000  0.76860000  1.0 0.128274237
H  H349  1  0.55070000  0.91500000  0.78210000  1.0 0.128274237
H  H350  1  0.63290000  0.76860000  0.71790000  1.0 0.128274237
H  H351  1  0.94930000  0.73140000  0.36430000  1.0 0.128274237
H  H352  1  0.86710000  0.58500000  0.13570000  1.0 0.128274237
H  H353  1  0.58500000  0.13570000  0.86710000  1.0 0.128274237
H  H354  1  0.73140000  0.36430000  0.94930000  1.0 0.128274237
H  H355  1  0.76860000  0.71790000  0.63290000  1.0 0.128274237
H  H356  1  0.91500000  0.78210000  0.55070000  1.0 0.128274237
H  H357  1  0.36430000  0.94930000  0.73140000  1.0 0.128274237
H  H358  1  0.13570000  0.86710000  0.58500000  1.0 0.128274237
H  H359  1  0.78210000  0.55070000  0.91500000  1.0 0.128274237
H  H360  1  0.71790000  0.63290000  0.76860000  1.0 0.128274237
H  H361  1  0.26860000  0.13290000  0.21790000  1.0 0.128274237
H  H362  1  0.41500000  0.05070000  0.28210000  1.0 0.128274237
H  H363  1  0.08500000  0.36710000  0.63570000  1.0 0.128274237
H  H364  1  0.23140000  0.44930000  0.86430000  1.0 0.128274237
H  H365  1  0.21790000  0.26860000  0.13290000  1.0 0.128274237
H  H366  1  0.28210000  0.41500000  0.05070000  1.0 0.128274237
H  H367  1  0.63570000  0.08500000  0.36710000  1.0 0.128274237
H  H368  1  0.86430000  0.23140000  0.44930000  1.0 0.128274237
H  H369  1  0.13290000  0.21790000  0.26860000  1.0 0.128274237
H  H370  1  0.05070000  0.28210000  0.41500000  1.0 0.128274237
H  H371  1  0.36710000  0.63570000  0.08500000  1.0 0.128274237
H  H372  1  0.44930000  0.86430000  0.23140000  1.0 0.128274237
H  H373  1  0.44930000  0.08500000  0.21790000  1.0 0.128274237
H  H374  1  0.36710000  0.23140000  0.28210000  1.0 0.128274237
H  H375  1  0.05070000  0.26860000  0.63570000  1.0 0.128274237
H  H376  1  0.13290000  0.41500000  0.86430000  1.0 0.128274237
H  H377  1  0.41500000  0.86430000  0.13290000  1.0 0.128274237
H  H378  1  0.26860000  0.63570000  0.05070000  1.0 0.128274237
H  H379  1  0.23140000  0.28210000  0.36710000  1.0 0.128274237
H  H380  1  0.08500000  0.21790000  0.44930000  1.0 0.128274237
H  H381  1  0.63570000  0.05070000  0.26860000  1.0 0.128274237
H  H382  1  0.86430000  0.13290000  0.41500000  1.0 0.128274237
H  H383  1  0.21790000  0.44930000  0.08500000  1.0 0.128274237
H  H384  1  0.28210000  0.36710000  0.23140000  1.0 0.128274237
C  C1  1  0.80586000  0.20174000  0.84956000  1.0 -0.0726271822
C  C2  1  0.85218000  0.95630000  0.65044000  1.0 -0.0726271822
C  C3  1  0.64782000  0.29826000  0.10412000  1.0 -0.0726271822
C  C4  1  0.69414000  0.54370000  0.39588000  1.0 -0.0726271822
C  C5  1  0.84956000  0.80586000  0.20174000  1.0 -0.0726271822
C  C6  1  0.65044000  0.85218000  0.95630000  1.0 -0.0726271822
C  C7  1  0.10412000  0.64782000  0.29826000  1.0 -0.0726271822
C  C8  1  0.39588000  0.69414000  0.54370000  1.0 -0.0726271822
C  C9  1  0.20174000  0.84956000  0.80586000  1.0 -0.0726271822
C  C10  1  0.95630000  0.65044000  0.85218000  1.0 -0.0726271822
C  C11  1  0.29826000  0.10412000  0.64782000  1.0 -0.0726271822
C  C12  1  0.54370000  0.39588000  0.69414000  1.0 -0.0726271822
C  C13  1  0.54370000  0.64782000  0.84956000  1.0 -0.0726271822
C  C14  1  0.29826000  0.69414000  0.65044000  1.0 -0.0726271822
C  C15  1  0.95630000  0.80586000  0.10412000  1.0 -0.0726271822
C  C16  1  0.20174000  0.85218000  0.39588000  1.0 -0.0726271822
C  C17  1  0.85218000  0.39588000  0.20174000  1.0 -0.0726271822
C  C18  1  0.80586000  0.10412000  0.95630000  1.0 -0.0726271822
C  C19  1  0.69414000  0.65044000  0.29826000  1.0 -0.0726271822
C  C20  1  0.64782000  0.84956000  0.54370000  1.0 -0.0726271822
C  C21  1  0.10412000  0.95630000  0.80586000  1.0 -0.0726271822
C  C22  1  0.39588000  0.20174000  0.85218000  1.0 -0.0726271822
C  C23  1  0.84956000  0.54370000  0.64782000  1.0 -0.0726271822
C  C24  1  0.65044000  0.29826000  0.69414000  1.0 -0.0726271822
C  C25  1  0.19414000  0.79826000  0.15044000  1.0 -0.0726271822
C  C26  1  0.14782000  0.04370000  0.34956000  1.0 -0.0726271822
C  C27  1  0.35218000  0.70174000  0.89588000  1.0 -0.0726271822
C  C28  1  0.30586000  0.45630000  0.60412000  1.0 -0.0726271822
C  C29  1  0.15044000  0.19414000  0.79826000  1.0 -0.0726271822
C  C30  1  0.34956000  0.14782000  0.04370000  1.0 -0.0726271822
C  C31  1  0.89588000  0.35218000  0.70174000  1.0 -0.0726271822
C  C32  1  0.60412000  0.30586000  0.45630000  1.0 -0.0726271822
C  C33  1  0.79826000  0.15044000  0.19414000  1.0 -0.0726271822
C  C34  1  0.04370000  0.34956000  0.14782000  1.0 -0.0726271822
C  C35  1  0.70174000  0.89588000  0.35218000  1.0 -0.0726271822
C  C36  1  0.45630000  0.60412000  0.30586000  1.0 -0.0726271822
C  C37  1  0.45630000  0.35218000  0.15044000  1.0 -0.0726271822
C  C38  1  0.70174000  0.30586000  0.34956000  1.0 -0.0726271822
C  C39  1  0.04370000  0.19414000  0.89588000  1.0 -0.0726271822
C  C40  1  0.79826000  0.14782000  0.60412000  1.0 -0.0726271822
C  C41  1  0.14782000  0.60412000  0.79826000  1.0 -0.0726271822
C  C42  1  0.19414000  0.89588000  0.04370000  1.0 -0.0726271822
C  C43  1  0.30586000  0.34956000  0.70174000  1.0 -0.0726271822
C  C44  1  0.35218000  0.15044000  0.45630000  1.0 -0.0726271822
C  C45  1  0.89588000  0.04370000  0.19414000  1.0 -0.0726271822
C  C46  1  0.60412000  0.79826000  0.14782000  1.0 -0.0726271822
C  C47  1  0.15044000  0.45630000  0.35218000  1.0 -0.0726271822
C  C48  1  0.34956000  0.70174000  0.30586000  1.0 -0.0726271822
C  C49  1  0.82743000  0.99108000  0.79993000  1.0 0.1573372511
C  C50  1  0.69115000  0.02750000  0.70007000  1.0 0.1573372511
C  C51  1  0.80885000  0.50892000  0.33635000  1.0 0.1573372511
C  C52  1  0.67257000  0.47250000  0.16365000  1.0 0.1573372511
C  C53  1  0.79993000  0.82743000  0.99108000  1.0 0.1573372511
C  C54  1  0.70007000  0.69115000  0.02750000  1.0 0.1573372511
C  C55  1  0.33635000  0.80885000  0.50892000  1.0 0.1573372511
C  C56  1  0.16365000  0.67257000  0.47250000  1.0 0.1573372511
C  C57  1  0.99108000  0.79993000  0.82743000  1.0 0.1573372511
C  C58  1  0.02750000  0.70007000  0.69115000  1.0 0.1573372511
C  C59  1  0.50892000  0.33635000  0.80885000  1.0 0.1573372511
C  C60  1  0.47250000  0.16365000  0.67257000  1.0 0.1573372511
C  C61  1  0.47250000  0.80885000  0.79993000  1.0 0.1573372511
C  C62  1  0.50892000  0.67257000  0.70007000  1.0 0.1573372511
C  C63  1  0.02750000  0.82743000  0.33635000  1.0 0.1573372511
C  C64  1  0.99108000  0.69115000  0.16365000  1.0 0.1573372511
C  C65  1  0.69115000  0.16365000  0.99108000  1.0 0.1573372511
C  C66  1  0.82743000  0.33635000  0.02750000  1.0 0.1573372511
C  C67  1  0.67257000  0.70007000  0.50892000  1.0 0.1573372511
C  C68  1  0.80885000  0.79993000  0.47250000  1.0 0.1573372511
C  C69  1  0.33635000  0.02750000  0.82743000  1.0 0.1573372511
C  C70  1  0.16365000  0.99108000  0.69115000  1.0 0.1573372511
C  C71  1  0.79993000  0.47250000  0.80885000  1.0 0.1573372511
C  C72  1  0.70007000  0.50892000  0.67257000  1.0 0.1573372511
C  C73  1  0.17257000  0.00892000  0.20007000  1.0 0.1573372511
C  C74  1  0.30885000  0.97250000  0.29993000  1.0 0.1573372511
C  C75  1  0.19115000  0.49108000  0.66365000  1.0 0.1573372511
C  C76  1  0.32743000  0.52750000  0.83635000  1.0 0.1573372511
C  C77  1  0.20007000  0.17257000  0.00892000  1.0 0.1573372511
C  C78  1  0.29993000  0.30885000  0.97250000  1.0 0.1573372511
C  C79  1  0.66365000  0.19115000  0.49108000  1.0 0.1573372511
C  C80  1  0.83635000  0.32743000  0.52750000  1.0 0.1573372511
C  C81  1  0.00892000  0.20007000  0.17257000  1.0 0.1573372511
C  C82  1  0.97250000  0.29993000  0.30885000  1.0 0.1573372511
C  C83  1  0.49108000  0.66365000  0.19115000  1.0 0.1573372511
C  C84  1  0.52750000  0.83635000  0.32743000  1.0 0.1573372511
C  C85  1  0.52750000  0.19115000  0.20007000  1.0 0.1573372511
C  C86  1  0.49108000  0.32743000  0.29993000  1.0 0.1573372511
C  C87  1  0.97250000  0.17257000  0.66365000  1.0 0.1573372511
C  C88  1  0.00892000  0.30885000  0.83635000  1.0 0.1573372511
C  C89  1  0.30885000  0.83635000  0.00892000  1.0 0.1573372511
C  C90  1  0.17257000  0.66365000  0.97250000  1.0 0.1573372511
C  C91  1  0.32743000  0.29993000  0.49108000  1.0 0.1573372511
C  C92  1  0.19115000  0.20007000  0.52750000  1.0 0.1573372511
C  C93  1  0.66365000  0.97250000  0.17257000  1.0 0.1573372511
C  C94  1  0.83635000  0.00892000  0.30885000  1.0 0.1573372511
C  C95  1  0.20007000  0.52750000  0.19115000  1.0 0.1573372511
C  C96  1  0.29993000  0.49108000  0.32743000  1.0 0.1573372511
C  C97  1  0.77567000  0.95124000  0.79591000  1.0 -0.1326028454
C  C98  1  0.65533000  0.97976000  0.70409000  1.0 -0.1326028454
C  C99  1  0.84467000  0.54876000  0.32443000  1.0 -0.1326028454
C  C100  1  0.72433000  0.52024000  0.17557000  1.0 -0.1326028454
C  C101  1  0.79591000  0.77567000  0.95124000  1.0 -0.1326028454
C  C102  1  0.70409000  0.65533000  0.97976000  1.0 -0.1326028454
C  C103  1  0.32443000  0.84467000  0.54876000  1.0 -0.1326028454
C  C104  1  0.17557000  0.72433000  0.52024000  1.0 -0.1326028454
C  C105  1  0.95124000  0.79591000  0.77567000  1.0 -0.1326028454
C  C106  1  0.97976000  0.70409000  0.65533000  1.0 -0.1326028454
C  C107  1  0.54876000  0.32443000  0.84467000  1.0 -0.1326028454
C  C108  1  0.52024000  0.17557000  0.72433000  1.0 -0.1326028454
C  C109  1  0.52024000  0.84467000  0.79591000  1.0 -0.1326028454
C  C110  1  0.54876000  0.72433000  0.70409000  1.0 -0.1326028454
C  C111  1  0.97976000  0.77567000  0.32443000  1.0 -0.1326028454
C  C112  1  0.95124000  0.65533000  0.17557000  1.0 -0.1326028454
C  C113  1  0.65533000  0.17557000  0.95124000  1.0 -0.1326028454
C  C114  1  0.77567000  0.32443000  0.97976000  1.0 -0.1326028454
C  C115  1  0.72433000  0.70409000  0.54876000  1.0 -0.1326028454
C  C116  1  0.84467000  0.79591000  0.52024000  1.0 -0.1326028454
C  C117  1  0.32443000  0.97976000  0.77567000  1.0 -0.1326028454
C  C118  1  0.17557000  0.95124000  0.65533000  1.0 -0.1326028454
C  C119  1  0.79591000  0.52024000  0.84467000  1.0 -0.1326028454
C  C120  1  0.70409000  0.54876000  0.72433000  1.0 -0.1326028454
C  C121  1  0.22433000  0.04876000  0.20409000  1.0 -0.1326028454
C  C122  1  0.34467000  0.02024000  0.29591000  1.0 -0.1326028454
C  C123  1  0.15533000  0.45124000  0.67557000  1.0 -0.1326028454
C  C124  1  0.27567000  0.47976000  0.82443000  1.0 -0.1326028454
C  C125  1  0.20409000  0.22433000  0.04876000  1.0 -0.1326028454
C  C126  1  0.29591000  0.34467000  0.02024000  1.0 -0.1326028454
C  C127  1  0.67557000  0.15533000  0.45124000  1.0 -0.1326028454
C  C128  1  0.82443000  0.27567000  0.47976000  1.0 -0.1326028454
C  C129  1  0.04876000  0.20409000  0.22433000  1.0 -0.1326028454
C  C130  1  0.02024000  0.29591000  0.34467000  1.0 -0.1326028454
C  C131  1  0.45124000  0.67557000  0.15533000  1.0 -0.1326028454
C  C132  1  0.47976000  0.82443000  0.27567000  1.0 -0.1326028454
C  C133  1  0.47976000  0.15533000  0.20409000  1.0 -0.1326028454
C  C134  1  0.45124000  0.27567000  0.29591000  1.0 -0.1326028454
C  C135  1  0.02024000  0.22433000  0.67557000  1.0 -0.1326028454
C  C136  1  0.04876000  0.34467000  0.82443000  1.0 -0.1326028454
C  C137  1  0.34467000  0.82443000  0.04876000  1.0 -0.1326028454
C  C138  1  0.22433000  0.67557000  0.02024000  1.0 -0.1326028454
C  C139  1  0.27567000  0.29591000  0.45124000  1.0 -0.1326028454
C  C140  1  0.15533000  0.20409000  0.47976000  1.0 -0.1326028454
C  C141  1  0.67557000  0.02024000  0.22433000  1.0 -0.1326028454
C  C142  1  0.82443000  0.04876000  0.34467000  1.0 -0.1326028454
C  C143  1  0.20409000  0.47976000  0.15533000  1.0 -0.1326028454
C  C144  1  0.29591000  0.45124000  0.27567000  1.0 -0.1326028454
C  C145  1  0.83921000  0.20261000  0.82170000  1.0 -0.0159658935
C  C146  1  0.88091000  0.01751000  0.67830000  1.0 -0.0159658935
C  C147  1  0.61909000  0.29739000  0.13660000  1.0 -0.0159658935
C  C148  1  0.66079000  0.48249000  0.36340000  1.0 -0.0159658935
C  C149  1  0.82170000  0.83921000  0.20261000  1.0 -0.0159658935
C  C150  1  0.67830000  0.88091000  0.01751000  1.0 -0.0159658935
C  C151  1  0.13660000  0.61909000  0.29739000  1.0 -0.0159658935
C  C152  1  0.36340000  0.66079000  0.48249000  1.0 -0.0159658935
C  C153  1  0.20261000  0.82170000  0.83921000  1.0 -0.0159658935
C  C154  1  0.01751000  0.67830000  0.88091000  1.0 -0.0159658935
C  C155  1  0.29739000  0.13660000  0.61909000  1.0 -0.0159658935
C  C156  1  0.48249000  0.36340000  0.66079000  1.0 -0.0159658935
C  C157  1  0.48249000  0.61909000  0.82170000  1.0 -0.0159658935
C  C158  1  0.29739000  0.66079000  0.67830000  1.0 -0.0159658935
C  C159  1  0.01751000  0.83921000  0.13660000  1.0 -0.0159658935
C  C160  1  0.20261000  0.88091000  0.36340000  1.0 -0.0159658935
C  C161  1  0.88091000  0.36340000  0.20261000  1.0 -0.0159658935
C  C162  1  0.83921000  0.13660000  0.01751000  1.0 -0.0159658935
C  C163  1  0.66079000  0.67830000  0.29739000  1.0 -0.0159658935
C  C164  1  0.61909000  0.82170000  0.48249000  1.0 -0.0159658935
C  C165  1  0.13660000  0.01751000  0.83921000  1.0 -0.0159658935
C  C166  1  0.36340000  0.20261000  0.88091000  1.0 -0.0159658935
C  C167  1  0.82170000  0.48249000  0.61909000  1.0 -0.0159658935
C  C168  1  0.67830000  0.29739000  0.66079000  1.0 -0.0159658935
C  C169  1  0.16079000  0.79739000  0.17830000  1.0 -0.0159658935
C  C170  1  0.11909000  0.98249000  0.32170000  1.0 -0.0159658935
C  C171  1  0.38091000  0.70261000  0.86340000  1.0 -0.0159658935
C  C172  1  0.33921000  0.51751000  0.63660000  1.0 -0.0159658935
C  C173  1  0.17830000  0.16079000  0.79739000  1.0 -0.0159658935
C  C174  1  0.32170000  0.11909000  0.98249000  1.0 -0.0159658935
C  C175  1  0.86340000  0.38091000  0.70261000  1.0 -0.0159658935
C  C176  1  0.63660000  0.33921000  0.51751000  1.0 -0.0159658935
C  C177  1  0.79739000  0.17830000  0.16079000  1.0 -0.0159658935
C  C178  1  0.98249000  0.32170000  0.11909000  1.0 -0.0159658935
C  C179  1  0.70261000  0.86340000  0.38091000  1.0 -0.0159658935
C  C180  1  0.51751000  0.63660000  0.33921000  1.0 -0.0159658935
C  C181  1  0.51751000  0.38091000  0.17830000  1.0 -0.0159658935
C  C182  1  0.70261000  0.33921000  0.32170000  1.0 -0.0159658935
C  C183  1  0.98249000  0.16079000  0.86340000  1.0 -0.0159658935
C  C184  1  0.79739000  0.11909000  0.63660000  1.0 -0.0159658935
C  C185  1  0.11909000  0.63660000  0.79739000  1.0 -0.0159658935
C  C186  1  0.16079000  0.86340000  0.98249000  1.0 -0.0159658935
C  C187  1  0.33921000  0.32170000  0.70261000  1.0 -0.0159658935
C  C188  1  0.38091000  0.17830000  0.51751000  1.0 -0.0159658935
C  C189  1  0.86340000  0.98249000  0.16079000  1.0 -0.0159658935
C  C190  1  0.63660000  0.79739000  0.11909000  1.0 -0.0159658935
C  C191  1  0.17830000  0.51751000  0.38091000  1.0 -0.0159658935
C  C192  1  0.32170000  0.70261000  0.33921000  1.0 -0.0159658935
C  C193  1  0.81743000  0.12217000  0.82852000  1.0 0.3164389868
C  C194  1  0.79365000  0.98891000  0.67148000  1.0 0.3164389868
C  C195  1  0.70635000  0.37783000  0.19526000  1.0 0.3164389868
C  C196  1  0.68257000  0.51109000  0.30474000  1.0 0.3164389868
C  C197  1  0.82852000  0.81743000  0.12217000  1.0 0.3164389868
C  C198  1  0.67148000  0.79365000  0.98891000  1.0 0.3164389868
C  C199  1  0.19526000  0.70635000  0.37783000  1.0 0.3164389868
C  C200  1  0.30474000  0.68257000  0.51109000  1.0 0.3164389868
C  C201  1  0.12217000  0.82852000  0.81743000  1.0 0.3164389868
C  C202  1  0.98891000  0.67148000  0.79365000  1.0 0.3164389868
C  C203  1  0.37783000  0.19526000  0.70635000  1.0 0.3164389868
C  C204  1  0.51109000  0.30474000  0.68257000  1.0 0.3164389868
C  C205  1  0.51109000  0.70635000  0.82852000  1.0 0.3164389868
C  C206  1  0.37783000  0.68257000  0.67148000  1.0 0.3164389868
C  C207  1  0.98891000  0.81743000  0.19526000  1.0 0.3164389868
C  C208  1  0.12217000  0.79365000  0.30474000  1.0 0.3164389868
C  C209  1  0.79365000  0.30474000  0.12217000  1.0 0.3164389868
C  C210  1  0.81743000  0.19526000  0.98891000  1.0 0.3164389868
C  C211  1  0.68257000  0.67148000  0.37783000  1.0 0.3164389868
C  C212  1  0.70635000  0.82852000  0.51109000  1.0 0.3164389868
C  C213  1  0.19526000  0.98891000  0.81743000  1.0 0.3164389868
C  C214  1  0.30474000  0.12217000  0.79365000  1.0 0.3164389868
C  C215  1  0.82852000  0.51109000  0.70635000  1.0 0.3164389868
C  C216  1  0.67148000  0.37783000  0.68257000  1.0 0.3164389868
C  C217  1  0.18257000  0.87783000  0.17148000  1.0 0.3164389868
C  C218  1  0.20635000  0.01109000  0.32852000  1.0 0.3164389868
C  C219  1  0.29365000  0.62217000  0.80474000  1.0 0.3164389868
C  C220  1  0.31743000  0.48891000  0.69526000  1.0 0.3164389868
C  C221  1  0.17148000  0.18257000  0.87783000  1.0 0.3164389868
C  C222  1  0.32852000  0.20635000  0.01109000  1.0 0.3164389868
C  C223  1  0.80474000  0.29365000  0.62217000  1.0 0.3164389868
C  C224  1  0.69526000  0.31743000  0.48891000  1.0 0.3164389868
C  C225  1  0.87783000  0.17148000  0.18257000  1.0 0.3164389868
C  C226  1  0.01109000  0.32852000  0.20635000  1.0 0.3164389868
C  C227  1  0.62217000  0.80474000  0.29365000  1.0 0.3164389868
C  C228  1  0.48891000  0.69526000  0.31743000  1.0 0.3164389868
C  C229  1  0.48891000  0.29365000  0.17148000  1.0 0.3164389868
C  C230  1  0.62217000  0.31743000  0.32852000  1.0 0.3164389868
C  C231  1  0.01109000  0.18257000  0.80474000  1.0 0.3164389868
C  C232  1  0.87783000  0.20635000  0.69526000  1.0 0.3164389868
C  C233  1  0.20635000  0.69526000  0.87783000  1.0 0.3164389868
C  C234  1  0.18257000  0.80474000  0.01109000  1.0 0.3164389868
C  C235  1  0.31743000  0.32852000  0.62217000  1.0 0.3164389868
C  C236  1  0.29365000  0.17148000  0.48891000  1.0 0.3164389868
C  C237  1  0.80474000  0.01109000  0.18257000  1.0 0.3164389868
C  C238  1  0.69526000  0.87783000  0.20635000  1.0 0.3164389868
C  C239  1  0.17148000  0.48891000  0.29365000  1.0 0.3164389868
C  C240  1  0.32852000  0.62217000  0.31743000  1.0 0.3164389868
C  C241  1  0.75440000  0.12720000  0.87720000  1.0 0.0154049651
C  C242  1  0.75000000  0.87720000  0.62280000  1.0 0.0154049651
C  C243  1  0.75000000  0.37280000  0.12720000  1.0 0.0154049651
C  C244  1  0.74560000  0.62280000  0.37280000  1.0 0.0154049651
C  C245  1  0.87720000  0.75440000  0.12720000  1.0 0.0154049651
C  C246  1  0.62280000  0.75000000  0.87720000  1.0 0.0154049651
C  C247  1  0.12720000  0.75000000  0.37280000  1.0 0.0154049651
C  C248  1  0.37280000  0.74560000  0.62280000  1.0 0.0154049651
C  C249  1  0.12720000  0.87720000  0.75440000  1.0 0.0154049651
C  C250  1  0.87720000  0.62280000  0.75000000  1.0 0.0154049651
C  C251  1  0.37280000  0.12720000  0.75000000  1.0 0.0154049651
C  C252  1  0.62280000  0.37280000  0.74560000  1.0 0.0154049651
C  C253  1  0.24560000  0.87280000  0.12280000  1.0 0.0154049651
C  C254  1  0.25000000  0.12280000  0.37720000  1.0 0.0154049651
C  C255  1  0.25000000  0.62720000  0.87280000  1.0 0.0154049651
C  C256  1  0.25440000  0.37720000  0.62720000  1.0 0.0154049651
C  C257  1  0.12280000  0.24560000  0.87280000  1.0 0.0154049651
C  C258  1  0.37720000  0.25000000  0.12280000  1.0 0.0154049651
C  C259  1  0.87280000  0.25000000  0.62720000  1.0 0.0154049651
C  C260  1  0.62720000  0.25440000  0.37720000  1.0 0.0154049651
C  C261  1  0.87280000  0.12280000  0.24560000  1.0 0.0154049651
C  C262  1  0.12280000  0.37720000  0.25000000  1.0 0.0154049651
C  C263  1  0.62720000  0.87280000  0.25000000  1.0 0.0154049651
C  C264  1  0.37720000  0.62720000  0.25440000  1.0 0.0154049651
C  C265  1  0.86808000  0.97373000  0.79175000  1.0 -0.1490298622
C  C266  1  0.68198000  0.07633000  0.70825000  1.0 -0.1490298622
C  C267  1  0.81802000  0.52627000  0.39435000  1.0 -0.1490298622
C  C268  1  0.63192000  0.42367000  0.10565000  1.0 -0.1490298622
C  C269  1  0.79175000  0.86808000  0.97373000  1.0 -0.1490298622
C  C270  1  0.70825000  0.68198000  0.07633000  1.0 -0.1490298622
C  C271  1  0.39435000  0.81802000  0.52627000  1.0 -0.1490298622
C  C272  1  0.10565000  0.63192000  0.42367000  1.0 -0.1490298622
C  C273  1  0.97373000  0.79175000  0.86808000  1.0 -0.1490298622
C  C274  1  0.07633000  0.70825000  0.68198000  1.0 -0.1490298622
C  C275  1  0.52627000  0.39435000  0.81802000  1.0 -0.1490298622
C  C276  1  0.42367000  0.10565000  0.63192000  1.0 -0.1490298622
C  C277  1  0.42367000  0.81802000  0.79175000  1.0 -0.1490298622
C  C278  1  0.52627000  0.63192000  0.70825000  1.0 -0.1490298622
C  C279  1  0.07633000  0.86808000  0.39435000  1.0 -0.1490298622
C  C280  1  0.97373000  0.68198000  0.10565000  1.0 -0.1490298622
C  C281  1  0.68198000  0.10565000  0.97373000  1.0 -0.1490298622
C  C282  1  0.86808000  0.39435000  0.07633000  1.0 -0.1490298622
C  C283  1  0.63192000  0.70825000  0.52627000  1.0 -0.1490298622
C  C284  1  0.81802000  0.79175000  0.42367000  1.0 -0.1490298622
C  C285  1  0.39435000  0.07633000  0.86808000  1.0 -0.1490298622
C  C286  1  0.10565000  0.97373000  0.68198000  1.0 -0.1490298622
C  C287  1  0.79175000  0.42367000  0.81802000  1.0 -0.1490298622
C  C288  1  0.70825000  0.52627000  0.63192000  1.0 -0.1490298622
C  C289  1  0.13192000  0.02627000  0.20825000  1.0 -0.1490298622
C  C290  1  0.31802000  0.92367000  0.29175000  1.0 -0.1490298622
C  C291  1  0.18198000  0.47373000  0.60565000  1.0 -0.1490298622
C  C292  1  0.36808000  0.57633000  0.89435000  1.0 -0.1490298622
C  C293  1  0.20825000  0.13192000  0.02627000  1.0 -0.1490298622
C  C294  1  0.29175000  0.31802000  0.92367000  1.0 -0.1490298622
C  C295  1  0.60565000  0.18198000  0.47373000  1.0 -0.1490298622
C  C296  1  0.89435000  0.36808000  0.57633000  1.0 -0.1490298622
C  C297  1  0.02627000  0.20825000  0.13192000  1.0 -0.1490298622
C  C298  1  0.92367000  0.29175000  0.31802000  1.0 -0.1490298622
C  C299  1  0.47373000  0.60565000  0.18198000  1.0 -0.1490298622
C  C300  1  0.57633000  0.89435000  0.36808000  1.0 -0.1490298622
C  C301  1  0.57633000  0.18198000  0.20825000  1.0 -0.1490298622
C  C302  1  0.47373000  0.36808000  0.29175000  1.0 -0.1490298622
C  C303  1  0.92367000  0.13192000  0.60565000  1.0 -0.1490298622
C  C304  1  0.02627000  0.31802000  0.89435000  1.0 -0.1490298622
C  C305  1  0.31802000  0.89435000  0.02627000  1.0 -0.1490298622
C  C306  1  0.13192000  0.60565000  0.92367000  1.0 -0.1490298622
C  C307  1  0.36808000  0.29175000  0.47373000  1.0 -0.1490298622
C  C308  1  0.18198000  0.20825000  0.57633000  1.0 -0.1490298622
C  C309  1  0.60565000  0.92367000  0.13192000  1.0 -0.1490298622
C  C310  1  0.89435000  0.02627000  0.31802000  1.0 -0.1490298622
C  C311  1  0.20825000  0.57633000  0.18198000  1.0 -0.1490298622
C  C312  1  0.29175000  0.47373000  0.36808000  1.0 -0.1490298622
C  C313  1  0.85702000  0.91592000  0.77952000  1.0 -0.0795746449
C  C314  1  0.63640000  0.07750000  0.72048000  1.0 -0.0795746449
C  C315  1  0.86360000  0.58408000  0.44110000  1.0 -0.0795746449
C  C316  1  0.64298000  0.42250000  0.05890000  1.0 -0.0795746449
C  C317  1  0.77952000  0.85702000  0.91592000  1.0 -0.0795746449
C  C318  1  0.72048000  0.63640000  0.07750000  1.0 -0.0795746449
C  C319  1  0.44110000  0.86360000  0.58408000  1.0 -0.0795746449
C  C320  1  0.05890000  0.64298000  0.42250000  1.0 -0.0795746449
C  C321  1  0.91592000  0.77952000  0.85702000  1.0 -0.0795746449
C  C322  1  0.07750000  0.72048000  0.63640000  1.0 -0.0795746449
C  C323  1  0.58408000  0.44110000  0.86360000  1.0 -0.0795746449
C  C324  1  0.42250000  0.05890000  0.64298000  1.0 -0.0795746449
C  C325  1  0.42250000  0.86360000  0.77952000  1.0 -0.0795746449
C  C326  1  0.58408000  0.64298000  0.72048000  1.0 -0.0795746449
C  C327  1  0.07750000  0.85702000  0.44110000  1.0 -0.0795746449
C  C328  1  0.91592000  0.63640000  0.05890000  1.0 -0.0795746449
C  C329  1  0.63640000  0.05890000  0.91592000  1.0 -0.0795746449
C  C330  1  0.85702000  0.44110000  0.07750000  1.0 -0.0795746449
C  C331  1  0.64298000  0.72048000  0.58408000  1.0 -0.0795746449
C  C332  1  0.86360000  0.77952000  0.42250000  1.0 -0.0795746449
C  C333  1  0.44110000  0.07750000  0.85702000  1.0 -0.0795746449
C  C334  1  0.05890000  0.91592000  0.63640000  1.0 -0.0795746449
C  C335  1  0.77952000  0.42250000  0.86360000  1.0 -0.0795746449
C  C336  1  0.72048000  0.58408000  0.64298000  1.0 -0.0795746449
C  C337  1  0.14298000  0.08408000  0.22048000  1.0 -0.0795746449
C  C338  1  0.36360000  0.92250000  0.27952000  1.0 -0.0795746449
C  C339  1  0.13640000  0.41592000  0.55890000  1.0 -0.0795746449
C  C340  1  0.35702000  0.57750000  0.94110000  1.0 -0.0795746449
C  C341  1  0.22048000  0.14298000  0.08408000  1.0 -0.0795746449
C  C342  1  0.27952000  0.36360000  0.92250000  1.0 -0.0795746449
C  C343  1  0.55890000  0.13640000  0.41592000  1.0 -0.0795746449
C  C344  1  0.94110000  0.35702000  0.57750000  1.0 -0.0795746449
C  C345  1  0.08408000  0.22048000  0.14298000  1.0 -0.0795746449
C  C346  1  0.92250000  0.27952000  0.36360000  1.0 -0.0795746449
C  C347  1  0.41592000  0.55890000  0.13640000  1.0 -0.0795746449
C  C348  1  0.57750000  0.94110000  0.35702000  1.0 -0.0795746449
C  C349  1  0.57750000  0.13640000  0.22048000  1.0 -0.0795746449
C  C350  1  0.41592000  0.35702000  0.27952000  1.0 -0.0795746449
C  C351  1  0.92250000  0.14298000  0.55890000  1.0 -0.0795746449
C  C352  1  0.08408000  0.36360000  0.94110000  1.0 -0.0795746449
C  C353  1  0.36360000  0.94110000  0.08408000  1.0 -0.0795746449
C  C354  1  0.14298000  0.55890000  0.92250000  1.0 -0.0795746449
C  C355  1  0.35702000  0.27952000  0.41592000  1.0 -0.0795746449
C  C356  1  0.13640000  0.22048000  0.57750000  1.0 -0.0795746449
C  C357  1  0.55890000  0.92250000  0.14298000  1.0 -0.0795746449
C  C358  1  0.94110000  0.08408000  0.36360000  1.0 -0.0795746449
C  C359  1  0.22048000  0.57750000  0.13640000  1.0 -0.0795746449
C  C360  1  0.27952000  0.41592000  0.35702000  1.0 -0.0795746449
C  C361  1  0.80595000  0.87660000  0.77587000  1.0 -0.0971794919
C  C362  1  0.60073000  0.03008000  0.72413000  1.0 -0.0971794919
C  C363  1  0.89927000  0.62340000  0.42935000  1.0 -0.0971794919
C  C364  1  0.69405000  0.46992000  0.07065000  1.0 -0.0971794919
C  C365  1  0.77587000  0.80595000  0.87660000  1.0 -0.0971794919
C  C366  1  0.72413000  0.60073000  0.03008000  1.0 -0.0971794919
C  C367  1  0.42935000  0.89927000  0.62340000  1.0 -0.0971794919
C  C368  1  0.07065000  0.69405000  0.46992000  1.0 -0.0971794919
C  C369  1  0.87660000  0.77587000  0.80595000  1.0 -0.0971794919
C  C370  1  0.03008000  0.72413000  0.60073000  1.0 -0.0971794919
C  C371  1  0.62340000  0.42935000  0.89927000  1.0 -0.0971794919
C  C372  1  0.46992000  0.07065000  0.69405000  1.0 -0.0971794919
C  C373  1  0.46992000  0.89927000  0.77587000  1.0 -0.0971794919
C  C374  1  0.62340000  0.69405000  0.72413000  1.0 -0.0971794919
C  C375  1  0.03008000  0.80595000  0.42935000  1.0 -0.0971794919
C  C376  1  0.87660000  0.60073000  0.07065000  1.0 -0.0971794919
C  C377  1  0.60073000  0.07065000  0.87660000  1.0 -0.0971794919
C  C378  1  0.80595000  0.42935000  0.03008000  1.0 -0.0971794919
C  C379  1  0.69405000  0.72413000  0.62340000  1.0 -0.0971794919
C  C380  1  0.89927000  0.77587000  0.46992000  1.0 -0.0971794919
C  C381  1  0.42935000  0.03008000  0.80595000  1.0 -0.0971794919
C  C382  1  0.07065000  0.87660000  0.60073000  1.0 -0.0971794919
C  C383  1  0.77587000  0.46992000  0.89927000  1.0 -0.0971794919
C  C384  1  0.72413000  0.62340000  0.69405000  1.0 -0.0971794919
C  C385  1  0.19405000  0.12340000  0.22413000  1.0 -0.0971794919
C  C386  1  0.39927000  0.96992000  0.27587000  1.0 -0.0971794919
C  C387  1  0.10073000  0.37660000  0.57065000  1.0 -0.0971794919
C  C388  1  0.30595000  0.53008000  0.92935000  1.0 -0.0971794919
C  C389  1  0.22413000  0.19405000  0.12340000  1.0 -0.0971794919
C  C390  1  0.27587000  0.39927000  0.96992000  1.0 -0.0971794919
C  C391  1  0.57065000  0.10073000  0.37660000  1.0 -0.0971794919
C  C392  1  0.92935000  0.30595000  0.53008000  1.0 -0.0971794919
C  C393  1  0.12340000  0.22413000  0.19405000  1.0 -0.0971794919
C  C394  1  0.96992000  0.27587000  0.39927000  1.0 -0.0971794919
C  C395  1  0.37660000  0.57065000  0.10073000  1.0 -0.0971794919
C  C396  1  0.53008000  0.92935000  0.30595000  1.0 -0.0971794919
C  C397  1  0.53008000  0.10073000  0.22413000  1.0 -0.0971794919
C  C398  1  0.37660000  0.30595000  0.27587000  1.0 -0.0971794919
C  C399  1  0.96992000  0.19405000  0.57065000  1.0 -0.0971794919
C  C400  1  0.12340000  0.39927000  0.92935000  1.0 -0.0971794919
C  C401  1  0.39927000  0.92935000  0.12340000  1.0 -0.0971794919
C  C402  1  0.19405000  0.57065000  0.96992000  1.0 -0.0971794919
C  C403  1  0.30595000  0.27587000  0.37660000  1.0 -0.0971794919
C  C404  1  0.10073000  0.22413000  0.53008000  1.0 -0.0971794919
C  C405  1  0.57065000  0.96992000  0.19405000  1.0 -0.0971794919
C  C406  1  0.92935000  0.12340000  0.39927000  1.0 -0.0971794919
C  C407  1  0.22413000  0.53008000  0.10073000  1.0 -0.0971794919
C  C408  1  0.27587000  0.37660000  0.30595000  1.0 -0.0971794919
C  C409  1  0.76601000  0.89434000  0.78431000  1.0 -0.0795746449
C  C410  1  0.61003000  0.98170000  0.71569000  1.0 -0.0795746449
C  C411  1  0.88997000  0.60566000  0.37167000  1.0 -0.0795746449
C  C412  1  0.73399000  0.51830000  0.12833000  1.0 -0.0795746449
C  C413  1  0.78431000  0.76601000  0.89434000  1.0 -0.0795746449
C  C414  1  0.71569000  0.61003000  0.98170000  1.0 -0.0795746449
C  C415  1  0.37167000  0.88997000  0.60566000  1.0 -0.0795746449
C  C416  1  0.12833000  0.73399000  0.51830000  1.0 -0.0795746449
C  C417  1  0.89434000  0.78431000  0.76601000  1.0 -0.0795746449
C  C418  1  0.98170000  0.71569000  0.61003000  1.0 -0.0795746449
C  C419  1  0.60566000  0.37167000  0.88997000  1.0 -0.0795746449
C  C420  1  0.51830000  0.12833000  0.73399000  1.0 -0.0795746449
C  C421  1  0.51830000  0.88997000  0.78431000  1.0 -0.0795746449
C  C422  1  0.60566000  0.73399000  0.71569000  1.0 -0.0795746449
C  C423  1  0.98170000  0.76601000  0.37167000  1.0 -0.0795746449
C  C424  1  0.89434000  0.61003000  0.12833000  1.0 -0.0795746449
C  C425  1  0.61003000  0.12833000  0.89434000  1.0 -0.0795746449
C  C426  1  0.76601000  0.37167000  0.98170000  1.0 -0.0795746449
C  C427  1  0.73399000  0.71569000  0.60566000  1.0 -0.0795746449
C  C428  1  0.88997000  0.78431000  0.51830000  1.0 -0.0795746449
C  C429  1  0.37167000  0.98170000  0.76601000  1.0 -0.0795746449
C  C430  1  0.12833000  0.89434000  0.61003000  1.0 -0.0795746449
C  C431  1  0.78431000  0.51830000  0.88997000  1.0 -0.0795746449
C  C432  1  0.71569000  0.60566000  0.73399000  1.0 -0.0795746449
C  C433  1  0.23399000  0.10566000  0.21569000  1.0 -0.0795746449
C  C434  1  0.38997000  0.01830000  0.28431000  1.0 -0.0795746449
C  C435  1  0.11003000  0.39434000  0.62833000  1.0 -0.0795746449
C  C436  1  0.26601000  0.48170000  0.87167000  1.0 -0.0795746449
C  C437  1  0.21569000  0.23399000  0.10566000  1.0 -0.0795746449
C  C438  1  0.28431000  0.38997000  0.01830000  1.0 -0.0795746449
C  C439  1  0.62833000  0.11003000  0.39434000  1.0 -0.0795746449
C  C440  1  0.87167000  0.26601000  0.48170000  1.0 -0.0795746449
C  C441  1  0.10566000  0.21569000  0.23399000  1.0 -0.0795746449
C  C442  1  0.01830000  0.28431000  0.38997000  1.0 -0.0795746449
C  C443  1  0.39434000  0.62833000  0.11003000  1.0 -0.0795746449
C  C444  1  0.48170000  0.87167000  0.26601000  1.0 -0.0795746449
C  C445  1  0.48170000  0.11003000  0.21569000  1.0 -0.0795746449
C  C446  1  0.39434000  0.26601000  0.28431000  1.0 -0.0795746449
C  C447  1  0.01830000  0.23399000  0.62833000  1.0 -0.0795746449
C  C448  1  0.10566000  0.38997000  0.87167000  1.0 -0.0795746449
C  C449  1  0.38997000  0.87167000  0.10566000  1.0 -0.0795746449
C  C450  1  0.23399000  0.62833000  0.01830000  1.0 -0.0795746449
C  C451  1  0.26601000  0.28431000  0.39434000  1.0 -0.0795746449
C  C452  1  0.11003000  0.21569000  0.48170000  1.0 -0.0795746449
C  C453  1  0.62833000  0.01830000  0.23399000  1.0 -0.0795746449
C  C454  1  0.87167000  0.10566000  0.38997000  1.0 -0.0795746449
C  C455  1  0.21569000  0.48170000  0.11003000  1.0 -0.0795746449
C  C456  1  0.28431000  0.39434000  0.26601000  1.0 -0.0795746449
N  N1  1  0.80808000  0.06742000  0.82544000  1.0 -0.177679789
N  N2  1  0.74198000  0.98264000  0.67456000  1.0 -0.177679789
N  N3  1  0.75802000  0.43258000  0.24066000  1.0 -0.177679789
N  N4  1  0.69192000  0.51736000  0.25934000  1.0 -0.177679789
N  N5  1  0.82544000  0.80808000  0.06742000  1.0 -0.177679789
N  N6  1  0.67456000  0.74198000  0.98264000  1.0 -0.177679789
N  N7  1  0.24066000  0.75802000  0.43258000  1.0 -0.177679789
N  N8  1  0.25934000  0.69192000  0.51736000  1.0 -0.177679789
N  N9  1  0.06742000  0.82544000  0.80808000  1.0 -0.177679789
N  N10  1  0.98264000  0.67456000  0.74198000  1.0 -0.177679789
N  N11  1  0.43258000  0.24066000  0.75802000  1.0 -0.177679789
N  N12  1  0.51736000  0.25934000  0.69192000  1.0 -0.177679789
N  N13  1  0.51736000  0.75802000  0.82544000  1.0 -0.177679789
N  N14  1  0.43258000  0.69192000  0.67456000  1.0 -0.177679789
N  N15  1  0.98264000  0.80808000  0.24066000  1.0 -0.177679789
N  N16  1  0.06742000  0.74198000  0.25934000  1.0 -0.177679789
N  N17  1  0.74198000  0.25934000  0.06742000  1.0 -0.177679789
N  N18  1  0.80808000  0.24066000  0.98264000  1.0 -0.177679789
N  N19  1  0.69192000  0.67456000  0.43258000  1.0 -0.177679789
N  N20  1  0.75802000  0.82544000  0.51736000  1.0 -0.177679789
N  N21  1  0.24066000  0.98264000  0.80808000  1.0 -0.177679789
N  N22  1  0.25934000  0.06742000  0.74198000  1.0 -0.177679789
N  N23  1  0.82544000  0.51736000  0.75802000  1.0 -0.177679789
N  N24  1  0.67456000  0.43258000  0.69192000  1.0 -0.177679789
N  N25  1  0.19192000  0.93258000  0.17456000  1.0 -0.177679789
N  N26  1  0.25802000  0.01736000  0.32544000  1.0 -0.177679789
N  N27  1  0.24198000  0.56742000  0.75934000  1.0 -0.177679789
N  N28  1  0.30808000  0.48264000  0.74066000  1.0 -0.177679789
N  N29  1  0.17456000  0.19192000  0.93258000  1.0 -0.177679789
N  N30  1  0.32544000  0.25802000  0.01736000  1.0 -0.177679789
N  N31  1  0.75934000  0.24198000  0.56742000  1.0 -0.177679789
N  N32  1  0.74066000  0.30808000  0.48264000  1.0 -0.177679789
N  N33  1  0.93258000  0.17456000  0.19192000  1.0 -0.177679789
N  N34  1  0.01736000  0.32544000  0.25802000  1.0 -0.177679789
N  N35  1  0.56742000  0.75934000  0.24198000  1.0 -0.177679789
N  N36  1  0.48264000  0.74066000  0.30808000  1.0 -0.177679789
N  N37  1  0.48264000  0.24198000  0.17456000  1.0 -0.177679789
N  N38  1  0.56742000  0.30808000  0.32544000  1.0 -0.177679789
N  N39  1  0.01736000  0.19192000  0.75934000  1.0 -0.177679789
N  N40  1  0.93258000  0.25802000  0.74066000  1.0 -0.177679789
N  N41  1  0.25802000  0.74066000  0.93258000  1.0 -0.177679789
N  N42  1  0.19192000  0.75934000  0.01736000  1.0 -0.177679789
N  N43  1  0.30808000  0.32544000  0.56742000  1.0 -0.177679789
N  N44  1  0.24198000  0.17456000  0.48264000  1.0 -0.177679789
N  N45  1  0.75934000  0.01736000  0.19192000  1.0 -0.177679789
N  N46  1  0.74066000  0.93258000  0.25802000  1.0 -0.177679789
N  N47  1  0.17456000  0.48264000  0.24198000  1.0 -0.177679789
N  N48  1  0.32544000  0.56742000  0.30808000  1.0 -0.177679789
N  N49  1  0.84017000  0.04966000  0.80879000  1.0 -0.0971794919
N  N50  1  0.74087000  0.03138000  0.69121000  1.0 -0.0971794919
N  N51  1  0.75913000  0.45034000  0.29051000  1.0 -0.0971794919
N  N52  1  0.65983000  0.46862000  0.20949000  1.0 -0.0971794919
N  N53  1  0.80879000  0.84017000  0.04966000  1.0 -0.0971794919
N  N54  1  0.69121000  0.74087000  0.03138000  1.0 -0.0971794919
N  N55  1  0.29051000  0.75913000  0.45034000  1.0 -0.0971794919
N  N56  1  0.20949000  0.65983000  0.46862000  1.0 -0.0971794919
N  N57  1  0.04966000  0.80879000  0.84017000  1.0 -0.0971794919
N  N58  1  0.03138000  0.69121000  0.74087000  1.0 -0.0971794919
N  N59  1  0.45034000  0.29051000  0.75913000  1.0 -0.0971794919
N  N60  1  0.46862000  0.20949000  0.65983000  1.0 -0.0971794919
N  N61  1  0.46862000  0.75913000  0.80879000  1.0 -0.0971794919
N  N62  1  0.45034000  0.65983000  0.69121000  1.0 -0.0971794919
N  N63  1  0.03138000  0.84017000  0.29051000  1.0 -0.0971794919
N  N64  1  0.04966000  0.74087000  0.20949000  1.0 -0.0971794919
N  N65  1  0.74087000  0.20949000  0.04966000  1.0 -0.0971794919
N  N66  1  0.84017000  0.29051000  0.03138000  1.0 -0.0971794919
N  N67  1  0.65983000  0.69121000  0.45034000  1.0 -0.0971794919
N  N68  1  0.75913000  0.80879000  0.46862000  1.0 -0.0971794919
N  N69  1  0.29051000  0.03138000  0.84017000  1.0 -0.0971794919
N  N70  1  0.20949000  0.04966000  0.74087000  1.0 -0.0971794919
N  N71  1  0.80879000  0.46862000  0.75913000  1.0 -0.0971794919
N  N72  1  0.69121000  0.45034000  0.65983000  1.0 -0.0971794919
N  N73  1  0.15983000  0.95034000  0.19121000  1.0 -0.0971794919
N  N74  1  0.25913000  0.96862000  0.30879000  1.0 -0.0971794919
N  N75  1  0.24087000  0.54966000  0.70949000  1.0 -0.0971794919
N  N76  1  0.34017000  0.53138000  0.79051000  1.0 -0.0971794919
N  N77  1  0.19121000  0.15983000  0.95034000  1.0 -0.0971794919
N  N78  1  0.30879000  0.25913000  0.96862000  1.0 -0.0971794919
N  N79  1  0.70949000  0.24087000  0.54966000  1.0 -0.0971794919
N  N80  1  0.79051000  0.34017000  0.53138000  1.0 -0.0971794919
N  N81  1  0.95034000  0.19121000  0.15983000  1.0 -0.0971794919
N  N82  1  0.96862000  0.30879000  0.25913000  1.0 -0.0971794919
N  N83  1  0.54966000  0.70949000  0.24087000  1.0 -0.0971794919
N  N84  1  0.53138000  0.79051000  0.34017000  1.0 -0.0971794919
N  N85  1  0.53138000  0.24087000  0.19121000  1.0 -0.0971794919
N  N86  1  0.54966000  0.34017000  0.30879000  1.0 -0.0971794919
N  N87  1  0.96862000  0.15983000  0.70949000  1.0 -0.0971794919
N  N88  1  0.95034000  0.25913000  0.79051000  1.0 -0.0971794919
N  N89  1  0.25913000  0.79051000  0.95034000  1.0 -0.0971794919
N  N90  1  0.15983000  0.70949000  0.96862000  1.0 -0.0971794919
N  N91  1  0.34017000  0.30879000  0.54966000  1.0 -0.0971794919
N  N92  1  0.24087000  0.19121000  0.53138000  1.0 -0.0971794919
N  N93  1  0.70949000  0.96862000  0.15983000  1.0 -0.0971794919
N  N94  1  0.79051000  0.95034000  0.25913000  1.0 -0.0971794919
N  N95  1  0.19121000  0.53138000  0.24087000  1.0 -0.0971794919
N  N96  1  0.30879000  0.54966000  0.34017000  1.0 -0.0971794919
N  N97  1  0.84636000  0.15300000  0.80850000  1.0 -0.354660404
N  N98  1  0.84450000  0.03786000  0.69150000  1.0 -0.354660404
N  N99  1  0.65550000  0.34700000  0.19336000  1.0 -0.354660404
N  N100  1  0.65364000  0.46214000  0.30664000  1.0 -0.354660404
N  N101  1  0.80850000  0.84636000  0.15300000  1.0 -0.354660404
N  N102  1  0.69150000  0.84450000  0.03786000  1.0 -0.354660404
N  N103  1  0.19336000  0.65550000  0.34700000  1.0 -0.354660404
N  N104  1  0.30664000  0.65364000  0.46214000  1.0 -0.354660404
N  N105  1  0.15300000  0.80850000  0.84636000  1.0 -0.354660404
N  N106  1  0.03786000  0.69150000  0.84450000  1.0 -0.354660404
N  N107  1  0.34700000  0.19336000  0.65550000  1.0 -0.354660404
N  N108  1  0.46214000  0.30664000  0.65364000  1.0 -0.354660404
N  N109  1  0.46214000  0.65550000  0.80850000  1.0 -0.354660404
N  N110  1  0.34700000  0.65364000  0.69150000  1.0 -0.354660404
N  N111  1  0.03786000  0.84636000  0.19336000  1.0 -0.354660404
N  N112  1  0.15300000  0.84450000  0.30664000  1.0 -0.354660404
N  N113  1  0.84450000  0.30664000  0.15300000  1.0 -0.354660404
N  N114  1  0.84636000  0.19336000  0.03786000  1.0 -0.354660404
N  N115  1  0.65364000  0.69150000  0.34700000  1.0 -0.354660404
N  N116  1  0.65550000  0.80850000  0.46214000  1.0 -0.354660404
N  N117  1  0.19336000  0.03786000  0.84636000  1.0 -0.354660404
N  N118  1  0.30664000  0.15300000  0.84450000  1.0 -0.354660404
N  N119  1  0.80850000  0.46214000  0.65550000  1.0 -0.354660404
N  N120  1  0.69150000  0.34700000  0.65364000  1.0 -0.354660404
N  N121  1  0.15364000  0.84700000  0.19150000  1.0 -0.354660404
N  N122  1  0.15550000  0.96214000  0.30850000  1.0 -0.354660404
N  N123  1  0.34450000  0.65300000  0.80664000  1.0 -0.354660404
N  N124  1  0.34636000  0.53786000  0.69336000  1.0 -0.354660404
N  N125  1  0.19150000  0.15364000  0.84700000  1.0 -0.354660404
N  N126  1  0.30850000  0.15550000  0.96214000  1.0 -0.354660404
N  N127  1  0.80664000  0.34450000  0.65300000  1.0 -0.354660404
N  N128  1  0.69336000  0.34636000  0.53786000  1.0 -0.354660404
N  N129  1  0.84700000  0.19150000  0.15364000  1.0 -0.354660404
N  N130  1  0.96214000  0.30850000  0.15550000  1.0 -0.354660404
N  N131  1  0.65300000  0.80664000  0.34450000  1.0 -0.354660404
N  N132  1  0.53786000  0.69336000  0.34636000  1.0 -0.354660404
N  N133  1  0.53786000  0.34450000  0.19150000  1.0 -0.354660404
N  N134  1  0.65300000  0.34636000  0.30850000  1.0 -0.354660404
N  N135  1  0.96214000  0.15364000  0.80664000  1.0 -0.354660404
N  N136  1  0.84700000  0.15550000  0.69336000  1.0 -0.354660404
N  N137  1  0.15550000  0.69336000  0.84700000  1.0 -0.354660404
N  N138  1  0.15364000  0.80664000  0.96214000  1.0 -0.354660404
N  N139  1  0.34636000  0.30850000  0.65300000  1.0 -0.354660404
N  N140  1  0.34450000  0.19150000  0.53786000  1.0 -0.354660404
N  N141  1  0.80664000  0.96214000  0.15364000  1.0 -0.354660404
N  N142  1  0.69336000  0.84700000  0.15550000  1.0 -0.354660404
N  N143  1  0.19150000  0.53786000  0.34450000  1.0 -0.354660404
N  N144  1  0.30850000  0.65300000  0.34636000  1.0 -0.354660404
N  N145  1  0.79124000  0.14967000  0.85301000  1.0 -0.0359064984
N  N146  1  0.79666000  0.93823000  0.64699000  1.0 -0.0359064984
N  N147  1  0.70334000  0.35033000  0.14157000  1.0 -0.0359064984
N  N148  1  0.70876000  0.56177000  0.35843000  1.0 -0.0359064984
N  N149  1  0.85301000  0.79124000  0.14967000  1.0 -0.0359064984
N  N150  1  0.64699000  0.79666000  0.93823000  1.0 -0.0359064984
N  N151  1  0.14157000  0.70334000  0.35033000  1.0 -0.0359064984
N  N152  1  0.35843000  0.70876000  0.56177000  1.0 -0.0359064984
N  N153  1  0.14967000  0.85301000  0.79124000  1.0 -0.0359064984
N  N154  1  0.93823000  0.64699000  0.79666000  1.0 -0.0359064984
N  N155  1  0.35033000  0.14157000  0.70334000  1.0 -0.0359064984
N  N156  1  0.56177000  0.35843000  0.70876000  1.0 -0.0359064984
N  N157  1  0.56177000  0.70334000  0.85301000  1.0 -0.0359064984
N  N158  1  0.35033000  0.70876000  0.64699000  1.0 -0.0359064984
N  N159  1  0.93823000  0.79124000  0.14157000  1.0 -0.0359064984
N  N160  1  0.14967000  0.79666000  0.35843000  1.0 -0.0359064984
N  N161  1  0.79666000  0.35843000  0.14967000  1.0 -0.0359064984
N  N162  1  0.79124000  0.14157000  0.93823000  1.0 -0.0359064984
N  N163  1  0.70876000  0.64699000  0.35033000  1.0 -0.0359064984
N  N164  1  0.70334000  0.85301000  0.56177000  1.0 -0.0359064984
N  N165  1  0.14157000  0.93823000  0.79124000  1.0 -0.0359064984
N  N166  1  0.35843000  0.14967000  0.79666000  1.0 -0.0359064984
N  N167  1  0.85301000  0.56177000  0.70334000  1.0 -0.0359064984
N  N168  1  0.64699000  0.35033000  0.70876000  1.0 -0.0359064984
N  N169  1  0.20876000  0.85033000  0.14699000  1.0 -0.0359064984
N  N170  1  0.20334000  0.06177000  0.35301000  1.0 -0.0359064984
N  N171  1  0.29666000  0.64967000  0.85843000  1.0 -0.0359064984
N  N172  1  0.29124000  0.43823000  0.64157000  1.0 -0.0359064984
N  N173  1  0.14699000  0.20876000  0.85033000  1.0 -0.0359064984
N  N174  1  0.35301000  0.20334000  0.06177000  1.0 -0.0359064984
N  N175  1  0.85843000  0.29666000  0.64967000  1.0 -0.0359064984
N  N176  1  0.64157000  0.29124000  0.43823000  1.0 -0.0359064984
N  N177  1  0.85033000  0.14699000  0.20876000  1.0 -0.0359064984
N  N178  1  0.06177000  0.35301000  0.20334000  1.0 -0.0359064984
N  N179  1  0.64967000  0.85843000  0.29666000  1.0 -0.0359064984
N  N180  1  0.43823000  0.64157000  0.29124000  1.0 -0.0359064984
N  N181  1  0.43823000  0.29666000  0.14699000  1.0 -0.0359064984
N  N182  1  0.64967000  0.29124000  0.35301000  1.0 -0.0359064984
N  N183  1  0.06177000  0.20876000  0.85843000  1.0 -0.0359064984
N  N184  1  0.85033000  0.20334000  0.64157000  1.0 -0.0359064984
N  N185  1  0.20334000  0.64157000  0.85033000  1.0 -0.0359064984
N  N186  1  0.20876000  0.85843000  0.06177000  1.0 -0.0359064984
N  N187  1  0.29124000  0.35301000  0.64967000  1.0 -0.0359064984
N  N188  1  0.29666000  0.14699000  0.43823000  1.0 -0.0359064984
N  N189  1  0.85843000  0.06177000  0.20876000  1.0 -0.0359064984
N  N190  1  0.64157000  0.85033000  0.20334000  1.0 -0.0359064984
N  N191  1  0.14699000  0.43823000  0.29666000  1.0 -0.0359064984
N  N192  1  0.35301000  0.64967000  0.29124000  1.0 -0.0359064984
F  F1  1  0.41427000  0.44859000  0.16306000  1.0 -0.4484833045
F  F2  1  0.41427000  0.46568000  0.25121000  1.0 -0.4484833045
F  F3  1  0.34346000  0.37779000  0.16493000  1.0 -0.4484833045
F  F4  1  0.34346000  0.46567000  0.17853000  1.0 -0.4484833045
F  F5  1  0.71447000  0.05141000  0.46568000  1.0 -0.4484833045
F  F6  1  0.78553000  0.03432000  0.44859000  1.0 -0.4484833045
F  F7  1  0.78714000  0.12221000  0.46567000  1.0 -0.4484833045
F  F8  1  0.71286000  0.03433000  0.37779000  1.0 -0.4484833045
F  F9  1  0.08573000  0.24879000  0.03432000  1.0 -0.4484833045
F  F10  1  0.08573000  0.33694000  0.05141000  1.0 -0.4484833045
F  F11  1  0.15654000  0.32147000  0.03433000  1.0 -0.4484833045
F  F12  1  0.15654000  0.33507000  0.12221000  1.0 -0.4484833045
F  F13  1  0.78553000  0.25121000  0.33694000  1.0 -0.4484833045
F  F14  1  0.71447000  0.16306000  0.24879000  1.0 -0.4484833045
F  F15  1  0.71286000  0.17853000  0.33507000  1.0 -0.4484833045
F  F16  1  0.78714000  0.16493000  0.32147000  1.0 -0.4484833045
F  F17  1  0.44859000  0.16306000  0.41427000  1.0 -0.4484833045
F  F18  1  0.46568000  0.25121000  0.41427000  1.0 -0.4484833045
F  F19  1  0.37779000  0.16493000  0.34346000  1.0 -0.4484833045
F  F20  1  0.46567000  0.17853000  0.34346000  1.0 -0.4484833045
F  F21  1  0.05141000  0.46568000  0.71447000  1.0 -0.4484833045
F  F22  1  0.03432000  0.44859000  0.78553000  1.0 -0.4484833045
F  F23  1  0.12221000  0.46567000  0.78714000  1.0 -0.4484833045
F  F24  1  0.03433000  0.37779000  0.71286000  1.0 -0.4484833045
F  F25  1  0.24879000  0.03432000  0.08573000  1.0 -0.4484833045
F  F26  1  0.33694000  0.05141000  0.08573000  1.0 -0.4484833045
F  F27  1  0.32147000  0.03433000  0.15654000  1.0 -0.4484833045
F  F28  1  0.33507000  0.12221000  0.15654000  1.0 -0.4484833045
F  F29  1  0.25121000  0.33694000  0.78553000  1.0 -0.4484833045
F  F30  1  0.16306000  0.24879000  0.71447000  1.0 -0.4484833045
F  F31  1  0.17853000  0.33507000  0.71286000  1.0 -0.4484833045
F  F32  1  0.16493000  0.32147000  0.78714000  1.0 -0.4484833045
F  F33  1  0.16306000  0.41427000  0.44859000  1.0 -0.4484833045
F  F34  1  0.25121000  0.41427000  0.46568000  1.0 -0.4484833045
F  F35  1  0.16493000  0.34346000  0.37779000  1.0 -0.4484833045
F  F36  1  0.17853000  0.34346000  0.46567000  1.0 -0.4484833045
F  F37  1  0.46568000  0.71447000  0.05141000  1.0 -0.4484833045
F  F38  1  0.44859000  0.78553000  0.03432000  1.0 -0.4484833045
F  F39  1  0.46567000  0.78714000  0.12221000  1.0 -0.4484833045
F  F40  1  0.37779000  0.71286000  0.03433000  1.0 -0.4484833045
F  F41  1  0.03432000  0.08573000  0.24879000  1.0 -0.4484833045
F  F42  1  0.05141000  0.08573000  0.33694000  1.0 -0.4484833045
F  F43  1  0.03433000  0.15654000  0.32147000  1.0 -0.4484833045
F  F44  1  0.12221000  0.15654000  0.33507000  1.0 -0.4484833045
F  F45  1  0.33694000  0.78553000  0.25121000  1.0 -0.4484833045
F  F46  1  0.24879000  0.71447000  0.16306000  1.0 -0.4484833045
F  F47  1  0.33507000  0.71286000  0.17853000  1.0 -0.4484833045
F  F48  1  0.32147000  0.78714000  0.16493000  1.0 -0.4484833045
F  F49  1  0.58573000  0.55141000  0.83694000  1.0 -0.4484833045
F  F50  1  0.58573000  0.53432000  0.74879000  1.0 -0.4484833045
F  F51  1  0.65654000  0.62221000  0.83507000  1.0 -0.4484833045
F  F52  1  0.65654000  0.53433000  0.82147000  1.0 -0.4484833045
F  F53  1  0.28553000  0.94859000  0.53432000  1.0 -0.4484833045
F  F54  1  0.21447000  0.96568000  0.55141000  1.0 -0.4484833045
F  F55  1  0.21286000  0.87779000  0.53433000  1.0 -0.4484833045
F  F56  1  0.28714000  0.96567000  0.62221000  1.0 -0.4484833045
F  F57  1  0.91427000  0.75121000  0.96568000  1.0 -0.4484833045
F  F58  1  0.91427000  0.66306000  0.94859000  1.0 -0.4484833045
F  F59  1  0.84346000  0.67853000  0.96567000  1.0 -0.4484833045
F  F60  1  0.84346000  0.66493000  0.87779000  1.0 -0.4484833045
F  F61  1  0.21447000  0.74879000  0.66306000  1.0 -0.4484833045
F  F62  1  0.28553000  0.83694000  0.75121000  1.0 -0.4484833045
F  F63  1  0.28714000  0.82147000  0.66493000  1.0 -0.4484833045
F  F64  1  0.21286000  0.83507000  0.67853000  1.0 -0.4484833045
F  F65  1  0.55141000  0.83694000  0.58573000  1.0 -0.4484833045
F  F66  1  0.53432000  0.74879000  0.58573000  1.0 -0.4484833045
F  F67  1  0.62221000  0.83507000  0.65654000  1.0 -0.4484833045
F  F68  1  0.53433000  0.82147000  0.65654000  1.0 -0.4484833045
F  F69  1  0.94859000  0.53432000  0.28553000  1.0 -0.4484833045
F  F70  1  0.96568000  0.55141000  0.21447000  1.0 -0.4484833045
F  F71  1  0.87779000  0.53433000  0.21286000  1.0 -0.4484833045
F  F72  1  0.96567000  0.62221000  0.28714000  1.0 -0.4484833045
F  F73  1  0.75121000  0.96568000  0.91427000  1.0 -0.4484833045
F  F74  1  0.66306000  0.94859000  0.91427000  1.0 -0.4484833045
F  F75  1  0.67853000  0.96567000  0.84346000  1.0 -0.4484833045
F  F76  1  0.66493000  0.87779000  0.84346000  1.0 -0.4484833045
F  F77  1  0.74879000  0.66306000  0.21447000  1.0 -0.4484833045
F  F78  1  0.83694000  0.75121000  0.28553000  1.0 -0.4484833045
F  F79  1  0.82147000  0.66493000  0.28714000  1.0 -0.4484833045
F  F80  1  0.83507000  0.67853000  0.21286000  1.0 -0.4484833045
F  F81  1  0.83694000  0.58573000  0.55141000  1.0 -0.4484833045
F  F82  1  0.74879000  0.58573000  0.53432000  1.0 -0.4484833045
F  F83  1  0.83507000  0.65654000  0.62221000  1.0 -0.4484833045
F  F84  1  0.82147000  0.65654000  0.53433000  1.0 -0.4484833045
F  F85  1  0.53432000  0.28553000  0.94859000  1.0 -0.4484833045
F  F86  1  0.55141000  0.21447000  0.96568000  1.0 -0.4484833045
F  F87  1  0.53433000  0.21286000  0.87779000  1.0 -0.4484833045
F  F88  1  0.62221000  0.28714000  0.96567000  1.0 -0.4484833045
F  F89  1  0.96568000  0.91427000  0.75121000  1.0 -0.4484833045
F  F90  1  0.94859000  0.91427000  0.66306000  1.0 -0.4484833045
F  F91  1  0.96567000  0.84346000  0.67853000  1.0 -0.4484833045
F  F92  1  0.87779000  0.84346000  0.66493000  1.0 -0.4484833045
F  F93  1  0.66306000  0.21447000  0.74879000  1.0 -0.4484833045
F  F94  1  0.75121000  0.28553000  0.83694000  1.0 -0.4484833045
F  F95  1  0.66493000  0.28714000  0.82147000  1.0 -0.4484833045
F  F96  1  0.67853000  0.21286000  0.83507000  1.0 -0.4484833045
