# DDEC6 charges by PACMAN v1.1 (https://github.com/mtap-research/PACMAN-charge/)
data_WUWRAI_ion_pacman
_symmetry_space_group_name_H-M   'P 1'
_cell_length_a   27.28920000
_cell_length_b   27.28920000
_cell_length_c   27.28920000
_cell_angle_alpha   109.47100000
_cell_angle_beta   109.47100000
_cell_angle_gamma   109.47100000
_symmetry_Int_Tables_number   1
_chemical_formula_structural   ZnH32C38N16(ClO4)2
_chemical_formula_sum   'Zn12 H384 C456 N192 Cl24 O96'
_cell_volume   15644.22557985
_cell_formula_units_Z   12
loop_
 _symmetry_equiv_pos_site_id
 _symmetry_equiv_pos_as_xyz
  1  'x, y, z'
loop_
 _atom_site_type_symbol
 _atom_site_label
 _atom_site_symmetry_multiplicity
 _atom_site_fract_x
 _atom_site_fract_y
 _atom_site_fract_z
 _atom_site_occupancy
 _atom_site_charge
Zn  Zn1  1  0.87500000  0.12500000  0.75000000  1.0 0.6727828004
Zn  Zn2  1  0.62500000  0.37500000  0.25000000  1.0 0.6727828004
Zn  Zn3  1  0.75000000  0.87500000  0.12500000  1.0 0.6727828004
Zn  Zn4  1  0.25000000  0.62500000  0.37500000  1.0 0.6727828004
Zn  Zn5  1  0.12500000  0.75000000  0.87500000  1.0 0.6727828004
Zn  Zn6  1  0.37500000  0.25000000  0.62500000  1.0 0.6727828004
Zn  Zn7  1  0.37500000  0.62500000  0.75000000  1.0 0.6727828004
Zn  Zn8  1  0.12500000  0.87500000  0.25000000  1.0 0.6727828004
Zn  Zn9  1  0.87500000  0.25000000  0.12500000  1.0 0.6727828004
Zn  Zn10  1  0.62500000  0.75000000  0.37500000  1.0 0.6727828004
Zn  Zn11  1  0.25000000  0.12500000  0.87500000  1.0 0.6727828004
Zn  Zn12  1  0.75000000  0.37500000  0.62500000  1.0 0.6727828004
H  H1  1  0.79610000  0.23030000  0.86440000  1.0 0.1304947429
H  H2  1  0.86590000  0.93170000  0.63560000  1.0 0.1304947429
H  H3  1  0.63410000  0.26970000  0.06580000  1.0 0.1304947429
H  H4  1  0.70390000  0.56830000  0.43420000  1.0 0.1304947429
H  H5  1  0.86440000  0.79610000  0.23030000  1.0 0.1304947429
H  H6  1  0.63560000  0.86590000  0.93170000  1.0 0.1304947429
H  H7  1  0.06580000  0.63410000  0.26970000  1.0 0.1304947429
H  H8  1  0.43420000  0.70390000  0.56830000  1.0 0.1304947429
H  H9  1  0.23030000  0.86440000  0.79610000  1.0 0.1304947429
H  H10  1  0.93170000  0.63560000  0.86590000  1.0 0.1304947429
H  H11  1  0.26970000  0.06580000  0.63410000  1.0 0.1304947429
H  H12  1  0.56830000  0.43420000  0.70390000  1.0 0.1304947429
H  H13  1  0.56830000  0.63410000  0.86440000  1.0 0.1304947429
H  H14  1  0.26970000  0.70390000  0.63560000  1.0 0.1304947429
H  H15  1  0.93170000  0.79610000  0.06580000  1.0 0.1304947429
H  H16  1  0.23030000  0.86590000  0.43420000  1.0 0.1304947429
H  H17  1  0.86590000  0.43420000  0.23030000  1.0 0.1304947429
H  H18  1  0.79610000  0.06580000  0.93170000  1.0 0.1304947429
H  H19  1  0.70390000  0.63560000  0.26970000  1.0 0.1304947429
H  H20  1  0.63410000  0.86440000  0.56830000  1.0 0.1304947429
H  H21  1  0.06580000  0.93170000  0.79610000  1.0 0.1304947429
H  H22  1  0.43420000  0.23030000  0.86590000  1.0 0.1304947429
H  H23  1  0.86440000  0.56830000  0.63410000  1.0 0.1304947429
H  H24  1  0.63560000  0.26970000  0.70390000  1.0 0.1304947429
H  H25  1  0.20390000  0.76970000  0.13560000  1.0 0.1304947429
H  H26  1  0.13410000  0.06830000  0.36440000  1.0 0.1304947429
H  H27  1  0.36590000  0.73030000  0.93420000  1.0 0.1304947429
H  H28  1  0.29610000  0.43170000  0.56580000  1.0 0.1304947429
H  H29  1  0.13560000  0.20390000  0.76970000  1.0 0.1304947429
H  H30  1  0.36440000  0.13410000  0.06830000  1.0 0.1304947429
H  H31  1  0.93420000  0.36590000  0.73030000  1.0 0.1304947429
H  H32  1  0.56580000  0.29610000  0.43170000  1.0 0.1304947429
H  H33  1  0.76970000  0.13560000  0.20390000  1.0 0.1304947429
H  H34  1  0.06830000  0.36440000  0.13410000  1.0 0.1304947429
H  H35  1  0.73030000  0.93420000  0.36590000  1.0 0.1304947429
H  H36  1  0.43170000  0.56580000  0.29610000  1.0 0.1304947429
H  H37  1  0.43170000  0.36590000  0.13560000  1.0 0.1304947429
H  H38  1  0.73030000  0.29610000  0.36440000  1.0 0.1304947429
H  H39  1  0.06830000  0.20390000  0.93420000  1.0 0.1304947429
H  H40  1  0.76970000  0.13410000  0.56580000  1.0 0.1304947429
H  H41  1  0.13410000  0.56580000  0.76970000  1.0 0.1304947429
H  H42  1  0.20390000  0.93420000  0.06830000  1.0 0.1304947429
H  H43  1  0.29610000  0.36440000  0.73030000  1.0 0.1304947429
H  H44  1  0.36590000  0.13560000  0.43170000  1.0 0.1304947429
H  H45  1  0.93420000  0.06830000  0.20390000  1.0 0.1304947429
H  H46  1  0.56580000  0.76970000  0.13410000  1.0 0.1304947429
H  H47  1  0.13560000  0.43170000  0.36590000  1.0 0.1304947429
H  H48  1  0.36440000  0.73030000  0.29610000  1.0 0.1304947429
H  H49  1  0.85620000  0.23250000  0.81370000  1.0 0.1304947429
H  H50  1  0.91880000  0.04250000  0.68630000  1.0 0.1304947429
H  H51  1  0.58120000  0.26750000  0.12370000  1.0 0.1304947429
H  H52  1  0.64380000  0.45750000  0.37630000  1.0 0.1304947429
H  H53  1  0.81370000  0.85620000  0.23250000  1.0 0.1304947429
H  H54  1  0.68630000  0.91880000  0.04250000  1.0 0.1304947429
H  H55  1  0.12370000  0.58120000  0.26750000  1.0 0.1304947429
H  H56  1  0.37630000  0.64380000  0.45750000  1.0 0.1304947429
H  H57  1  0.23250000  0.81370000  0.85620000  1.0 0.1304947429
H  H58  1  0.04250000  0.68630000  0.91880000  1.0 0.1304947429
H  H59  1  0.26750000  0.12370000  0.58120000  1.0 0.1304947429
H  H60  1  0.45750000  0.37630000  0.64380000  1.0 0.1304947429
H  H61  1  0.45750000  0.58120000  0.81370000  1.0 0.1304947429
H  H62  1  0.26750000  0.64380000  0.68630000  1.0 0.1304947429
H  H63  1  0.04250000  0.85620000  0.12370000  1.0 0.1304947429
H  H64  1  0.23250000  0.91880000  0.37630000  1.0 0.1304947429
H  H65  1  0.91880000  0.37630000  0.23250000  1.0 0.1304947429
H  H66  1  0.85620000  0.12370000  0.04250000  1.0 0.1304947429
H  H67  1  0.64380000  0.68630000  0.26750000  1.0 0.1304947429
H  H68  1  0.58120000  0.81370000  0.45750000  1.0 0.1304947429
H  H69  1  0.12370000  0.04250000  0.85620000  1.0 0.1304947429
H  H70  1  0.37630000  0.23250000  0.91880000  1.0 0.1304947429
H  H71  1  0.81370000  0.45750000  0.58120000  1.0 0.1304947429
H  H72  1  0.68630000  0.26750000  0.64380000  1.0 0.1304947429
H  H73  1  0.14380000  0.76750000  0.18630000  1.0 0.1304947429
H  H74  1  0.08120000  0.95750000  0.31370000  1.0 0.1304947429
H  H75  1  0.41880000  0.73250000  0.87630000  1.0 0.1304947429
H  H76  1  0.35620000  0.54250000  0.62370000  1.0 0.1304947429
H  H77  1  0.18630000  0.14380000  0.76750000  1.0 0.1304947429
H  H78  1  0.31370000  0.08120000  0.95750000  1.0 0.1304947429
H  H79  1  0.87630000  0.41880000  0.73250000  1.0 0.1304947429
H  H80  1  0.62370000  0.35620000  0.54250000  1.0 0.1304947429
H  H81  1  0.76750000  0.18630000  0.14380000  1.0 0.1304947429
H  H82  1  0.95750000  0.31370000  0.08120000  1.0 0.1304947429
H  H83  1  0.73250000  0.87630000  0.41880000  1.0 0.1304947429
H  H84  1  0.54250000  0.62370000  0.35620000  1.0 0.1304947429
H  H85  1  0.54250000  0.41880000  0.18630000  1.0 0.1304947429
H  H86  1  0.73250000  0.35620000  0.31370000  1.0 0.1304947429
H  H87  1  0.95750000  0.14380000  0.87630000  1.0 0.1304947429
H  H88  1  0.76750000  0.08120000  0.62370000  1.0 0.1304947429
H  H89  1  0.08120000  0.62370000  0.76750000  1.0 0.1304947429
H  H90  1  0.14380000  0.87630000  0.95750000  1.0 0.1304947429
H  H91  1  0.35620000  0.31370000  0.73250000  1.0 0.1304947429
H  H92  1  0.41880000  0.18630000  0.54250000  1.0 0.1304947429
H  H93  1  0.87630000  0.95750000  0.14380000  1.0 0.1304947429
H  H94  1  0.62370000  0.76750000  0.08120000  1.0 0.1304947429
H  H95  1  0.18630000  0.54250000  0.41880000  1.0 0.1304947429
H  H96  1  0.31370000  0.73250000  0.35620000  1.0 0.1304947429
H  H97  1  0.74810000  0.96320000  0.79950000  1.0 0.1201809347
H  H98  1  0.66370000  0.94860000  0.70050000  1.0 0.1201809347
H  H99  1  0.83630000  0.53680000  0.28490000  1.0 0.1201809347
H  H100  1  0.75190000  0.55140000  0.21510000  1.0 0.1201809347
H  H101  1  0.79950000  0.74810000  0.96320000  1.0 0.1201809347
H  H102  1  0.70050000  0.66370000  0.94860000  1.0 0.1201809347
H  H103  1  0.28490000  0.83630000  0.53680000  1.0 0.1201809347
H  H104  1  0.21510000  0.75190000  0.55140000  1.0 0.1201809347
H  H105  1  0.96320000  0.79950000  0.74810000  1.0 0.1201809347
H  H106  1  0.94860000  0.70050000  0.66370000  1.0 0.1201809347
H  H107  1  0.53680000  0.28490000  0.83630000  1.0 0.1201809347
H  H108  1  0.55140000  0.21510000  0.75190000  1.0 0.1201809347
H  H109  1  0.55140000  0.83630000  0.79950000  1.0 0.1201809347
H  H110  1  0.53680000  0.75190000  0.70050000  1.0 0.1201809347
H  H111  1  0.94860000  0.74810000  0.28490000  1.0 0.1201809347
H  H112  1  0.96320000  0.66370000  0.21510000  1.0 0.1201809347
H  H113  1  0.66370000  0.21510000  0.96320000  1.0 0.1201809347
H  H114  1  0.74810000  0.28490000  0.94860000  1.0 0.1201809347
H  H115  1  0.75190000  0.70050000  0.53680000  1.0 0.1201809347
H  H116  1  0.83630000  0.79950000  0.55140000  1.0 0.1201809347
H  H117  1  0.28490000  0.94860000  0.74810000  1.0 0.1201809347
H  H118  1  0.21510000  0.96320000  0.66370000  1.0 0.1201809347
H  H119  1  0.79950000  0.55140000  0.83630000  1.0 0.1201809347
H  H120  1  0.70050000  0.53680000  0.75190000  1.0 0.1201809347
H  H121  1  0.25190000  0.03680000  0.20050000  1.0 0.1201809347
H  H122  1  0.33630000  0.05140000  0.29950000  1.0 0.1201809347
H  H123  1  0.16370000  0.46320000  0.71510000  1.0 0.1201809347
H  H124  1  0.24810000  0.44860000  0.78490000  1.0 0.1201809347
H  H125  1  0.20050000  0.25190000  0.03680000  1.0 0.1201809347
H  H126  1  0.29950000  0.33630000  0.05140000  1.0 0.1201809347
H  H127  1  0.71510000  0.16370000  0.46320000  1.0 0.1201809347
H  H128  1  0.78490000  0.24810000  0.44860000  1.0 0.1201809347
H  H129  1  0.03680000  0.20050000  0.25190000  1.0 0.1201809347
H  H130  1  0.05140000  0.29950000  0.33630000  1.0 0.1201809347
H  H131  1  0.46320000  0.71510000  0.16370000  1.0 0.1201809347
H  H132  1  0.44860000  0.78490000  0.24810000  1.0 0.1201809347
H  H133  1  0.44860000  0.16370000  0.20050000  1.0 0.1201809347
H  H134  1  0.46320000  0.24810000  0.29950000  1.0 0.1201809347
H  H135  1  0.05140000  0.25190000  0.71510000  1.0 0.1201809347
H  H136  1  0.03680000  0.33630000  0.78490000  1.0 0.1201809347
H  H137  1  0.33630000  0.78490000  0.03680000  1.0 0.1201809347
H  H138  1  0.25190000  0.71510000  0.05140000  1.0 0.1201809347
H  H139  1  0.24810000  0.29950000  0.46320000  1.0 0.1201809347
H  H140  1  0.16370000  0.20050000  0.44860000  1.0 0.1201809347
H  H141  1  0.71510000  0.05140000  0.25190000  1.0 0.1201809347
H  H142  1  0.78490000  0.03680000  0.33630000  1.0 0.1201809347
H  H143  1  0.20050000  0.44860000  0.16370000  1.0 0.1201809347
H  H144  1  0.29950000  0.46320000  0.24810000  1.0 0.1201809347
H  H145  1  0.73110000  0.86740000  0.77970000  1.0 0.1201809347
H  H146  1  0.58770000  0.95140000  0.72030000  1.0 0.1201809347
H  H147  1  0.91230000  0.63260000  0.36370000  1.0 0.1201809347
H  H148  1  0.76890000  0.54860000  0.13630000  1.0 0.1201809347
H  H149  1  0.77970000  0.73110000  0.86740000  1.0 0.1201809347
H  H150  1  0.72030000  0.58770000  0.95140000  1.0 0.1201809347
H  H151  1  0.36370000  0.91230000  0.63260000  1.0 0.1201809347
H  H152  1  0.13630000  0.76890000  0.54860000  1.0 0.1201809347
H  H153  1  0.86740000  0.77970000  0.73110000  1.0 0.1201809347
H  H154  1  0.95140000  0.72030000  0.58770000  1.0 0.1201809347
H  H155  1  0.63260000  0.36370000  0.91230000  1.0 0.1201809347
H  H156  1  0.54860000  0.13630000  0.76890000  1.0 0.1201809347
H  H157  1  0.54860000  0.91230000  0.77970000  1.0 0.1201809347
H  H158  1  0.63260000  0.76890000  0.72030000  1.0 0.1201809347
H  H159  1  0.95140000  0.73110000  0.36370000  1.0 0.1201809347
H  H160  1  0.86740000  0.58770000  0.13630000  1.0 0.1201809347
H  H161  1  0.58770000  0.13630000  0.86740000  1.0 0.1201809347
H  H162  1  0.73110000  0.36370000  0.95140000  1.0 0.1201809347
H  H163  1  0.76890000  0.72030000  0.63260000  1.0 0.1201809347
H  H164  1  0.91230000  0.77970000  0.54860000  1.0 0.1201809347
H  H165  1  0.36370000  0.95140000  0.73110000  1.0 0.1201809347
H  H166  1  0.13630000  0.86740000  0.58770000  1.0 0.1201809347
H  H167  1  0.77970000  0.54860000  0.91230000  1.0 0.1201809347
H  H168  1  0.72030000  0.63260000  0.76890000  1.0 0.1201809347
H  H169  1  0.26890000  0.13260000  0.22030000  1.0 0.1201809347
H  H170  1  0.41230000  0.04860000  0.27970000  1.0 0.1201809347
H  H171  1  0.08770000  0.36740000  0.63630000  1.0 0.1201809347
H  H172  1  0.23110000  0.45140000  0.86370000  1.0 0.1201809347
H  H173  1  0.22030000  0.26890000  0.13260000  1.0 0.1201809347
H  H174  1  0.27970000  0.41230000  0.04860000  1.0 0.1201809347
H  H175  1  0.63630000  0.08770000  0.36740000  1.0 0.1201809347
H  H176  1  0.86370000  0.23110000  0.45140000  1.0 0.1201809347
H  H177  1  0.13260000  0.22030000  0.26890000  1.0 0.1201809347
H  H178  1  0.04860000  0.27970000  0.41230000  1.0 0.1201809347
H  H179  1  0.36740000  0.63630000  0.08770000  1.0 0.1201809347
H  H180  1  0.45140000  0.86370000  0.23110000  1.0 0.1201809347
H  H181  1  0.45140000  0.08770000  0.22030000  1.0 0.1201809347
H  H182  1  0.36740000  0.23110000  0.27970000  1.0 0.1201809347
H  H183  1  0.04860000  0.26890000  0.63630000  1.0 0.1201809347
H  H184  1  0.13260000  0.41230000  0.86370000  1.0 0.1201809347
H  H185  1  0.41230000  0.86370000  0.13260000  1.0 0.1201809347
H  H186  1  0.26890000  0.63630000  0.04860000  1.0 0.1201809347
H  H187  1  0.23110000  0.27970000  0.36740000  1.0 0.1201809347
H  H188  1  0.08770000  0.22030000  0.45140000  1.0 0.1201809347
H  H189  1  0.63630000  0.04860000  0.26890000  1.0 0.1201809347
H  H190  1  0.86370000  0.13260000  0.41230000  1.0 0.1201809347
H  H191  1  0.22030000  0.45140000  0.08770000  1.0 0.1201809347
H  H192  1  0.27970000  0.36740000  0.23110000  1.0 0.1201809347
H  H193  1  0.80060000  0.83900000  0.76900000  1.0 0.1047256756
H  H194  1  0.57000000  0.03160000  0.73100000  1.0 0.1047256756
H  H195  1  0.93000000  0.66100000  0.46160000  1.0 0.1047256756
H  H196  1  0.69940000  0.46840000  0.03840000  1.0 0.1047256756
H  H197  1  0.76900000  0.80060000  0.83900000  1.0 0.1047256756
H  H198  1  0.73100000  0.57000000  0.03160000  1.0 0.1047256756
H  H199  1  0.46160000  0.93000000  0.66100000  1.0 0.1047256756
H  H200  1  0.03840000  0.69940000  0.46840000  1.0 0.1047256756
H  H201  1  0.83900000  0.76900000  0.80060000  1.0 0.1047256756
H  H202  1  0.03160000  0.73100000  0.57000000  1.0 0.1047256756
H  H203  1  0.66100000  0.46160000  0.93000000  1.0 0.1047256756
H  H204  1  0.46840000  0.03840000  0.69940000  1.0 0.1047256756
H  H205  1  0.46840000  0.93000000  0.76900000  1.0 0.1047256756
H  H206  1  0.66100000  0.69940000  0.73100000  1.0 0.1047256756
H  H207  1  0.03160000  0.80060000  0.46160000  1.0 0.1050830725
H  H208  1  0.83900000  0.57000000  0.03840000  1.0 0.1047256756
H  H209  1  0.57000000  0.03840000  0.83900000  1.0 0.1047256756
H  H210  1  0.80060000  0.46160000  0.03160000  1.0 0.1047256756
H  H211  1  0.69940000  0.73100000  0.66100000  1.0 0.1047256756
H  H212  1  0.93000000  0.76900000  0.46840000  1.0 0.1047256756
H  H213  1  0.46160000  0.03160000  0.80060000  1.0 0.1047256756
H  H214  1  0.03840000  0.83900000  0.57000000  1.0 0.1047256756
H  H215  1  0.76900000  0.46840000  0.93000000  1.0 0.1047256756
H  H216  1  0.73100000  0.66100000  0.69940000  1.0 0.1047256756
H  H217  1  0.19940000  0.16100000  0.23100000  1.0 0.1047256756
H  H218  1  0.43000000  0.96840000  0.26900000  1.0 0.1047256756
H  H219  1  0.07000000  0.33900000  0.53840000  1.0 0.1047256756
H  H220  1  0.30060000  0.53160000  0.96160000  1.0 0.1047256756
H  H221  1  0.23100000  0.19940000  0.16100000  1.0 0.1047256756
H  H222  1  0.26900000  0.43000000  0.96840000  1.0 0.1047256756
H  H223  1  0.53840000  0.07000000  0.33900000  1.0 0.1047256756
H  H224  1  0.96160000  0.30060000  0.53160000  1.0 0.1047256756
H  H225  1  0.16100000  0.23100000  0.19940000  1.0 0.1047256756
H  H226  1  0.96840000  0.26900000  0.43000000  1.0 0.1047256756
H  H227  1  0.33900000  0.53840000  0.07000000  1.0 0.1047256756
H  H228  1  0.53160000  0.96160000  0.30060000  1.0 0.1047256756
H  H229  1  0.53160000  0.07000000  0.23100000  1.0 0.1047256756
H  H230  1  0.33900000  0.30060000  0.26900000  1.0 0.1047256756
H  H231  1  0.96840000  0.19940000  0.53840000  1.0 0.1047256756
H  H232  1  0.16100000  0.43000000  0.96160000  1.0 0.1047256756
H  H233  1  0.43000000  0.96160000  0.16100000  1.0 0.1047256756
H  H234  1  0.19940000  0.53840000  0.96840000  1.0 0.1047256756
H  H235  1  0.30060000  0.26900000  0.33900000  1.0 0.1047256756
H  H236  1  0.07000000  0.23100000  0.53160000  1.0 0.1047256756
H  H237  1  0.53840000  0.96840000  0.19940000  1.0 0.1047256756
H  H238  1  0.96160000  0.16100000  0.43000000  1.0 0.1047256756
H  H239  1  0.23100000  0.53160000  0.07000000  1.0 0.1047256756
H  H240  1  0.26900000  0.33900000  0.30060000  1.0 0.1047256756
H  H241  1  0.88560000  0.90510000  0.77550000  1.0 0.1201809347
H  H242  1  0.62960000  0.11010000  0.72450000  1.0 0.1201809347
H  H243  1  0.87040000  0.59490000  0.48050000  1.0 0.1201809347
H  H244  1  0.61440000  0.38990000  0.01950000  1.0 0.1201809347
H  H245  1  0.77550000  0.88560000  0.90510000  1.0 0.1201809347
H  H246  1  0.72450000  0.62960000  0.11010000  1.0 0.1201809347
H  H247  1  0.48050000  0.87040000  0.59490000  1.0 0.1201809347
H  H248  1  0.01950000  0.61440000  0.38990000  1.0 0.1201809347
H  H249  1  0.90510000  0.77550000  0.88560000  1.0 0.1201809347
H  H250  1  0.11010000  0.72450000  0.62960000  1.0 0.1201809347
H  H251  1  0.59490000  0.48050000  0.87040000  1.0 0.1201809347
H  H252  1  0.38990000  0.01950000  0.61440000  1.0 0.1201809347
H  H253  1  0.38990000  0.87040000  0.77550000  1.0 0.1201809347
H  H254  1  0.59490000  0.61440000  0.72450000  1.0 0.1201809347
H  H255  1  0.11010000  0.88560000  0.48050000  1.0 0.1201809347
H  H256  1  0.90510000  0.62960000  0.01950000  1.0 0.1201809347
H  H257  1  0.62960000  0.01950000  0.90510000  1.0 0.1201809347
H  H258  1  0.88560000  0.48050000  0.11010000  1.0 0.1201809347
H  H259  1  0.61440000  0.72450000  0.59490000  1.0 0.1201809347
H  H260  1  0.87040000  0.77550000  0.38990000  1.0 0.1201809347
H  H261  1  0.48050000  0.11010000  0.88560000  1.0 0.1201809347
H  H262  1  0.01950000  0.90510000  0.62960000  1.0 0.1201809347
H  H263  1  0.77550000  0.38990000  0.87040000  1.0 0.1201809347
H  H264  1  0.72450000  0.59490000  0.61440000  1.0 0.1201809347
H  H265  1  0.11440000  0.09490000  0.22450000  1.0 0.1201809347
H  H266  1  0.37040000  0.88990000  0.27550000  1.0 0.1201809347
H  H267  1  0.12960000  0.40510000  0.51950000  1.0 0.1201809347
H  H268  1  0.38560000  0.61010000  0.98050000  1.0 0.1201809347
H  H269  1  0.22450000  0.11440000  0.09490000  1.0 0.1201809347
H  H270  1  0.27550000  0.37040000  0.88990000  1.0 0.1201809347
H  H271  1  0.51950000  0.12960000  0.40510000  1.0 0.1201809347
H  H272  1  0.98050000  0.38560000  0.61010000  1.0 0.1201809347
H  H273  1  0.09490000  0.22450000  0.11440000  1.0 0.1201809347
H  H274  1  0.88990000  0.27550000  0.37040000  1.0 0.1201809347
H  H275  1  0.40510000  0.51950000  0.12960000  1.0 0.1201809347
H  H276  1  0.61010000  0.98050000  0.38560000  1.0 0.1201809347
H  H277  1  0.61010000  0.12960000  0.22450000  1.0 0.1201809347
H  H278  1  0.40510000  0.38560000  0.27550000  1.0 0.1201809347
H  H279  1  0.88990000  0.11440000  0.51950000  1.0 0.1201809347
H  H280  1  0.09490000  0.37040000  0.98050000  1.0 0.1201809347
H  H281  1  0.37040000  0.98050000  0.09490000  1.0 0.1201809347
H  H282  1  0.11440000  0.51950000  0.88990000  1.0 0.1201809347
H  H283  1  0.38560000  0.27550000  0.40510000  1.0 0.1201809347
H  H284  1  0.12960000  0.22450000  0.61010000  1.0 0.1201809347
H  H285  1  0.51950000  0.88990000  0.11440000  1.0 0.1201809347
H  H286  1  0.98050000  0.09490000  0.37040000  1.0 0.1201809347
H  H287  1  0.22450000  0.61010000  0.12960000  1.0 0.1201809347
H  H288  1  0.27550000  0.40510000  0.38560000  1.0 0.1201809347
H  H289  1  0.90250000  0.00110000  0.79420000  1.0 0.1201809347
H  H290  1  0.70690000  0.10830000  0.70580000  1.0 0.1201809347
H  H291  1  0.79310000  0.49890000  0.40140000  1.0 0.1201809347
H  H292  1  0.59750000  0.39170000  0.09860000  1.0 0.1201809347
H  H293  1  0.79420000  0.90250000  0.00110000  1.0 0.1201809347
H  H294  1  0.70580000  0.70690000  0.10830000  1.0 0.1201809347
H  H295  1  0.40140000  0.79310000  0.49890000  1.0 0.1201809347
H  H296  1  0.09860000  0.59750000  0.39170000  1.0 0.1201809347
H  H297  1  0.00110000  0.79420000  0.90250000  1.0 0.1201809347
H  H298  1  0.10830000  0.70580000  0.70690000  1.0 0.1201809347
H  H299  1  0.49890000  0.40140000  0.79310000  1.0 0.1201809347
H  H300  1  0.39170000  0.09860000  0.59750000  1.0 0.1201809347
H  H301  1  0.39170000  0.79310000  0.79420000  1.0 0.1201809347
H  H302  1  0.49890000  0.59750000  0.70580000  1.0 0.1201809347
H  H303  1  0.10830000  0.90250000  0.40140000  1.0 0.1201809347
H  H304  1  0.00110000  0.70690000  0.09860000  1.0 0.1201809347
H  H305  1  0.70690000  0.09860000  0.00110000  1.0 0.1201809347
H  H306  1  0.90250000  0.40140000  0.10830000  1.0 0.1201809347
H  H307  1  0.59750000  0.70580000  0.49890000  1.0 0.1201809347
H  H308  1  0.79310000  0.79420000  0.39170000  1.0 0.1201809347
H  H309  1  0.40140000  0.10830000  0.90250000  1.0 0.1201809347
H  H310  1  0.09860000  0.00110000  0.70690000  1.0 0.1201809347
H  H311  1  0.79420000  0.39170000  0.79310000  1.0 0.1201809347
H  H312  1  0.70580000  0.49890000  0.59750000  1.0 0.1201809347
H  H313  1  0.09750000  0.99890000  0.20580000  1.0 0.1201809347
H  H314  1  0.29310000  0.89170000  0.29420000  1.0 0.1201809347
H  H315  1  0.20690000  0.50110000  0.59860000  1.0 0.1201809347
H  H316  1  0.40250000  0.60830000  0.90140000  1.0 0.1201809347
H  H317  1  0.20580000  0.09750000  0.99890000  1.0 0.1201809347
H  H318  1  0.29420000  0.29310000  0.89170000  1.0 0.1201809347
H  H319  1  0.59860000  0.20690000  0.50110000  1.0 0.1201809347
H  H320  1  0.90140000  0.40250000  0.60830000  1.0 0.1201809347
H  H321  1  0.99890000  0.20580000  0.09750000  1.0 0.1201809347
H  H322  1  0.89170000  0.29420000  0.29310000  1.0 0.1201809347
H  H323  1  0.50110000  0.59860000  0.20690000  1.0 0.1201809347
H  H324  1  0.60830000  0.90140000  0.40250000  1.0 0.1201809347
H  H325  1  0.60830000  0.20690000  0.20580000  1.0 0.1201809347
H  H326  1  0.50110000  0.40250000  0.29420000  1.0 0.1201809347
H  H327  1  0.89170000  0.09750000  0.59860000  1.0 0.1201809347
H  H328  1  0.99890000  0.29310000  0.90140000  1.0 0.1201809347
H  H329  1  0.29310000  0.90140000  0.99890000  1.0 0.1201809347
H  H330  1  0.09750000  0.59860000  0.89170000  1.0 0.1201809347
H  H331  1  0.40250000  0.29420000  0.50110000  1.0 0.1201809347
H  H332  1  0.20690000  0.20580000  0.60830000  1.0 0.1201809347
H  H333  1  0.59860000  0.89170000  0.09750000  1.0 0.1201809347
H  H334  1  0.90140000  0.99890000  0.29310000  1.0 0.1201809347
H  H335  1  0.20580000  0.60830000  0.20690000  1.0 0.1201809347
H  H336  1  0.29420000  0.50110000  0.40250000  1.0 0.1201809347
H  H337  1  0.73000000  0.14600000  0.87740000  1.0 0.1355286705
H  H338  1  0.76860000  0.85260000  0.62260000  1.0 0.1355286705
H  H339  1  0.73140000  0.35400000  0.08400000  1.0 0.1355286705
H  H340  1  0.77000000  0.64740000  0.41600000  1.0 0.1355286705
H  H341  1  0.87740000  0.73000000  0.14600000  1.0 0.1355286705
H  H342  1  0.62260000  0.76860000  0.85260000  1.0 0.1355286705
H  H343  1  0.08400000  0.73140000  0.35400000  1.0 0.1355286705
H  H344  1  0.41600000  0.77000000  0.64740000  1.0 0.1355286705
H  H345  1  0.14600000  0.87740000  0.73000000  1.0 0.1355286705
H  H346  1  0.85260000  0.62260000  0.76860000  1.0 0.1355286705
H  H347  1  0.35400000  0.08400000  0.73140000  1.0 0.1355286705
H  H348  1  0.64740000  0.41600000  0.77000000  1.0 0.1355286705
H  H349  1  0.64740000  0.73140000  0.87740000  1.0 0.1355286705
H  H350  1  0.35400000  0.77000000  0.62260000  1.0 0.1355286705
H  H351  1  0.85260000  0.73000000  0.08400000  1.0 0.1355286705
H  H352  1  0.14600000  0.76860000  0.41600000  1.0 0.1355286705
H  H353  1  0.76860000  0.41600000  0.14600000  1.0 0.1355286705
H  H354  1  0.73000000  0.08400000  0.85260000  1.0 0.1355286705
H  H355  1  0.77000000  0.62260000  0.35400000  1.0 0.1355286705
H  H356  1  0.73140000  0.87740000  0.64740000  1.0 0.1355286705
H  H357  1  0.08400000  0.85260000  0.73000000  1.0 0.1355286705
H  H358  1  0.41600000  0.14600000  0.76860000  1.0 0.1355286705
H  H359  1  0.87740000  0.64740000  0.73140000  1.0 0.1355286705
H  H360  1  0.62260000  0.35400000  0.77000000  1.0 0.1355286705
H  H361  1  0.27000000  0.85400000  0.12260000  1.0 0.1355286705
H  H362  1  0.23140000  0.14740000  0.37740000  1.0 0.1355286705
H  H363  1  0.26860000  0.64600000  0.91600000  1.0 0.1355286705
H  H364  1  0.23000000  0.35260000  0.58400000  1.0 0.1355286705
H  H365  1  0.12260000  0.27000000  0.85400000  1.0 0.1355286705
H  H366  1  0.37740000  0.23140000  0.14740000  1.0 0.1355286705
H  H367  1  0.91600000  0.26860000  0.64600000  1.0 0.1355286705
H  H368  1  0.58400000  0.23000000  0.35260000  1.0 0.1355286705
H  H369  1  0.85400000  0.12260000  0.27000000  1.0 0.1355286705
H  H370  1  0.14740000  0.37740000  0.23140000  1.0 0.1355286705
H  H371  1  0.64600000  0.91600000  0.26860000  1.0 0.1355286705
H  H372  1  0.35260000  0.58400000  0.23000000  1.0 0.1355286705
H  H373  1  0.35260000  0.26860000  0.12260000  1.0 0.1355286705
H  H374  1  0.64600000  0.23000000  0.37740000  1.0 0.1355286705
H  H375  1  0.14740000  0.27000000  0.91600000  1.0 0.1355286705
H  H376  1  0.85400000  0.23140000  0.58400000  1.0 0.1355286705
H  H377  1  0.23140000  0.58400000  0.85400000  1.0 0.1355286705
H  H378  1  0.27000000  0.91600000  0.14740000  1.0 0.1355286705
H  H379  1  0.23000000  0.37740000  0.64600000  1.0 0.1355286705
H  H380  1  0.26860000  0.12260000  0.35260000  1.0 0.1355286705
H  H381  1  0.91600000  0.14740000  0.27000000  1.0 0.1355286705
H  H382  1  0.58400000  0.85400000  0.23140000  1.0 0.1355286705
H  H383  1  0.12260000  0.35260000  0.26860000  1.0 0.1355286705
H  H384  1  0.37740000  0.64600000  0.23000000  1.0 0.1355286705
C  C1  1  0.80698000  0.20113000  0.85015000  1.0 -0.0710663922
C  C2  1  0.85098000  0.95683000  0.64985000  1.0 -0.0710663922
C  C3  1  0.64902000  0.29887000  0.10585000  1.0 -0.0710663922
C  C4  1  0.69302000  0.54317000  0.39415000  1.0 -0.0710663922
C  C5  1  0.85015000  0.80698000  0.20113000  1.0 -0.0710663922
C  C6  1  0.64985000  0.85098000  0.95683000  1.0 -0.0710663922
C  C7  1  0.10585000  0.64902000  0.29887000  1.0 -0.0710663922
C  C8  1  0.39415000  0.69302000  0.54317000  1.0 -0.0710663922
C  C9  1  0.20113000  0.85015000  0.80698000  1.0 -0.0710663922
C  C10  1  0.95683000  0.64985000  0.85098000  1.0 -0.0710663922
C  C11  1  0.29887000  0.10585000  0.64902000  1.0 -0.0710663922
C  C12  1  0.54317000  0.39415000  0.69302000  1.0 -0.0710663922
C  C13  1  0.54317000  0.64902000  0.85015000  1.0 -0.0710663922
C  C14  1  0.29887000  0.69302000  0.64985000  1.0 -0.0710663922
C  C15  1  0.95683000  0.80698000  0.10585000  1.0 -0.0710663922
C  C16  1  0.20113000  0.85098000  0.39415000  1.0 -0.0710663922
C  C17  1  0.85098000  0.39415000  0.20113000  1.0 -0.0710663922
C  C18  1  0.80698000  0.10585000  0.95683000  1.0 -0.0710663922
C  C19  1  0.69302000  0.64985000  0.29887000  1.0 -0.0710663922
C  C20  1  0.64902000  0.85015000  0.54317000  1.0 -0.0710663922
C  C21  1  0.10585000  0.95683000  0.80698000  1.0 -0.0710663922
C  C22  1  0.39415000  0.20113000  0.85098000  1.0 -0.0710663922
C  C23  1  0.85015000  0.54317000  0.64902000  1.0 -0.0710663922
C  C24  1  0.64985000  0.29887000  0.69302000  1.0 -0.0710663922
C  C25  1  0.19302000  0.79887000  0.14985000  1.0 -0.0710663922
C  C26  1  0.14902000  0.04317000  0.35015000  1.0 -0.0710663922
C  C27  1  0.35098000  0.70113000  0.89415000  1.0 -0.0710663922
C  C28  1  0.30698000  0.45683000  0.60585000  1.0 -0.0710663922
C  C29  1  0.14985000  0.19302000  0.79887000  1.0 -0.0710663922
C  C30  1  0.35015000  0.14902000  0.04317000  1.0 -0.0710663922
C  C31  1  0.89415000  0.35098000  0.70113000  1.0 -0.0710663922
C  C32  1  0.60585000  0.30698000  0.45683000  1.0 -0.0710663922
C  C33  1  0.79887000  0.14985000  0.19302000  1.0 -0.0710663922
C  C34  1  0.04317000  0.35015000  0.14902000  1.0 -0.0710663922
C  C35  1  0.70113000  0.89415000  0.35098000  1.0 -0.0710663922
C  C36  1  0.45683000  0.60585000  0.30698000  1.0 -0.0710663922
C  C37  1  0.45683000  0.35098000  0.14985000  1.0 -0.0710663922
C  C38  1  0.70113000  0.30698000  0.35015000  1.0 -0.0710663922
C  C39  1  0.04317000  0.19302000  0.89415000  1.0 -0.0710663922
C  C40  1  0.79887000  0.14902000  0.60585000  1.0 -0.0710663922
C  C41  1  0.14902000  0.60585000  0.79887000  1.0 -0.0710663922
C  C42  1  0.19302000  0.89415000  0.04317000  1.0 -0.0710663922
C  C43  1  0.30698000  0.35015000  0.70113000  1.0 -0.0710663922
C  C44  1  0.35098000  0.14985000  0.45683000  1.0 -0.0710663922
C  C45  1  0.89415000  0.04317000  0.19302000  1.0 -0.0710663922
C  C46  1  0.60585000  0.79887000  0.14902000  1.0 -0.0710663922
C  C47  1  0.14985000  0.45683000  0.35098000  1.0 -0.0710663922
C  C48  1  0.35015000  0.70113000  0.30698000  1.0 -0.0710663922
C  C49  1  0.83979000  0.20182000  0.82221000  1.0 -0.0174549559
C  C50  1  0.87961000  0.01758000  0.67779000  1.0 -0.0174549559
C  C51  1  0.62039000  0.29818000  0.13797000  1.0 -0.0174549559
C  C52  1  0.66021000  0.48242000  0.36203000  1.0 -0.0174549559
C  C53  1  0.82221000  0.83979000  0.20182000  1.0 -0.0174549559
C  C54  1  0.67779000  0.87961000  0.01758000  1.0 -0.0174549559
C  C55  1  0.13797000  0.62039000  0.29818000  1.0 -0.0174549559
C  C56  1  0.36203000  0.66021000  0.48242000  1.0 -0.0174549559
C  C57  1  0.20182000  0.82221000  0.83979000  1.0 -0.0174549559
C  C58  1  0.01758000  0.67779000  0.87961000  1.0 -0.0174549559
C  C59  1  0.29818000  0.13797000  0.62039000  1.0 -0.0174549559
C  C60  1  0.48242000  0.36203000  0.66021000  1.0 -0.0174549559
C  C61  1  0.48242000  0.62039000  0.82221000  1.0 -0.0174549559
C  C62  1  0.29818000  0.66021000  0.67779000  1.0 -0.0174549559
C  C63  1  0.01758000  0.83979000  0.13797000  1.0 -0.0174549559
C  C64  1  0.20182000  0.87961000  0.36203000  1.0 -0.0174549559
C  C65  1  0.87961000  0.36203000  0.20182000  1.0 -0.0174549559
C  C66  1  0.83979000  0.13797000  0.01758000  1.0 -0.0174549559
C  C67  1  0.66021000  0.67779000  0.29818000  1.0 -0.0174549559
C  C68  1  0.62039000  0.82221000  0.48242000  1.0 -0.0174549559
C  C69  1  0.13797000  0.01758000  0.83979000  1.0 -0.0174549559
C  C70  1  0.36203000  0.20182000  0.87961000  1.0 -0.0174549559
C  C71  1  0.82221000  0.48242000  0.62039000  1.0 -0.0174549559
C  C72  1  0.67779000  0.29818000  0.66021000  1.0 -0.0174549559
C  C73  1  0.16021000  0.79818000  0.17779000  1.0 -0.0174549559
C  C74  1  0.12039000  0.98242000  0.32221000  1.0 -0.0174549559
C  C75  1  0.37961000  0.70182000  0.86203000  1.0 -0.0174549559
C  C76  1  0.33979000  0.51758000  0.63797000  1.0 -0.0174549559
C  C77  1  0.17779000  0.16021000  0.79818000  1.0 -0.0174549559
C  C78  1  0.32221000  0.12039000  0.98242000  1.0 -0.0174549559
C  C79  1  0.86203000  0.37961000  0.70182000  1.0 -0.0174549559
C  C80  1  0.63797000  0.33979000  0.51758000  1.0 -0.0174549559
C  C81  1  0.79818000  0.17779000  0.16021000  1.0 -0.0174549559
C  C82  1  0.98242000  0.32221000  0.12039000  1.0 -0.0174549559
C  C83  1  0.70182000  0.86203000  0.37961000  1.0 -0.0174549559
C  C84  1  0.51758000  0.63797000  0.33979000  1.0 -0.0174549559
C  C85  1  0.51758000  0.37961000  0.17779000  1.0 -0.0174549559
C  C86  1  0.70182000  0.33979000  0.32221000  1.0 -0.0174549559
C  C87  1  0.98242000  0.16021000  0.86203000  1.0 -0.0174549559
C  C88  1  0.79818000  0.12039000  0.63797000  1.0 -0.0174549559
C  C89  1  0.12039000  0.63797000  0.79818000  1.0 -0.0174549559
C  C90  1  0.16021000  0.86203000  0.98242000  1.0 -0.0174549559
C  C91  1  0.33979000  0.32221000  0.70182000  1.0 -0.0174549559
C  C92  1  0.37961000  0.17779000  0.51758000  1.0 -0.0174549559
C  C93  1  0.86203000  0.98242000  0.16021000  1.0 -0.0174549559
C  C94  1  0.63797000  0.79818000  0.12039000  1.0 -0.0174549559
C  C95  1  0.17779000  0.51758000  0.37961000  1.0 -0.0174549559
C  C96  1  0.32221000  0.70182000  0.33979000  1.0 -0.0174549559
C  C97  1  0.81777000  0.12199000  0.82876000  1.0 0.3198022562
C  C98  1  0.79323000  0.98901000  0.67124000  1.0 0.3198022562
C  C99  1  0.70677000  0.37801000  0.19578000  1.0 0.3198022562
C  C100  1  0.68223000  0.51099000  0.30422000  1.0 0.3198022562
C  C101  1  0.82876000  0.81777000  0.12199000  1.0 0.3198022562
C  C102  1  0.67124000  0.79323000  0.98901000  1.0 0.3198022562
C  C103  1  0.19578000  0.70677000  0.37801000  1.0 0.3198022562
C  C104  1  0.30422000  0.68223000  0.51099000  1.0 0.3198022562
C  C105  1  0.12199000  0.82876000  0.81777000  1.0 0.3198022562
C  C106  1  0.98901000  0.67124000  0.79323000  1.0 0.3198022562
C  C107  1  0.37801000  0.19578000  0.70677000  1.0 0.3198022562
C  C108  1  0.51099000  0.30422000  0.68223000  1.0 0.3198022562
C  C109  1  0.51099000  0.70677000  0.82876000  1.0 0.3198022562
C  C110  1  0.37801000  0.68223000  0.67124000  1.0 0.3198022562
C  C111  1  0.98901000  0.81777000  0.19578000  1.0 0.3198022562
C  C112  1  0.12199000  0.79323000  0.30422000  1.0 0.3198022562
C  C113  1  0.79323000  0.30422000  0.12199000  1.0 0.3198022562
C  C114  1  0.81777000  0.19578000  0.98901000  1.0 0.3198022562
C  C115  1  0.68223000  0.67124000  0.37801000  1.0 0.3198022562
C  C116  1  0.70677000  0.82876000  0.51099000  1.0 0.3198022562
C  C117  1  0.19578000  0.98901000  0.81777000  1.0 0.3198022562
C  C118  1  0.30422000  0.12199000  0.79323000  1.0 0.3198022562
C  C119  1  0.82876000  0.51099000  0.70677000  1.0 0.3198022562
C  C120  1  0.67124000  0.37801000  0.68223000  1.0 0.3198022562
C  C121  1  0.18223000  0.87801000  0.17124000  1.0 0.3198022562
C  C122  1  0.20677000  0.01099000  0.32876000  1.0 0.3198022562
C  C123  1  0.29323000  0.62199000  0.80422000  1.0 0.3198022562
C  C124  1  0.31777000  0.48901000  0.69578000  1.0 0.3198022562
C  C125  1  0.17124000  0.18223000  0.87801000  1.0 0.3198022562
C  C126  1  0.32876000  0.20677000  0.01099000  1.0 0.3198022562
C  C127  1  0.80422000  0.29323000  0.62199000  1.0 0.3198022562
C  C128  1  0.69578000  0.31777000  0.48901000  1.0 0.3198022562
C  C129  1  0.87801000  0.17124000  0.18223000  1.0 0.3198022562
C  C130  1  0.01099000  0.32876000  0.20677000  1.0 0.3198022562
C  C131  1  0.62199000  0.80422000  0.29323000  1.0 0.3198022562
C  C132  1  0.48901000  0.69578000  0.31777000  1.0 0.3198022562
C  C133  1  0.48901000  0.29323000  0.17124000  1.0 0.3198022562
C  C134  1  0.62199000  0.31777000  0.32876000  1.0 0.3198022562
C  C135  1  0.01099000  0.18223000  0.80422000  1.0 0.3198022562
C  C136  1  0.87801000  0.20677000  0.69578000  1.0 0.3198022562
C  C137  1  0.20677000  0.69578000  0.87801000  1.0 0.3198022562
C  C138  1  0.18223000  0.80422000  0.01099000  1.0 0.3198022562
C  C139  1  0.31777000  0.32876000  0.62199000  1.0 0.3198022562
C  C140  1  0.29323000  0.17124000  0.48901000  1.0 0.3198022562
C  C141  1  0.80422000  0.01099000  0.18223000  1.0 0.3198022562
C  C142  1  0.69578000  0.87801000  0.20677000  1.0 0.3198022562
C  C143  1  0.17124000  0.48901000  0.29323000  1.0 0.3198022562
C  C144  1  0.32876000  0.62199000  0.31777000  1.0 0.3198022562
C  C145  1  0.82705000  0.99086000  0.79907000  1.0 0.1568977565
C  C146  1  0.69179000  0.02798000  0.70093000  1.0 0.1568977565
C  C147  1  0.80821000  0.50914000  0.33619000  1.0 0.1568977565
C  C148  1  0.67295000  0.47202000  0.16381000  1.0 0.1568977565
C  C149  1  0.79907000  0.82705000  0.99086000  1.0 0.1568977565
C  C150  1  0.70093000  0.69179000  0.02798000  1.0 0.1568977565
C  C151  1  0.33619000  0.80821000  0.50914000  1.0 0.1568977565
C  C152  1  0.16381000  0.67295000  0.47202000  1.0 0.1568977565
C  C153  1  0.99086000  0.79907000  0.82705000  1.0 0.1568977565
C  C154  1  0.02798000  0.70093000  0.69179000  1.0 0.1568977565
C  C155  1  0.50914000  0.33619000  0.80821000  1.0 0.1568977565
C  C156  1  0.47202000  0.16381000  0.67295000  1.0 0.1568977565
C  C157  1  0.47202000  0.80821000  0.79907000  1.0 0.1568977565
C  C158  1  0.50914000  0.67295000  0.70093000  1.0 0.1568977565
C  C159  1  0.02798000  0.82705000  0.33619000  1.0 0.1568977565
C  C160  1  0.99086000  0.69179000  0.16381000  1.0 0.1568977565
C  C161  1  0.69179000  0.16381000  0.99086000  1.0 0.1568977565
C  C162  1  0.82705000  0.33619000  0.02798000  1.0 0.1568977565
C  C163  1  0.67295000  0.70093000  0.50914000  1.0 0.1568977565
C  C164  1  0.80821000  0.79907000  0.47202000  1.0 0.1568977565
C  C165  1  0.33619000  0.02798000  0.82705000  1.0 0.1568977565
C  C166  1  0.16381000  0.99086000  0.69179000  1.0 0.1568977565
C  C167  1  0.79907000  0.47202000  0.80821000  1.0 0.1568977565
C  C168  1  0.70093000  0.50914000  0.67295000  1.0 0.1568977565
C  C169  1  0.17295000  0.00914000  0.20093000  1.0 0.1568977565
C  C170  1  0.30821000  0.97202000  0.29907000  1.0 0.1568977565
C  C171  1  0.19179000  0.49086000  0.66381000  1.0 0.1568977565
C  C172  1  0.32705000  0.52798000  0.83619000  1.0 0.1568977565
C  C173  1  0.20093000  0.17295000  0.00914000  1.0 0.1568977565
C  C174  1  0.29907000  0.30821000  0.97202000  1.0 0.1568977565
C  C175  1  0.66381000  0.19179000  0.49086000  1.0 0.1568977565
C  C176  1  0.83619000  0.32705000  0.52798000  1.0 0.1568977565
C  C177  1  0.00914000  0.20093000  0.17295000  1.0 0.1568977565
C  C178  1  0.97202000  0.29907000  0.30821000  1.0 0.1568977565
C  C179  1  0.49086000  0.66381000  0.19179000  1.0 0.1568977565
C  C180  1  0.52798000  0.83619000  0.32705000  1.0 0.1568977565
C  C181  1  0.52798000  0.19179000  0.20093000  1.0 0.1568977565
C  C182  1  0.49086000  0.32705000  0.29907000  1.0 0.1568977565
C  C183  1  0.97202000  0.17295000  0.66381000  1.0 0.1568977565
C  C184  1  0.00914000  0.30821000  0.83619000  1.0 0.1568977565
C  C185  1  0.30821000  0.83619000  0.00914000  1.0 0.1568977565
C  C186  1  0.17295000  0.66381000  0.97202000  1.0 0.1568977565
C  C187  1  0.32705000  0.29907000  0.49086000  1.0 0.1568977565
C  C188  1  0.19179000  0.20093000  0.52798000  1.0 0.1568977565
C  C189  1  0.66381000  0.97202000  0.17295000  1.0 0.1568977565
C  C190  1  0.83619000  0.00914000  0.30821000  1.0 0.1568977565
C  C191  1  0.20093000  0.52798000  0.19179000  1.0 0.1568977565
C  C192  1  0.29907000  0.49086000  0.32705000  1.0 0.1568977565
C  C193  1  0.77596000  0.95139000  0.79463000  1.0 -0.1302487622
C  C194  1  0.65676000  0.98133000  0.70537000  1.0 -0.1302487622
C  C195  1  0.84324000  0.54861000  0.32457000  1.0 -0.1302487622
C  C196  1  0.72404000  0.51867000  0.17543000  1.0 -0.1302487622
C  C197  1  0.79463000  0.77596000  0.95139000  1.0 -0.1302487622
C  C198  1  0.70537000  0.65676000  0.98133000  1.0 -0.1302487622
C  C199  1  0.32457000  0.84324000  0.54861000  1.0 -0.1302487622
C  C200  1  0.17543000  0.72404000  0.51867000  1.0 -0.1302487622
C  C201  1  0.95139000  0.79463000  0.77596000  1.0 -0.1302487622
C  C202  1  0.98133000  0.70537000  0.65676000  1.0 -0.1302487622
C  C203  1  0.54861000  0.32457000  0.84324000  1.0 -0.1302487622
C  C204  1  0.51867000  0.17543000  0.72404000  1.0 -0.1302487622
C  C205  1  0.51867000  0.84324000  0.79463000  1.0 -0.1302487622
C  C206  1  0.54861000  0.72404000  0.70537000  1.0 -0.1302487622
C  C207  1  0.98133000  0.77596000  0.32457000  1.0 -0.1302487622
C  C208  1  0.95139000  0.65676000  0.17543000  1.0 -0.1302487622
C  C209  1  0.65676000  0.17543000  0.95139000  1.0 -0.1302487622
C  C210  1  0.77596000  0.32457000  0.98133000  1.0 -0.1302487622
C  C211  1  0.72404000  0.70537000  0.54861000  1.0 -0.1302487622
C  C212  1  0.84324000  0.79463000  0.51867000  1.0 -0.1302487622
C  C213  1  0.32457000  0.98133000  0.77596000  1.0 -0.1302487622
C  C214  1  0.17543000  0.95139000  0.65676000  1.0 -0.1302487622
C  C215  1  0.79463000  0.51867000  0.84324000  1.0 -0.1302487622
C  C216  1  0.70537000  0.54861000  0.72404000  1.0 -0.1302487622
C  C217  1  0.22404000  0.04861000  0.20537000  1.0 -0.1302487622
C  C218  1  0.34324000  0.01867000  0.29463000  1.0 -0.1302487622
C  C219  1  0.15676000  0.45139000  0.67543000  1.0 -0.1302487622
C  C220  1  0.27596000  0.48133000  0.82457000  1.0 -0.1302487622
C  C221  1  0.20537000  0.22404000  0.04861000  1.0 -0.1302487622
C  C222  1  0.29463000  0.34324000  0.01867000  1.0 -0.1302487622
C  C223  1  0.67543000  0.15676000  0.45139000  1.0 -0.1302487622
C  C224  1  0.82457000  0.27596000  0.48133000  1.0 -0.1302487622
C  C225  1  0.04861000  0.20537000  0.22404000  1.0 -0.1302487622
C  C226  1  0.01867000  0.29463000  0.34324000  1.0 -0.1302487622
C  C227  1  0.45139000  0.67543000  0.15676000  1.0 -0.1302487622
C  C228  1  0.48133000  0.82457000  0.27596000  1.0 -0.1302487622
C  C229  1  0.48133000  0.15676000  0.20537000  1.0 -0.1302487622
C  C230  1  0.45139000  0.27596000  0.29463000  1.0 -0.1302487622
C  C231  1  0.01867000  0.22404000  0.67543000  1.0 -0.1302487622
C  C232  1  0.04861000  0.34324000  0.82457000  1.0 -0.1302487622
C  C233  1  0.34324000  0.82457000  0.04861000  1.0 -0.1302487622
C  C234  1  0.22404000  0.67543000  0.01867000  1.0 -0.1302487622
C  C235  1  0.27596000  0.29463000  0.45139000  1.0 -0.1302487622
C  C236  1  0.15676000  0.20537000  0.48133000  1.0 -0.1302487622
C  C237  1  0.67543000  0.01867000  0.22404000  1.0 -0.1302487622
C  C238  1  0.82457000  0.04861000  0.34324000  1.0 -0.1302487622
C  C239  1  0.20537000  0.48133000  0.15676000  1.0 -0.1302487622
C  C240  1  0.29463000  0.45139000  0.27596000  1.0 -0.1302487622
C  C241  1  0.76611000  0.89490000  0.78313000  1.0 -0.0710663922
C  C242  1  0.61177000  0.98298000  0.71687000  1.0 -0.0710663922
C  C243  1  0.88823000  0.60510000  0.37121000  1.0 -0.0710663922
C  C244  1  0.73389000  0.51702000  0.12879000  1.0 -0.0710663922
C  C245  1  0.78313000  0.76611000  0.89490000  1.0 -0.0710663922
C  C246  1  0.71687000  0.61177000  0.98298000  1.0 -0.0710663922
C  C247  1  0.37121000  0.88823000  0.60510000  1.0 -0.0710663922
C  C248  1  0.12879000  0.73389000  0.51702000  1.0 -0.0710663922
C  C249  1  0.89490000  0.78313000  0.76611000  1.0 -0.0710663922
C  C250  1  0.98298000  0.71687000  0.61177000  1.0 -0.0710663922
C  C251  1  0.60510000  0.37121000  0.88823000  1.0 -0.0710663922
C  C252  1  0.51702000  0.12879000  0.73389000  1.0 -0.0710663922
C  C253  1  0.51702000  0.88823000  0.78313000  1.0 -0.0710663922
C  C254  1  0.60510000  0.73389000  0.71687000  1.0 -0.0710663922
C  C255  1  0.98298000  0.76611000  0.37121000  1.0 -0.0710663922
C  C256  1  0.89490000  0.61177000  0.12879000  1.0 -0.0710663922
C  C257  1  0.61177000  0.12879000  0.89490000  1.0 -0.0710663922
C  C258  1  0.76611000  0.37121000  0.98298000  1.0 -0.0710663922
C  C259  1  0.73389000  0.71687000  0.60510000  1.0 -0.0710663922
C  C260  1  0.88823000  0.78313000  0.51702000  1.0 -0.0710663922
C  C261  1  0.37121000  0.98298000  0.76611000  1.0 -0.0710663922
C  C262  1  0.12879000  0.89490000  0.61177000  1.0 -0.0710663922
C  C263  1  0.78313000  0.51702000  0.88823000  1.0 -0.0710663922
C  C264  1  0.71687000  0.60510000  0.73389000  1.0 -0.0710663922
C  C265  1  0.23389000  0.10510000  0.21687000  1.0 -0.0710663922
C  C266  1  0.38823000  0.01702000  0.28313000  1.0 -0.0710663922
C  C267  1  0.11177000  0.39490000  0.62879000  1.0 -0.0710663922
C  C268  1  0.26611000  0.48298000  0.87121000  1.0 -0.0710663922
C  C269  1  0.21687000  0.23389000  0.10510000  1.0 -0.0710663922
C  C270  1  0.28313000  0.38823000  0.01702000  1.0 -0.0710663922
C  C271  1  0.62879000  0.11177000  0.39490000  1.0 -0.0710663922
C  C272  1  0.87121000  0.26611000  0.48298000  1.0 -0.0710663922
C  C273  1  0.10510000  0.21687000  0.23389000  1.0 -0.0710663922
C  C274  1  0.01702000  0.28313000  0.38823000  1.0 -0.0710663922
C  C275  1  0.39490000  0.62879000  0.11177000  1.0 -0.0710663922
C  C276  1  0.48298000  0.87121000  0.26611000  1.0 -0.0710663922
C  C277  1  0.48298000  0.11177000  0.21687000  1.0 -0.0710663922
C  C278  1  0.39490000  0.26611000  0.28313000  1.0 -0.0710663922
C  C279  1  0.01702000  0.23389000  0.62879000  1.0 -0.0710663922
C  C280  1  0.10510000  0.38823000  0.87121000  1.0 -0.0710663922
C  C281  1  0.38823000  0.87121000  0.10510000  1.0 -0.0710663922
C  C282  1  0.23389000  0.62879000  0.01702000  1.0 -0.0710663922
C  C283  1  0.26611000  0.28313000  0.39490000  1.0 -0.0710663922
C  C284  1  0.11177000  0.21687000  0.48298000  1.0 -0.0710663922
C  C285  1  0.62879000  0.01702000  0.23389000  1.0 -0.0710663922
C  C286  1  0.87121000  0.10510000  0.38823000  1.0 -0.0710663922
C  C287  1  0.21687000  0.48298000  0.11177000  1.0 -0.0710663922
C  C288  1  0.28313000  0.39490000  0.26611000  1.0 -0.0710663922
C  C289  1  0.80740000  0.87787000  0.77637000  1.0 -0.1024551156
C  C290  1  0.60150000  0.03103000  0.72363000  1.0 -0.1024551156
C  C291  1  0.89850000  0.62213000  0.42953000  1.0 -0.1024551156
C  C292  1  0.69260000  0.46897000  0.07047000  1.0 -0.1024551156
C  C293  1  0.77637000  0.80740000  0.87787000  1.0 -0.1024551156
C  C294  1  0.72363000  0.60150000  0.03103000  1.0 -0.1024551156
C  C295  1  0.42953000  0.89850000  0.62213000  1.0 -0.1024551156
C  C296  1  0.07047000  0.69260000  0.46897000  1.0 -0.1024551156
C  C297  1  0.87787000  0.77637000  0.80740000  1.0 -0.1024551156
C  C298  1  0.03103000  0.72363000  0.60150000  1.0 -0.1024551156
C  C299  1  0.62213000  0.42953000  0.89850000  1.0 -0.1024551156
C  C300  1  0.46897000  0.07047000  0.69260000  1.0 -0.1024551156
C  C301  1  0.46897000  0.89850000  0.77637000  1.0 -0.1024551156
C  C302  1  0.62213000  0.69260000  0.72363000  1.0 -0.1024551156
C  C303  1  0.03103000  0.80740000  0.42953000  1.0 -0.1024551156
C  C304  1  0.87787000  0.60150000  0.07047000  1.0 -0.1024551156
C  C305  1  0.60150000  0.07047000  0.87787000  1.0 -0.1024551156
C  C306  1  0.80740000  0.42953000  0.03103000  1.0 -0.1024551156
C  C307  1  0.69260000  0.72363000  0.62213000  1.0 -0.1024551156
C  C308  1  0.89850000  0.77637000  0.46897000  1.0 -0.1024551156
C  C309  1  0.42953000  0.03103000  0.80740000  1.0 -0.1024551156
C  C310  1  0.07047000  0.87787000  0.60150000  1.0 -0.1024551156
C  C311  1  0.77637000  0.46897000  0.89850000  1.0 -0.1024551156
C  C312  1  0.72363000  0.62213000  0.69260000  1.0 -0.1024551156
C  C313  1  0.19260000  0.12213000  0.22363000  1.0 -0.1024551156
C  C314  1  0.39850000  0.96897000  0.27637000  1.0 -0.1024551156
C  C315  1  0.10150000  0.37787000  0.57047000  1.0 -0.1024551156
C  C316  1  0.30740000  0.53103000  0.92953000  1.0 -0.1024551156
C  C317  1  0.22363000  0.19260000  0.12213000  1.0 -0.1024551156
C  C318  1  0.27637000  0.39850000  0.96897000  1.0 -0.1024551156
C  C319  1  0.57047000  0.10150000  0.37787000  1.0 -0.1024551156
C  C320  1  0.92953000  0.30740000  0.53103000  1.0 -0.1024551156
C  C321  1  0.12213000  0.22363000  0.19260000  1.0 -0.1024551156
C  C322  1  0.96897000  0.27637000  0.39850000  1.0 -0.1024551156
C  C323  1  0.37787000  0.57047000  0.10150000  1.0 -0.1024551156
C  C324  1  0.53103000  0.92953000  0.30740000  1.0 -0.1024551156
C  C325  1  0.53103000  0.10150000  0.22363000  1.0 -0.1024551156
C  C326  1  0.37787000  0.30740000  0.27637000  1.0 -0.1024551156
C  C327  1  0.96897000  0.19260000  0.57047000  1.0 -0.1024551156
C  C328  1  0.12213000  0.39850000  0.92953000  1.0 -0.1024551156
C  C329  1  0.39850000  0.92953000  0.12213000  1.0 -0.1024551156
C  C330  1  0.19260000  0.57047000  0.96897000  1.0 -0.1024551156
C  C331  1  0.30740000  0.27637000  0.37787000  1.0 -0.1024551156
C  C332  1  0.10150000  0.22363000  0.53103000  1.0 -0.1024551156
C  C333  1  0.57047000  0.96897000  0.19260000  1.0 -0.1024551156
C  C334  1  0.92953000  0.12213000  0.39850000  1.0 -0.1024551156
C  C335  1  0.22363000  0.53103000  0.10150000  1.0 -0.1024551156
C  C336  1  0.27637000  0.37787000  0.30740000  1.0 -0.1024551156
C  C337  1  0.85778000  0.91699000  0.78039000  1.0 -0.0710663922
C  C338  1  0.63660000  0.07739000  0.71961000  1.0 -0.0710663922
C  C339  1  0.86340000  0.58301000  0.44079000  1.0 -0.0710663922
C  C340  1  0.64222000  0.42261000  0.05921000  1.0 -0.0710663922
C  C341  1  0.78039000  0.85778000  0.91699000  1.0 -0.0710663922
C  C342  1  0.71961000  0.63660000  0.07739000  1.0 -0.0710663922
C  C343  1  0.44079000  0.86340000  0.58301000  1.0 -0.0710663922
C  C344  1  0.05921000  0.64222000  0.42261000  1.0 -0.0710663922
C  C345  1  0.91699000  0.78039000  0.85778000  1.0 -0.0710663922
C  C346  1  0.07739000  0.71961000  0.63660000  1.0 -0.0710663922
C  C347  1  0.58301000  0.44079000  0.86340000  1.0 -0.0710663922
C  C348  1  0.42261000  0.05921000  0.64222000  1.0 -0.0710663922
C  C349  1  0.42261000  0.86340000  0.78039000  1.0 -0.0710663922
C  C350  1  0.58301000  0.64222000  0.71961000  1.0 -0.0710663922
C  C351  1  0.07739000  0.85778000  0.44079000  1.0 -0.0710663922
C  C352  1  0.91699000  0.63660000  0.05921000  1.0 -0.0710663922
C  C353  1  0.63660000  0.05921000  0.91699000  1.0 -0.0710663922
C  C354  1  0.85778000  0.44079000  0.07739000  1.0 -0.0710663922
C  C355  1  0.64222000  0.71961000  0.58301000  1.0 -0.0710663922
C  C356  1  0.86340000  0.78039000  0.42261000  1.0 -0.0710663922
C  C357  1  0.44079000  0.07739000  0.85778000  1.0 -0.0710663922
C  C358  1  0.05921000  0.91699000  0.63660000  1.0 -0.0710663922
C  C359  1  0.78039000  0.42261000  0.86340000  1.0 -0.0710663922
C  C360  1  0.71961000  0.58301000  0.64222000  1.0 -0.0710663922
C  C361  1  0.14222000  0.08301000  0.21961000  1.0 -0.0710663922
C  C362  1  0.36340000  0.92261000  0.28039000  1.0 -0.0710663922
C  C363  1  0.13660000  0.41699000  0.55921000  1.0 -0.0710663922
C  C364  1  0.35778000  0.57739000  0.94079000  1.0 -0.0710663922
C  C365  1  0.21961000  0.14222000  0.08301000  1.0 -0.0710663922
C  C366  1  0.28039000  0.36340000  0.92261000  1.0 -0.0710663922
C  C367  1  0.55921000  0.13660000  0.41699000  1.0 -0.0710663922
C  C368  1  0.94079000  0.35778000  0.57739000  1.0 -0.0710663922
C  C369  1  0.08301000  0.21961000  0.14222000  1.0 -0.0710663922
C  C370  1  0.92261000  0.28039000  0.36340000  1.0 -0.0710663922
C  C371  1  0.41699000  0.55921000  0.13660000  1.0 -0.0710663922
C  C372  1  0.57739000  0.94079000  0.35778000  1.0 -0.0710663922
C  C373  1  0.57739000  0.13660000  0.21961000  1.0 -0.0710663922
C  C374  1  0.41699000  0.35778000  0.28039000  1.0 -0.0710663922
C  C375  1  0.92261000  0.14222000  0.55921000  1.0 -0.0710663922
C  C376  1  0.08301000  0.36340000  0.94079000  1.0 -0.0710663922
C  C377  1  0.36340000  0.94079000  0.08301000  1.0 -0.0710663922
C  C378  1  0.14222000  0.55921000  0.92261000  1.0 -0.0710663922
C  C379  1  0.35778000  0.28039000  0.41699000  1.0 -0.0710663922
C  C380  1  0.13660000  0.21961000  0.57739000  1.0 -0.0710663922
C  C381  1  0.55921000  0.92261000  0.14222000  1.0 -0.0710663922
C  C382  1  0.94079000  0.08301000  0.36340000  1.0 -0.0710663922
C  C383  1  0.21961000  0.57739000  0.13660000  1.0 -0.0710663922
C  C384  1  0.28039000  0.41699000  0.35778000  1.0 -0.0710663922
C  C385  1  0.86788000  0.97393000  0.79163000  1.0 -0.1499993486
C  C386  1  0.68230000  0.07625000  0.70837000  1.0 -0.1499993486
C  C387  1  0.81770000  0.52607000  0.39395000  1.0 -0.1499993486
C  C388  1  0.63212000  0.42375000  0.10605000  1.0 -0.1499993486
C  C389  1  0.79163000  0.86788000  0.97393000  1.0 -0.1499993486
C  C390  1  0.70837000  0.68230000  0.07625000  1.0 -0.1499993486
C  C391  1  0.39395000  0.81770000  0.52607000  1.0 -0.1499993486
C  C392  1  0.10605000  0.63212000  0.42375000  1.0 -0.1499993486
C  C393  1  0.97393000  0.79163000  0.86788000  1.0 -0.1499993486
C  C394  1  0.07625000  0.70837000  0.68230000  1.0 -0.1499993486
C  C395  1  0.52607000  0.39395000  0.81770000  1.0 -0.1499993486
C  C396  1  0.42375000  0.10605000  0.63212000  1.0 -0.1499993486
C  C397  1  0.42375000  0.81770000  0.79163000  1.0 -0.1499993486
C  C398  1  0.52607000  0.63212000  0.70837000  1.0 -0.1499993486
C  C399  1  0.07625000  0.86788000  0.39395000  1.0 -0.1499993486
C  C400  1  0.97393000  0.68230000  0.10605000  1.0 -0.1499993486
C  C401  1  0.68230000  0.10605000  0.97393000  1.0 -0.1499993486
C  C402  1  0.86788000  0.39395000  0.07625000  1.0 -0.1499993486
C  C403  1  0.63212000  0.70837000  0.52607000  1.0 -0.1499993486
C  C404  1  0.81770000  0.79163000  0.42375000  1.0 -0.1499993486
C  C405  1  0.39395000  0.07625000  0.86788000  1.0 -0.1499993486
C  C406  1  0.10605000  0.97393000  0.68230000  1.0 -0.1499993486
C  C407  1  0.79163000  0.42375000  0.81770000  1.0 -0.1499993486
C  C408  1  0.70837000  0.52607000  0.63212000  1.0 -0.1499993486
C  C409  1  0.13212000  0.02607000  0.20837000  1.0 -0.1499993486
C  C410  1  0.31770000  0.92375000  0.29163000  1.0 -0.1499993486
C  C411  1  0.18230000  0.47393000  0.60605000  1.0 -0.1499993486
C  C412  1  0.36788000  0.57625000  0.89395000  1.0 -0.1499993486
C  C413  1  0.20837000  0.13212000  0.02607000  1.0 -0.1499993486
C  C414  1  0.29163000  0.31770000  0.92375000  1.0 -0.1499993486
C  C415  1  0.60605000  0.18230000  0.47393000  1.0 -0.1499993486
C  C416  1  0.89395000  0.36788000  0.57625000  1.0 -0.1499993486
C  C417  1  0.02607000  0.20837000  0.13212000  1.0 -0.1499993486
C  C418  1  0.92375000  0.29163000  0.31770000  1.0 -0.1499993486
C  C419  1  0.47393000  0.60605000  0.18230000  1.0 -0.1499993486
C  C420  1  0.57625000  0.89395000  0.36788000  1.0 -0.1499993486
C  C421  1  0.57625000  0.18230000  0.20837000  1.0 -0.1499993486
C  C422  1  0.47393000  0.36788000  0.29163000  1.0 -0.1499993486
C  C423  1  0.92375000  0.13212000  0.60605000  1.0 -0.1499993486
C  C424  1  0.02607000  0.31770000  0.89395000  1.0 -0.1499993486
C  C425  1  0.31770000  0.89395000  0.02607000  1.0 -0.1499993486
C  C426  1  0.13212000  0.60605000  0.92375000  1.0 -0.1499993486
C  C427  1  0.36788000  0.29163000  0.47393000  1.0 -0.1499993486
C  C428  1  0.18230000  0.20837000  0.57625000  1.0 -0.1499993486
C  C429  1  0.60605000  0.92375000  0.13212000  1.0 -0.1499993486
C  C430  1  0.89395000  0.02607000  0.31770000  1.0 -0.1499993486
C  C431  1  0.20837000  0.57625000  0.18230000  1.0 -0.1499993486
C  C432  1  0.29163000  0.47393000  0.36788000  1.0 -0.1499993486
C  C433  1  0.75606000  0.12803000  0.87803000  1.0 0.0060456764
C  C434  1  0.75000000  0.87803000  0.62197000  1.0 0.0060456764
C  C435  1  0.75000000  0.37197000  0.12803000  1.0 0.0060456764
C  C436  1  0.74394000  0.62197000  0.37197000  1.0 0.0060456764
C  C437  1  0.87803000  0.75606000  0.12803000  1.0 0.0060456764
C  C438  1  0.62197000  0.75000000  0.87803000  1.0 0.0060456764
C  C439  1  0.12803000  0.75000000  0.37197000  1.0 0.0060456764
C  C440  1  0.37197000  0.74394000  0.62197000  1.0 0.0060456764
C  C441  1  0.12803000  0.87803000  0.75606000  1.0 0.0060456764
C  C442  1  0.87803000  0.62197000  0.75000000  1.0 0.0060456764
C  C443  1  0.37197000  0.12803000  0.75000000  1.0 0.0060456764
C  C444  1  0.62197000  0.37197000  0.74394000  1.0 0.0060456764
C  C445  1  0.24394000  0.87197000  0.12197000  1.0 0.0060456764
C  C446  1  0.25000000  0.12197000  0.37803000  1.0 0.0060456764
C  C447  1  0.25000000  0.62803000  0.87197000  1.0 0.0060456764
C  C448  1  0.25606000  0.37803000  0.62803000  1.0 0.0060456764
C  C449  1  0.12197000  0.24394000  0.87197000  1.0 0.0060456764
C  C450  1  0.37803000  0.25000000  0.12197000  1.0 0.0060456764
C  C451  1  0.87197000  0.25000000  0.62803000  1.0 0.0060456764
C  C452  1  0.62803000  0.25606000  0.37803000  1.0 0.0060456764
C  C453  1  0.87197000  0.12197000  0.24394000  1.0 0.0060456764
C  C454  1  0.12197000  0.37803000  0.25000000  1.0 0.0060456764
C  C455  1  0.62803000  0.87197000  0.25000000  1.0 0.0060456764
C  C456  1  0.37803000  0.62803000  0.25606000  1.0 0.0060456764
N  N1  1  0.79262000  0.14962000  0.85368000  1.0 -0.037511876
N  N2  1  0.79594000  0.93894000  0.64632000  1.0 -0.037511876
N  N3  1  0.70406000  0.35038000  0.14300000  1.0 -0.037511876
N  N4  1  0.70738000  0.56106000  0.35700000  1.0 -0.037511876
N  N5  1  0.85368000  0.79262000  0.14962000  1.0 -0.037511876
N  N6  1  0.64632000  0.79594000  0.93894000  1.0 -0.037511876
N  N7  1  0.14300000  0.70406000  0.35038000  1.0 -0.037511876
N  N8  1  0.35700000  0.70738000  0.56106000  1.0 -0.037511876
N  N9  1  0.14962000  0.85368000  0.79262000  1.0 -0.037511876
N  N10  1  0.93894000  0.64632000  0.79594000  1.0 -0.037511876
N  N11  1  0.35038000  0.14300000  0.70406000  1.0 -0.037511876
N  N12  1  0.56106000  0.35700000  0.70738000  1.0 -0.037511876
N  N13  1  0.56106000  0.70406000  0.85368000  1.0 -0.037511876
N  N14  1  0.35038000  0.70738000  0.64632000  1.0 -0.037511876
N  N15  1  0.93894000  0.79262000  0.14300000  1.0 -0.037511876
N  N16  1  0.14962000  0.79594000  0.35700000  1.0 -0.037511876
N  N17  1  0.79594000  0.35700000  0.14962000  1.0 -0.037511876
N  N18  1  0.79262000  0.14300000  0.93894000  1.0 -0.037511876
N  N19  1  0.70738000  0.64632000  0.35038000  1.0 -0.037511876
N  N20  1  0.70406000  0.85368000  0.56106000  1.0 -0.037511876
N  N21  1  0.14300000  0.93894000  0.79262000  1.0 -0.037511876
N  N22  1  0.35700000  0.14962000  0.79594000  1.0 -0.037511876
N  N23  1  0.85368000  0.56106000  0.70406000  1.0 -0.037511876
N  N24  1  0.64632000  0.35038000  0.70738000  1.0 -0.037511876
N  N25  1  0.20738000  0.85038000  0.14632000  1.0 -0.037511876
N  N26  1  0.20406000  0.06106000  0.35368000  1.0 -0.037511876
N  N27  1  0.29594000  0.64962000  0.85700000  1.0 -0.037511876
N  N28  1  0.29262000  0.43894000  0.64300000  1.0 -0.037511876
N  N29  1  0.14632000  0.20738000  0.85038000  1.0 -0.037511876
N  N30  1  0.35368000  0.20406000  0.06106000  1.0 -0.037511876
N  N31  1  0.85700000  0.29594000  0.64962000  1.0 -0.037511876
N  N32  1  0.64300000  0.29262000  0.43894000  1.0 -0.037511876
N  N33  1  0.85038000  0.14632000  0.20738000  1.0 -0.037511876
N  N34  1  0.06106000  0.35368000  0.20406000  1.0 -0.037511876
N  N35  1  0.64962000  0.85700000  0.29594000  1.0 -0.037511876
N  N36  1  0.43894000  0.64300000  0.29262000  1.0 -0.037511876
N  N37  1  0.43894000  0.29594000  0.14632000  1.0 -0.037511876
N  N38  1  0.64962000  0.29262000  0.35368000  1.0 -0.037511876
N  N39  1  0.06106000  0.20738000  0.85700000  1.0 -0.037511876
N  N40  1  0.85038000  0.20406000  0.64300000  1.0 -0.037511876
N  N41  1  0.20406000  0.64300000  0.85038000  1.0 -0.037511876
N  N42  1  0.20738000  0.85700000  0.06106000  1.0 -0.037511876
N  N43  1  0.29262000  0.35368000  0.64962000  1.0 -0.037511876
N  N44  1  0.29594000  0.14632000  0.43894000  1.0 -0.037511876
N  N45  1  0.85700000  0.06106000  0.20738000  1.0 -0.037511876
N  N46  1  0.64300000  0.85038000  0.20406000  1.0 -0.037511876
N  N47  1  0.14632000  0.43894000  0.29594000  1.0 -0.037511876
N  N48  1  0.35368000  0.64962000  0.29262000  1.0 -0.037511876
N  N49  1  0.84601000  0.15190000  0.80799000  1.0 -0.3539986891
N  N50  1  0.84391000  0.03802000  0.69201000  1.0 -0.3539986891
N  N51  1  0.65609000  0.34810000  0.19411000  1.0 -0.3539986891
N  N52  1  0.65399000  0.46198000  0.30589000  1.0 -0.3539986891
N  N53  1  0.80799000  0.84601000  0.15190000  1.0 -0.3539986891
N  N54  1  0.69201000  0.84391000  0.03802000  1.0 -0.3539986891
N  N55  1  0.19411000  0.65609000  0.34810000  1.0 -0.3539986891
N  N56  1  0.30589000  0.65399000  0.46198000  1.0 -0.3539986891
N  N57  1  0.15190000  0.80799000  0.84601000  1.0 -0.3539986891
N  N58  1  0.03802000  0.69201000  0.84391000  1.0 -0.3539986891
N  N59  1  0.34810000  0.19411000  0.65609000  1.0 -0.3539986891
N  N60  1  0.46198000  0.30589000  0.65399000  1.0 -0.3539986891
N  N61  1  0.46198000  0.65609000  0.80799000  1.0 -0.3539986891
N  N62  1  0.34810000  0.65399000  0.69201000  1.0 -0.3539986891
N  N63  1  0.03802000  0.84601000  0.19411000  1.0 -0.3539986891
N  N64  1  0.15190000  0.84391000  0.30589000  1.0 -0.3539986891
N  N65  1  0.84391000  0.30589000  0.15190000  1.0 -0.3539986891
N  N66  1  0.84601000  0.19411000  0.03802000  1.0 -0.3539986891
N  N67  1  0.65399000  0.69201000  0.34810000  1.0 -0.3539986891
N  N68  1  0.65609000  0.80799000  0.46198000  1.0 -0.3539986891
N  N69  1  0.19411000  0.03802000  0.84601000  1.0 -0.3539986891
N  N70  1  0.30589000  0.15190000  0.84391000  1.0 -0.3539986891
N  N71  1  0.80799000  0.46198000  0.65609000  1.0 -0.3539986891
N  N72  1  0.69201000  0.34810000  0.65399000  1.0 -0.3539986891
N  N73  1  0.15399000  0.84810000  0.19201000  1.0 -0.3539986891
N  N74  1  0.15609000  0.96198000  0.30799000  1.0 -0.3539986891
N  N75  1  0.34391000  0.65190000  0.80589000  1.0 -0.3539986891
N  N76  1  0.34601000  0.53802000  0.69411000  1.0 -0.3539986891
N  N77  1  0.19201000  0.15399000  0.84810000  1.0 -0.3539986891
N  N78  1  0.30799000  0.15609000  0.96198000  1.0 -0.3539986891
N  N79  1  0.80589000  0.34391000  0.65190000  1.0 -0.3539986891
N  N80  1  0.69411000  0.34601000  0.53802000  1.0 -0.3539986891
N  N81  1  0.84810000  0.19201000  0.15399000  1.0 -0.3539986891
N  N82  1  0.96198000  0.30799000  0.15609000  1.0 -0.3539986891
N  N83  1  0.65190000  0.80589000  0.34391000  1.0 -0.3539986891
N  N84  1  0.53802000  0.69411000  0.34601000  1.0 -0.3539986891
N  N85  1  0.53802000  0.34391000  0.19201000  1.0 -0.3539986891
N  N86  1  0.65190000  0.34601000  0.30799000  1.0 -0.3539986891
N  N87  1  0.96198000  0.15399000  0.80589000  1.0 -0.3539986891
N  N88  1  0.84810000  0.15609000  0.69411000  1.0 -0.3539986891
N  N89  1  0.15609000  0.69411000  0.84810000  1.0 -0.3539986891
N  N90  1  0.15399000  0.80589000  0.96198000  1.0 -0.3539986891
N  N91  1  0.34601000  0.30799000  0.65190000  1.0 -0.3539986891
N  N92  1  0.34391000  0.19201000  0.53802000  1.0 -0.3539986891
N  N93  1  0.80589000  0.96198000  0.15399000  1.0 -0.3539986891
N  N94  1  0.69411000  0.84810000  0.15609000  1.0 -0.3539986891
N  N95  1  0.19201000  0.53802000  0.34391000  1.0 -0.3539986891
N  N96  1  0.30799000  0.65190000  0.34601000  1.0 -0.3539986891
N  N97  1  0.80778000  0.06694000  0.82490000  1.0 -0.1991710602
N  N98  1  0.74204000  0.98288000  0.67510000  1.0 -0.1991710602
N  N99  1  0.75796000  0.43306000  0.24084000  1.0 -0.1991710602
N  N100  1  0.69222000  0.51712000  0.25916000  1.0 -0.1991710602
N  N101  1  0.82490000  0.80778000  0.06694000  1.0 -0.1991710602
N  N102  1  0.67510000  0.74204000  0.98288000  1.0 -0.1991710602
N  N103  1  0.24084000  0.75796000  0.43306000  1.0 -0.1991710602
N  N104  1  0.25916000  0.69222000  0.51712000  1.0 -0.1991710602
N  N105  1  0.06694000  0.82490000  0.80778000  1.0 -0.1991710602
N  N106  1  0.98288000  0.67510000  0.74204000  1.0 -0.1991710602
N  N107  1  0.43306000  0.24084000  0.75796000  1.0 -0.1991710602
N  N108  1  0.51712000  0.25916000  0.69222000  1.0 -0.1991710602
N  N109  1  0.51712000  0.75796000  0.82490000  1.0 -0.1991710602
N  N110  1  0.43306000  0.69222000  0.67510000  1.0 -0.1991710602
N  N111  1  0.98288000  0.80778000  0.24084000  1.0 -0.1991710602
N  N112  1  0.06694000  0.74204000  0.25916000  1.0 -0.1991710602
N  N113  1  0.74204000  0.25916000  0.06694000  1.0 -0.1991710602
N  N114  1  0.80778000  0.24084000  0.98288000  1.0 -0.1991710602
N  N115  1  0.69222000  0.67510000  0.43306000  1.0 -0.1991710602
N  N116  1  0.75796000  0.82490000  0.51712000  1.0 -0.1991710602
N  N117  1  0.24084000  0.98288000  0.80778000  1.0 -0.1991710602
N  N118  1  0.25916000  0.06694000  0.74204000  1.0 -0.1991710602
N  N119  1  0.82490000  0.51712000  0.75796000  1.0 -0.1991710602
N  N120  1  0.67510000  0.43306000  0.69222000  1.0 -0.1991710602
N  N121  1  0.19222000  0.93306000  0.17510000  1.0 -0.1991710602
N  N122  1  0.25796000  0.01712000  0.32490000  1.0 -0.1991710602
N  N123  1  0.24204000  0.56694000  0.75916000  1.0 -0.1991710602
N  N124  1  0.30778000  0.48288000  0.74084000  1.0 -0.1991710602
N  N125  1  0.17510000  0.19222000  0.93306000  1.0 -0.1991710602
N  N126  1  0.32490000  0.25796000  0.01712000  1.0 -0.1991710602
N  N127  1  0.75916000  0.24204000  0.56694000  1.0 -0.1991710602
N  N128  1  0.74084000  0.30778000  0.48288000  1.0 -0.1991710602
N  N129  1  0.93306000  0.17510000  0.19222000  1.0 -0.1991710602
N  N130  1  0.01712000  0.32490000  0.25796000  1.0 -0.1991710602
N  N131  1  0.56694000  0.75916000  0.24204000  1.0 -0.1991710602
N  N132  1  0.48288000  0.74084000  0.30778000  1.0 -0.1991710602
N  N133  1  0.48288000  0.24204000  0.17510000  1.0 -0.1991710602
N  N134  1  0.56694000  0.30778000  0.32490000  1.0 -0.1991710602
N  N135  1  0.01712000  0.19222000  0.75916000  1.0 -0.1991710602
N  N136  1  0.93306000  0.25796000  0.74084000  1.0 -0.1991710602
N  N137  1  0.25796000  0.74084000  0.93306000  1.0 -0.1991710602
N  N138  1  0.19222000  0.75916000  0.01712000  1.0 -0.1991710602
N  N139  1  0.30778000  0.32490000  0.56694000  1.0 -0.1991710602
N  N140  1  0.24204000  0.17510000  0.48288000  1.0 -0.1991710602
N  N141  1  0.75916000  0.01712000  0.19222000  1.0 -0.1991710602
N  N142  1  0.74084000  0.93306000  0.25796000  1.0 -0.1991710602
N  N143  1  0.17510000  0.48288000  0.24204000  1.0 -0.1991710602
N  N144  1  0.32490000  0.56694000  0.30778000  1.0 -0.1991710602
N  N145  1  0.84022000  0.04934000  0.80856000  1.0 -0.1104098681
N  N146  1  0.74078000  0.03166000  0.69144000  1.0 -0.1104098681
N  N147  1  0.75922000  0.45066000  0.29088000  1.0 -0.1104098681
N  N148  1  0.65978000  0.46834000  0.20912000  1.0 -0.1104098681
N  N149  1  0.80856000  0.84022000  0.04934000  1.0 -0.1104098681
N  N150  1  0.69144000  0.74078000  0.03166000  1.0 -0.1104098681
N  N151  1  0.29088000  0.75922000  0.45066000  1.0 -0.1104098681
N  N152  1  0.20912000  0.65978000  0.46834000  1.0 -0.1104098681
N  N153  1  0.04934000  0.80856000  0.84022000  1.0 -0.1104098681
N  N154  1  0.03166000  0.69144000  0.74078000  1.0 -0.1104098681
N  N155  1  0.45066000  0.29088000  0.75922000  1.0 -0.1104098681
N  N156  1  0.46834000  0.20912000  0.65978000  1.0 -0.1104098681
N  N157  1  0.46834000  0.75922000  0.80856000  1.0 -0.1104098681
N  N158  1  0.45066000  0.65978000  0.69144000  1.0 -0.1104098681
N  N159  1  0.03166000  0.84022000  0.29088000  1.0 -0.1104098681
N  N160  1  0.04934000  0.74078000  0.20912000  1.0 -0.1104098681
N  N161  1  0.74078000  0.20912000  0.04934000  1.0 -0.1104098681
N  N162  1  0.84022000  0.29088000  0.03166000  1.0 -0.1104098681
N  N163  1  0.65978000  0.69144000  0.45066000  1.0 -0.1104098681
N  N164  1  0.75922000  0.80856000  0.46834000  1.0 -0.1104098681
N  N165  1  0.29088000  0.03166000  0.84022000  1.0 -0.1104098681
N  N166  1  0.20912000  0.04934000  0.74078000  1.0 -0.1104098681
N  N167  1  0.80856000  0.46834000  0.75922000  1.0 -0.1104098681
N  N168  1  0.69144000  0.45066000  0.65978000  1.0 -0.1104098681
N  N169  1  0.15978000  0.95066000  0.19144000  1.0 -0.1104098681
N  N170  1  0.25922000  0.96834000  0.30856000  1.0 -0.1104098681
N  N171  1  0.24078000  0.54934000  0.70912000  1.0 -0.1104098681
N  N172  1  0.34022000  0.53166000  0.79088000  1.0 -0.1104098681
N  N173  1  0.19144000  0.15978000  0.95066000  1.0 -0.1104098681
N  N174  1  0.30856000  0.25922000  0.96834000  1.0 -0.1104098681
N  N175  1  0.70912000  0.24078000  0.54934000  1.0 -0.1104098681
N  N176  1  0.79088000  0.34022000  0.53166000  1.0 -0.1104098681
N  N177  1  0.95066000  0.19144000  0.15978000  1.0 -0.1104098681
N  N178  1  0.96834000  0.30856000  0.25922000  1.0 -0.1104098681
N  N179  1  0.54934000  0.70912000  0.24078000  1.0 -0.1104098681
N  N180  1  0.53166000  0.79088000  0.34022000  1.0 -0.1104098681
N  N181  1  0.53166000  0.24078000  0.19144000  1.0 -0.1104098681
N  N182  1  0.54934000  0.34022000  0.30856000  1.0 -0.1104098681
N  N183  1  0.96834000  0.15978000  0.70912000  1.0 -0.1104098681
N  N184  1  0.95066000  0.25922000  0.79088000  1.0 -0.1104098681
N  N185  1  0.25922000  0.79088000  0.95066000  1.0 -0.1104098681
N  N186  1  0.15978000  0.70912000  0.96834000  1.0 -0.1104098681
N  N187  1  0.34022000  0.30856000  0.54934000  1.0 -0.1104098681
N  N188  1  0.24078000  0.19144000  0.53166000  1.0 -0.1104098681
N  N189  1  0.70912000  0.96834000  0.15978000  1.0 -0.1104098681
N  N190  1  0.79088000  0.95066000  0.25922000  1.0 -0.1104098681
N  N191  1  0.19144000  0.53166000  0.24078000  1.0 -0.1104098681
N  N192  1  0.30856000  0.54934000  0.34022000  1.0 -0.1104098681
Cl  Cl1  1  0.37806000  0.43903000  0.18903000  1.0 1.2644313922
Cl  Cl2  1  0.75000000  0.06097000  0.43903000  1.0 1.2644313922
Cl  Cl3  1  0.12194000  0.31097000  0.06097000  1.0 1.2644313922
Cl  Cl4  1  0.75000000  0.18903000  0.31097000  1.0 1.2655455488
Cl  Cl5  1  0.43903000  0.18903000  0.37806000  1.0 1.2655455488
Cl  Cl6  1  0.06097000  0.43903000  0.75000000  1.0 1.2655455488
Cl  Cl7  1  0.31097000  0.06097000  0.12194000  1.0 1.2644313922
Cl  Cl8  1  0.18903000  0.31097000  0.75000000  1.0 1.2655455488
Cl  Cl9  1  0.18903000  0.37806000  0.43903000  1.0 1.2655455488
Cl  Cl10  1  0.43903000  0.75000000  0.06097000  1.0 1.2644313922
Cl  Cl11  1  0.06097000  0.12194000  0.31097000  1.0 1.2655455488
Cl  Cl12  1  0.31097000  0.75000000  0.18903000  1.0 1.2655455488
Cl  Cl13  1  0.62194000  0.56097000  0.81097000  1.0 1.2655455488
Cl  Cl14  1  0.25000000  0.93903000  0.56097000  1.0 1.2655455488
Cl  Cl15  1  0.87806000  0.68903000  0.93903000  1.0 1.2655455488
Cl  Cl16  1  0.25000000  0.81097000  0.68903000  1.0 1.2655455488
Cl  Cl17  1  0.56097000  0.81097000  0.62194000  1.0 1.2655455488
Cl  Cl18  1  0.93903000  0.56097000  0.25000000  1.0 1.2644313922
Cl  Cl19  1  0.68903000  0.93903000  0.87806000  1.0 1.2655455488
Cl  Cl20  1  0.81097000  0.68903000  0.25000000  1.0 1.2644313922
Cl  Cl21  1  0.81097000  0.62194000  0.56097000  1.0 1.2644313922
Cl  Cl22  1  0.56097000  0.25000000  0.93903000  1.0 1.2655455488
Cl  Cl23  1  0.93903000  0.87806000  0.68903000  1.0 1.2644313922
Cl  Cl24  1  0.68903000  0.25000000  0.81097000  1.0 1.2655455488
O  O1  1  0.34207000  0.37600000  0.16433000  1.0 -0.478137618
O  O2  1  0.34207000  0.46607000  0.17774000  1.0 -0.478137618
O  O3  1  0.41544000  0.44871000  0.16293000  1.0 -0.4698709673
O  O4  1  0.41544000  0.46673000  0.25251000  1.0 -0.4698709673
O  O5  1  0.78833000  0.12400000  0.46607000  1.0 -0.478137618
O  O6  1  0.71167000  0.03393000  0.37600000  1.0 -0.478137618
O  O7  1  0.71422000  0.05129000  0.46673000  1.0 -0.4698709673
O  O8  1  0.78578000  0.03327000  0.44871000  1.0 -0.4698709673
O  O9  1  0.15793000  0.32226000  0.03393000  1.0 -0.478137618
O  O10  1  0.15793000  0.33567000  0.12400000  1.0 -0.478137618
O  O11  1  0.08456000  0.24749000  0.03327000  1.0 -0.4698709673
O  O12  1  0.08456000  0.33707000  0.05129000  1.0 -0.4698709673
O  O13  1  0.71167000  0.17774000  0.33567000  1.0 -0.478137618
O  O14  1  0.78833000  0.16433000  0.32226000  1.0 -0.478137618
O  O15  1  0.78578000  0.25251000  0.33707000  1.0 -0.4698709673
O  O16  1  0.71422000  0.16293000  0.24749000  1.0 -0.4698709673
O  O17  1  0.37600000  0.16433000  0.34207000  1.0 -0.478137618
O  O18  1  0.46607000  0.17774000  0.34207000  1.0 -0.478137618
O  O19  1  0.44871000  0.16293000  0.41544000  1.0 -0.4698709673
O  O20  1  0.46673000  0.25251000  0.41544000  1.0 -0.4698709673
O  O21  1  0.12400000  0.46607000  0.78833000  1.0 -0.478137618
O  O22  1  0.03393000  0.37600000  0.71167000  1.0 -0.478137618
O  O23  1  0.05129000  0.46673000  0.71422000  1.0 -0.4698709673
O  O24  1  0.03327000  0.44871000  0.78578000  1.0 -0.4698709673
O  O25  1  0.32226000  0.03393000  0.15793000  1.0 -0.478137618
O  O26  1  0.33567000  0.12400000  0.15793000  1.0 -0.478137618
O  O27  1  0.24749000  0.03327000  0.08456000  1.0 -0.4698709673
O  O28  1  0.33707000  0.05129000  0.08456000  1.0 -0.4698709673
O  O29  1  0.17774000  0.33567000  0.71167000  1.0 -0.478137618
O  O30  1  0.16433000  0.32226000  0.78833000  1.0 -0.478137618
O  O31  1  0.25251000  0.33707000  0.78578000  1.0 -0.4698709673
O  O32  1  0.16293000  0.24749000  0.71422000  1.0 -0.4698709673
O  O33  1  0.16433000  0.34207000  0.37600000  1.0 -0.478137618
O  O34  1  0.17774000  0.34207000  0.46607000  1.0 -0.478137618
O  O35  1  0.16293000  0.41544000  0.44871000  1.0 -0.4698709673
O  O36  1  0.25251000  0.41544000  0.46673000  1.0 -0.4698709673
O  O37  1  0.46607000  0.78833000  0.12400000  1.0 -0.478137618
O  O38  1  0.37600000  0.71167000  0.03393000  1.0 -0.478137618
O  O39  1  0.46673000  0.71422000  0.05129000  1.0 -0.4698709673
O  O40  1  0.44871000  0.78578000  0.03327000  1.0 -0.4698709673
O  O41  1  0.03393000  0.15793000  0.32226000  1.0 -0.478137618
O  O42  1  0.12400000  0.15793000  0.33567000  1.0 -0.478137618
O  O43  1  0.03327000  0.08456000  0.24749000  1.0 -0.4698709673
O  O44  1  0.05129000  0.08456000  0.33707000  1.0 -0.4698709673
O  O45  1  0.33567000  0.71167000  0.17774000  1.0 -0.478137618
O  O46  1  0.32226000  0.78833000  0.16433000  1.0 -0.478137618
O  O47  1  0.33707000  0.78578000  0.25251000  1.0 -0.4698709673
O  O48  1  0.24749000  0.71422000  0.16293000  1.0 -0.4698709673
O  O49  1  0.65793000  0.62400000  0.83567000  1.0 -0.478137618
O  O50  1  0.65793000  0.53393000  0.82226000  1.0 -0.478137618
O  O51  1  0.58456000  0.55129000  0.83707000  1.0 -0.4698709673
O  O52  1  0.58456000  0.53327000  0.74749000  1.0 -0.4698709673
O  O53  1  0.21167000  0.87600000  0.53393000  1.0 -0.478137618
O  O54  1  0.28833000  0.96607000  0.62400000  1.0 -0.478137618
O  O55  1  0.28578000  0.94871000  0.53327000  1.0 -0.4698709673
O  O56  1  0.21422000  0.96673000  0.55129000  1.0 -0.4698709673
O  O57  1  0.84207000  0.67774000  0.96607000  1.0 -0.478137618
O  O58  1  0.84207000  0.66433000  0.87600000  1.0 -0.478137618
O  O59  1  0.91544000  0.75251000  0.96673000  1.0 -0.4698709673
O  O60  1  0.91544000  0.66293000  0.94871000  1.0 -0.4698709673
O  O61  1  0.28833000  0.82226000  0.66433000  1.0 -0.478137618
O  O62  1  0.21167000  0.83567000  0.67774000  1.0 -0.478137618
O  O63  1  0.21422000  0.74749000  0.66293000  1.0 -0.4698709673
O  O64  1  0.28578000  0.83707000  0.75251000  1.0 -0.4698709673
O  O65  1  0.62400000  0.83567000  0.65793000  1.0 -0.478137618
O  O66  1  0.53393000  0.82226000  0.65793000  1.0 -0.478137618
O  O67  1  0.55129000  0.83707000  0.58456000  1.0 -0.4698709673
O  O68  1  0.53327000  0.74749000  0.58456000  1.0 -0.4698709673
O  O69  1  0.87600000  0.53393000  0.21167000  1.0 -0.478137618
O  O70  1  0.96607000  0.62400000  0.28833000  1.0 -0.478137618
O  O71  1  0.94871000  0.53327000  0.28578000  1.0 -0.4698709673
O  O72  1  0.96673000  0.55129000  0.21422000  1.0 -0.4698709673
O  O73  1  0.67774000  0.96607000  0.84207000  1.0 -0.478137618
O  O74  1  0.66433000  0.87600000  0.84207000  1.0 -0.478137618
O  O75  1  0.75251000  0.96673000  0.91544000  1.0 -0.4698709673
O  O76  1  0.66293000  0.94871000  0.91544000  1.0 -0.4698709673
O  O77  1  0.82226000  0.66433000  0.28833000  1.0 -0.478137618
O  O78  1  0.83567000  0.67774000  0.21167000  1.0 -0.478137618
O  O79  1  0.74749000  0.66293000  0.21422000  1.0 -0.4698709673
O  O80  1  0.83707000  0.75251000  0.28578000  1.0 -0.4698709673
O  O81  1  0.83567000  0.65793000  0.62400000  1.0 -0.478137618
O  O82  1  0.82226000  0.65793000  0.53393000  1.0 -0.478137618
O  O83  1  0.83707000  0.58456000  0.55129000  1.0 -0.4698709673
O  O84  1  0.74749000  0.58456000  0.53327000  1.0 -0.4698709673
O  O85  1  0.53393000  0.21167000  0.87600000  1.0 -0.478137618
O  O86  1  0.62400000  0.28833000  0.96607000  1.0 -0.478137618
O  O87  1  0.53327000  0.28578000  0.94871000  1.0 -0.4698709673
O  O88  1  0.55129000  0.21422000  0.96673000  1.0 -0.4698709673
O  O89  1  0.96607000  0.84207000  0.67774000  1.0 -0.478137618
O  O90  1  0.87600000  0.84207000  0.66433000  1.0 -0.478137618
O  O91  1  0.96673000  0.91544000  0.75251000  1.0 -0.4698709673
O  O92  1  0.94871000  0.91544000  0.66293000  1.0 -0.4698709673
O  O93  1  0.66433000  0.28833000  0.82226000  1.0 -0.478137618
O  O94  1  0.67774000  0.21167000  0.83567000  1.0 -0.478137618
O  O95  1  0.66293000  0.21422000  0.74749000  1.0 -0.4698709673
O  O96  1  0.75251000  0.28578000  0.83707000  1.0 -0.4698709673
