# DDEC6 charges by PACMAN v1.1 (https://github.com/mtap-research/PACMAN-charge/)
data_WUXYOF_ASR_pacman
_symmetry_space_group_name_H-M   'P 1'
_cell_length_a   16.98330000
_cell_length_b   5.24320000
_cell_length_c   24.04480000
_cell_angle_alpha   90.00000000
_cell_angle_beta   103.36600000
_cell_angle_gamma   90.00000000
_symmetry_Int_Tables_number   1
_chemical_formula_structural   Na8H32C33(NO6)4
_chemical_formula_sum   'Na16 H64 C66 N8 O48'
_cell_volume   2083.11757460
_cell_formula_units_Z   2
loop_
 _symmetry_equiv_pos_site_id
 _symmetry_equiv_pos_as_xyz
  1  'x, y, z'
loop_
 _atom_site_type_symbol
 _atom_site_label
 _atom_site_symmetry_multiplicity
 _atom_site_fract_x
 _atom_site_fract_y
 _atom_site_fract_z
 _atom_site_occupancy
 _atom_site_charge
Na  Na1  1  0.96410000  0.96890000  0.95381000  1.0 0.8563442306
Na  Na2  1  0.03590000  0.46890000  0.04619000  1.0 0.8563442306
Na  Na3  1  0.90850000  0.00930000  0.08120000  1.0 0.8420327914
Na  Na4  1  0.09150000  0.50930000  0.91880000  1.0 0.8420327914
Na  Na5  1  0.04080000  0.42630000  0.54697000  1.0 0.8563442306
Na  Na6  1  0.95920000  0.92630000  0.45303000  1.0 0.8563442306
Na  Na7  1  0.03390000  0.43370000  0.19383000  1.0 0.8563442306
Na  Na8  1  0.96610000  0.93370000  0.80617000  1.0 0.8563442306
Na  Na9  1  0.08390000  0.46690000  0.41670000  1.0 0.848606543
Na  Na10  1  0.91610000  0.96690000  0.58330000  1.0 0.848606543
Na  Na11  1  0.96560000  0.91550000  0.30570000  1.0 0.848606543
Na  Na12  1  0.03440000  0.41550000  0.69430000  1.0 0.8563442306
Na  Na13  1  0.76610000  0.10470000  0.16300000  1.0 0.8420327914
Na  Na14  1  0.23390000  0.60470000  0.83700000  1.0 0.8420327914
Na  Na15  1  0.23050000  0.53420000  0.33520000  1.0 0.7705447835
Na  Na16  1  0.76950000  0.03420000  0.66480000  1.0 0.7705447835
H  H1  1  0.88510000  0.62980000  0.20800000  1.0 0.3882569236
H  H2  1  0.11490000  0.12980000  0.79200000  1.0 0.3882569236
H  H3  1  0.91440000  0.42780000  0.25810000  1.0 0.3794650001
H  H4  1  0.08560000  0.92780000  0.74190000  1.0 0.3794650001
H  H5  1  0.11250000  0.11760000  0.28830000  1.0 0.3794650001
H  H6  1  0.88750000  0.61760000  0.71170000  1.0 0.3794650001
H  H7  1  0.07940000  0.92890000  0.23640000  1.0 0.3664964599
H  H8  1  0.92060000  0.42890000  0.76360000  1.0 0.3664964599
H  H9  1  0.65040000  0.44460000  0.04420000  1.0 0.2767732119
H  H10  1  0.34960000  0.94460000  0.95580000  1.0 0.2767732119
H  H11  1  0.34450000  0.88970000  0.45050000  1.0 0.2767732119
H  H12  1  0.65550000  0.38970000  0.54950000  1.0 0.2767732119
H  H13  1  0.67040000  0.29080000  0.32670000  1.0 0.2767732119
H  H14  1  0.32960000  0.79080000  0.67330000  1.0 0.2767732119
H  H15  1  0.31610000  0.91270000  0.15230000  1.0 0.2767732119
H  H16  1  0.68390000  0.41270000  0.84770000  1.0 0.2767732119
H  H17  1  0.76300000  0.80910000  0.03690000  1.0 0.0908904386
H  H18  1  0.23700000  0.30910000  0.96310000  1.0 0.0908904386
H  H19  1  0.80680000  0.51180000  0.38210000  1.0 0.1406588403
H  H20  1  0.19320000  0.01180000  0.61790000  1.0 0.1406588403
H  H21  1  0.81110000  0.53480000  0.31670000  1.0 0.1406588403
H  H22  1  0.18890000  0.03480000  0.68330000  1.0 0.1406588403
H  H23  1  0.23130000  0.25740000  0.45920000  1.0 0.0998617805
H  H24  1  0.76870000  0.75740000  0.54080000  1.0 0.0998617805
H  H25  1  0.74500000  0.52200000  0.96150000  1.0 0.1406588403
H  H26  1  0.25500000  0.02200000  0.03850000  1.0 0.1406588403
H  H27  1  0.76060000  0.28130000  0.00380000  1.0 0.1406588403
H  H28  1  0.23940000  0.78130000  0.99620000  1.0 0.1406588403
H  H29  1  0.81550000  0.03910000  0.36670000  1.0 0.0908904386
H  H30  1  0.18450000  0.53910000  0.63330000  1.0 0.0908904386
H  H31  1  0.23330000  0.72670000  0.48950000  1.0 0.1406588403
H  H32  1  0.76670000  0.22670000  0.51050000  1.0 0.1406588403
H  H33  1  0.25170000  0.96140000  0.53340000  1.0 0.1516139967
H  H34  1  0.74830000  0.46140000  0.46660000  1.0 0.1516139967
H  H35  1  0.47000000  0.84860000  0.46320000  1.0 0.118103796
H  H36  1  0.53000000  0.34860000  0.53680000  1.0 0.118103796
H  H37  1  0.18500000  0.06780000  0.11610000  1.0 0.1516139967
H  H38  1  0.81500000  0.56780000  0.88390000  1.0 0.1516139967
H  H39  1  0.17990000  0.08770000  0.18120000  1.0 0.118103796
H  H40  1  0.82010000  0.58770000  0.81880000  1.0 0.118103796
H  H41  1  0.18420000  0.59520000  0.13490000  1.0 0.0998617805
H  H42  1  0.81580000  0.09520000  0.86510000  1.0 0.0998617805
H  H43  1  0.56060000  0.03560000  0.13610000  1.0 0.118103796
H  H44  1  0.43940000  0.53560000  0.86390000  1.0 0.118103796
H  H45  1  0.52650000  0.40660000  0.03620000  1.0 0.1113478859
H  H46  1  0.47350000  0.90660000  0.96380000  1.0 0.1113478859
H  H47  1  0.59880000  0.78790000  0.44800000  1.0 0.1113478859
H  H48  1  0.40120000  0.28790000  0.55200000  1.0 0.1113478859
H  H49  1  0.57270000  0.42280000  0.35320000  1.0 0.1113478859
H  H50  1  0.42730000  0.92280000  0.64680000  1.0 0.1113478859
H  H51  1  0.44650000  0.49260000  0.36860000  1.0 0.0998617805
H  H52  1  0.55350000  0.99260000  0.63140000  1.0 0.0998617805
H  H53  1  0.40580000  0.32650000  0.06180000  1.0 0.118103796
H  H54  1  0.59420000  0.82650000  0.93820000  1.0 0.118103796
H  H55  1  0.43700000  0.96200000  0.16140000  1.0 0.1113478859
H  H56  1  0.56300000  0.46200000  0.83860000  1.0 0.1113478859
H  H57  1  0.34290000  0.21190000  0.28290000  1.0 0.2655396027
H  H58  1  0.65710000  0.71190000  0.71710000  1.0 0.2655396027
H  H59  1  0.24100000  0.91160000  0.29890000  1.0 0.1113478859
H  H60  1  0.75900000  0.41160000  0.70110000  1.0 0.1113478859
H  H61  1  0.31890000  0.94980000  0.35020000  1.0 0.0998617805
H  H62  1  0.68110000  0.44980000  0.64980000  1.0 0.0998617805
H  H63  1  0.32960000  0.86350000  0.28850000  1.0 0.1920751196
H  H64  1  0.67040000  0.36350000  0.71150000  1.0 0.1920751196
C  C1  1  0.07490000  0.96200000  0.12870000  1.0 0.6664463443
C  C2  1  0.92510000  0.46200000  0.87130000  1.0 0.6664463443
C  C3  1  0.86680000  0.47600000  0.00150000  1.0 0.6590402288
C  C4  1  0.13320000  0.97600000  0.99850000  1.0 0.6590402288
C  C5  1  0.91950000  0.42300000  0.36910000  1.0 0.6590402288
C  C6  1  0.08050000  0.92300000  0.63090000  1.0 0.6590402288
C  C7  1  0.12850000  0.92600000  0.49470000  1.0 0.6664463443
C  C8  1  0.87150000  0.42600000  0.50530000  1.0 0.6664463443
C  C9  1  0.36100000  0.23200000  0.42550000  1.0 0.4151092035
C  C10  1  0.63900000  0.73200000  0.57450000  1.0 0.4151092035
C  C11  1  0.75690000  0.62700000  0.04730000  1.0 0.0194041751
C  C12  1  0.24310000  0.12700000  0.95270000  1.0 0.0194041751
C  C13  1  0.63450000  0.78600000  0.07160000  1.0 0.4428886783
C  C14  1  0.36550000  0.28600000  0.92840000  1.0 0.4428886783
C  C15  1  0.44400000  0.17300000  0.41790000  1.0 -0.0379121142
C  C16  1  0.55600000  0.67300000  0.58210000  1.0 -0.0379121142
C  C17  1  0.82730000  0.42800000  0.35140000  1.0 -0.3886355894
C  C18  1  0.17270000  0.92800000  0.64860000  1.0 -0.3886355894
C  C19  1  0.23770000  0.07500000  0.44860000  1.0 0.0194041751
C  C20  1  0.76230000  0.57500000  0.55140000  1.0 0.0194041751
C  C21  1  0.77620000  0.46000000  0.99910000  1.0 -0.3886355894
C  C22  1  0.22380000  0.96000000  0.00090000  1.0 -0.3886355894
C  C23  1  0.78480000  0.16600000  0.33880000  1.0 0.0409975176
C  C24  1  0.21520000  0.66600000  0.66120000  1.0 0.0409975176
C  C25  1  0.21920000  0.90600000  0.49570000  1.0 -0.3886355894
C  C26  1  0.78080000  0.40600000  0.50430000  1.0 -0.3886355894
C  C27  1  0.17780000  0.02200000  0.39160000  1.0 0.5675597352
C  C28  1  0.82220000  0.52200000  0.60840000  1.0 0.5675597352
C  C29  1  0.55540000  0.72400000  0.08350000  1.0 -0.0379121142
C  C30  1  0.44460000  0.22400000  0.91650000  1.0 -0.0379121142
C  C31  1  0.49060000  0.96700000  0.44020000  1.0 -0.1399627241
C  C32  1  0.50940000  0.46700000  0.55980000  1.0 -0.1399627241
C  C33  1  0.16600000  0.97800000  0.14670000  1.0 -0.4323792445
C  C34  1  0.83400000  0.47800000  0.85330000  1.0 -0.4323792445
C  C35  1  0.67810000  0.03300000  0.38500000  1.0 0.450002448
C  C36  1  0.32190000  0.53300000  0.61500000  1.0 0.450002448
C  C37  1  0.21390000  0.73300000  0.15990000  1.0 0.0297195775
C  C38  1  0.78610000  0.23300000  0.84010000  1.0 0.0297195775
C  C39  1  0.78590000  0.07400000  0.27770000  1.0 0.5485852522
C  C40  1  0.21410000  0.57400000  0.72230000  1.0 0.5485852522
C  C41  1  0.59530000  0.08700000  0.39450000  1.0 -0.0129185819
C  C42  1  0.40470000  0.58700000  0.60550000  1.0 -0.0129185819
C  C43  1  0.52850000  0.89200000  0.12100000  1.0 -0.0946074712
C  C44  1  0.47150000  0.39200000  0.87900000  1.0 -0.0946074712
C  C45  1  0.41050000  0.63800000  0.11400000  1.0 -0.0035407635
C  C46  1  0.58950000  0.13800000  0.88600000  1.0 -0.0035407635
C  C47  1  0.81600000  0.57800000  0.10450000  1.0 0.5776964587
C  C48  1  0.18400000  0.07800000  0.89550000  1.0 0.5776964587
C  C49  1  0.50880000  0.51900000  0.06190000  1.0 -0.1212759899
C  C50  1  0.49120000  0.01900000  0.93810000  1.0 -0.1212759899
C  C51  1  0.56660000  0.92700000  0.43010000  1.0 -0.0986263442
C  C52  1  0.43340000  0.42700000  0.56990000  1.0 -0.0986263442
C  C53  1  0.55050000  0.30100000  0.37460000  1.0 -0.1212759899
C  C54  1  0.44950000  0.80100000  0.62540000  1.0 -0.1212759899
C  C55  1  0.47640000  0.34600000  0.38430000  1.0 -0.133966102
C  C56  1  0.52360000  0.84600000  0.61570000  1.0 -0.133966102
C  C57  1  0.43720000  0.47100000  0.07680000  1.0 -0.1086126107
C  C58  1  0.56280000  0.97100000  0.92320000  1.0 -0.1086126107
C  C59  1  0.45550000  0.84900000  0.13630000  1.0 -0.1399627241
C  C60  1  0.54450000  0.34900000  0.86370000  1.0 -0.1399627241
C  C61  1  0.33120000  0.57200000  0.13040000  1.0 0.4428886783
C  C62  1  0.66880000  0.07200000  0.86960000  1.0 0.4428886783
C  C63  1  0.21850000  0.66000000  0.22410000  1.0 0.4771025938
C  C64  1  0.78150000  0.16000000  0.77590000  1.0 0.4771025938
C  C65  1  0.29800000  0.96800000  0.30890000  1.0 -0.1625458139
C  C66  1  0.70200000  0.46800000  0.69110000  1.0 -0.1625458139
N  N1  1  0.67460000  0.59200000  0.05290000  1.0 -0.3815396863
N  N2  1  0.32540000  0.09200000  0.94710000  1.0 -0.3815396863
N  N3  1  0.32080000  0.03900000  0.44270000  1.0 -0.3955637055
N  N4  1  0.67920000  0.53900000  0.55730000  1.0 -0.3955637055
N  N5  1  0.70420000  0.18100000  0.34710000  1.0 -0.3542876529
N  N6  1  0.29580000  0.68100000  0.65290000  1.0 -0.3542876529
N  N7  1  0.29290000  0.76200000  0.14780000  1.0 -0.3710637527
N  N8  1  0.70710000  0.26200000  0.85220000  1.0 -0.3710637527
O  O1  1  0.03750000  0.17060000  0.11830000  1.0 -0.7611003357
O  O2  1  0.96250000  0.67060000  0.88170000  1.0 -0.7611003357
O  O3  1  0.09010000  0.73150000  0.49900000  1.0 -0.7095805742
O  O4  1  0.90990000  0.23150000  0.50100000  1.0 -0.7095805742
O  O5  1  0.04020000  0.75010000  0.12460000  1.0 -0.7095805742
O  O6  1  0.95980000  0.25010000  0.87540000  1.0 -0.7095805742
O  O7  1  0.95280000  0.63910000  0.37780000  1.0 -0.7611003357
O  O8  1  0.04720000  0.13910000  0.62220000  1.0 -0.7611003357
O  O9  1  0.83750000  0.75920000  0.13810000  1.0 -0.6504295307
O  O10  1  0.16250000  0.25920000  0.86190000  1.0 -0.6504295307
O  O11  1  0.89920000  0.69160000  0.00910000  1.0 -0.7095805742
O  O12  1  0.10080000  0.19160000  0.99090000  1.0 -0.7095805742
O  O13  1  0.93210000  0.57530000  0.23830000  1.0 -0.8775158363
O  O14  1  0.06790000  0.07530000  0.76170000  1.0 -0.8775158363
O  O15  1  0.15430000  0.21900000  0.36080000  1.0 -0.7022636371
O  O16  1  0.84570000  0.71900000  0.63920000  1.0 -0.7022636371
O  O17  1  0.95670000  0.21840000  0.37660000  1.0 -0.6880853313
O  O18  1  0.04330000  0.71840000  0.62340000  1.0 -0.6880853313
O  O19  1  0.90390000  0.27440000  0.99680000  1.0 -0.7259237903
O  O20  1  0.09610000  0.77440000  0.00320000  1.0 -0.7259237903
O  O21  1  0.84130000  0.34950000  0.11440000  1.0 -0.7022636371
O  O22  1  0.15870000  0.84950000  0.88560000  1.0 -0.7022636371
O  O23  1  0.06390000  0.07260000  0.25840000  1.0 -0.856484546
O  O24  1  0.93610000  0.57260000  0.74160000  1.0 -0.856484546
O  O25  1  0.09880000  0.14930000  0.48830000  1.0 -0.7259237903
O  O26  1  0.90120000  0.64930000  0.51170000  1.0 -0.7259237903
O  O27  1  0.84680000  0.12810000  0.25830000  1.0 -0.6845435339
O  O28  1  0.15320000  0.62810000  0.74170000  1.0 -0.6845435339
O  O29  1  0.33490000  0.45220000  0.41930000  1.0 -0.5630294122
O  O30  1  0.66510000  0.95220000  0.58070000  1.0 -0.5630294122
O  O31  1  0.15600000  0.62480000  0.23900000  1.0 -0.5630294122
O  O32  1  0.84400000  0.12480000  0.76100000  1.0 -0.5630294122
O  O33  1  0.66250000  0.00410000  0.07790000  1.0 -0.5630294122
O  O34  1  0.33750000  0.50410000  0.92210000  1.0 -0.5630294122
O  O35  1  0.15510000  0.80110000  0.38010000  1.0 -0.6504295307
O  O36  1  0.84490000  0.30110000  0.61990000  1.0 -0.6504295307
O  O37  1  0.72790000  0.93700000  0.25080000  1.0 -0.6085627514
O  O38  1  0.27210000  0.43700000  0.74920000  1.0 -0.6085627514
O  O39  1  0.71890000  0.85800000  0.40980000  1.0 -0.4792498785
O  O40  1  0.28110000  0.35800000  0.59020000  1.0 -0.4792498785
O  O41  1  0.30630000  0.34800000  0.12890000  1.0 -0.5371990639
O  O42  1  0.69370000  0.84800000  0.87110000  1.0 -0.5371990639
O  O43  1  0.29080000  0.69300000  0.25880000  1.0 -0.1809864442
O  O44  1  0.70920000  0.19300000  0.74120000  1.0 -0.1809864442
O  O45  1  0.30130000  0.18900000  0.29550000  1.0 -0.1976138564
O  O46  1  0.69870000  0.68900000  0.70450000  1.0 -0.1976138564
O  O47  1  0.26600000  0.44500000  0.24090000  1.0 -0.1809864442
O  O48  1  0.73400000  0.94500000  0.75910000  1.0 -0.1809864442
