# DDEC6 charges by PACMAN v1.1 (https://github.com/mtap-research/PACMAN-charge/)
data_WUYLOS_ion_pacman
_symmetry_space_group_name_H-M   'P 1'
_cell_length_a   17.24930000
_cell_length_b   17.24930000
_cell_length_c   8.68170000
_cell_angle_alpha   84.53120000
_cell_angle_beta   95.46880000
_cell_angle_gamma   130.13000000
_symmetry_Int_Tables_number   1
_chemical_formula_structural   CeH9C10N2ClO7
_chemical_formula_sum   'Ce4 H36 C40 N8 Cl4 O28'
_cell_volume   1964.08813495
_cell_formula_units_Z   4
loop_
 _symmetry_equiv_pos_site_id
 _symmetry_equiv_pos_as_xyz
  1  'x, y, z'
loop_
 _atom_site_type_symbol
 _atom_site_label
 _atom_site_symmetry_multiplicity
 _atom_site_fract_x
 _atom_site_fract_y
 _atom_site_fract_z
 _atom_site_occupancy
 _atom_site_charge
Ce  Ce1  1  0.76662000  0.11254000  0.22610000  1.0 1.9611014835
Ce  Ce2  1  0.11254000  0.76662000  0.27390000  1.0 1.9611014835
Ce  Ce3  1  0.23338000  0.88746000  0.77390000  1.0 1.9611014835
Ce  Ce4  1  0.88746000  0.23338000  0.72610000  1.0 1.9611014835
H  H1  1  0.56300000  0.86700000  0.22000000  1.0 0.4234152921
H  H2  1  0.86700000  0.56300000  0.28000000  1.0 0.4234152921
H  H3  1  0.43700000  0.13300000  0.78000000  1.0 0.4234152921
H  H4  1  0.13300000  0.43700000  0.72000000  1.0 0.4234152921
H  H5  1  0.64500000  0.89500000  0.35000000  1.0 0.3814048879
H  H6  1  0.89500000  0.64500000  0.15000000  1.0 0.3814048879
H  H7  1  0.35500000  0.10500000  0.65000000  1.0 0.3814048879
H  H8  1  0.10500000  0.35500000  0.85000000  1.0 0.3814048879
H  H9  1  0.53890000  0.15790000  0.56100000  1.0 0.1301104985
H  H10  1  0.15790000  0.53890000  0.93900000  1.0 0.1301104985
H  H11  1  0.46110000  0.84210000  0.43900000  1.0 0.1301104985
H  H12  1  0.84210000  0.46110000  0.06100000  1.0 0.1301104985
H  H13  1  0.38750000  0.07070000  0.40730000  1.0 0.1301104985
H  H14  1  0.07070000  0.38750000  0.09270000  1.0 0.1301104985
H  H15  1  0.61250000  0.92930000  0.59270000  1.0 0.1301104985
H  H16  1  0.92930000  0.61250000  0.90730000  1.0 0.1301104985
H  H17  1  0.51560000  0.01760000  0.11440000  1.0 0.1035058834
H  H18  1  0.01760000  0.51560000  0.38560000  1.0 0.1035058834
H  H19  1  0.48440000  0.98240000  0.88560000  1.0 0.1035058834
H  H20  1  0.98240000  0.48440000  0.61440000  1.0 0.1035058834
H  H21  1  0.83560000  0.90940000  0.40140000  1.0 0.1796906572
H  H22  1  0.90940000  0.83560000  0.09860000  1.0 0.1796906572
H  H23  1  0.16440000  0.09060000  0.59860000  1.0 0.1796906572
H  H24  1  0.09060000  0.16440000  0.90140000  1.0 0.1796906572
H  H25  1  0.08320000  0.15520000  0.60450000  1.0 0.2788781039
H  H26  1  0.15520000  0.08320000  0.89550000  1.0 0.2788781039
H  H27  1  0.91680000  0.84480000  0.39550000  1.0 0.2788781039
H  H28  1  0.84480000  0.91680000  0.10450000  1.0 0.2788781039
H  H29  1  0.15940000  0.08780000  0.59550000  1.0 0.1796906572
H  H30  1  0.08780000  0.15940000  0.90450000  1.0 0.1796906572
H  H31  1  0.84060000  0.91220000  0.40450000  1.0 0.1796906572
H  H32  1  0.91220000  0.84060000  0.09550000  1.0 0.1796906572
H  H33  1  0.91940000  0.84960000  0.39860000  1.0 0.2788781039
H  H34  1  0.84960000  0.91940000  0.10140000  1.0 0.2788781039
H  H35  1  0.08060000  0.15040000  0.60140000  1.0 0.2788781039
H  H36  1  0.15040000  0.08060000  0.89860000  1.0 0.2788781039
C  C1  1  0.70253000  0.17187000  0.52980000  1.0 0.5443908684
C  C2  1  0.17187000  0.70253000  0.97020000  1.0 0.5443908684
C  C3  1  0.29747000  0.82813000  0.47020000  1.0 0.5443908684
C  C4  1  0.82813000  0.29747000  0.02980000  1.0 0.5443908684
C  C5  1  0.60819000  0.12921000  0.42880000  1.0 0.1116791609
C  C6  1  0.12921000  0.60819000  0.07120000  1.0 0.1116791609
C  C7  1  0.39181000  0.87079000  0.57120000  1.0 0.1116791609
C  C8  1  0.87079000  0.39181000  0.92880000  1.0 0.1116791609
C  C9  1  0.53138000  0.12622000  0.47050000  1.0 -0.1444201457
C  C10  1  0.12622000  0.53138000  0.02950000  1.0 -0.1444201457
C  C11  1  0.46862000  0.87378000  0.52950000  1.0 -0.1444201457
C  C12  1  0.87378000  0.46862000  0.97050000  1.0 -0.145394776
C  C13  1  0.44270000  0.07610000  0.37840000  1.0 -0.0586999012
C  C14  1  0.07610000  0.44270000  0.12160000  1.0 -0.0586999012
C  C15  1  0.55730000  0.92390000  0.62160000  1.0 -0.0586999012
C  C16  1  0.92390000  0.55730000  0.87840000  1.0 -0.0586999012
C  C17  1  0.43547000  0.03453000  0.24430000  1.0 -0.0739672668
C  C18  1  0.03453000  0.43547000  0.25570000  1.0 -0.0739672668
C  C19  1  0.56453000  0.96547000  0.75570000  1.0 -0.0739672668
C  C20  1  0.96547000  0.56453000  0.74430000  1.0 -0.0739672668
C  C21  1  0.51920000  0.04420000  0.20800000  1.0 0.0895828605
C  C22  1  0.04420000  0.51920000  0.29200000  1.0 0.0895828605
C  C23  1  0.48080000  0.95580000  0.79200000  1.0 0.0895828605
C  C24  1  0.95580000  0.48080000  0.70800000  1.0 0.0895828605
C  C25  1  0.34192000  0.97688000  0.14220000  1.0 0.6122461073
C  C26  1  0.97688000  0.34192000  0.35780000  1.0 0.6122461073
C  C27  1  0.65808000  0.02312000  0.85780000  1.0 0.6122461073
C  C28  1  0.02312000  0.65808000  0.64220000  1.0 0.6122461073
C  C29  1  0.89620000  0.07880000  0.51290000  1.0 0.5642830841
C  C30  1  0.07880000  0.89620000  0.98710000  1.0 0.5642830841
C  C31  1  0.10380000  0.92120000  0.48710000  1.0 0.5642830841
C  C32  1  0.92120000  0.10380000  0.01290000  1.0 0.5642830841
C  C33  1  0.95040000  0.03780000  0.50660000  1.0 -0.0586999012
C  C34  1  0.03780000  0.95040000  0.99340000  1.0 -0.0586999012
C  C35  1  0.04960000  0.96220000  0.49340000  1.0 -0.0586999012
C  C36  1  0.96220000  0.04960000  0.00660000  1.0 -0.0586999012
C  C37  1  0.90330000  0.94670000  0.44290000  1.0 -0.1604984627
C  C38  1  0.94670000  0.90330000  0.05710000  1.0 -0.1604984627
C  C39  1  0.09670000  0.05330000  0.55710000  1.0 -0.1604984627
C  C40  1  0.05330000  0.09670000  0.94290000  1.0 -0.1604984627
N  N1  1  0.60259000  0.08881000  0.29810000  1.0 -0.3337071724
N  N2  1  0.08881000  0.60259000  0.20190000  1.0 -0.3337071724
N  N3  1  0.39741000  0.91119000  0.70190000  1.0 -0.3337071724
N  N4  1  0.91119000  0.39741000  0.79810000  1.0 -0.3337071724
N  N5  1  0.04840000  0.09100000  0.56200000  1.0 -0.2196173333
N  N6  1  0.09100000  0.04840000  0.93800000  1.0 -0.2196173333
N  N7  1  0.95160000  0.90900000  0.43800000  1.0 -0.2196173333
N  N8  1  0.90900000  0.95160000  0.06200000  1.0 -0.2196173333
Cl  Cl1  1  0.13829000  0.25951000  0.75190000  1.0 -0.457463
Cl  Cl2  1  0.25951000  0.13829000  0.74810000  1.0 -0.457463
Cl  Cl3  1  0.86171000  0.74049000  0.24810000  1.0 -0.457463
Cl  Cl4  1  0.74049000  0.86171000  0.25190000  1.0 -0.457463
O  O1  1  0.62758000  0.91962000  0.26330000  1.0 -0.7842894681
O  O2  1  0.91962000  0.62758000  0.23670000  1.0 -0.7842894681
O  O3  1  0.37242000  0.08038000  0.73670000  1.0 -0.7842894681
O  O4  1  0.08038000  0.37242000  0.76330000  1.0 -0.7842894681
O  O5  1  0.76346000  0.16234000  0.48380000  1.0 -0.6566769518
O  O6  1  0.16234000  0.76346000  0.01620000  1.0 -0.6566769518
O  O7  1  0.23654000  0.83766000  0.51620000  1.0 -0.6566769518
O  O8  1  0.83766000  0.23654000  0.98380000  1.0 -0.6566769518
O  O9  1  0.71741000  0.21119000  0.65400000  1.0 -0.5476028211
O  O10  1  0.21119000  0.71741000  0.84600000  1.0 -0.5476028211
O  O11  1  0.28259000  0.78881000  0.34600000  1.0 -0.5476028211
O  O12  1  0.78881000  0.28259000  0.15400000  1.0 -0.5476028211
O  O13  1  0.34982000  0.96318000  0.00600000  1.0 -0.632502351
O  O14  1  0.96318000  0.34982000  0.49400000  1.0 -0.632502351
O  O15  1  0.65018000  0.03682000  0.99400000  1.0 -0.632502351
O  O16  1  0.03682000  0.65018000  0.50600000  1.0 -0.632502351
O  O17  1  0.26016000  0.94284000  0.20020000  1.0 -0.6368624456
O  O18  1  0.94284000  0.26016000  0.29980000  1.0 -0.6368624456
O  O19  1  0.73984000  0.05716000  0.79980000  1.0 -0.6368624456
O  O20  1  0.05716000  0.73984000  0.70020000  1.0 -0.6368624456
O  O21  1  0.81702000  0.04018000  0.42890000  1.0 -0.6018586345
O  O22  1  0.04018000  0.81702000  0.07110000  1.0 -0.6018586345
O  O23  1  0.18298000  0.95982000  0.57110000  1.0 -0.6018586345
O  O24  1  0.95982000  0.18298000  0.92890000  1.0 -0.6018586345
O  O25  1  0.93547000  0.14913000  0.60180000  1.0 -0.6018586345
O  O26  1  0.14913000  0.93547000  0.89820000  1.0 -0.6018586345
O  O27  1  0.06453000  0.85087000  0.39820000  1.0 -0.6018586345
O  O28  1  0.85087000  0.06453000  0.10180000  1.0 -0.6018586345
